data_PCOD9389920
_publ_section_title
;
Structure prediction by ZEFSAII (Michael W. Deem and Ramdas Pophale) SiO2 
 PCOD9389920
Probable space group: P N N N
;
_chemical_formula_sum "Si O2"
_cell_formula_units_Z 54
_cell_length_a 21.148106
_cell_length_b 12.744057
_cell_length_c 10.973071
_cell_angle_alpha 90.000000
_cell_angle_beta 90.000000
_cell_angle_gamma 90.000000
_cell_volume 2957.381645
_symmetry_space_group_name_H-M "P N N N"
_symmetry_group_IT_number 48
_space_group.IT_coordinate_system_code '2'
_symmetry_cell_setting 'orthorhombic'
loop_
_space_group_symop_operation_xyz
x,y,z
1/2-x,1/2-y,z
x,1/2-y,1/2-z
1/2-x,y,1/2-z
-x,-y,-z
1/2+x,1/2+y,-z
-x,1/2+y,1/2+z
1/2+x,-y,1/2+z
loop_
_atom_site_type_symbol
_atom_site_label
_atom_site_fract_x
_atom_site_fract_y
_atom_site_fract_z
Si Si1 0.890185 0.231032 0.395361
Si Si2 0.750000 0.250000 0.750000
Si Si3 0.179336 0.451959 0.469960
Si Si4 0.003270 0.365850 0.189886
Si Si5 0.558492 0.041782 0.421506
Si Si6 0.750000 0.750000 0.572928
Si Si7 0.706256 0.397623 0.544667
Si Si8 0.350744 0.089207 0.182652
O O1 0.880734 0.250000 0.250000
O O2 0.912355 0.342365 0.451304
O O3 0.828798 0.173352 0.446051
O O4 0.950567 0.153556 0.412691
O O5 0.710946 0.323989 0.662093
O O6 0.117040 0.466032 0.550415
O O7 0.214981 0.343233 0.498716
O O8 0.225757 0.551812 0.488064
O O9 0.162881 0.442344 0.324309
O O10 0.008506 0.250000 0.250000
O O11 0.075151 0.392355 0.163872
O O12 0.970513 0.443654 0.286811
O O13 0.500000 0.000000 0.500000
O O14 0.695518 0.685826 0.646791
O O15 0.667754 0.497496 0.590538
#
# Coordination Sequence:
#
# PCOD9389920 Si02
#       8
#     8   2   8   8   8   4   8   8
#     4   9  22  40  56  84 112 156 200 234 286 345
#     4  12  20  36  50  78 116 152 172 252 296 358
#     4  11  19  34  53  89 111 151 190 239 294 348
#     4   9  19  35  55  80 115 156 193 238 274 343
#     4  10  19  33  57  81 109 147 199 235 279 342
#     4  10  21  30  54  84 119 148 185 238 292 341
#     4  11  22  35  55  83 121 148 190 240 307 344
#     4  11  19  33  54  86 119 149 186 239 297 350
#
# _framework density 18.259395999999999
#
# number of rings (size 3 to 8) (size 9 to 14) (size 15 to 20)
#    0.000    2.074    2.963    4.000    2.074    0.593 
#    0.000    9.259    0.000    0.000    3.852   16.593 
#    0.000    0.000    0.000    0.000    0.000    0.000 
#
# Total GULP energy -300618.807500 kJ/mol
# GULP energy per Si atom -5567.014954 kJ/mol
# Density = 1.821784 g / cm^3
# Si number density = 18.259396 Si / 1000 Ang^3
#
#
#
# Elastic Constant Matrix: (Units=GPa)
#
#
# Indices 1 2 3 4 5 6 
#
# 1 157.1032 58.2137 36.4098 0.0000 0.0000 0.0000
# 2 58.2137 103.4679 31.9439 0.0000 0.0000 0.0000
# 3 36.4098 31.9439 33.5111 0.0000 0.0000 0.0000
# 4 0.0000 0.0000 0.0000 9.1616 0.0000 0.0000
# 5 0.0000 0.0000 0.0000 0.0000 31.4379 0.0000
# 6 0.0000 0.0000 0.0000 0.0000 0.0000 26.9702
#
#
#
# Elastic Compliance Matrix: (Units=1/GPa)
#
#
# Indices 1 2 3 4 5 6 
#
# 1 0.009093 -0.002927 -0.007089 0.000000 0.000000 0.000000
# 2 -0.002927 0.014638 -0.010773 0.000000 0.000000 0.000000
# 3 -0.007089 -0.010773 0.047812 0.000000 0.000000 0.000000
# 4 0.000000 0.000000 0.000000 0.109151 0.000000 0.000000
# 5 0.000000 0.000000 0.000000 0.000000 0.031809 0.000000
# 6 0.000000 0.000000 0.000000 0.000000 0.000000 0.037078
#
#
# Mechanical properties :
#
#
# Convention : Reuss Voigt Hill
#
# Bulk Modulus (GPa) = 33.37272 60.80188 47.08730
# Shear Modulus (GPa) = 16.60322 24.68159 20.64240
#
# Velocity S-wave (km/s) = 3.01873 3.68056 3.36595
# Velocity P-wave (km/s) = 5.51969 7.17170 6.39923
#
# Compressibility (1/GPa) = 0.02996459
#
# Stress axis : x y z
#
# Youngs Moduli (GPa) = 109.97648 68.31697 20.91529
#
# Poissons Ratio (x) = 0.19998 0.14827
# Poissons Ratio (y) = 0.32193 0.22531
# Poissons Ratio (z) = 0.77962 0.73595
#
# Static dielectric constant tensor:
#      x y z
#    x 1.694800 0.000000 0.000000 
#    y 0.000000 1.637980 0.000000 
#    z 0.000000 0.000000 1.618640 
# 
# From -- ./inp_files/22902.got.cif
#   From: 2010.05.17/outbox.cif.g08.bks.cpg/sg48_12_cif.got.tgz:22902.got - 2010.06.03 20:39:00.
