data_PCOD9389976
_publ_section_title
;
Structure prediction by ZEFSAII (Michael W. Deem and Ramdas Pophale) SiO2 
 PCOD9389976
Probable space group: P N N N
;
_chemical_formula_sum "Si O2"
_cell_formula_units_Z 48
_cell_length_a 13.387512
_cell_length_b 6.026657
_cell_length_c 30.806070
_cell_angle_alpha 90.000000
_cell_angle_beta 90.000000
_cell_angle_gamma 90.000000
_cell_volume 2485.493581
_symmetry_space_group_name_H-M "P N N N"
_symmetry_group_IT_number 48
_space_group.IT_coordinate_system_code '2'
_symmetry_cell_setting 'orthorhombic'
loop_
_space_group_symop_operation_xyz
x,y,z
1/2-x,1/2-y,z
x,1/2-y,1/2-z
1/2-x,y,1/2-z
-x,-y,-z
1/2+x,1/2+y,-z
-x,1/2+y,1/2+z
1/2+x,-y,1/2+z
loop_
_atom_site_type_symbol
_atom_site_label
_atom_site_fract_x
_atom_site_fract_y
_atom_site_fract_z
Si Si1 0.635000 0.693320 0.442605
Si Si2 0.142079 0.693206 0.119100
Si Si3 0.147764 0.390547 0.036776
Si Si4 0.000872 0.432866 0.414656
Si Si5 0.449236 0.553767 0.641072
Si Si6 0.633973 0.999985 0.235199
O O1 0.750000 0.750000 0.437183
O O2 0.624414 0.554071 0.486883
O O3 0.571172 0.918813 0.444080
O O4 0.594991 0.576293 0.399920
O O5 0.250000 0.750000 0.138816
O O6 0.159616 0.583959 0.071654
O O7 0.082304 0.915550 0.109040
O O8 0.065020 0.530524 0.144381
O O9 0.250000 0.250000 0.036293
O O10 0.059380 0.240920 0.055830
O O11 0.945486 0.305924 0.375602
O O12 0.387083 0.506527 0.683879
O O13 0.594836 0.250000 0.250000
O O14 0.750000 0.000566 0.250000
O O15 0.595762 0.750000 0.250000
#
# Coordination Sequence:
#
# PCOD9389976 Si02
#       6
#     8   8   8   8   8   8
#     4  10  23  35  53  83 130 167 212 268 311 383
#     4  10  20  37  63  86 123 163 216 266 313 384
#     4  10  19  35  54  86 118 174 222 254 317 369
#     4  10  21  36  58  82 124 161 216 265 314 378
#     4  10  24  39  61  96 119 160 217 261 334 387
#     4  10  24  43  72  98 129 170 206 265 325 416
#
# _framework density 19.312059999999999
#
# number of rings (size 3 to 8) (size 9 to 14) (size 15 to 20)
#    0.000    2.000    1.667    0.500    7.000    9.333 
#    0.000    0.000    0.000    0.500    0.000    0.000 
#    0.000    0.000    0.000    0.000    0.000    0.000 
#
# Total GULP energy -267476.714143 kJ/mol
# GULP energy per Si atom -5572.431545 kJ/mol
# Density = 1.926811 g / cm^3
# Si number density = 19.312060 Si / 1000 Ang^3
#
#
#
# Elastic Constant Matrix: (Units=GPa)
#
#
# Indices 1 2 3 4 5 6 
#
# 1 80.6290 2.3411 15.9566 0.0000 0.0000 0.0000
# 2 2.3411 78.4777 24.1503 0.0000 0.0000 0.0000
# 3 15.9566 24.1503 110.2975 0.0000 0.0000 0.0000
# 4 0.0000 0.0000 0.0000 19.5556 0.0000 0.0000
# 5 0.0000 0.0000 0.0000 0.0000 31.6822 0.0000
# 6 0.0000 0.0000 0.0000 0.0000 0.0000 14.3410
#
#
#
# Elastic Compliance Matrix: (Units=1/GPa)
#
#
# Indices 1 2 3 4 5 6 
#
# 1 0.012771 0.000201 -0.001892 0.000000 0.000000 0.000000
# 2 0.000201 0.013666 -0.003021 0.000000 0.000000 0.000000
# 3 -0.001892 -0.003021 0.010002 0.000000 0.000000 0.000000
# 4 0.000000 0.000000 0.000000 0.051136 0.000000 0.000000
# 5 0.000000 0.000000 0.000000 0.000000 0.031563 0.000000
# 6 0.000000 0.000000 0.000000 0.000000 0.000000 0.069730
#
#
# Mechanical properties :
#
#
# Convention : Reuss Voigt Hill
#
# Bulk Modulus (GPa) = 37.01631 39.36668 38.19149
# Shear Modulus (GPa) = 24.11992 28.24618 26.18305
#
# Velocity S-wave (km/s) = 3.53789 3.82857 3.68610
# Velocity P-wave (km/s) = 5.99149 6.32239 6.15917
#
# Compressibility (1/GPa) = 0.02701512
#
# Stress axis : x y z
#
# Youngs Moduli (GPa) = 78.30242 73.17286 99.98396
#
# Poissons Ratio (x) = -0.01472 0.18913
# Poissons Ratio (y) = -0.01575 0.30209
# Poissons Ratio (z) = 0.14812 0.22109
#
# Static dielectric constant tensor:
#      x y z
#    x 1.689400 0.000000 0.000000 
#    y 0.000000 1.767960 0.000000 
#    z 0.000000 0.000000 1.651740 
# 
# From -- ./inp_files/3519.got.cif
#   From: 2010.05.17/outbox.cif.g08.bks.cpg/sg48_2_cif.got.tgz:3519.got - 2010.06.03 20:39:00.
