data_PCOD9389181
_publ_section_title
;
Structure prediction by ZEFSAII (Michael W. Deem and Ramdas Pophale) SiO2 
 PCOD9389181
Probable space group: P M M M
;
_chemical_formula_sum "Si O2"
_cell_formula_units_Z 52
_cell_length_a 29.233570
_cell_length_b 14.162807
_cell_length_c 7.823848
_cell_angle_alpha 90.000000
_cell_angle_beta 90.000000
_cell_angle_gamma 90.000000
_cell_volume 3239.303170
_symmetry_space_group_name_H-M "P M M M"
_symmetry_group_IT_number 47
_symmetry_cell_setting 'orthorhombic'
loop_
_space_group_symop_operation_xyz
x,y,z
-x,-y,z
x,-y,-z
-x,y,-z
-x,-y,-z
x,y,-z
-x,y,z
x,-y,z
loop_
_atom_site_type_symbol
_atom_site_label
_atom_site_fract_x
_atom_site_fract_y
_atom_site_fract_z
Si Si1 0.904223 0.104458 0.704584
Si Si2 0.447395 0.884700 0.000000
Si Si3 0.281990 0.109715 0.207041
Si Si4 0.616605 0.114829 0.309848
Si Si5 0.856251 0.604113 0.795968
Si Si6 0.188600 0.204023 0.792887
Si Si7 0.948826 0.297986 0.292777
O O1 0.910442 0.101443 0.500000
O O2 0.851704 0.132597 0.740277
O O3 0.934362 0.192689 0.767609
O O4 0.914668 0.000000 0.772925
O O5 0.418806 0.853953 0.834235
O O6 0.500000 0.853946 0.000000
O O7 0.447738 0.000000 0.000000
O O8 0.331153 0.143748 0.272816
O O9 0.238177 0.169095 0.264697
O O10 0.275887 0.000000 0.258145
O O11 0.283831 0.111562 0.000000
O O12 0.602863 0.143189 0.500000
O O13 0.617327 0.000000 0.302800
O O14 0.846196 0.500000 0.726116
O O15 0.826466 0.692267 0.729583
O O16 0.909013 0.631900 0.764975
O O17 0.849161 0.601323 0.000000
O O18 0.189027 0.205552 0.000000
O O19 0.948322 0.297373 0.500000
O O20 0.000000 0.321811 0.236231
#
# Coordination Sequence:
#
# PCOD9389181 Si02
#       7
#     8   4   8   8   8   8   8
#     4   9  17  28  41  58  81 104 126 158 197 239
#     4   9  16  26  38  52  76 110 149 193 228 253
#     4   9  15  24  38  55  78 105 133 169 209 248
#     4   9  16  25  37  54  77 107 144 184 223 258
#     4   9  18  32  47  62  81 103 129 164 203 244
#     4   9  17  28  43  61  79 104 135 163 198 245
#     4   9  18  31  45  61  79 100 129 162 197 242
#
# _framework density 16.052835999999999
#
# number of rings (size 3 to 8) (size 9 to 14) (size 15 to 20)
#    0.000    3.000    0.769    0.462    0.000    3.077 
#    0.000    6.154    0.000    0.000    0.000    4.308 
#    0.000    0.000    0.000    0.000    0.000    1.538 
#
# Total GULP energy -289745.583195 kJ/mol
# GULP energy per Si atom -5572.030446 kJ/mol
# Density = 1.601630 g / cm^3
# Si number density = 16.052836 Si / 1000 Ang^3
#
#
#
# Elastic Constant Matrix: (Units=GPa)
#
#
# Indices 1 2 3 4 5 6 
#
# 1 97.3939 11.8002 23.4252 0.0000 0.0000 0.0000
# 2 11.8002 56.7410 4.8502 0.0000 0.0000 0.0000
# 3 23.4252 4.8502 39.4264 0.0000 0.0000 0.0000
# 4 0.0000 0.0000 0.0000 9.2337 0.0000 0.0000
# 5 0.0000 0.0000 0.0000 0.0000 -31.1704 0.0000
# 6 0.0000 0.0000 0.0000 0.0000 0.0000 7.7032
#
#
#
# Elastic Compliance Matrix: (Units=1/GPa)
#
#
# Indices 1 2 3 4 5 6 
#
# 1 0.012186 -0.001936 -0.007002 0.000000 0.000000 0.000000
# 2 -0.001936 0.018119 -0.001079 0.000000 0.000000 0.000000
# 3 -0.007002 -0.001079 0.029657 0.000000 0.000000 0.000000
# 4 0.000000 0.000000 0.000000 0.108299 0.000000 0.000000
# 5 0.000000 0.000000 0.000000 0.000000 -0.032082 0.000000
# 6 0.000000 0.000000 0.000000 0.000000 0.000000 0.129816
#
#
# Mechanical properties :
#
#
# Convention : Reuss Voigt Hill
#
# Bulk Modulus (GPa) = 25.04506 30.41250 27.72878
# Shear Modulus (GPa) = 16.70350 7.38568 12.04459
#
# Velocity S-wave (km/s) = 3.22923 2.14729 2.74215
# Velocity P-wave (km/s) = 5.43502 5.01340 5.22846
#
# Compressibility (1/GPa) = 0.03992803
#
# Stress axis : x y z
#
# Youngs Moduli (GPa) = 82.05912 55.19150 33.71902
#
# Poissons Ratio (x) = 0.10684 0.23611
# Poissons Ratio (y) = 0.15885 0.03638
# Poissons Ratio (z) = 0.57461 0.05954
#
# Static dielectric constant tensor:
#      x y z
#    x 1.522600 0.000000 0.000000 
#    y 0.000000 1.536520 0.000000 
#    z 0.000000 0.000000 1.585260 
# 
# From -- ./inp_files/13392.got.cif
#   From: 2010.05.17/outbox.cif.g08.bks.cpg/sg47_7_cif.got.tgz:13392.got - 2010.06.03 20:15:42.
