data_PCOD9389209
_publ_section_title
;
Structure prediction by ZEFSAII (Michael W. Deem and Ramdas Pophale) SiO2 
 PCOD9389209
Probable space group: P M M M
;
_chemical_formula_sum "Si O2"
_cell_formula_units_Z 32
_cell_length_a 9.645442
_cell_length_b 23.344226
_cell_length_c 7.566462
_cell_angle_alpha 90.000000
_cell_angle_beta 90.000000
_cell_angle_gamma 90.000000
_cell_volume 1703.705276
_symmetry_space_group_name_H-M "P M M M"
_symmetry_group_IT_number 47
_symmetry_cell_setting 'orthorhombic'
loop_
_space_group_symop_operation_xyz
x,y,z
-x,-y,z
x,-y,-z
-x,y,-z
-x,-y,-z
x,y,-z
-x,y,z
x,-y,z
loop_
_atom_site_type_symbol
_atom_site_label
_atom_site_fract_x
_atom_site_fract_y
_atom_site_fract_z
Si Si1 0.342184 0.106299 0.210866
Si Si2 0.165372 0.343937 0.708869
Si Si3 0.658129 0.234763 0.287862
Si Si4 0.159141 0.000000 0.216889
Si Si5 0.831617 0.565110 0.000000
O O1 0.500000 0.101640 0.281444
O O2 0.291693 0.170937 0.243104
O O3 0.241900 0.056480 0.276411
O O4 0.350946 0.098876 0.000000
O O5 0.192120 0.353436 0.500000
O O6 0.245698 0.287003 0.769969
O O7 0.207755 0.397917 0.827996
O O8 0.000000 0.335437 0.729648
O O9 0.653259 0.237901 0.500000
O O10 0.500000 0.240227 0.220518
O O11 0.000000 0.000000 0.273873
O O12 0.158389 0.000000 0.000000
O O13 0.779810 0.500000 0.000000
O O14 0.000000 0.562431 0.000000
#
# Coordination Sequence:
#
# PCOD9389209 Si02
#       5
#     8   8   8   4   4
#     4   9  17  29  46  66  88 119 158 197 238 288
#     4   9  18  32  50  73 101 132 165 204 249 292
#     4   9  18  32  49  70  96 126 160 199 244 293
#     4   9  17  29  44  65  92 120 154 197 244 290
#     4   9  18  32  51  77 105 132 167 206 241 287
#
# _framework density 18.782592000000001
#
# number of rings (size 3 to 8) (size 9 to 14) (size 15 to 20)
#    0.000    3.000    0.000    0.375    1.750    3.000 
#    0.000    3.125    0.000    5.250    0.000    3.500 
#    0.000    0.000    0.000    0.000    0.000    0.000 
#
# Total GULP energy -178408.933212 kJ/mol
# GULP energy per Si atom -5575.279163 kJ/mol
# Density = 1.873984 g / cm^3
# Si number density = 18.782592 Si / 1000 Ang^3
#
#
#
# Elastic Constant Matrix: (Units=GPa)
#
#
# Indices 1 2 3 4 5 6 
#
# 1 58.6745 88.7679 27.7007 0.0000 0.0000 0.0000
# 2 88.7679 222.0453 47.3382 0.0000 0.0000 0.0000
# 3 27.7007 47.3382 58.9398 0.0000 0.0000 0.0000
# 4 0.0000 0.0000 0.0000 57.1951 0.0000 0.0000
# 5 0.0000 0.0000 0.0000 0.0000 7.3541 0.0000
# 6 0.0000 0.0000 0.0000 0.0000 0.0000 64.6189
#
#
#
# Elastic Compliance Matrix: (Units=1/GPa)
#
#
# Indices 1 2 3 4 5 6 
#
# 1 0.046273 -0.016727 -0.008314 0.000000 0.000000 0.000000
# 2 -0.016727 0.011480 -0.001359 0.000000 0.000000 0.000000
# 3 -0.008314 -0.001359 0.021965 0.000000 0.000000 0.000000
# 4 0.000000 0.000000 0.000000 0.017484 0.000000 0.000000
# 5 0.000000 0.000000 0.000000 0.000000 0.135979 0.000000
# 6 0.000000 0.000000 0.000000 0.000000 0.000000 0.015475
#
#
# Mechanical properties :
#
#
# Convention : Reuss Voigt Hill
#
# Bulk Modulus (GPa) = 37.14677 74.14144 55.64410
# Shear Modulus (GPa) = 16.10671 37.55715 26.83193
#
# Velocity S-wave (km/s) = 2.93154 4.47651 3.78372
# Velocity P-wave (km/s) = 5.59274 8.14113 6.98415
#
# Compressibility (1/GPa) = 0.02692024
#
# Stress axis : x y z
#
# Youngs Moduli (GPa) = 21.61066 87.10656 45.52601
#
# Poissons Ratio (x) = 1.45699 0.37849
# Poissons Ratio (y) = 0.36147 0.06188
# Poissons Ratio (z) = 0.17966 0.11840
#
# Static dielectric constant tensor:
#      x y z
#    x 1.642410 0.000000 0.000000 
#    y 0.000000 1.629210 0.000000 
#    z 0.000000 0.000000 1.687650 
# 
# From -- ./inp_files/1299.got.cif
#   From: 2010.05.17/outbox.cif.g08.bks.cpg/sg47_1_cif.got.tgz:1299.got - 2010.06.03 20:15:42.
