data_PCOD9389802
_publ_section_title
;
Structure prediction by ZEFSAII (Michael W. Deem and Ramdas Pophale) SiO2 
 PCOD9389802
Probable space group: P N N N
;
_chemical_formula_sum "Si O2"
_cell_formula_units_Z 48
_cell_length_a 5.107882
_cell_length_b 26.648718
_cell_length_c 15.186339
_cell_angle_alpha 90.000000
_cell_angle_beta 90.000000
_cell_angle_gamma 90.000000
_cell_volume 2067.141791
_symmetry_space_group_name_H-M "P N N N"
_symmetry_group_IT_number 48
_space_group.IT_coordinate_system_code '2'
_symmetry_cell_setting 'orthorhombic'
loop_
_space_group_symop_operation_xyz
x,y,z
1/2-x,1/2-y,z
x,1/2-y,1/2-z
1/2-x,y,1/2-z
-x,-y,-z
1/2+x,1/2+y,-z
-x,1/2+y,1/2+z
1/2+x,-y,1/2+z
loop_
_atom_site_type_symbol
_atom_site_label
_atom_site_fract_x
_atom_site_fract_y
_atom_site_fract_z
Si Si1 0.750000 0.981345 0.750000
Si Si2 0.782377 0.323393 0.934577
Si Si3 0.250000 0.912965 0.750000
Si Si4 0.240020 0.122062 0.981944
Si Si5 0.750000 0.250000 0.080439
Si Si6 0.949893 0.563591 0.328151
Si Si7 0.250000 0.841993 0.250000
Si Si8 0.417934 0.162720 0.339231
O O1 0.502418 0.946484 0.770193
O O2 0.667134 0.020263 0.673616
O O3 0.479887 0.335822 0.954054
O O4 0.829136 0.309045 0.833595
O O5 0.967847 0.371132 0.946126
O O6 0.887672 0.286665 0.009983
O O7 0.337685 0.874655 0.674476
O O8 0.144569 0.073644 0.927264
O O9 0.239911 0.132597 0.085651
O O10 0.545912 0.283704 0.134770
O O11 0.750000 0.548004 0.250000
O O12 0.046196 0.617856 0.291158
O O13 0.250000 0.167315 0.250000
#
# Coordination Sequence:
#
# PCOD9389802 Si02
#       8
#     4   8   4   8   4   8   4   8
#     4  11  24  42  74 106 140 180 232 292 356 439
#     4  10  21  39  62 101 148 176 228 289 333 423
#     4  12  26  49  68  98 138 190 238 303 372 416
#     4  10  23  41  67 104 140 180 230 284 351 414
#     4  10  26  48  68 106 130 180 254 305 345 412
#     4  10  18  38  73 107 142 183 225 269 343 453
#     4   9  18  33  66 103 144 197 212 255 360 411
#     4  11  27  51  74  96 142 190 247 310 367 422
#
# _framework density 23.220468
#
# number of rings (size 3 to 8) (size 9 to 14) (size 15 to 20)
#    0.000    1.667    3.333    0.000    4.667    3.333 
#    4.500    1.667    0.000    4.000    0.000    0.000 
#    0.000    0.000    0.000    0.000    0.000    0.000 
#
# Total GULP energy -267395.185488 kJ/mol
# GULP energy per Si atom -5570.733031 kJ/mol
# Density = 2.316762 g / cm^3
# Si number density = 23.220468 Si / 1000 Ang^3
#
#
#
# Elastic Constant Matrix: (Units=GPa)
#
#
# Indices 1 2 3 4 5 6 
#
# 1 97.1108 34.5391 45.2626 0.0000 0.0000 0.0000
# 2 34.5391 101.7115 38.3505 0.0000 0.0000 0.0000
# 3 45.2626 38.3505 166.5006 0.0000 0.0000 0.0000
# 4 0.0000 0.0000 0.0000 17.4667 0.0000 0.0000
# 5 0.0000 0.0000 0.0000 0.0000 26.3601 0.0000
# 6 0.0000 0.0000 0.0000 0.0000 0.0000 33.3689
#
#
#
# Elastic Compliance Matrix: (Units=1/GPa)
#
#
# Indices 1 2 3 4 5 6 
#
# 1 0.012731 -0.003305 -0.002700 0.000000 0.000000 0.000000
# 2 -0.003305 0.011625 -0.001779 0.000000 0.000000 0.000000
# 3 -0.002700 -0.001779 0.007150 0.000000 0.000000 0.000000
# 4 0.000000 0.000000 0.000000 0.057252 0.000000 0.000000
# 5 0.000000 0.000000 0.000000 0.000000 0.037936 0.000000
# 6 0.000000 0.000000 0.000000 0.000000 0.000000 0.029968
#
#
# Mechanical properties :
#
#
# Convention : Reuss Voigt Hill
#
# Bulk Modulus (GPa) = 62.74384 66.84750 64.79567
# Shear Modulus (GPa) = 28.16221 31.91720 30.03970
#
# Velocity S-wave (km/s) = 3.48633 3.71149 3.60067
# Velocity P-wave (km/s) = 6.57918 6.87150 6.72693
#
# Compressibility (1/GPa) = 0.01593782
#
# Stress axis : x y z
#
# Youngs Moduli (GPa) = 78.54579 86.02173 139.86709
#
# Poissons Ratio (x) = 0.28434 0.37759
# Poissons Ratio (y) = 0.25963 0.24883
# Poissons Ratio (z) = 0.21205 0.15304
#
# Static dielectric constant tensor:
#      x y z
#    x 1.899460 0.000000 0.000000 
#    y 0.000000 1.949630 0.000000 
#    z 0.000000 0.000000 1.997120 
# 
# From -- ./inp_files/24478.got.cif
#   From: 2010.05.17/outbox.cif.g08.bks.cpg/sg48_13_cif.got.tgz:24478.got - 2010.06.03 20:39:00.
