data_PCOD9389416
_publ_section_title
;
Structure prediction by ZEFSAII (Michael W. Deem and Ramdas Pophale) SiO2 
 PCOD9389416
Probable space group: P M M M
;
_chemical_formula_sum "Si O2"
_cell_formula_units_Z 40
_cell_length_a 21.000000
_cell_length_b 12.000000
_cell_length_c 9.000000
_cell_angle_alpha 90.000000
_cell_angle_beta 90.000000
_cell_angle_gamma 90.000000
_cell_volume 2268.000000
_symmetry_space_group_name_H-M "P M M M"
_symmetry_group_IT_number 47
_symmetry_cell_setting 'orthorhombic'
loop_
_space_group_symop_operation_xyz
x,y,z
-x,-y,z
x,-y,-z
-x,y,-z
-x,-y,-z
x,y,-z
-x,y,z
x,-y,z
loop_
_atom_site_type_symbol
_atom_site_label
_atom_site_fract_x
_atom_site_fract_y
_atom_site_fract_z
Si Si1 0.303190 0.130894 0.821831
Si Si2 0.594076 0.500000 0.675438
Si Si3 0.254919 0.500000 0.323749
Si Si4 0.193170 0.729164 0.679162
Si Si5 0.569666 0.735892 0.178882
Si Si6 0.925397 0.629833 0.821700
O O1 0.239639 0.176612 0.743301
O O2 0.367290 0.196641 0.772749
O O3 0.311393 0.000000 0.793310
O O4 0.296698 0.146727 0.000000
O O5 0.579479 0.500000 0.500000
O O6 0.670073 0.500000 0.695520
O O7 0.570941 0.386806 0.750872
O O8 0.241665 0.500000 0.500000
O O9 0.225533 0.386379 0.265395
O O10 0.192939 0.734592 0.500000
O O11 0.121774 0.715253 0.740770
O O12 0.500000 0.787196 0.214977
O O13 0.573074 0.726757 0.000000
O O14 0.912349 0.500000 0.777389
O O15 0.000000 0.650611 0.790409
O O16 0.916586 0.636447 0.000000
#
# Coordination Sequence:
#
# PCOD9389416 Si02
#       6
#     8   4   4   8   8   8
#     4  10  22  39  57  77 101 136 184 230 274 323
#     4  11  20  34  53  77 111 143 173 211 262 326
#     4   9  18  30  47  76 108 138 171 213 260 311
#     4  11  20  34  55  80 111 143 179 221 267 316
#     4  10  21  36  54  78 107 138 175 221 271 323
#     4   9  18  32  51  80 117 151 180 211 254 312
#
# _framework density 17.636683999999999
#
# number of rings (size 3 to 8) (size 9 to 14) (size 15 to 20)
#    0.000    2.000    3.000    1.800    0.000    2.800 
#    0.000    3.000    0.000    0.600    0.000    7.000 
#    0.000    0.000    0.000    0.000    0.000    0.000 
#
# Total GULP energy -223044.532200 kJ/mol
# GULP energy per Si atom -5576.113305 kJ/mol
# Density = 1.759654 g / cm^3
# Si number density = 17.636684 Si / 1000 Ang^3
#
#
#
# Elastic Constant Matrix: (Units=GPa)
#
#
# Indices 1 2 3 4 5 6 
#
# 1 126.5385 67.3945 48.2699 0.0000 0.0000 0.0000
# 2 67.3945 80.3786 30.9944 0.0000 0.0000 0.0000
# 3 48.2699 30.9944 34.8387 0.0000 0.0000 0.0000
# 4 0.0000 0.0000 0.0000 18.2504 0.0000 0.0000
# 5 0.0000 0.0000 0.0000 0.0000 20.0791 0.0000
# 6 0.0000 0.0000 0.0000 0.0000 0.0000 -2.2112
#
#
#
# Elastic Compliance Matrix: (Units=1/GPa)
#
#
# Indices 1 2 3 4 5 6 
#
# 1 0.020688 -0.009580 -0.020141 0.000000 0.000000 0.000000
# 2 -0.009580 0.023374 -0.007522 0.000000 0.000000 0.000000
# 3 -0.020141 -0.007522 0.063302 0.000000 0.000000 0.000000
# 4 0.000000 0.000000 0.000000 0.054793 0.000000 0.000000
# 5 0.000000 0.000000 0.000000 0.000000 0.049803 0.000000
# 6 0.000000 0.000000 0.000000 0.000000 0.000000 -0.452246
#
#
# Mechanical properties :
#
#
# Convention : Reuss Voigt Hill
#
# Bulk Modulus (GPa) = 30.41521 59.45259 44.93390
# Shear Modulus (GPa) = -32.29097 13.56348 -9.36375
#
# Velocity S-wave (km/s) = -4.28354 2.77618 -2.30668
# Velocity P-wave (km/s) = 2.67995 6.63770 4.29400
#
# Compressibility (1/GPa) = 0.03287828
#
# Stress axis : x y z
#
# Youngs Moduli (GPa) = 48.33726 42.78328 15.79733
#
# Poissons Ratio (x) = 0.40984 0.31818
# Poissons Ratio (y) = 0.46305 0.11882
# Poissons Ratio (z) = 0.97357 0.32181
#
# Static dielectric constant tensor:
#      x y z
#    x 1.631130 0.000000 0.000000 
#    y 0.000000 1.587100 0.000000 
#    z 0.000000 0.000000 1.587730 
# 
# From -- ./inp_files/4077.got.cif
#   From: 2010.05.17/outbox.ucp.g08.bks.cvg/sg47_3_cif.got.tgz:4077.got - 2010.06.11 16:36:43.
