data_PCOD9389723
_publ_section_title
;
Structure prediction by ZEFSAII (Michael W. Deem and Ramdas Pophale) SiO2 
 PCOD9389723
Probable space group: P N N N
;
_chemical_formula_sum "Si O2"
_cell_formula_units_Z 44
_cell_length_a 17.205327
_cell_length_b 9.165198
_cell_length_c 12.503148
_cell_angle_alpha 90.000000
_cell_angle_beta 90.000000
_cell_angle_gamma 90.000000
_cell_volume 1971.624266
_symmetry_space_group_name_H-M "P N N N"
_symmetry_group_IT_number 48
_space_group.IT_coordinate_system_code '2'
_symmetry_cell_setting 'orthorhombic'
loop_
_space_group_symop_operation_xyz
x,y,z
1/2-x,1/2-y,z
x,1/2-y,1/2-z
1/2-x,y,1/2-z
-x,-y,-z
1/2+x,1/2+y,-z
-x,1/2+y,1/2+z
1/2+x,-y,1/2+z
loop_
_atom_site_type_symbol
_atom_site_label
_atom_site_fract_x
_atom_site_fract_y
_atom_site_fract_z
Si Si1 0.250000 0.250000 0.750000
Si Si2 0.375531 0.250000 0.250000
Si Si3 0.026598 0.531483 0.196731
Si Si4 0.532431 0.194369 0.577435
Si Si5 0.750000 0.750000 0.567737
Si Si6 0.354284 0.500795 0.705376
Si Si7 0.250000 0.750000 0.750000
Si Si8 0.373375 0.050648 0.540926
O O1 0.307162 0.353133 0.682013
O O2 0.429939 0.390423 0.259359
O O3 0.319762 0.283562 0.350278
O O4 0.021653 0.624697 0.305379
O O5 0.056753 0.639327 0.103213
O O6 0.939692 0.492230 0.160139
O O7 0.446203 0.165534 0.527387
O O8 0.595356 0.095699 0.516554
O O9 0.706492 0.880476 0.503733
O O10 0.304090 0.642770 0.681922
O O11 0.362282 0.489125 0.834724
#
# Coordination Sequence:
#
# PCOD9389723 Si02
#       8
#     2   4   8   8   4   8   2   8
#     4  10  18  34  58  98 112 166 208 238 310 402
#     4  11  23  40  61  85 126 174 214 249 317 396
#     4  10  19  38  62  90 114 165 214 255 305 389
#     4   9  19  36  64  88 116 153 213 261 309 376
#     4  11  23  40  59  87 126 172 200 263 321 380
#     4  10  20  35  62  85 124 155 199 255 312 373
#     4  10  22  38  50  86 124 158 188 238 326 378
#     4  10  19  37  61  89 123 158 201 268 323 366
#
# _framework density 22.316624999999998
#
# number of rings (size 3 to 8) (size 9 to 14) (size 15 to 20)
#    0.000    2.000    1.818    3.273    0.000    1.455 
#    3.273    0.909    0.000    0.000    0.000    0.000 
#    0.000    0.000    0.000    0.000    0.000    0.000 
#
# Total GULP energy -245249.940273 kJ/mol
# GULP energy per Si atom -5573.862279 kJ/mol
# Density = 2.226583 g / cm^3
# Si number density = 22.316625 Si / 1000 Ang^3
#
#
#
# Elastic Constant Matrix: (Units=GPa)
#
#
# Indices 1 2 3 4 5 6 
#
# 1 127.2039 75.5614 31.1290 0.0000 0.0000 0.0000
# 2 75.5614 144.8843 26.8244 0.0000 0.0000 0.0000
# 3 31.1290 26.8244 67.6420 0.0000 0.0000 0.0000
# 4 0.0000 0.0000 0.0000 22.0001 0.0000 0.0000
# 5 0.0000 0.0000 0.0000 0.0000 16.0028 0.0000
# 6 0.0000 0.0000 0.0000 0.0000 0.0000 35.1600
#
#
#
# Elastic Compliance Matrix: (Units=1/GPa)
#
#
# Indices 1 2 3 4 5 6 
#
# 1 0.012032 -0.005666 -0.003290 0.000000 0.000000 0.000000
# 2 -0.005666 0.010117 -0.001405 0.000000 0.000000 0.000000
# 3 -0.003290 -0.001405 0.016855 0.000000 0.000000 0.000000
# 4 0.000000 0.000000 0.000000 0.045454 0.000000 0.000000
# 5 0.000000 0.000000 0.000000 0.000000 0.062489 0.000000
# 6 0.000000 0.000000 0.000000 0.000000 0.000000 0.028441
#
#
# Mechanical properties :
#
#
# Convention : Reuss Voigt Hill
#
# Bulk Modulus (GPa) = 54.69719 67.41776 61.05748
# Shear Modulus (GPa) = 24.72732 28.38025 26.55378
#
# Velocity S-wave (km/s) = 3.33231 3.56997 3.45319
# Velocity P-wave (km/s) = 6.27443 6.87518 6.58167
#
# Compressibility (1/GPa) = 0.01828247
#
# Stress axis : x y z
#
# Youngs Moduli (GPa) = 83.10947 98.84247 59.32978
#
# Poissons Ratio (x) = 0.56004 0.19522
# Poissons Ratio (y) = 0.47090 0.08333
# Poissons Ratio (z) = 0.27346 0.13883
#
# Static dielectric constant tensor:
#      x y z
#    x 1.884520 0.000000 0.000000 
#    y 0.000000 1.912120 0.000000 
#    z 0.000000 0.000000 1.859710 
# 
# From -- ./inp_files/27851.got.cif
#   From: 2010.05.17/outbox.cif.g08.bks.cpg/sg48_14_cif.got.tgz:27851.got - 2010.06.03 20:39:00.
