data_PCOD9389480
_publ_section_title
;
Structure prediction by ZEFSAII (Michael W. Deem and Ramdas Pophale) SiO2 
 PCOD9389480
Probable space group: P N N N
;
_chemical_formula_sum "Si O2"
_cell_formula_units_Z 46
_cell_length_a 21.227465
_cell_length_b 14.024298
_cell_length_c 5.710279
_cell_angle_alpha 90.000000
_cell_angle_beta 90.000000
_cell_angle_gamma 90.000000
_cell_volume 1699.951743
_symmetry_space_group_name_H-M "P N N N"
_symmetry_group_IT_number 48
_space_group.IT_coordinate_system_code '2'
_symmetry_cell_setting 'orthorhombic'
loop_
_space_group_symop_operation_xyz
x,y,z
1/2-x,1/2-y,z
x,1/2-y,1/2-z
1/2-x,y,1/2-z
-x,-y,-z
1/2+x,1/2+y,-z
-x,1/2+y,1/2+z
1/2+x,-y,1/2+z
loop_
_atom_site_type_symbol
_atom_site_label
_atom_site_fract_x
_atom_site_fract_y
_atom_site_fract_z
Si Si1 0.250000 0.250000 0.250000
Si Si2 0.750000 0.056128 0.250000
Si Si3 0.650431 0.609656 0.618637
Si Si4 0.956592 0.384037 0.773617
Si Si5 0.983261 0.413119 0.281549
Si Si6 0.870944 0.561232 0.374950
Si Si7 0.316588 0.613763 0.363836
O O1 0.293259 0.317156 0.402284
O O2 0.699796 0.984617 0.375906
O O3 0.799836 0.129024 0.367867
O O4 0.616743 0.617469 0.367487
O O5 0.675646 0.501341 0.627633
O O6 0.623040 0.620701 0.883037
O O7 0.991020 0.358775 0.529785
O O8 0.883016 0.355369 0.763129
O O9 0.967770 0.500023 0.772504
O O10 0.976983 0.357685 0.038025
O O11 0.918954 0.472599 0.337133
O O12 0.250000 0.639131 0.250000
#
# Coordination Sequence:
#
# PCOD9389480 Si02
#       7
#     2   4   8   8   8   8   8
#     4  12  24  38  40  66  84 106 148 202 214 266
#     4  10  16  22  38  53  74  92 132 154 192 245
#     4  11  21  30  45  55  76 104 138 173 223 242
#     4  10  19  26  44  62  78 102 126 171 213 245
#     4  10  17  30  42  61  81  94 130 172 214 250
#     4  11  18  32  44  59  74 106 133 170 216 263
#     4  11  17  29  40  59  76 109 136 163 210 258
#
# _framework density 27.059591000000001
#
# number of rings (size 3 to 8) (size 9 to 14) (size 15 to 20)
#    0.000    1.391    7.826    1.043    0.000    1.391 
#    0.000    0.000    0.000    0.000    0.000    0.000 
#    0.000    0.000    0.000    0.000    0.000    0.000 
#
# Total GULP energy -256132.162650 kJ/mol
# GULP energy per Si atom -5568.090492 kJ/mol
# Density = 2.699800 g / cm^3
# Si number density = 27.059591 Si / 1000 Ang^3
#
#
#
# Elastic Constant Matrix: (Units=GPa)
#
#
# Indices 1 2 3 4 5 6 
#
# 1 147.1657 14.3354 42.0129 0.0000 0.0000 0.0000
# 2 14.3354 83.5872 15.7013 0.0000 0.0000 0.0000
# 3 42.0129 15.7013 278.3334 0.0000 0.0000 0.0000
# 4 0.0000 0.0000 0.0000 -15.2534 0.0000 0.0000
# 5 0.0000 0.0000 0.0000 0.0000 35.9860 0.0000
# 6 0.0000 0.0000 0.0000 0.0000 0.0000 -14.5273
#
#
#
# Elastic Compliance Matrix: (Units=1/GPa)
#
#
# Indices 1 2 3 4 5 6 
#
# 1 0.007189 -0.001040 -0.001027 0.000000 0.000000 0.000000
# 2 -0.001040 0.012242 -0.000534 0.000000 0.000000 0.000000
# 3 -0.001027 -0.000534 0.003778 0.000000 0.000000 0.000000
# 4 0.000000 0.000000 0.000000 -0.065559 0.000000 0.000000
# 5 0.000000 0.000000 0.000000 0.000000 0.027789 0.000000
# 6 0.000000 0.000000 0.000000 0.000000 0.000000 -0.068836
#
#
# Mechanical properties :
#
#
# Convention : Reuss Voigt Hill
#
# Bulk Modulus (GPa) = 55.52817 72.57616 64.05216
# Shear Modulus (GPa) = -69.25837 30.37685 -19.44076
#
# Velocity S-wave (km/s) = -5.06461 3.35414 -2.68329
# Velocity P-wave (km/s) = 3.69258 6.47143 3.75794
#
# Compressibility (1/GPa) = 0.01800888
#
# Stress axis : x y z
#
# Youngs Moduli (GPa) = 139.09291 81.68486 264.69989
#
# Poissons Ratio (x) = 0.08497 0.27172
# Poissons Ratio (y) = 0.14468 0.14124
# Poissons Ratio (z) = 0.14278 0.04359
#
# Static dielectric constant tensor:
#      x y z
#    x 2.202140 0.000000 0.000000 
#    y 0.000000 2.090190 0.000000 
#    z 0.000000 0.000000 2.499680 
# 
# From -- ./inp_files/5891.got.cif
#   From: 2010.05.17/outbox.cif.g08.bks.cpg/sg48_3_cif.got.tgz:5891.got - 2010.06.03 20:39:00.
