data_PCOD9389975
_publ_section_title
;
Structure prediction by ZEFSAII (Michael W. Deem and Ramdas Pophale) SiO2 
 PCOD9389975
Probable space group: P N N N
;
_chemical_formula_sum "Si O2"
_cell_formula_units_Z 64
_cell_length_a 15.036861
_cell_length_b 8.708409
_cell_length_c 24.481548
_cell_angle_alpha 90.000000
_cell_angle_beta 90.000000
_cell_angle_gamma 90.000000
_cell_volume 3205.788587
_symmetry_space_group_name_H-M "P N N N"
_symmetry_group_IT_number 48
_space_group.IT_coordinate_system_code '2'
_symmetry_cell_setting 'orthorhombic'
loop_
_space_group_symop_operation_xyz
x,y,z
1/2-x,1/2-y,z
x,1/2-y,1/2-z
1/2-x,y,1/2-z
-x,-y,-z
1/2+x,1/2+y,-z
-x,1/2+y,1/2+z
1/2+x,-y,1/2+z
loop_
_atom_site_type_symbol
_atom_site_label
_atom_site_fract_x
_atom_site_fract_y
_atom_site_fract_z
Si Si1 0.988951 0.324634 0.559743
Si Si2 0.135591 0.072465 0.011698
Si Si3 0.713432 0.076905 0.036932
Si Si4 0.429325 0.992218 0.051257
Si Si5 0.849603 0.768093 0.876908
Si Si6 0.858401 0.933386 0.252108
Si Si7 0.476369 0.570661 0.846320
Si Si8 0.343981 0.842013 0.851536
O O1 0.911920 0.411752 0.525885
O O2 0.960116 0.161831 0.582177
O O3 0.065611 0.311442 0.514320
O O4 0.017598 0.442209 0.606713
O O5 0.170415 0.132028 0.068816
O O6 0.207470 0.042957 0.966155
O O7 0.750000 0.250000 0.037321
O O8 0.664589 0.058656 0.093825
O O9 0.658784 0.047981 0.982676
O O10 0.401975 0.122540 0.095298
O O11 0.500000 0.000000 0.000000
O O12 0.750000 0.750000 0.851847
O O13 0.923332 0.860025 0.840990
O O14 0.876604 0.750000 0.250000
O O15 0.750000 0.945601 0.250000
O O16 0.920932 0.004008 0.204674
O O17 0.875207 0.044426 0.303957
O O18 0.415494 0.712086 0.864957
O O19 0.250000 0.750000 0.839446
#
# Coordination Sequence:
#
# PCOD9389975 Si02
#       8
#     8   8   8   8   8   8   8   8
#     4  10  21  35  57  87 130 175 224 266 328 402
#     4  10  19  35  54  81 128 179 220 266 311 387
#     4  11  21  34  59  90 126 186 221 262 322 390
#     4  12  22  35  56  90 135 174 225 276 320 389
#     4  11  23  40  59  94 137 184 231 278 331 407
#     4  11  25  46  70 101 131 165 220 296 359 428
#     4  11  24  42  68  94 131 181 222 284 350 410
#     4  11  22  40  69  99 134 173 227 272 352 419
#
# _framework density 19.963885999999999
#
# number of rings (size 3 to 8) (size 9 to 14) (size 15 to 20)
#    0.000    1.125    5.000    2.625    1.750    2.000 
#    0.000    0.000    0.000    1.500    0.000    0.875 
#    0.000    0.000    0.000    0.000    0.000    0.000 
#
# Total GULP energy -356582.614878 kJ/mol
# GULP energy per Si atom -5571.603357 kJ/mol
# Density = 1.991845 g / cm^3
# Si number density = 19.963886 Si / 1000 Ang^3
#
#
#
# Elastic Constant Matrix: (Units=GPa)
#
#
# Indices 1 2 3 4 5 6 
#
# 1 105.9406 39.4229 29.5727 0.0000 0.0000 0.0000
# 2 39.4229 88.2722 34.1577 0.0000 0.0000 0.0000
# 3 29.5727 34.1577 81.8660 0.0000 0.0000 0.0000
# 4 0.0000 0.0000 0.0000 22.7816 0.0000 0.0000
# 5 0.0000 0.0000 0.0000 0.0000 27.5036 0.0000
# 6 0.0000 0.0000 0.0000 0.0000 0.0000 29.0439
#
#
#
# Elastic Compliance Matrix: (Units=1/GPa)
#
#
# Indices 1 2 3 4 5 6 
#
# 1 0.011717 -0.004287 -0.002444 0.000000 0.000000 0.000000
# 2 -0.004287 0.015078 -0.004743 0.000000 0.000000 0.000000
# 3 -0.002444 -0.004743 0.015077 0.000000 0.000000 0.000000
# 4 0.000000 0.000000 0.000000 0.043895 0.000000 0.000000
# 5 0.000000 0.000000 0.000000 0.000000 0.036359 0.000000
# 6 0.000000 0.000000 0.000000 0.000000 0.000000 0.034431
#
#
# Mechanical properties :
#
#
# Convention : Reuss Voigt Hill
#
# Bulk Modulus (GPa) = 52.84067 53.59838 53.21953
# Shear Modulus (GPa) = 26.90896 27.39420 27.15158
#
# Velocity S-wave (km/s) = 3.67533 3.70832 3.69187
# Velocity P-wave (km/s) = 6.67356 6.72618 6.69992
#
# Compressibility (1/GPa) = 0.01892482
#
# Stress axis : x y z
#
# Youngs Moduli (GPa) = 85.34794 66.31972 66.32767
#
# Poissons Ratio (x) = 0.28432 0.16209
# Poissons Ratio (y) = 0.36590 0.31457
# Poissons Ratio (z) = 0.20857 0.31453
#
# Static dielectric constant tensor:
#      x y z
#    x 1.795860 0.000000 0.000000 
#    y 0.000000 1.740040 0.000000 
#    z 0.000000 0.000000 1.675680 
# 
# From -- ./inp_files/36566.got.cif
#   From: 2010.05.17/outbox.cif.g08.bks.cpg/sg48_19_cif.got.tgz:36566.got - 2010.06.03 20:39:00.
