data_PCOD9389009
_publ_section_title
;
Structure prediction by ZEFSAII (Michael W. Deem and Ramdas Pophale) SiO2 
 PCOD9389009
Probable space group: P M M M
;
_chemical_formula_sum "Si O2"
_cell_formula_units_Z 52
_cell_length_a 18.170589
_cell_length_b 18.744120
_cell_length_c 7.603823
_cell_angle_alpha 90.000000
_cell_angle_beta 90.000000
_cell_angle_gamma 90.000000
_cell_volume 2589.799007
_symmetry_space_group_name_H-M "P M M M"
_symmetry_group_IT_number 47
_symmetry_cell_setting 'orthorhombic'
loop_
_space_group_symop_operation_xyz
x,y,z
-x,-y,z
x,-y,-z
-x,y,-z
-x,-y,-z
x,y,-z
-x,y,z
x,-y,z
loop_
_atom_site_type_symbol
_atom_site_label
_atom_site_fract_x
_atom_site_fract_y
_atom_site_fract_z
Si Si1 0.419853 0.376197 0.793688
Si Si2 0.413843 0.923580 0.713853
Si Si3 0.358181 0.772241 0.714083
Si Si4 0.083690 0.156645 0.289962
Si Si5 0.197268 0.726547 0.290102
Si Si6 0.915839 0.000000 0.209053
Si Si7 0.257969 0.421097 0.788227
O O1 0.500000 0.397991 0.719910
O O2 0.411385 0.290737 0.776516
O O3 0.341675 0.405070 0.721246
O O4 0.420838 0.395515 0.000000
O O5 0.409359 0.923074 0.500000
O O6 0.500000 0.921616 0.758394
O O7 0.378190 0.850882 0.775993
O O8 0.383065 0.000000 0.773794
O O9 0.360356 0.770917 0.500000
O O10 0.276365 0.753382 0.775608
O O11 0.078582 0.165016 0.500000
O O12 0.133010 0.222017 0.221122
O O13 0.116395 0.077021 0.260900
O O14 0.000000 0.157569 0.218481
O O15 0.197253 0.735952 0.500000
O O16 0.201499 0.641897 0.258347
O O17 0.000000 0.000000 0.282185
O O18 0.919355 0.000000 0.000000
O O19 0.236013 0.500000 0.729368
O O20 0.262635 0.420856 0.000000
#
# Coordination Sequence:
#
# PCOD9389009 Si02
#       7
#     8   8   8   8   8   4   8
#     4   9  17  28  43  64  88 115 147 184 226 273
#     4   8  13  21  34  53  76 103 137 176 216 254
#     4   9  16  27  42  61  84 110 145 187 229 270
#     4   9  17  31  50  71  98 130 160 191 231 280
#     4   9  18  31  47  70  93 117 153 192 233 279
#     4   9  17  29  47  73 101 127 158 193 228 269
#     4   9  18  32  49  68  91 122 155 188 233 284
#
# _framework density 20.078776999999999
#
# number of rings (size 3 to 8) (size 9 to 14) (size 15 to 20)
#    0.000    3.154    0.000    1.154    0.000    3.077 
#    1.385    1.538    0.000    0.923    0.000    9.692 
#    0.000    0.000    0.000    0.000    0.000    0.000 
#
# Total GULP energy -289638.828395 kJ/mol
# GULP energy per Si atom -5569.977469 kJ/mol
# Density = 2.003308 g / cm^3
# Si number density = 20.078777 Si / 1000 Ang^3
#
#
#
# Elastic Constant Matrix: (Units=GPa)
#
#
# Indices 1 2 3 4 5 6 
#
# 1 64.0193 52.4811 4.3905 0.0000 0.0000 0.0000
# 2 52.4811 164.4677 -7.4939 0.0000 0.0000 0.0000
# 3 4.3905 -7.4939 42.2158 0.0000 0.0000 0.0000
# 4 0.0000 0.0000 0.0000 22.6573 0.0000 0.0000
# 5 0.0000 0.0000 0.0000 0.0000 7.3197 0.0000
# 6 0.0000 0.0000 0.0000 0.0000 0.0000 8.3571
#
#
#
# Elastic Compliance Matrix: (Units=1/GPa)
#
#
# Indices 1 2 3 4 5 6 
#
# 1 0.021657 -0.007070 -0.003507 0.000000 0.000000 0.000000
# 2 -0.007070 0.008438 0.002233 0.000000 0.000000 0.000000
# 3 -0.003507 0.002233 0.024449 0.000000 0.000000 0.000000
# 4 0.000000 0.000000 0.000000 0.044136 0.000000 0.000000
# 5 0.000000 0.000000 0.000000 0.000000 0.136617 0.000000
# 6 0.000000 0.000000 0.000000 0.000000 0.000000 0.119659
#
#
# Mechanical properties :
#
#
# Convention : Reuss Voigt Hill
#
# Bulk Modulus (GPa) = 26.41678 41.05089 33.73384
# Shear Modulus (GPa) = 13.01189 22.42182 17.71686
#
# Velocity S-wave (km/s) = 2.54843 3.34532 2.97369
# Velocity P-wave (km/s) = 4.67380 5.95070 5.35048
#
# Compressibility (1/GPa) = 0.03785473
#
# Stress axis : x y z
#
# Youngs Moduli (GPa) = 46.17441 118.50938 40.90143
#
# Poissons Ratio (x) = 0.83792 0.14346
# Poissons Ratio (y) = 0.32648 -0.09134
# Poissons Ratio (z) = 0.16196 -0.26466
#
# Static dielectric constant tensor:
#      x y z
#    x 1.713040 0.000000 0.000000 
#    y 0.000000 1.748690 0.000000 
#    z 0.000000 0.000000 1.751080 
# 
# From -- ./inp_files/9554.got.cif
#   From: 2010.05.17/outbox.cif.g08.bks.cpg/sg47_5_cif.got.tgz:9554.got - 2010.06.03 20:15:42.
