data_PCOD9389152
_publ_section_title
;
Structure prediction by ZEFSAII (Michael W. Deem and Ramdas Pophale) SiO2 
 PCOD9389152
Probable space group: P M M M
;
_chemical_formula_sum "Si O2"
_cell_formula_units_Z 36
_cell_length_a 21.364259
_cell_length_b 9.073307
_cell_length_c 12.137016
_cell_angle_alpha 90.000000
_cell_angle_beta 90.000000
_cell_angle_gamma 90.000000
_cell_volume 2352.693564
_symmetry_space_group_name_H-M "P M M M"
_symmetry_group_IT_number 47
_symmetry_cell_setting 'orthorhombic'
loop_
_space_group_symop_operation_xyz
x,y,z
-x,-y,z
x,-y,-z
-x,y,-z
-x,-y,-z
x,y,-z
-x,y,z
x,-y,z
loop_
_atom_site_type_symbol
_atom_site_label
_atom_site_fract_x
_atom_site_fract_y
_atom_site_fract_z
Si Si1 0.073288 0.820220 0.500000
Si Si2 0.000000 0.820195 0.126032
Si Si3 0.121605 0.820261 0.736556
Si Si4 0.500000 0.829922 0.134391
Si Si5 0.756523 0.822391 0.870808
Si Si6 0.373182 0.669289 0.133947
O O1 0.108132 0.772972 0.611477
O O2 0.000000 0.775337 0.500000
O O3 0.072560 0.000000 0.500000
O O4 0.937693 0.774070 0.189957
O O5 0.000000 0.000000 0.125857
O O6 0.000000 0.771196 0.000000
O O7 0.186022 0.773628 0.794061
O O8 0.122236 0.000000 0.736666
O O9 0.436551 0.749600 0.171010
O O10 0.500000 0.000000 0.167705
O O11 0.500000 0.826546 0.000000
O O12 0.690688 0.752056 0.835976
O O13 0.751593 0.000000 0.865456
O O14 0.768548 0.785096 0.000000
O O15 0.372305 0.500000 0.169850
O O16 0.374771 0.670505 0.000000
#
# Coordination Sequence:
#
# PCOD9389152 Si02
#       6
#     4   4   8   4   8   8
#     4   9  14  22  34  50  75 104 131 166 215 259
#     4   9  14  19  29  47  72 101 131 164 204 249
#     4   9  15  22  33  50  74 103 134 168 208 252
#     4   9  15  23  37  57  81 110 141 170 199 233
#     4   9  16  25  36  53  79 108 136 168 207 247
#     4   9  16  25  37  54  78 109 142 171 199 236
#
# _framework density 15.301610999999999
#
# number of rings (size 3 to 8) (size 9 to 14) (size 15 to 20)
#    0.000    3.000    1.111    1.667    0.000    6.667 
#    0.000    0.000    0.000    0.000    0.000    1.556 
#    0.000    6.222    0.000   10.444    0.000    5.111 
#
# Total GULP energy -200423.528241 kJ/mol
# GULP energy per Si atom -5567.320229 kJ/mol
# Density = 1.526678 g / cm^3
# Si number density = 15.301611 Si / 1000 Ang^3
#
#
#
# Elastic Constant Matrix: (Units=GPa)
#
#
# Indices 1 2 3 4 5 6 
#
# 1 183.1716 47.3833 71.8811 0.0000 0.0000 0.0000
# 2 47.3833 31.8016 21.5576 0.0000 0.0000 0.0000
# 3 71.8811 21.5576 89.8539 0.0000 0.0000 0.0000
# 4 0.0000 0.0000 0.0000 3.0833 0.0000 0.0000
# 5 0.0000 0.0000 0.0000 0.0000 2.9231 0.0000
# 6 0.0000 0.0000 0.0000 0.0000 0.0000 -4.7649
#
#
#
# Elastic Compliance Matrix: (Units=1/GPa)
#
#
# Indices 1 2 3 4 5 6 
#
# 1 0.010922 -0.012361 -0.005772 0.000000 0.000000 0.000000
# 2 -0.012361 0.051541 -0.002477 0.000000 0.000000 0.000000
# 3 -0.005772 -0.002477 0.016341 0.000000 0.000000 0.000000
# 4 0.000000 0.000000 0.000000 0.324331 0.000000 0.000000
# 5 0.000000 0.000000 0.000000 0.000000 0.342097 0.000000
# 6 0.000000 0.000000 0.000000 0.000000 0.000000 -0.209870
#
#
# Mechanical properties :
#
#
# Convention : Reuss Voigt Hill
#
# Bulk Modulus (GPa) = 26.60687 65.16346 45.88517
# Shear Modulus (GPa) = 8.48740 11.18199 9.83469
#
# Velocity S-wave (km/s) = 2.35771 2.70621 2.53795
# Velocity P-wave (km/s) = 4.98375 7.24177 6.21615
#
# Compressibility (1/GPa) = 0.03758427
#
# Stress axis : x y z
#
# Youngs Moduli (GPa) = 91.56029 19.40197 61.19669
#
# Poissons Ratio (x) = 0.23982 0.35320
# Poissons Ratio (y) = 1.13174 0.15161
# Poissons Ratio (z) = 0.52845 0.04807
#
# Static dielectric constant tensor:
#      x y z
#    x 1.503140 0.000000 0.000000 
#    y 0.000000 1.505350 0.000000 
#    z 0.000000 0.000000 1.491340 
# 
# From -- ./inp_files/16201.got.cif
#   From: 2010.05.17/outbox.cif.g08.bks.cpg/sg47_9_cif.got.tgz:16201.got - 2010.06.03 20:15:42.
