data_PCOD9389365
_publ_section_title
;
Structure prediction by ZEFSAII (Michael W. Deem and Ramdas Pophale) SiO2 
 PCOD9389365
Probable space group: P M M M
;
_chemical_formula_sum "Si O2"
_cell_formula_units_Z 64
_cell_length_a 24.000000
_cell_length_b 15.000000
_cell_length_c 9.000000
_cell_angle_alpha 90.000000
_cell_angle_beta 90.000000
_cell_angle_gamma 90.000000
_cell_volume 3240.000000
_symmetry_space_group_name_H-M "P M M M"
_symmetry_group_IT_number 47
_symmetry_cell_setting 'orthorhombic'
loop_
_space_group_symop_operation_xyz
x,y,z
-x,-y,z
x,-y,-z
-x,y,-z
-x,-y,-z
x,y,-z
-x,y,z
x,-y,z
loop_
_atom_site_type_symbol
_atom_site_label
_atom_site_fract_x
_atom_site_fract_y
_atom_site_fract_z
Si Si1 0.742156 0.599638 0.677828
Si Si2 0.335366 0.895859 0.678345
Si Si3 0.933453 0.776078 0.167445
Si Si4 0.563909 0.769298 0.676792
Si Si5 0.856118 0.105342 0.672053
Si Si6 0.380174 0.600157 0.823426
Si Si7 0.932005 0.599299 0.328469
Si Si8 0.762553 0.781415 0.824381
O O1 0.742573 0.608907 0.500000
O O2 0.763809 0.500000 0.714520
O O3 0.678793 0.603837 0.738415
O O4 0.770967 0.684447 0.751615
O O5 0.325653 0.892350 0.500000
O O6 0.395466 0.852200 0.708978
O O7 0.291541 0.830940 0.757418
O O8 0.330744 0.000000 0.722783
O O9 0.914308 0.851925 0.280143
O O10 0.913043 0.680360 0.226984
O O11 0.000000 0.772433 0.164042
O O12 0.913519 0.792915 0.000000
O O13 0.569105 0.750884 0.500000
O O14 0.500000 0.790370 0.709897
O O15 0.583005 0.680995 0.763487
O O16 0.843272 0.124450 0.500000
O O17 0.812563 0.154821 0.776535
O O18 0.854778 0.000000 0.693200
O O19 0.403637 0.500000 0.798562
O O20 0.370664 0.610122 0.000000
O O21 0.914664 0.613011 0.500000
O O22 0.914543 0.500000 0.281643
O O23 0.000000 0.599663 0.327917
O O24 0.757186 0.772449 0.000000
#
# Coordination Sequence:
#
# PCOD9389365 Si02
#       8
#     8   8   8   8   8   8   8   8
#     4  10  20  36  61  90 120 155 193 234 283 344
#     4  10  21  38  60  84 112 150 197 245 294 352
#     4  10  21  37  59  89 125 162 198 242 298 355
#     4  10  21  36  55  81 114 154 199 246 295 349
#     4  11  25  44  65  88 116 154 201 250 296 345
#     4  10  20  34  54  82 115 152 193 237 290 349
#     4   8  14  27  50  80 114 154 199 242 282 331
#     4  12  24  39  63  92 122 153 188 237 295 353
#
# _framework density 19.753086
#
# number of rings (size 3 to 8) (size 9 to 14) (size 15 to 20)
#    0.000    1.875    1.250    3.375    0.000    6.250 
#    0.000    5.625    0.000    3.750    0.000    1.750 
#    0.000    0.000    0.000    0.000    0.000    0.000 
#
# Total GULP energy -357432.782343 kJ/mol
# GULP energy per Si atom -5584.887224 kJ/mol
# Density = 1.970813 g / cm^3
# Si number density = 19.753086 Si / 1000 Ang^3
#
#
#
# Elastic Constant Matrix: (Units=GPa)
#
#
# Indices 1 2 3 4 5 6 
#
# 1 49.6796 27.5129 22.2625 0.0000 0.0000 0.0000
# 2 27.5129 119.9883 56.0407 0.0000 0.0000 0.0000
# 3 22.2625 56.0407 62.2172 0.0000 0.0000 0.0000
# 4 0.0000 0.0000 0.0000 11.3396 0.0000 0.0000
# 5 0.0000 0.0000 0.0000 0.0000 75.6949 0.0000
# 6 0.0000 0.0000 0.0000 0.0000 0.0000 29.0431
#
#
#
# Elastic Compliance Matrix: (Units=1/GPa)
#
#
# Indices 1 2 3 4 5 6 
#
# 1 0.024442 -0.002623 -0.006383 0.000000 0.000000 0.000000
# 2 -0.002623 0.014668 -0.012273 0.000000 0.000000 0.000000
# 3 -0.006383 -0.012273 0.029411 0.000000 0.000000 0.000000
# 4 0.000000 0.000000 0.000000 0.088187 0.000000 0.000000
# 5 0.000000 0.000000 0.000000 0.000000 0.013211 0.000000
# 6 0.000000 0.000000 0.000000 0.000000 0.000000 0.034432
#
#
# Mechanical properties :
#
#
# Convention : Reuss Voigt Hill
#
# Bulk Modulus (GPa) = 38.51688 49.27970 43.89829
# Shear Modulus (GPa) = 19.56464 31.62012 25.59238
#
# Velocity S-wave (km/s) = 3.15057 4.00530 3.60337
# Velocity P-wave (km/s) = 5.72506 6.81116 6.29159
#
# Compressibility (1/GPa) = 0.02596264
#
# Stress axis : x y z
#
# Youngs Moduli (GPa) = 40.91297 68.17658 34.00054
#
# Poissons Ratio (x) = 0.17885 0.21702
# Poissons Ratio (y) = 0.10733 0.41729
# Poissons Ratio (z) = 0.26115 0.83673
#
# Static dielectric constant tensor:
#      x y z
#    x 1.742530 0.000000 0.000000 
#    y 0.000000 1.675120 0.000000 
#    z 0.000000 0.000000 1.671760 
# 
# From -- ./inp_files/12686.got.cif
#   From: 2010.05.17/outbox.ucp.g08.bks.cvg/sg47_7_cif.got.tgz:12686.got - 2010.06.11 16:36:43.
