data_PCOD9389434
_publ_section_title
;
Structure prediction by ZEFSAII (Michael W. Deem and Ramdas Pophale) SiO2 
 PCOD9389434
Probable space group: P M M M
;
_chemical_formula_sum "Si O2"
_cell_formula_units_Z 40
_cell_length_a 9.000000
_cell_length_b 9.000000
_cell_length_c 27.000000
_cell_angle_alpha 90.000000
_cell_angle_beta 90.000000
_cell_angle_gamma 90.000000
_cell_volume 2187.000000
_symmetry_space_group_name_H-M "P M M M"
_symmetry_group_IT_number 47
_symmetry_cell_setting 'orthorhombic'
loop_
_space_group_symop_operation_xyz
x,y,z
-x,-y,z
x,-y,-z
-x,y,-z
-x,-y,-z
x,y,-z
-x,y,z
x,-y,z
loop_
_atom_site_type_symbol
_atom_site_label
_atom_site_fract_x
_atom_site_fract_y
_atom_site_fract_z
Si Si1 0.676396 0.821757 0.694564
Si Si2 0.677374 0.175964 0.000000
Si Si3 0.322620 0.177479 0.500000
Si Si4 0.823007 0.322606 0.597565
Si Si5 0.176839 0.822708 0.798936
Si Si6 0.178187 0.323865 0.096867
O O1 0.500000 0.794268 0.693078
O O2 0.754720 0.742572 0.648266
O O3 0.741599 0.776024 0.748257
O O4 0.700505 0.000000 0.690054
O O5 0.745151 0.248012 0.049689
O O6 0.500000 0.197039 0.000000
O O7 0.709330 0.000000 0.000000
O O8 0.500000 0.203551 0.500000
O O9 0.251657 0.247918 0.450561
O O10 0.297576 0.000000 0.500000
O O11 0.798985 0.500000 0.595747
O O12 0.000000 0.294756 0.596644
O O13 0.225085 0.743233 0.849828
O O14 0.000000 0.796382 0.792760
O O15 0.199433 0.000000 0.804929
O O16 0.206295 0.500000 0.096083
O O17 0.000000 0.300224 0.092834
#
# Coordination Sequence:
#
# PCOD9389434 Si02
#       6
#     8   4   4   8   8   8
#     4  10  21  37  58  85 116 150 189 232 278 330
#     4  11  24  39  56  80 110 145 186 231 278 330
#     4  11  24  41  62  88 116 147 186 231 280 336
#     4  11  24  40  59  85 116 150 190 234 279 330
#     4   9  18  34  56  81 111 149 190 230 273 324
#     4  10  21  37  58  84 113 145 183 228 278 333
#
# _framework density 18.289895000000001
#
# number of rings (size 3 to 8) (size 9 to 14) (size 15 to 20)
#    0.000    1.800    0.000    3.600    0.000   12.000 
#    0.000    4.000    0.000    0.000    0.000    0.000 
#    0.000    0.000    0.000    0.000    0.000    0.000 
#
# Total GULP energy -223532.718190 kJ/mol
# GULP energy per Si atom -5588.317955 kJ/mol
# Density = 1.824827 g / cm^3
# Si number density = 18.289895 Si / 1000 Ang^3
#
#
#
# Elastic Constant Matrix: (Units=GPa)
#
#
# Indices 1 2 3 4 5 6 
#
# 1 99.4943 83.6577 105.9982 0.0000 0.0000 0.0000
# 2 83.6577 98.4803 107.8873 0.0000 0.0000 0.0000
# 3 105.9982 107.8873 247.2328 0.0000 0.0000 0.0000
# 4 0.0000 0.0000 0.0000 23.9101 0.0000 0.0000
# 5 0.0000 0.0000 0.0000 0.0000 24.2599 0.0000
# 6 0.0000 0.0000 0.0000 0.0000 0.0000 26.8173
#
#
#
# Elastic Compliance Matrix: (Units=1/GPa)
#
#
# Indices 1 2 3 4 5 6 
#
# 1 0.037268 -0.027119 -0.004144 0.000000 0.000000 0.000000
# 2 -0.027119 0.039188 -0.005474 0.000000 0.000000 0.000000
# 3 -0.004144 -0.005474 0.008210 0.000000 0.000000 0.000000
# 4 0.000000 0.000000 0.000000 0.041823 0.000000 0.000000
# 5 0.000000 0.000000 0.000000 0.000000 0.041220 0.000000
# 6 0.000000 0.000000 0.000000 0.000000 0.000000 0.037289
#
#
# Mechanical properties :
#
#
# Convention : Reuss Voigt Hill
#
# Bulk Modulus (GPa) = 89.34409 115.58819 102.46614
# Shear Modulus (GPa) = 17.71765 24.84176 21.27970
#
# Velocity S-wave (km/s) = 3.11579 3.68941 3.41466
# Velocity P-wave (km/s) = 7.86760 9.02685 8.46709
#
# Compressibility (1/GPa) = 0.01119268
#
# Stress axis : x y z
#
# Youngs Moduli (GPa) = 26.83262 25.51787 121.79692
#
# Poissons Ratio (x) = 0.69201 0.50476
# Poissons Ratio (y) = 0.72766 0.66674
# Poissons Ratio (z) = 0.11120 0.13969
#
# Static dielectric constant tensor:
#      x y z
#    x 1.617620 0.000000 0.000000 
#    y 0.000000 1.617970 0.000000 
#    z 0.000000 0.000000 1.589690 
# 
# From -- ./inp_files/33079.got.cif
#   From: 2010.05.17/outbox.ucp.g08.bks.cvg/sg47_17_cif.got.tgz:33079.got - 2010.06.11 16:36:43.
