data_PCOD9389700
_publ_section_title
;
Structure prediction by ZEFSAII (Michael W. Deem and Ramdas Pophale) SiO2 
 PCOD9389700
Probable space group: P N N N
;
_chemical_formula_sum "Si O2"
_cell_formula_units_Z 36
_cell_length_a 12.240960
_cell_length_b 16.016428
_cell_length_c 8.324455
_cell_angle_alpha 90.000000
_cell_angle_beta 90.000000
_cell_angle_gamma 90.000000
_cell_volume 1632.063133
_symmetry_space_group_name_H-M "P N N N"
_symmetry_group_IT_number 48
_space_group.IT_coordinate_system_code '2'
_symmetry_cell_setting 'orthorhombic'
loop_
_space_group_symop_operation_xyz
x,y,z
1/2-x,1/2-y,z
x,1/2-y,1/2-z
1/2-x,y,1/2-z
-x,-y,-z
1/2+x,1/2+y,-z
-x,1/2+y,1/2+z
1/2+x,-y,1/2+z
loop_
_atom_site_type_symbol
_atom_site_label
_atom_site_fract_x
_atom_site_fract_y
_atom_site_fract_z
Si Si1 0.524570 0.536908 0.247737
Si Si2 0.046466 0.368155 0.434651
Si Si3 0.195438 0.669397 0.573390
Si Si4 0.250000 0.372886 0.250000
Si Si5 0.670709 0.478937 0.528186
O O1 0.477442 0.456901 0.152774
O O2 0.623547 0.502872 0.354944
O O3 0.428434 0.562746 0.371051
O O4 0.559977 0.606976 0.121156
O O5 0.933657 0.318927 0.416292
O O6 0.150794 0.329759 0.345209
O O7 0.250000 0.750000 0.493990
O O8 0.250000 0.662816 0.750000
O O9 0.228359 0.584319 0.483659
O O10 0.297573 0.435893 0.384438
#
# Coordination Sequence:
#
# PCOD9389700 Si02
#       5
#     8   8   8   4   8
#     4   9  18  31  57  80 120 145 183 245 298 327
#     4  10  19  35  51  85 113 149 191 236 286 345
#     4  11  22  35  56  82 120 157 191 227 279 352
#     4  10  22  32  59  87 120 144 190 244 298 326
#     4  10  18  33  52  89 116 152 185 239 289 346
#
# _framework density 22.057970000000001
#
# number of rings (size 3 to 8) (size 9 to 14) (size 15 to 20)
#    0.000    2.000    2.222    4.000    0.000    0.000 
#    0.000    5.000    0.000    2.667    0.000    0.000 
#   13.333    0.000    0.000    0.000    0.000    0.000 
#
# Total GULP energy -201102.260957 kJ/mol
# GULP energy per Si atom -5586.173915 kJ/mol
# Density = 2.200777 g / cm^3
# Si number density = 22.057970 Si / 1000 Ang^3
#
#
#
# Elastic Constant Matrix: (Units=GPa)
#
#
# Indices 1 2 3 4 5 6 
#
# 1 169.7415 27.2231 43.4518 0.0000 0.0000 0.0000
# 2 27.2231 29.8516 15.3485 0.0000 0.0000 0.0000
# 3 43.4518 15.3485 102.7883 0.0000 0.0000 0.0000
# 4 0.0000 0.0000 0.0000 0.2228 0.0000 0.0000
# 5 0.0000 0.0000 0.0000 0.0000 21.1237 0.0000
# 6 0.0000 0.0000 0.0000 0.0000 0.0000 1.1993
#
#
#
# Elastic Compliance Matrix: (Units=1/GPa)
#
#
# Indices 1 2 3 4 5 6 
#
# 1 0.007365 -0.005541 -0.002286 0.000000 0.000000 0.000000
# 2 -0.005541 0.040454 -0.003698 0.000000 0.000000 0.000000
# 3 -0.002286 -0.003698 0.011247 0.000000 0.000000 0.000000
# 4 0.000000 0.000000 0.000000 4.489179 0.000000 0.000000
# 5 0.000000 0.000000 0.000000 0.000000 0.047340 0.000000
# 6 0.000000 0.000000 0.000000 0.000000 0.000000 0.833803
#
#
# Mechanical properties :
#
#
# Convention : Reuss Voigt Hill
#
# Bulk Modulus (GPa) = 27.76595 52.71425 40.24010
# Shear Modulus (GPa) = 0.91501 18.93303 9.92402
#
# Velocity S-wave (km/s) = 0.64476 2.93291 2.12340
# Velocity P-wave (km/s) = 3.62896 5.95140 4.92892
#
# Compressibility (1/GPa) = 0.03601534
#
# Stress axis : x y z
#
# Youngs Moduli (GPa) = 135.77305 24.71954 88.90981
#
# Poissons Ratio (x) = 0.13698 0.20325
# Poissons Ratio (y) = 0.75236 0.32880
# Poissons Ratio (z) = 0.31039 0.09142
#
# Static dielectric constant tensor:
#      x y z
#    x 1.876880 0.000000 0.000000 
#    y 0.000000 1.806580 0.000000 
#    z 0.000000 0.000000 1.856410 
# 
# From -- ./inp_files/10912.got.cif
#   From: 2010.05.17/outbox.cif.g08.bks.cpg/sg48_6_cif.got.tgz:10912.got - 2010.06.03 20:39:00.
