data_PCOD9389159
_publ_section_title
;
Structure prediction by ZEFSAII (Michael W. Deem and Ramdas Pophale) SiO2 
 PCOD9389159
Probable space group: P M M M
;
_chemical_formula_sum "Si O2"
_cell_formula_units_Z 40
_cell_length_a 26.923894
_cell_length_b 9.311547
_cell_length_c 7.389304
_cell_angle_alpha 90.000000
_cell_angle_beta 90.000000
_cell_angle_gamma 90.000000
_cell_volume 1852.521452
_symmetry_space_group_name_H-M "P M M M"
_symmetry_group_IT_number 47
_symmetry_cell_setting 'orthorhombic'
loop_
_space_group_symop_operation_xyz
x,y,z
-x,-y,z
x,-y,-z
-x,y,-z
-x,-y,-z
x,y,-z
-x,y,z
x,-y,z
loop_
_atom_site_type_symbol
_atom_site_label
_atom_site_fract_x
_atom_site_fract_y
_atom_site_fract_z
Si Si1 0.108511 0.663667 0.213914
Si Si2 0.598698 0.834341 0.779062
Si Si3 0.500000 0.665706 0.779077
Si Si4 0.000000 0.663312 0.285714
Si Si5 0.795744 0.835058 0.221388
Si Si6 0.302739 0.334583 0.779167
O O1 0.108695 0.500000 0.288069
O O2 0.153567 0.759179 0.283944
O O3 0.053232 0.727684 0.235745
O O4 0.116767 0.651381 0.000000
O O5 0.549495 0.749306 0.721962
O O6 0.648501 0.752375 0.721792
O O7 0.598118 0.000000 0.721520
O O8 0.598696 0.834658 0.000000
O O9 0.500000 0.500000 0.721509
O O10 0.500000 0.665316 0.000000
O O11 0.000000 0.500000 0.208472
O O12 0.000000 0.653748 0.500000
O O13 0.747604 0.744740 0.277376
O O14 0.792656 0.000000 0.279021
O O15 0.795919 0.835739 0.000000
O O16 0.304077 0.500000 0.721211
O O17 0.302876 0.334984 0.000000
#
# Coordination Sequence:
#
# PCOD9389159 Si02
#       6
#     8   8   4   4   8   8
#     4   9  16  27  44  64  84 107 136 169 204 243
#     4   9  15  21  28  38  54  78 109 147 192 239
#     4   9  15  21  27  35  49  73 109 151 192 235
#     4   9  17  29  46  67  88 110 138 171 204 240
#     4   9  16  25  37  54  75  97 122 155 196 240
#     4   9  15  22  32  46  64  86 113 148 192 239
#
# _framework density 21.592193000000002
#
# number of rings (size 3 to 8) (size 9 to 14) (size 15 to 20)
#    0.000    3.000    0.000    2.400    0.000    9.600 
#    0.000    0.500    0.000    3.600    0.000    0.000 
#    0.000    0.000    0.000    0.000    0.000    0.000 
#
# Total GULP energy -223353.824074 kJ/mol
# GULP energy per Si atom -5583.845602 kJ/mol
# Density = 2.154305 g / cm^3
# Si number density = 21.592193 Si / 1000 Ang^3
#
#
#
# Elastic Constant Matrix: (Units=GPa)
#
#
# Indices 1 2 3 4 5 6 
#
# 1 266.5127 148.7694 1.2328 0.0000 0.0000 0.0000
# 2 148.7694 202.2663 5.3826 0.0000 0.0000 0.0000
# 3 1.2328 5.3826 74.2656 0.0000 0.0000 0.0000
# 4 0.0000 0.0000 0.0000 -11.7279 0.0000 0.0000
# 5 0.0000 0.0000 0.0000 0.0000 -39.4078 0.0000
# 6 0.0000 0.0000 0.0000 0.0000 0.0000 14.7012
#
#
#
# Elastic Compliance Matrix: (Units=1/GPa)
#
#
# Indices 1 2 3 4 5 6 
#
# 1 0.006370 -0.004691 0.000234 0.000000 0.000000 0.000000
# 2 -0.004691 0.008409 -0.000532 0.000000 0.000000 0.000000
# 3 0.000234 -0.000532 0.013500 0.000000 0.000000 0.000000
# 4 0.000000 0.000000 0.000000 -0.085267 0.000000 0.000000
# 5 0.000000 0.000000 0.000000 0.000000 -0.025376 0.000000
# 6 0.000000 0.000000 0.000000 0.000000 0.000000 0.068022
#
#
# Mechanical properties :
#
#
# Convention : Reuss Voigt Hill
#
# Bulk Modulus (GPa) = 54.64158 94.86824 74.75491
# Shear Modulus (GPa) = 2881.77827 18.55709 1450.16768
#
# Velocity S-wave (km/s) = 36.57234 2.93479 25.94368
# Velocity P-wave (km/s) = 42.52932 7.45089 30.53079
#
# Compressibility (1/GPa) = 0.01830108
#
# Stress axis : x y z
#
# Youngs Moduli (GPa) = 156.99071 118.92535 74.07504
#
# Poissons Ratio (x) = 0.55791 -0.01735
# Poissons Ratio (y) = 0.73649 0.03938
# Poissons Ratio (z) = -0.03678 0.06322
#
# Static dielectric constant tensor:
#      x y z
#    x 1.753800 0.000000 0.000000 
#    y 0.000000 1.731800 0.000000 
#    z 0.000000 0.000000 1.804940 
# 
# From -- ./inp_files/12978.got.cif
#   From: 2010.05.17/outbox.cif.g08.bks.cpg/sg47_7_cif.got.tgz:12978.got - 2010.06.03 20:15:42.
