data_PCOD9389596
_publ_section_title
;
Structure prediction by ZEFSAII (Michael W. Deem and Ramdas Pophale) SiO2 
 PCOD9389596
Probable space group: P N N N
;
_chemical_formula_sum "Si O2"
_cell_formula_units_Z 40
_cell_length_a 18.277288
_cell_length_b 11.946721
_cell_length_c 7.346661
_cell_angle_alpha 90.000000
_cell_angle_beta 90.000000
_cell_angle_gamma 90.000000
_cell_volume 1604.170321
_symmetry_space_group_name_H-M "P N N N"
_symmetry_group_IT_number 48
_space_group.IT_coordinate_system_code '2'
_symmetry_cell_setting 'orthorhombic'
loop_
_space_group_symop_operation_xyz
x,y,z
1/2-x,1/2-y,z
x,1/2-y,1/2-z
1/2-x,y,1/2-z
-x,-y,-z
1/2+x,1/2+y,-z
-x,1/2+y,1/2+z
1/2+x,-y,1/2+z
loop_
_atom_site_type_symbol
_atom_site_label
_atom_site_fract_x
_atom_site_fract_y
_atom_site_fract_z
Si Si1 0.657307 0.013223 0.087453
Si Si2 0.553072 0.083425 0.609229
Si Si3 0.869724 0.737352 0.030354
Si Si4 0.968658 0.182320 0.507201
Si Si5 0.191822 0.474632 0.486793
O O1 0.654103 0.889054 0.003547
O O2 0.668206 0.994304 0.302754
O O3 0.733140 0.045782 0.987283
O O4 0.585627 0.090452 0.075763
O O5 0.573664 0.200212 0.513379
O O6 0.516768 0.124927 0.795908
O O7 0.500000 0.000000 0.500000
O O8 0.629060 0.022447 0.642047
O O9 0.873128 0.750000 0.250000
O O10 0.818482 0.839295 0.964032
O O11 0.952033 0.730248 0.950279
#
# Coordination Sequence:
#
# PCOD9389596 Si02
#       5
#     8   8   8   8   8
#     4  10  22  37  60  97 123 162 213 269 311 385
#     4  11  21  40  64  88 124 169 210 257 325 392
#     4  10  17  37  63  88 119 162 213 257 310 379
#     4  11  22  38  64  93 124 161 215 268 318 383
#     4  10  21  39  63  86 129 169 207 256 330 386
#
# _framework density 24.935006999999999
#
# number of rings (size 3 to 8) (size 9 to 14) (size 15 to 20)
#    0.000    1.600    4.000    2.400    0.000    4.800 
#    0.000    5.000    0.000    2.400    0.000    0.000 
#    0.000    0.000    0.000    0.000    0.000    0.000 
#
# Total GULP energy -222925.589201 kJ/mol
# GULP energy per Si atom -5573.139730 kJ/mol
# Density = 2.487825 g / cm^3
# Si number density = 24.935007 Si / 1000 Ang^3
#
#
#
# Elastic Constant Matrix: (Units=GPa)
#
#
# Indices 1 2 3 4 5 6 
#
# 1 62.0614 29.1967 11.4619 0.0000 0.0000 0.0000
# 2 29.1967 121.1699 26.5702 0.0000 0.0000 0.0000
# 3 11.4619 26.5702 63.1039 0.0000 0.0000 0.0000
# 4 0.0000 0.0000 0.0000 25.0279 0.0000 0.0000
# 5 0.0000 0.0000 0.0000 0.0000 20.6232 0.0000
# 6 0.0000 0.0000 0.0000 0.0000 0.0000 41.5049
#
#
#
# Elastic Compliance Matrix: (Units=1/GPa)
#
#
# Indices 1 2 3 4 5 6 
#
# 1 0.018322 -0.004060 -0.001618 0.000000 0.000000 0.000000
# 2 -0.004060 0.009992 -0.003470 0.000000 0.000000 0.000000
# 3 -0.001618 -0.003470 0.017602 0.000000 0.000000 0.000000
# 4 0.000000 0.000000 0.000000 0.039955 0.000000 0.000000
# 5 0.000000 0.000000 0.000000 0.000000 0.048489 0.000000
# 6 0.000000 0.000000 0.000000 0.000000 0.000000 0.024094
#
#
# Mechanical properties :
#
#
# Convention : Reuss Voigt Hill
#
# Bulk Modulus (GPa) = 36.20631 42.31032 39.25831
# Shear Modulus (GPa) = 26.88801 29.37164 28.12982
#
# Velocity S-wave (km/s) = 3.28735 3.43582 3.36240
# Velocity P-wave (km/s) = 5.38151 5.72231 5.55453
#
# Compressibility (1/GPa) = 0.02761950
#
# Stress axis : x y z
#
# Youngs Moduli (GPa) = 54.57928 100.08027 56.81230
#
# Poissons Ratio (x) = 0.40632 0.09195
# Poissons Ratio (y) = 0.22159 0.19712
# Poissons Ratio (z) = 0.08834 0.34725
#
# Static dielectric constant tensor:
#      x y z
#    x 1.693830 0.000000 0.000000 
#    y 0.000000 2.060610 0.000000 
#    z 0.000000 0.000000 2.107620 
# 
# From -- ./inp_files/13786.got.cif
#   From: 2010.05.17/outbox.cif.g08.bks.cpg/sg48_7_cif.got.tgz:13786.got - 2010.06.03 20:39:00.
