data_PCOD9389593
_publ_section_title
;
Structure prediction by ZEFSAII (Michael W. Deem and Ramdas Pophale) SiO2 
 PCOD9389593
Probable space group: P N N N
;
_chemical_formula_sum "Si O2"
_cell_formula_units_Z 48
_cell_length_a 14.571113
_cell_length_b 9.207631
_cell_length_c 19.158041
_cell_angle_alpha 90.000000
_cell_angle_beta 90.000000
_cell_angle_gamma 90.000000
_cell_volume 2570.346843
_symmetry_space_group_name_H-M "P N N N"
_symmetry_group_IT_number 48
_space_group.IT_coordinate_system_code '2'
_symmetry_cell_setting 'orthorhombic'
loop_
_space_group_symop_operation_xyz
x,y,z
1/2-x,1/2-y,z
x,1/2-y,1/2-z
1/2-x,y,1/2-z
-x,-y,-z
1/2+x,1/2+y,-z
-x,1/2+y,1/2+z
1/2+x,-y,1/2+z
loop_
_atom_site_type_symbol
_atom_site_label
_atom_site_fract_x
_atom_site_fract_y
_atom_site_fract_z
Si Si1 0.609511 0.250000 0.750000
Si Si2 0.554344 0.957449 0.232974
Si Si3 0.036035 0.250000 0.250000
Si Si4 0.473855 0.334364 0.985490
Si Si5 0.856068 0.715931 0.353937
Si Si6 0.349251 0.169565 0.387162
Si Si7 0.841482 0.181060 0.905495
O O1 0.544037 0.111007 0.749322
O O2 0.654171 0.256450 0.826167
O O3 0.618750 0.907664 0.297194
O O4 0.592630 0.863800 0.169182
O O5 0.532604 0.123891 0.224193
O O6 0.101886 0.301913 0.312877
O O7 0.395757 0.331064 0.927080
O O8 0.567335 0.274443 0.949391
O O9 0.500000 0.500000 0.000000
O O10 0.423717 0.275848 0.054957
O O11 0.750000 0.750000 0.354177
O O12 0.250000 0.250000 0.391464
O O13 0.336773 0.995180 0.399385
O O14 0.750000 0.250000 0.938117
#
# Coordination Sequence:
#
# PCOD9389593 Si02
#       7
#     4   8   4   8   8   8   8
#     4  10  17  36  61  92 110 152 201 244 293 352
#     4  10  19  35  61  90 118 158 199 244 310 351
#     4  12  23  40  59  86 130 162 189 256 323 370
#     4  10  20  40  60  85 119 158 199 253 304 356
#     4  10  19  38  66  89 117 161 215 252 291 368
#     4  11  25  39  57  88 122 160 193 244 315 370
#     4  11  22  38  65  88 118 155 206 254 294 359
#
# _framework density 18.674522
#
# number of rings (size 3 to 8) (size 9 to 14) (size 15 to 20)
#    0.000    1.667    5.000    3.000    2.333    1.333 
#    0.000    8.333    0.000    0.000    0.000    0.000 
#    0.000    0.000    0.000    0.000    0.000    0.000 
#
# Total GULP energy -267333.982359 kJ/mol
# GULP energy per Si atom -5569.457966 kJ/mol
# Density = 1.863202 g / cm^3
# Si number density = 18.674522 Si / 1000 Ang^3
#
#
#
# Elastic Constant Matrix: (Units=GPa)
#
#
# Indices 1 2 3 4 5 6 
#
# 1 140.5168 30.4045 45.4604 0.0000 0.0000 0.0000
# 2 30.4045 66.0338 12.9032 0.0000 0.0000 0.0000
# 3 45.4604 12.9032 106.9836 0.0000 0.0000 0.0000
# 4 0.0000 0.0000 0.0000 7.1157 0.0000 0.0000
# 5 0.0000 0.0000 0.0000 0.0000 30.4249 0.0000
# 6 0.0000 0.0000 0.0000 0.0000 0.0000 1.1535
#
#
#
# Elastic Compliance Matrix: (Units=1/GPa)
#
#
# Indices 1 2 3 4 5 6 
#
# 1 0.008963 -0.003464 -0.003391 0.000000 0.000000 0.000000
# 2 -0.003464 0.016848 -0.000560 0.000000 0.000000 0.000000
# 3 -0.003391 -0.000560 0.010856 0.000000 0.000000 0.000000
# 4 0.000000 0.000000 0.000000 0.140534 0.000000 0.000000
# 5 0.000000 0.000000 0.000000 0.000000 0.032868 0.000000
# 6 0.000000 0.000000 0.000000 0.000000 0.000000 0.866945
#
#
# Mechanical properties :
#
#
# Convention : Reuss Voigt Hill
#
# Bulk Modulus (GPa) = 45.79443 54.56337 50.17890
# Shear Modulus (GPa) = 4.54908 22.72323 13.63615
#
# Velocity S-wave (km/s) = 1.56246 3.49206 2.70515
# Velocity P-wave (km/s) = 5.27548 6.74839 6.05687
#
# Compressibility (1/GPa) = 0.02183672
#
# Stress axis : x y z
#
# Youngs Moduli (GPa) = 111.56684 59.35309 92.11791
#
# Poissons Ratio (x) = 0.20562 0.31236
# Poissons Ratio (y) = 0.38651 0.05158
# Poissons Ratio (z) = 0.37831 0.03323
#
# Static dielectric constant tensor:
#      x y z
#    x 1.632670 0.000000 0.000000 
#    y 0.000000 1.617280 0.000000 
#    z 0.000000 0.000000 1.702390 
# 
# From -- ./inp_files/31588.got.cif
#   From: 2010.05.17/outbox.cif.g08.bks.cpg/sg48_16_cif.got.tgz:31588.got - 2010.06.03 20:39:00.
