data_PCOD9389261
_publ_section_title
;
Structure prediction by ZEFSAII (Michael W. Deem and Ramdas Pophale) SiO2 
 PCOD9389261
Probable space group: P M M M
;
_chemical_formula_sum "Si O2"
_cell_formula_units_Z 60
_cell_length_a 15.000000
_cell_length_b 15.000000
_cell_length_c 15.000000
_cell_angle_alpha 90.000000
_cell_angle_beta 90.000000
_cell_angle_gamma 90.000000
_cell_volume 3375.000000
_symmetry_space_group_name_H-M "P M M M"
_symmetry_group_IT_number 47
_symmetry_cell_setting 'orthorhombic'
loop_
_space_group_symop_operation_xyz
x,y,z
-x,-y,z
x,-y,-z
-x,y,-z
-x,-y,-z
x,y,-z
-x,y,z
x,-y,z
loop_
_atom_site_type_symbol
_atom_site_label
_atom_site_fract_x
_atom_site_fract_y
_atom_site_fract_z
Si Si1 0.402105 0.350843 0.714796
Si Si2 0.392066 0.000000 0.601064
Si Si3 0.249431 0.101872 0.895338
Si Si4 0.395918 0.858825 0.251885
Si Si5 0.333857 0.600861 0.096824
Si Si6 0.098800 0.603310 0.257960
Si Si7 0.157342 0.279952 0.899253
Si Si8 0.235910 0.604660 0.400902
O O1 0.500000 0.370834 0.681108
O O2 0.390071 0.245016 0.725538
O O3 0.390777 0.388351 0.814587
O O4 0.330046 0.387232 0.647127
O O5 0.367669 0.084725 0.661538
O O6 0.500000 0.000000 0.595158
O O7 0.357593 0.000000 0.500000
O O8 0.333514 0.117854 0.831236
O O9 0.176152 0.177387 0.875092
O O10 0.218803 0.000000 0.884104
O O11 0.273484 0.114383 0.000000
O O12 0.500000 0.879681 0.232412
O O13 0.297306 0.500000 0.097796
O O14 0.254079 0.671441 0.101860
O O15 0.379254 0.612977 0.000000
O O16 0.123057 0.500000 0.235899
O O17 0.102348 0.663938 0.171033
O O18 0.165901 0.642399 0.330484
O O19 0.000000 0.601819 0.295858
O O20 0.122521 0.285159 0.000000
O O21 0.234832 0.643278 0.500000
O O22 0.213522 0.500000 0.407907
#
# Coordination Sequence:
#
# PCOD9389261 Si02
#       8
#     8   4   8   8   8   8   8   8
#     4  11  22  34  51  74 103 143 189 230 263 308
#     4   9  18  32  47  63  87 119 157 212 284 342
#     4  10  19  31  50  74 101 138 179 214 256 313
#     4  10  19  31  47  68  96 130 171 225 280 318
#     4  10  19  31  49  71 100 142 184 222 267 314
#     4  10  20  35  58  85 109 136 173 216 267 325
#     4  10  19  33  52  77 110 142 170 210 262 314
#     4  10  21  37  54  73 103 139 175 221 272 317
#
# _framework density 17.777778000000001
#
# number of rings (size 3 to 8) (size 9 to 14) (size 15 to 20)
#    0.000    1.933    3.333    0.800    0.000    3.733 
#    0.000    6.667    0.000    0.400    0.000    1.867 
#    0.000    0.000    0.000    2.933    0.000    0.133 
#
# Total GULP energy -334317.763820 kJ/mol
# GULP energy per Si atom -5571.962730 kJ/mol
# Density = 1.773731 g / cm^3
# Si number density = 17.777778 Si / 1000 Ang^3
#
#
#
# Elastic Constant Matrix: (Units=GPa)
#
#
# Indices 1 2 3 4 5 6 
#
# 1 52.7948 8.4857 39.8080 0.0000 0.0000 0.0000
# 2 8.4857 67.2830 25.7058 0.0000 0.0000 0.0000
# 3 39.8080 25.7058 104.9972 0.0000 0.0000 0.0000
# 4 0.0000 0.0000 0.0000 2.8748 0.0000 0.0000
# 5 0.0000 0.0000 0.0000 0.0000 -17.6617 0.0000
# 6 0.0000 0.0000 0.0000 0.0000 0.0000 2.2869
#
#
#
# Elastic Compliance Matrix: (Units=1/GPa)
#
#
# Indices 1 2 3 4 5 6 
#
# 1 0.026542 0.000548 -0.010197 0.000000 0.000000 0.000000
# 2 0.000548 0.016408 -0.004225 0.000000 0.000000 0.000000
# 3 -0.010197 -0.004225 0.014425 0.000000 0.000000 0.000000
# 4 0.000000 0.000000 0.000000 0.347855 0.000000 0.000000
# 5 0.000000 0.000000 0.000000 0.000000 -0.056620 0.000000
# 6 0.000000 0.000000 0.000000 0.000000 0.000000 0.437272
#
#
# Mechanical properties :
#
#
# Convention : Reuss Voigt Hill
#
# Bulk Modulus (GPa) = 33.75334 41.45266 37.60300
# Shear Modulus (GPa) = 6.07162 7.57171 6.82166
#
# Velocity S-wave (km/s) = 1.85005 2.06599 1.96100
# Velocity P-wave (km/s) = 4.85706 5.39063 5.13079
#
# Compressibility (1/GPa) = 0.02962670
#
# Stress axis : x y z
#
# Youngs Moduli (GPa) = 37.67619 60.94753 69.32634
#
# Poissons Ratio (x) = -0.03343 0.70694
# Poissons Ratio (y) = -0.02066 0.29290
# Poissons Ratio (z) = 0.38419 0.25750
#
# Static dielectric constant tensor:
#      x y z
#    x 1.604410 0.000000 0.000000 
#    y 0.000000 1.631120 0.000000 
#    z 0.000000 0.000000 1.624110 
# 
# From -- ./inp_files/23947.got.cif
#   From: 2010.05.17/outbox.ucp.g08.bks.cvg/sg47_12_cif.got.tgz:23947.got - 2010.06.11 16:36:43.
