data_PCOD9389604
_publ_section_title
;
Structure prediction by ZEFSAII (Michael W. Deem and Ramdas Pophale) SiO2 
 PCOD9389604
Probable space group: P N N N
;
_chemical_formula_sum "Si O2"
_cell_formula_units_Z 46
_cell_length_a 11.915506
_cell_length_b 14.294793
_cell_length_c 11.791689
_cell_angle_alpha 90.000000
_cell_angle_beta 90.000000
_cell_angle_gamma 90.000000
_cell_volume 2008.474753
_symmetry_space_group_name_H-M "P N N N"
_symmetry_group_IT_number 48
_space_group.IT_coordinate_system_code '2'
_symmetry_cell_setting 'orthorhombic'
loop_
_space_group_symop_operation_xyz
x,y,z
1/2-x,1/2-y,z
x,1/2-y,1/2-z
1/2-x,y,1/2-z
-x,-y,-z
1/2+x,1/2+y,-z
-x,1/2+y,1/2+z
1/2+x,-y,1/2+z
loop_
_atom_site_type_symbol
_atom_site_label
_atom_site_fract_x
_atom_site_fract_y
_atom_site_fract_z
Si Si1 0.250000 0.559272 0.250000
Si Si2 0.558626 0.624250 0.907650
Si Si3 0.031048 0.599583 0.353829
Si Si4 0.186491 0.105803 0.420496
Si Si5 0.956491 0.348770 0.174037
Si Si6 0.750000 0.250000 0.250000
Si Si7 0.640841 0.549843 0.325013
O O1 0.154284 0.620680 0.308438
O O2 0.307814 0.489394 0.343282
O O3 0.543584 0.511895 0.885358
O O4 0.689940 0.646713 0.896815
O O5 0.486317 0.666303 0.806834
O O6 0.509708 0.646625 0.030636
O O7 0.939118 0.611966 0.255387
O O8 0.179845 0.088170 0.554506
O O9 0.075420 0.163836 0.388873
O O10 0.831794 0.307346 0.166657
O O11 0.931670 0.457978 0.150899
O O12 0.750000 0.526293 0.250000
#
# Coordination Sequence:
#
# PCOD9389604 Si02
#       7
#     4   8   8   8   8   2   8
#     4  10  18  26  46  73 114 153 180 208 278 352
#     4   9  17  32  51  70 108 145 182 228 271 334
#     4   9  17  28  44  79 114 145 172 212 284 352
#     4  11  18  32  54  80 114 144 183 234 285 349
#     4  11  22  37  51  78 111 157 188 230 276 344
#     4  12  28  40  54  76 118 156 200 234 286 350
#     4  11  19  30  53  85 121 142 172 225 302 354
#
# _framework density 22.902950000000001
#
# number of rings (size 3 to 8) (size 9 to 14) (size 15 to 20)
#    0.000    1.739    7.826    0.522    2.435    0.000 
#    0.000    1.739    0.000    0.000    0.000    2.435 
#    0.000    0.000    0.000    0.000    0.000    0.000 
#
# Total GULP energy -256735.512089 kJ/mol
# GULP energy per Si atom -5581.206785 kJ/mol
# Density = 2.285082 g / cm^3
# Si number density = 22.902950 Si / 1000 Ang^3
#
#
#
# Elastic Constant Matrix: (Units=GPa)
#
#
# Indices 1 2 3 4 5 6 
#
# 1 171.7065 21.1026 35.7548 0.0000 0.0000 0.0000
# 2 21.1026 14.1119 3.6443 0.0000 0.0000 0.0000
# 3 35.7548 3.6443 104.8135 0.0000 0.0000 0.0000
# 4 0.0000 0.0000 0.0000 5.4345 0.0000 0.0000
# 5 0.0000 0.0000 0.0000 0.0000 46.9276 0.0000
# 6 0.0000 0.0000 0.0000 0.0000 0.0000 28.2879
#
#
#
# Elastic Compliance Matrix: (Units=1/GPa)
#
#
# Indices 1 2 3 4 5 6 
#
# 1 0.007616 -0.010814 -0.002222 0.000000 0.000000 0.000000
# 2 -0.010814 0.086861 0.000669 0.000000 0.000000 0.000000
# 3 -0.002222 0.000669 0.010275 0.000000 0.000000 0.000000
# 4 0.000000 0.000000 0.000000 0.184010 0.000000 0.000000
# 5 0.000000 0.000000 0.000000 0.000000 0.021309 0.000000
# 6 0.000000 0.000000 0.000000 0.000000 0.000000 0.035351
#
#
# Mechanical properties :
#
#
# Convention : Reuss Voigt Hill
#
# Bulk Modulus (GPa) = 12.49731 45.73725 29.11728
# Shear Modulus (GPa) = 12.59989 31.47202 22.03596
#
# Velocity S-wave (km/s) = 2.34806 3.71097 3.10521
# Velocity P-wave (km/s) = 3.58045 6.19477 5.05939
#
# Compressibility (1/GPa) = 0.08001722
#
# Stress axis : x y z
#
# Youngs Moduli (GPa) = 131.30876 11.51268 97.31940
#
# Poissons Ratio (x) = 0.12450 0.21623
# Poissons Ratio (y) = 1.42003 -0.06510
# Poissons Ratio (z) = 0.29175 -0.00770
#
# Static dielectric constant tensor:
#      x y z
#    x 1.831420 0.000000 0.000000 
#    y 0.000000 2.009300 0.000000 
#    z 0.000000 0.000000 1.820570 
# 
# From -- ./inp_files/20101.got.cif
#   From: 2010.05.17/outbox.cif.g08.bks.cpg/sg48_11_cif.got.tgz:20101.got - 2010.06.03 20:39:00.
