data_PCOD9389039
_publ_section_title
;
Structure prediction by ZEFSAII (Michael W. Deem and Ramdas Pophale) SiO2 
 PCOD9389039
Probable space group: P M M M
;
_chemical_formula_sum "Si O2"
_cell_formula_units_Z 48
_cell_length_a 7.368439
_cell_length_b 18.655043
_cell_length_c 14.595718
_cell_angle_alpha 90.000000
_cell_angle_beta 90.000000
_cell_angle_gamma 90.000000
_cell_volume 2006.306180
_symmetry_space_group_name_H-M "P M M M"
_symmetry_group_IT_number 47
_symmetry_cell_setting 'orthorhombic'
loop_
_space_group_symop_operation_xyz
x,y,z
-x,-y,z
x,-y,-z
-x,y,-z
-x,-y,-z
x,y,-z
-x,y,z
x,-y,z
loop_
_atom_site_type_symbol
_atom_site_label
_atom_site_fract_x
_atom_site_fract_y
_atom_site_fract_z
Si Si1 0.222380 0.579229 0.697262
Si Si2 0.205869 0.274661 0.634806
Si Si3 0.779662 0.118729 0.401597
Si Si4 0.712299 0.922517 0.192891
Si Si5 0.280680 0.232778 0.840595
Si Si6 0.788155 0.614158 0.097435
O O1 0.272302 0.500000 0.665974
O O2 0.286073 0.645675 0.634793
O O3 0.284007 0.589287 0.803486
O O4 0.000000 0.583814 0.698352
O O5 0.286272 0.201442 0.596475
O O6 0.204639 0.256288 0.742438
O O7 0.000000 0.279173 0.600456
O O8 0.727669 0.085676 0.500000
O O9 0.722814 0.086520 0.304000
O O10 0.000000 0.118984 0.398289
O O11 0.500000 0.924763 0.169381
O O12 0.782694 0.849186 0.146901
O O13 0.792183 0.000000 0.168884
O O14 0.500000 0.231755 0.836441
O O15 0.226234 0.299259 0.902631
O O16 0.000000 0.594011 0.098394
O O17 0.711295 0.588310 0.000000
#
# Coordination Sequence:
#
# PCOD9389039 Si02
#       6
#     8   8   8   8   8   8
#     4   8  13  22  39  62  83 105 137 172 201 234
#     4   8  14  26  42  58  79 108 140 171 202 236
#     4   9  17  28  42  61  85 112 140 169 202 242
#     4   9  18  31  45  62  84 108 134 167 207 247
#     4   9  16  27  44  62  79 103 137 171 200 236
#     4   9  17  28  42  61  85 111 136 164 201 243
#
# _framework density 23.924565000000001
#
# number of rings (size 3 to 8) (size 9 to 14) (size 15 to 20)
#    0.000    3.333    0.000    1.500    0.000    2.333 
#    0.000    3.333    0.000    9.000    0.000   11.667 
#    0.000    0.000    0.000   27.167    0.000   27.000 
#
# Total GULP energy -267348.011238 kJ/mol
# GULP energy per Si atom -5569.750234 kJ/mol
# Density = 2.387011 g / cm^3
# Si number density = 23.924565 Si / 1000 Ang^3
#
#
#
# Elastic Constant Matrix: (Units=GPa)
#
#
# Indices 1 2 3 4 5 6 
#
# 1 95.7402 -3.0548 -5.0878 0.0000 0.0000 0.0000
# 2 -3.0548 176.1565 -15.4646 0.0000 0.0000 0.0000
# 3 -5.0878 -15.4646 33.2382 0.0000 0.0000 0.0000
# 4 0.0000 0.0000 0.0000 -14.0578 0.0000 0.0000
# 5 0.0000 0.0000 0.0000 0.0000 4.7375 0.0000
# 6 0.0000 0.0000 0.0000 0.0000 0.0000 8.0144
#
#
#
# Elastic Compliance Matrix: (Units=1/GPa)
#
#
# Indices 1 2 3 4 5 6 
#
# 1 0.010550 0.000339 0.001772 0.000000 0.000000 0.000000
# 2 0.000339 0.005929 0.002811 0.000000 0.000000 0.000000
# 3 0.001772 0.002811 0.031665 0.000000 0.000000 0.000000
# 4 0.000000 0.000000 0.000000 -0.071135 0.000000 0.000000
# 5 0.000000 0.000000 0.000000 0.000000 0.211080 0.000000
# 6 0.000000 0.000000 0.000000 0.000000 0.000000 0.124775
#
#
# Mechanical properties :
#
#
# Convention : Reuss Voigt Hill
#
# Bulk Modulus (GPa) = 17.24518 28.65782 22.95150
# Shear Modulus (GPa) = 15.51107 21.65498 18.58303
#
# Velocity S-wave (km/s) = 2.54900 3.01181 2.79002
# Velocity P-wave (km/s) = 3.98585 4.90908 4.47136
#
# Compressibility (1/GPa) = 0.05798723
#
# Stress axis : x y z
#
# Youngs Moduli (GPa) = 94.78744 168.65173 31.58073
#
# Poissons Ratio (x) = -0.05710 -0.05597
# Poissons Ratio (y) = -0.03209 -0.08876
# Poissons Ratio (z) = -0.16800 -0.47401
#
# Static dielectric constant tensor:
#      x y z
#    x 1.934300 0.000000 0.000000 
#    y 0.000000 1.977340 0.000000 
#    z 0.000000 0.000000 1.940690 
# 
# From -- ./inp_files/9429.got.cif
#   From: 2010.05.17/outbox.cif.g08.bks.cpg/sg47_5_cif.got.tgz:9429.got - 2010.06.03 20:15:42.
