data_PCOD9389983
_publ_section_title
;
Structure prediction by ZEFSAII (Michael W. Deem and Ramdas Pophale) SiO2 
 PCOD9389983
Probable space group: P N N N
;
_chemical_formula_sum "Si O2"
_cell_formula_units_Z 64
_cell_length_a 5.912866
_cell_length_b 26.130177
_cell_length_c 18.300901
_cell_angle_alpha 90.000000
_cell_angle_beta 90.000000
_cell_angle_gamma 90.000000
_cell_volume 2827.566712
_symmetry_space_group_name_H-M "P N N N"
_symmetry_group_IT_number 48
_space_group.IT_coordinate_system_code '2'
_symmetry_cell_setting 'orthorhombic'
loop_
_space_group_symop_operation_xyz
x,y,z
1/2-x,1/2-y,z
x,1/2-y,1/2-z
1/2-x,y,1/2-z
-x,-y,-z
1/2+x,1/2+y,-z
-x,1/2+y,1/2+z
1/2+x,-y,1/2+z
loop_
_atom_site_type_symbol
_atom_site_label
_atom_site_fract_x
_atom_site_fract_y
_atom_site_fract_z
Si Si1 0.802737 0.167781 0.668822
Si Si2 0.224980 0.955576 0.671236
Si Si3 0.015931 0.522356 0.419527
Si Si4 0.593301 0.054674 0.822878
Si Si5 0.094968 0.374543 0.570309
Si Si6 0.696160 0.130201 0.432934
Si Si7 0.513558 0.797766 0.029486
Si Si8 0.500650 0.729906 0.891857
O O1 0.750000 0.186367 0.750000
O O2 0.960241 0.116101 0.674524
O O3 0.571617 0.148193 0.631166
O O4 0.909278 0.206602 0.610300
O O5 0.250000 0.930856 0.750000
O O6 0.168829 0.911750 0.612845
O O7 0.455979 0.978026 0.637824
O O8 0.067709 0.005243 0.682226
O O9 0.834598 0.568409 0.405823
O O10 0.000000 0.500000 0.500000
O O11 0.256791 0.544199 0.395129
O O12 0.750000 0.052481 0.750000
O O13 0.266231 0.331156 0.546671
O O14 0.960116 0.390703 0.497098
O O15 0.868930 0.165146 0.477677
O O16 0.535130 0.168955 0.387323
O O17 0.513328 0.747896 0.977851
O O18 0.250000 0.750000 0.864701
O O19 0.750000 0.750000 0.863521
#
# Coordination Sequence:
#
# PCOD9389983 Si02
#       8
#     8   8   8   8   8   8   8   8
#     4   9  20  36  55  87 129 167 218 268 322 410
#     4  12  24  39  60  87 132 179 222 265 338 399
#     4  11  22  35  57  87 123 169 219 276 314 389
#     4  10  21  39  56  82 131 184 221 259 328 398
#     4  10  19  35  56  85 119 162 214 263 322 396
#     4  10  22  37  58  93 119 159 214 277 336 397
#     4  10  20  36  62  89 119 160 211 279 347 407
#     4  10  20  39  67  97 125 162 211 282 354 414
#
# _framework density 22.634302000000002
#
# number of rings (size 3 to 8) (size 9 to 14) (size 15 to 20)
#    0.000    1.750    3.750    0.750    1.750    1.000 
#    0.000    0.000    0.000   12.750    0.000    3.500 
#    0.000    0.000    0.000    0.000    0.000    0.000 
#
# Total GULP energy -356370.240162 kJ/mol
# GULP energy per Si atom -5568.285003 kJ/mol
# Density = 2.258279 g / cm^3
# Si number density = 22.634302 Si / 1000 Ang^3
#
#
#
# Elastic Constant Matrix: (Units=GPa)
#
#
# Indices 1 2 3 4 5 6 
#
# 1 59.9464 12.6571 4.8779 0.0000 0.0000 0.0000
# 2 12.6571 70.6729 1.8634 0.0000 0.0000 0.0000
# 3 4.8779 1.8634 73.5838 0.0000 0.0000 0.0000
# 4 0.0000 0.0000 0.0000 20.7686 0.0000 0.0000
# 5 0.0000 0.0000 0.0000 0.0000 15.0965 0.0000
# 6 0.0000 0.0000 0.0000 0.0000 0.0000 29.2943
#
#
#
# Elastic Compliance Matrix: (Units=1/GPa)
#
#
# Indices 1 2 3 4 5 6 
#
# 1 0.017422 -0.003092 -0.001077 0.000000 0.000000 0.000000
# 2 -0.003092 0.014708 -0.000167 0.000000 0.000000 0.000000
# 3 -0.001077 -0.000167 0.013666 0.000000 0.000000 0.000000
# 4 0.000000 0.000000 0.000000 0.048150 0.000000 0.000000
# 5 0.000000 0.000000 0.000000 0.000000 0.066241 0.000000
# 6 0.000000 0.000000 0.000000 0.000000 0.000000 0.034136
#
#
# Mechanical properties :
#
#
# Convention : Reuss Voigt Hill
#
# Bulk Modulus (GPa) = 26.93707 26.99999 26.96853
# Shear Modulus (GPa) = 23.21605 25.35220 24.28412
#
# Velocity S-wave (km/s) = 3.20613 3.35039 3.27905
# Velocity P-wave (km/s) = 5.06286 5.18859 5.12611
#
# Compressibility (1/GPa) = 0.03712357
#
# Stress axis : x y z
#
# Youngs Moduli (GPa) = 57.39881 67.99101 73.17664
#
# Poissons Ratio (x) = 0.21021 0.07878
# Poissons Ratio (y) = 0.17746 0.01226
# Poissons Ratio (z) = 0.06180 0.01139
#
# Static dielectric constant tensor:
#      x y z
#    x 1.998500 0.000000 0.000000 
#    y 0.000000 1.953210 0.000000 
#    z 0.000000 0.000000 1.828200 
# 
# From -- ./inp_files/29686.got.cif
#   From: 2010.05.17/outbox.cif.g08.bks.cpg/sg48_15_cif.got.tgz:29686.got - 2010.06.03 20:39:00.
