data_PCOD9389115
_publ_section_title
;
Structure prediction by ZEFSAII (Michael W. Deem and Ramdas Pophale) SiO2 
 PCOD9389115
Probable space group: P M M M
;
_chemical_formula_sum "Si O2"
_cell_formula_units_Z 52
_cell_length_a 9.658931
_cell_length_b 7.460990
_cell_length_c 34.827533
_cell_angle_alpha 90.000000
_cell_angle_beta 90.000000
_cell_angle_gamma 90.000000
_cell_volume 2509.852699
_symmetry_space_group_name_H-M "P M M M"
_symmetry_group_IT_number 47
_symmetry_cell_setting 'orthorhombic'
loop_
_space_group_symop_operation_xyz
x,y,z
-x,-y,z
x,-y,-z
-x,y,-z
-x,-y,-z
x,y,-z
-x,y,z
x,-y,z
loop_
_atom_site_type_symbol
_atom_site_label
_atom_site_fract_x
_atom_site_fract_y
_atom_site_fract_z
Si Si1 0.658404 0.213917 0.354918
Si Si2 0.842675 0.714515 0.801315
Si Si3 0.339617 0.218634 0.500000
Si Si4 0.842362 0.214657 0.113485
Si Si5 0.339907 0.781319 0.957315
Si Si6 0.342831 0.715047 0.268354
Si Si7 0.840113 0.780794 0.573761
O O1 0.500000 0.283767 0.358710
O O2 0.707413 0.247443 0.311486
O O3 0.762943 0.279567 0.387450
O O4 0.649916 0.000000 0.359878
O O5 0.850237 0.500000 0.797191
O O6 0.785089 0.749109 0.843935
O O7 0.751775 0.783905 0.766126
O O8 0.000000 0.785096 0.800182
O O9 0.500000 0.277410 0.500000
O O10 0.253752 0.273741 0.537592
O O11 0.342704 0.000000 0.500000
O O12 0.751861 0.282523 0.078106
O O13 0.000000 0.284217 0.112202
O O14 0.848917 0.000000 0.109614
O O15 0.500000 0.727946 0.952923
O O16 0.337874 0.000000 0.956879
O O17 0.292051 0.726718 0.000000
O O18 0.500000 0.784172 0.265612
O O19 0.348777 0.500000 0.264647
O O20 0.000000 0.722855 0.571116
O O21 0.842569 0.000000 0.573745
#
# Coordination Sequence:
#
# PCOD9389115 Si02
#       7
#     8   8   4   8   8   8   8
#     4   9  17  29  44  63  88 115 142 175 216 258
#     4   9  18  32  47  62  84 114 143 172 211 258
#     4   9  15  23  37  57  84 119 152 179 212 256
#     4   9  17  28  43  65  89 111 140 178 214 248
#     4   8  14  25  41  62  88 115 141 171 209 251
#     4   9  18  32  48  65  85 111 145 181 214 253
#     4   9  16  25  38  59  87 116 146 180 216 254
#
# _framework density 20.718347000000001
#
# number of rings (size 3 to 8) (size 9 to 14) (size 15 to 20)
#    0.000    3.154    0.000    1.154    0.000    4.923 
#    0.000    1.538    0.000    0.462    0.000    3.769 
#    0.000    4.308    0.000    0.000    0.000    0.000 
#
# Total GULP energy -290087.750619 kJ/mol
# GULP energy per Si atom -5578.610589 kJ/mol
# Density = 2.067119 g / cm^3
# Si number density = 20.718347 Si / 1000 Ang^3
#
#
#
# Elastic Constant Matrix: (Units=GPa)
#
#
# Indices 1 2 3 4 5 6 
#
# 1 122.8511 4.1631 132.4375 0.0000 0.0000 0.0000
# 2 4.1631 61.2336 -0.6220 0.0000 0.0000 0.0000
# 3 132.4375 -0.6220 245.4654 0.0000 0.0000 0.0000
# 4 0.0000 0.0000 0.0000 33.8771 0.0000 0.0000
# 5 0.0000 0.0000 0.0000 0.0000 40.9682 0.0000
# 6 0.0000 0.0000 0.0000 0.0000 0.0000 -2.8549
#
#
#
# Elastic Compliance Matrix: (Units=1/GPa)
#
#
# Indices 1 2 3 4 5 6 
#
# 1 0.019583 -0.001439 -0.010569 0.000000 0.000000 0.000000
# 2 -0.001439 0.016437 0.000818 0.000000 0.000000 0.000000
# 3 -0.010569 0.000818 0.009778 0.000000 0.000000 0.000000
# 4 0.000000 0.000000 0.000000 0.029518 0.000000 0.000000
# 5 0.000000 0.000000 0.000000 0.000000 0.024409 0.000000
# 6 0.000000 0.000000 0.000000 0.000000 0.000000 -0.350278
#
#
# Mechanical properties :
#
#
# Convention : Reuss Voigt Hill
#
# Bulk Modulus (GPa) = 42.70212 77.94526 60.32369
# Shear Modulus (GPa) = -22.68946 33.96951 5.64003
#
# Velocity S-wave (km/s) = -3.31288 4.05357 1.65171
# Velocity P-wave (km/s) = 2.45397 7.72086 5.72860
#
# Compressibility (1/GPa) = 0.02341804
#
# Stress axis : x y z
#
# Youngs Moduli (GPa) = 51.06567 60.83826 102.26595
#
# Poissons Ratio (x) = 0.08753 1.08087
# Poissons Ratio (y) = 0.07347 -0.08364
# Poissons Ratio (z) = 0.53972 -0.04976
#
# Static dielectric constant tensor:
#      x y z
#    x 1.719030 0.000000 0.000000 
#    y 0.000000 1.786720 0.000000 
#    z 0.000000 0.000000 1.719660 
# 
# From -- ./inp_files/15466.got.cif
#   From: 2010.05.17/outbox.cif.g08.bks.cpg/sg47_8_cif.got.tgz:15466.got - 2010.06.03 20:15:42.
