data_PCOD9389245
_publ_section_title
;
Structure prediction by ZEFSAII (Michael W. Deem and Ramdas Pophale) SiO2 
 PCOD9389245
Probable space group: P M M M
;
_chemical_formula_sum "Si O2"
_cell_formula_units_Z 52
_cell_length_a 21.000000
_cell_length_b 15.000000
_cell_length_c 9.000000
_cell_angle_alpha 90.000000
_cell_angle_beta 90.000000
_cell_angle_gamma 90.000000
_cell_volume 2835.000000
_symmetry_space_group_name_H-M "P M M M"
_symmetry_group_IT_number 47
_symmetry_cell_setting 'orthorhombic'
loop_
_space_group_symop_operation_xyz
x,y,z
-x,-y,z
x,-y,-z
-x,y,-z
-x,-y,-z
x,y,-z
-x,y,z
x,-y,z
loop_
_atom_site_type_symbol
_atom_site_label
_atom_site_fract_x
_atom_site_fract_y
_atom_site_fract_z
Si Si1 0.612311 0.226021 0.825281
Si Si2 0.073720 0.000000 0.318741
Si Si3 0.925397 0.500000 0.319141
Si Si4 0.500000 0.107352 0.320579
Si Si5 0.179521 0.354949 0.681470
Si Si6 0.673643 0.397032 0.320710
Si Si7 0.844100 0.157382 0.672387
Si Si8 0.700799 0.101638 0.331983
O O1 0.559309 0.164458 0.743936
O O2 0.628488 0.322906 0.755287
O O3 0.674880 0.167795 0.790734
O O4 0.598442 0.233444 0.000000
O O5 0.106022 0.089569 0.259315
O O6 0.083846 0.000000 0.500000
O O7 0.000000 0.000000 0.290730
O O8 0.928086 0.500000 0.500000
O O9 0.880009 0.416970 0.274690
O O10 0.000000 0.500000 0.269389
O O11 0.500000 0.110246 0.500000
O O12 0.500000 0.000000 0.280007
O O13 0.181306 0.356501 0.500000
O O14 0.251598 0.383589 0.724062
O O15 0.166322 0.255130 0.736277
O O16 0.670459 0.384745 0.500000
O O17 0.656300 0.500000 0.287796
O O18 0.863198 0.172979 0.500000
O O19 0.776646 0.107457 0.669766
O O20 0.680700 0.130072 0.500000
O O21 0.679374 0.000000 0.310572
#
# Coordination Sequence:
#
# PCOD9389245 Si02
#       8
#     8   4   4   4   8   8   8   8
#     4  12  25  39  59  90 127 157 186 235 296 345
#     4   9  16  24  34  58 101 146 183 228 295 359
#     4   9  16  24  36  64 107 146 181 232 303 367
#     4  11  25  47  72  95 122 161 203 234 270 335
#     4   9  15  25  44  69  99 139 186 236 290 346
#     4  10  19  35  61  87 112 152 203 248 290 344
#     4   9  15  24  41  65  95 135 183 233 283 339
#     4  10  18  31  54  80 107 146 195 240 282 337
#
# _framework density 18.342151999999999
#
# number of rings (size 3 to 8) (size 9 to 14) (size 15 to 20)
#    0.000    2.077    3.077    2.077    0.000    3.692 
#    0.000    3.462    0.000    2.308    0.000    0.000 
#    0.000    3.692    0.000    0.000    0.000    0.000 
#
# Total GULP energy -289643.880616 kJ/mol
# GULP energy per Si atom -5570.074627 kJ/mol
# Density = 1.830040 g / cm^3
# Si number density = 18.342152 Si / 1000 Ang^3
#
#
#
# Elastic Constant Matrix: (Units=GPa)
#
#
# Indices 1 2 3 4 5 6 
#
# 1 83.7807 59.9152 24.8031 0.0000 0.0000 0.0000
# 2 59.9152 167.6748 40.9902 0.0000 0.0000 0.0000
# 3 24.8031 40.9902 45.2739 0.0000 0.0000 0.0000
# 4 0.0000 0.0000 0.0000 11.4095 0.0000 0.0000
# 5 0.0000 0.0000 0.0000 0.0000 0.8930 0.0000
# 6 0.0000 0.0000 0.0000 0.0000 0.0000 21.3209
#
#
#
# Elastic Compliance Matrix: (Units=1/GPa)
#
#
# Indices 1 2 3 4 5 6 
#
# 1 0.016822 -0.004826 -0.004846 0.000000 0.000000 0.000000
# 2 -0.004826 0.009044 -0.005544 0.000000 0.000000 0.000000
# 3 -0.004846 -0.005544 0.029762 0.000000 0.000000 0.000000
# 4 0.000000 0.000000 0.000000 0.087646 0.000000 0.000000
# 5 0.000000 0.000000 0.000000 0.000000 1.119804 0.000000
# 6 0.000000 0.000000 0.000000 0.000000 0.000000 0.046902
#
#
# Mechanical properties :
#
#
# Convention : Reuss Voigt Hill
#
# Bulk Modulus (GPa) = 39.69043 60.90513 50.29778
# Shear Modulus (GPa) = 3.70697 18.12608 10.91652
#
# Velocity S-wave (km/s) = 1.42316 3.14701 2.44224
# Velocity P-wave (km/s) = 4.93826 6.81777 5.95266
#
# Compressibility (1/GPa) = 0.02519499
#
# Stress axis : x y z
#
# Youngs Moduli (GPa) = 59.44543 110.57269 33.59960
#
# Poissons Ratio (x) = 0.53366 0.16283
# Poissons Ratio (y) = 0.28690 0.18628
# Poissons Ratio (z) = 0.28809 0.61302
#
# Static dielectric constant tensor:
#      x y z
#    x 1.661210 0.000000 0.000000 
#    y 0.000000 1.666560 0.000000 
#    z 0.000000 0.000000 1.624760 
# 
# From -- ./inp_files/11109.got.cif
#   From: 2010.05.17/outbox.ucp.g08.bks.cvg/sg47_6_cif.got.tgz:11109.got - 2010.06.11 16:36:43.
