data_PCOD9389366
_publ_section_title
;
Structure prediction by ZEFSAII (Michael W. Deem and Ramdas Pophale) SiO2 
 PCOD9389366
Probable space group: P M M M
;
_chemical_formula_sum "Si O2"
_cell_formula_units_Z 52
_cell_length_a 15.000000
_cell_length_b 9.000000
_cell_length_c 21.000000
_cell_angle_alpha 90.000000
_cell_angle_beta 90.000000
_cell_angle_gamma 90.000000
_cell_volume 2835.000000
_symmetry_space_group_name_H-M "P M M M"
_symmetry_group_IT_number 47
_symmetry_cell_setting 'orthorhombic'
loop_
_space_group_symop_operation_xyz
x,y,z
-x,-y,z
x,-y,-z
-x,y,-z
-x,-y,-z
x,y,-z
-x,y,z
x,-y,z
loop_
_atom_site_type_symbol
_atom_site_label
_atom_site_fract_x
_atom_site_fract_y
_atom_site_fract_z
Si Si1 0.500000 0.669407 0.577302
Si Si2 0.783513 0.175164 0.697105
Si Si3 0.787577 0.177640 0.928704
Si Si4 0.402560 0.171172 0.768843
Si Si5 0.399803 0.676045 0.097830
Si Si6 0.105906 0.678159 0.190069
Si Si7 0.311596 0.820780 0.425712
O O1 0.500000 0.500000 0.601462
O O2 0.500000 0.664977 0.500000
O O3 0.592816 0.750827 0.593221
O O4 0.684083 0.189400 0.726428
O O5 0.849561 0.261010 0.744574
O O6 0.766377 0.223547 0.623897
O O7 0.807665 0.000000 0.698036
O O8 0.686059 0.238121 0.927971
O O9 0.842525 0.251110 0.870707
O O10 0.786774 0.000000 0.919379
O O11 0.824419 0.209106 0.000000
O O12 0.500000 0.188051 0.737088
O O13 0.398622 0.284389 0.827237
O O14 0.399258 0.000000 0.793656
O O15 0.500000 0.719051 0.075394
O O16 0.389597 0.500000 0.087101
O O17 0.116365 0.500000 0.187565
O O18 0.000000 0.712971 0.187831
O O19 0.293836 0.783266 0.500000
O O20 0.320203 0.000000 0.421263
#
# Coordination Sequence:
#
# PCOD9389366 Si02
#       7
#     4   8   8   8   8   8   8
#     4   9  17  29  45  71 111 159 204 239 276 325
#     4  10  20  34  58  86 112 149 192 234 283 337
#     4  11  24  41  62  88 117 151 190 230 276 334
#     4   9  17  29  48  76 111 149 189 232 276 327
#     4  10  20  34  54  82 117 156 195 233 274 322
#     4  11  25  44  65  88 113 141 179 233 295 354
#     4   9  18  32  51  78 114 155 197 238 281 331
#
# _framework density 18.342151999999999
#
# number of rings (size 3 to 8) (size 9 to 14) (size 15 to 20)
#    0.000    2.077    1.538    1.615    1.077    5.538 
#    0.000    3.077    0.000    0.462    0.000    3.231 
#    0.000    0.000    0.000    0.000    0.000    0.000 
#
# Total GULP energy -290087.496837 kJ/mol
# GULP energy per Si atom -5578.605708 kJ/mol
# Density = 1.830040 g / cm^3
# Si number density = 18.342152 Si / 1000 Ang^3
#
#
#
# Elastic Constant Matrix: (Units=GPa)
#
#
# Indices 1 2 3 4 5 6 
#
# 1 113.9827 49.0968 61.9797 0.0000 0.0000 0.0000
# 2 49.0968 65.1765 48.6152 0.0000 0.0000 0.0000
# 3 61.9797 48.6152 124.8334 0.0000 0.0000 0.0000
# 4 0.0000 0.0000 0.0000 3.0793 0.0000 0.0000
# 5 0.0000 0.0000 0.0000 0.0000 11.7438 0.0000
# 6 0.0000 0.0000 0.0000 0.0000 0.0000 28.5971
#
#
#
# Elastic Compliance Matrix: (Units=1/GPa)
#
#
# Indices 1 2 3 4 5 6 
#
# 1 0.014339 -0.007739 -0.004105 0.000000 0.000000 0.000000
# 2 -0.007739 0.025802 -0.006206 0.000000 0.000000 0.000000
# 3 -0.004105 -0.006206 0.012466 0.000000 0.000000 0.000000
# 4 0.000000 0.000000 0.000000 0.324750 0.000000 0.000000
# 5 0.000000 0.000000 0.000000 0.000000 0.085151 0.000000
# 6 0.000000 0.000000 0.000000 0.000000 0.000000 0.034969
#
#
# Mechanical properties :
#
#
# Convention : Reuss Voigt Hill
#
# Bulk Modulus (GPa) = 60.58453 69.26401 64.92427
# Shear Modulus (GPa) = 9.27507 18.30408 13.78958
#
# Velocity S-wave (km/s) = 2.25115 3.16242 2.74487
# Velocity P-wave (km/s) = 6.31338 7.15393 6.74676
#
# Compressibility (1/GPa) = 0.01650586
#
# Stress axis : x y z
#
# Youngs Moduli (GPa) = 69.73826 38.75701 80.21992
#
# Poissons Ratio (x) = 0.29996 0.32934
# Poissons Ratio (y) = 0.53974 0.49781
# Poissons Ratio (z) = 0.28630 0.24051
#
# Static dielectric constant tensor:
#      x y z
#    x 1.614830 0.000000 0.000000 
#    y 0.000000 1.624520 0.000000 
#    z 0.000000 0.000000 1.680240 
# 
# From -- ./inp_files/30899.got.cif
#   From: 2010.05.17/outbox.ucp.g08.bks.cvg/sg47_16_cif.got.tgz:30899.got - 2010.06.11 16:36:43.
