data_PCOD9389105
_publ_section_title
;
Structure prediction by ZEFSAII (Michael W. Deem and Ramdas Pophale) SiO2 
 PCOD9389105
Probable space group: P M M M
;
_chemical_formula_sum "Si O2"
_cell_formula_units_Z 52
_cell_length_a 7.482492
_cell_length_b 9.510417
_cell_length_c 35.105165
_cell_angle_alpha 90.000000
_cell_angle_beta 90.000000
_cell_angle_gamma 90.000000
_cell_volume 2498.140381
_symmetry_space_group_name_H-M "P M M M"
_symmetry_group_IT_number 47
_symmetry_cell_setting 'orthorhombic'
loop_
_space_group_symop_operation_xyz
x,y,z
-x,-y,z
x,-y,-z
-x,y,-z
-x,-y,-z
x,y,-z
-x,y,z
x,-y,z
loop_
_atom_site_type_symbol
_atom_site_label
_atom_site_fract_x
_atom_site_fract_y
_atom_site_fract_z
Si Si1 0.211571 0.839516 0.624504
Si Si2 0.781426 0.838441 0.229651
Si Si3 0.285223 0.836272 0.459081
Si Si4 0.719099 0.838876 0.000000
Si Si5 0.286052 0.660107 0.927958
Si Si6 0.786325 0.660472 0.842319
Si Si7 0.781265 0.661690 0.303698
O O1 0.234009 0.777549 0.582009
O O2 0.280664 0.741667 0.658227
O O3 0.000000 0.851645 0.630802
O O4 0.284968 0.000000 0.625463
O O5 0.720670 0.761066 0.191145
O O6 0.726952 0.749025 0.266484
O O7 0.000000 0.839685 0.229458
O O8 0.723437 0.000000 0.231765
O O9 0.224199 0.775887 0.500000
O O10 0.500000 0.836437 0.459817
O O11 0.225411 0.000000 0.458437
O O12 0.779004 0.757404 0.962107
O O13 0.500000 0.838287 0.000000
O O14 0.776046 0.000000 0.000000
O O15 0.500000 0.652924 0.931823
O O16 0.216653 0.500000 0.931020
O O17 0.248900 0.711527 0.885202
O O18 0.716763 0.500000 0.839087
O O19 0.000000 0.652616 0.837958
O O20 0.723338 0.500000 0.302240
O O21 0.000000 0.660121 0.303971
#
# Coordination Sequence:
#
# PCOD9389105 Si02
#       7
#     8   8   8   4   8   8   8
#     4   9  16  25  40  64  89 109 135 176 218 250
#     4   9  16  26  42  64  89 116 145 177 212 251
#     4   8  14  25  41  61  85 113 143 173 208 253
#     4   9  17  29  46  67  88 112 146 185 220 256
#     4   9  17  30  48  67  87 114 147 180 214 255
#     4   9  17  29  45  66  91 117 145 177 214 256
#     4   9  16  26  41  61  86 115 144 174 211 255
#
# _framework density 20.815481999999999
#
# number of rings (size 3 to 8) (size 9 to 14) (size 15 to 20)
#    0.000    3.154    0.000    1.615    0.000    5.538 
#    0.000    1.923    0.000    4.154    0.000    3.231 
#    0.000    0.000    0.000    0.000    0.000    0.000 
#
# Total GULP energy -290003.628678 kJ/mol
# GULP energy per Si atom -5576.992859 kJ/mol
# Density = 2.076810 g / cm^3
# Si number density = 20.815482 Si / 1000 Ang^3
#
#
#
# Elastic Constant Matrix: (Units=GPa)
#
#
# Indices 1 2 3 4 5 6 
#
# 1 56.3087 5.8165 0.6920 0.0000 0.0000 0.0000
# 2 5.8165 127.4341 131.6980 0.0000 0.0000 0.0000
# 3 0.6920 131.6980 254.6934 0.0000 0.0000 0.0000
# 4 0.0000 0.0000 0.0000 50.4138 0.0000 0.0000
# 5 0.0000 0.0000 0.0000 0.0000 23.4584 0.0000
# 6 0.0000 0.0000 0.0000 0.0000 0.0000 -1.2808
#
#
#
# Elastic Compliance Matrix: (Units=1/GPa)
#
#
# Indices 1 2 3 4 5 6 
#
# 1 0.017920 -0.001649 0.000804 0.000000 0.000000 0.000000
# 2 -0.001649 0.017005 -0.008789 0.000000 0.000000 0.000000
# 3 0.000804 -0.008789 0.008469 0.000000 0.000000 0.000000
# 4 0.000000 0.000000 0.000000 0.019836 0.000000 0.000000
# 5 0.000000 0.000000 0.000000 0.000000 0.042629 0.000000
# 6 0.000000 0.000000 0.000000 0.000000 0.000000 -0.780737
#
#
# Mechanical properties :
#
#
# Convention : Reuss Voigt Hill
#
# Bulk Modulus (GPa) = 41.44818 79.42769 60.43793
# Shear Modulus (GPa) = -7.72117 34.53360 13.40621
#
# Velocity S-wave (km/s) = -1.92805 4.07754 2.54057
# Velocity P-wave (km/s) = 3.87284 7.77234 6.14037
#
# Compressibility (1/GPa) = 0.02412651
#
# Stress axis : x y z
#
# Youngs Moduli (GPa) = 55.80461 58.80593 118.08403
#
# Poissons Ratio (x) = 0.09695 -0.09491
# Poissons Ratio (y) = 0.09200 1.03779
# Poissons Ratio (z) = -0.04485 0.51682
#
# Static dielectric constant tensor:
#      x y z
#    x 1.794880 0.000000 0.000000 
#    y 0.000000 1.712500 0.000000 
#    z 0.000000 0.000000 1.743920 
# 
# From -- ./inp_files/14090.got.cif
#   From: 2010.05.17/outbox.cif.g08.bks.cpg/sg47_8_cif.got.tgz:14090.got - 2010.06.03 20:15:42.
