data_PCOD9389380
_publ_section_title
;
Structure prediction by ZEFSAII (Michael W. Deem and Ramdas Pophale) SiO2 
 PCOD9389380
Probable space group: P M M M
;
_chemical_formula_sum "Si O2"
_cell_formula_units_Z 48
_cell_length_a 15.000000
_cell_length_b 18.000000
_cell_length_c 9.000000
_cell_angle_alpha 90.000000
_cell_angle_beta 90.000000
_cell_angle_gamma 90.000000
_cell_volume 2430.000000
_symmetry_space_group_name_H-M "P M M M"
_symmetry_group_IT_number 47
_symmetry_cell_setting 'orthorhombic'
loop_
_space_group_symop_operation_xyz
x,y,z
-x,-y,z
x,-y,-z
-x,y,-z
-x,-y,-z
x,y,-z
-x,y,z
x,-y,z
loop_
_atom_site_type_symbol
_atom_site_label
_atom_site_fract_x
_atom_site_fract_y
_atom_site_fract_z
Si Si1 0.895596 0.000000 0.661133
Si Si2 0.902664 0.699952 0.676798
Si Si3 0.272786 0.667452 0.828915
Si Si4 0.854664 0.147801 0.167580
Si Si5 0.401621 0.587423 0.338055
Si Si6 0.500000 0.914649 0.677032
Si Si7 0.648095 0.181641 0.830908
O O1 0.875782 0.927626 0.753147
O O2 0.849753 0.000000 0.500000
O O3 0.000000 0.000000 0.640002
O O4 0.896876 0.701516 0.500000
O O5 0.819323 0.657767 0.745111
O O6 0.891313 0.783005 0.740050
O O7 0.000000 0.670995 0.720162
O O8 0.336504 0.600302 0.797431
O O9 0.332677 0.736128 0.769102
O O10 0.253802 0.683983 0.000000
O O11 0.747947 0.151041 0.162381
O O12 0.889029 0.151735 0.000000
O O13 0.367221 0.614679 0.500000
O O14 0.500000 0.619774 0.314056
O O15 0.410610 0.500000 0.351323
O O16 0.500000 0.915278 0.500000
O O17 0.415048 0.870026 0.736565
O O18 0.500000 0.000000 0.730764
O O19 0.613041 0.187267 0.000000
#
# Coordination Sequence:
#
# PCOD9389380 Si02
#       7
#     4   8   8   8   8   4   8
#     4  11  23  35  49  72 101 134 169 211 270 333
#     4  10  20  35  56  81 109 143 183 226 276 332
#     4  10  21  36  57  86 116 148 188 231 275 327
#     4  10  21  36  54  76 101 132 174 223 275 329
#     4   9  19  36  58  86 120 156 190 225 272 329
#     4  11  25  39  53  77 102 133 182 231 277 326
#     4   9  21  39  55  75 103 139 178 219 272 327
#
# _framework density 19.753086
#
# number of rings (size 3 to 8) (size 9 to 14) (size 15 to 20)
#    0.000    2.167    0.000    4.000    2.333    9.333 
#    0.000    0.833    0.000    0.500    0.000    3.500 
#    0.000    0.000    0.000    0.000    0.000    0.000 
#
# Total GULP energy -267224.000720 kJ/mol
# GULP energy per Si atom -5567.166682 kJ/mol
# Density = 1.970813 g / cm^3
# Si number density = 19.753086 Si / 1000 Ang^3
#
#
#
# Elastic Constant Matrix: (Units=GPa)
#
#
# Indices 1 2 3 4 5 6 
#
# 1 98.2750 37.2661 48.0159 0.0000 0.0000 0.0000
# 2 37.2661 20.1378 17.1713 0.0000 0.0000 0.0000
# 3 48.0159 17.1713 52.1260 0.0000 0.0000 0.0000
# 4 0.0000 0.0000 0.0000 23.4213 0.0000 0.0000
# 5 0.0000 0.0000 0.0000 0.0000 39.2695 0.0000
# 6 0.0000 0.0000 0.0000 0.0000 0.0000 16.9661
#
#
#
# Elastic Compliance Matrix: (Units=1/GPa)
#
#
# Indices 1 2 3 4 5 6 
#
# 1 0.044890 -0.066489 -0.019448 0.000000 0.000000 0.000000
# 2 -0.066489 0.167534 0.006057 0.000000 0.000000 0.000000
# 3 -0.019448 0.006057 0.035103 0.000000 0.000000 0.000000
# 4 0.000000 0.000000 0.000000 0.042696 0.000000 0.000000
# 5 0.000000 0.000000 0.000000 0.000000 0.025465 0.000000
# 6 0.000000 0.000000 0.000000 0.000000 0.000000 0.058941
#
#
# Mechanical properties :
#
#
# Convention : Reuss Voigt Hill
#
# Bulk Modulus (GPa) = 11.39361 41.71616 26.55489
# Shear Modulus (GPa) = 8.87083 20.47042 14.67063
#
# Velocity S-wave (km/s) = 2.12146 3.22268 2.72821
# Velocity P-wave (km/s) = 3.43240 5.91711 4.83702
#
# Compressibility (1/GPa) = 0.08776851
#
# Stress axis : x y z
#
# Youngs Moduli (GPa) = 22.27652 5.96894 28.48720
#
# Poissons Ratio (x) = 0.39687 0.55402
# Poissons Ratio (y) = 1.48114 -0.17255
# Poissons Ratio (z) = 0.43323 -0.03616
#
# Static dielectric constant tensor:
#      x y z
#    x 1.870380 0.000000 0.000000 
#    y 0.000000 1.708330 0.000000 
#    z 0.000000 0.000000 1.747250 
# 
# From -- ./inp_files/6428.got.cif
#   From: 2010.05.17/outbox.ucp.g08.bks.cvg/sg47_4_cif.got.tgz:6428.got - 2010.06.11 16:36:43.
