data_PCOD9389590
_publ_section_title
;
Structure prediction by ZEFSAII (Michael W. Deem and Ramdas Pophale) SiO2 
 PCOD9389590
Probable space group: P N N N
;
_chemical_formula_sum "Si O2"
_cell_formula_units_Z 56
_cell_length_a 19.682451
_cell_length_b 8.670047
_cell_length_c 16.818006
_cell_angle_alpha 90.000000
_cell_angle_beta 90.000000
_cell_angle_gamma 90.000000
_cell_volume 2869.955308
_symmetry_space_group_name_H-M "P N N N"
_symmetry_group_IT_number 48
_space_group.IT_coordinate_system_code '2'
_symmetry_cell_setting 'orthorhombic'
loop_
_space_group_symop_operation_xyz
x,y,z
1/2-x,1/2-y,z
x,1/2-y,1/2-z
1/2-x,y,1/2-z
-x,-y,-z
1/2+x,1/2+y,-z
-x,1/2+y,1/2+z
1/2+x,-y,1/2+z
loop_
_atom_site_type_symbol
_atom_site_label
_atom_site_fract_x
_atom_site_fract_y
_atom_site_fract_z
Si Si1 0.648771 0.443987 0.468104
Si Si2 0.527973 0.869531 0.100891
Si Si3 0.121362 0.117867 0.931878
Si Si4 0.966552 0.674778 0.835841
Si Si5 0.247182 0.437353 0.659375
Si Si6 0.177859 0.310915 0.082022
Si Si7 0.057113 0.817264 0.976217
O O1 0.574867 0.528824 0.459276
O O2 0.693012 0.490472 0.392421
O O3 0.683552 0.517267 0.545255
O O4 0.630296 0.266541 0.469990
O O5 0.583000 0.739843 0.125888
O O6 0.492754 0.996209 0.156965
O O7 0.474886 0.763714 0.053647
O O8 0.175613 0.026199 0.880595
O O9 0.070287 0.998423 0.972747
O O10 0.158933 0.208299 0.003620
O O11 0.977571 0.750000 0.750000
O O12 0.887284 0.689026 0.860606
O O13 0.010428 0.766832 0.901775
O O14 0.250000 0.250000 0.655654
O O15 0.250000 0.486428 0.750000
O O16 0.250000 0.250000 0.113434
#
# Coordination Sequence:
#
# PCOD9389590 Si02
#       7
#     8   8   8   8   8   8   8
#     4  10  17  36  59  80 108 158 194 234 291 349
#     4  10  19  37  60  82 113 153 198 245 298 360
#     4  11  21  34  61  91 113 156 204 243 295 371
#     4  11  23  39  58  86 119 154 197 256 312 361
#     4  11  21  36  55  85 121 157 201 240 295 367
#     4  11  19  38  62  81 110 150 204 249 296 361
#     4  11  21  35  60  88 118 152 201 246 299 370
#
# _framework density 19.512498999999998
#
# number of rings (size 3 to 8) (size 9 to 14) (size 15 to 20)
#    0.000    1.286    8.571    1.286    0.000    3.143 
#    0.000    0.714    0.000    0.000    0.000    0.000 
#    0.000    0.000    0.000    0.000    0.000    0.000 
#
# Total GULP energy -312172.504139 kJ/mol
# GULP energy per Si atom -5574.509002 kJ/mol
# Density = 1.946809 g / cm^3
# Si number density = 19.512499 Si / 1000 Ang^3
#
#
#
# Elastic Constant Matrix: (Units=GPa)
#
#
# Indices 1 2 3 4 5 6 
#
# 1 94.6823 29.3576 18.0812 0.0000 0.0000 0.0000
# 2 29.3576 83.1488 13.9758 0.0000 0.0000 0.0000
# 3 18.0812 13.9758 57.0016 0.0000 0.0000 0.0000
# 4 0.0000 0.0000 0.0000 20.3203 0.0000 0.0000
# 5 0.0000 0.0000 0.0000 0.0000 21.2636 0.0000
# 6 0.0000 0.0000 0.0000 0.0000 0.0000 29.2840
#
#
#
# Elastic Compliance Matrix: (Units=1/GPa)
#
#
# Indices 1 2 3 4 5 6 
#
# 1 0.012322 -0.003852 -0.002964 0.000000 0.000000 0.000000
# 2 -0.003852 0.013748 -0.002149 0.000000 0.000000 0.000000
# 3 -0.002964 -0.002149 0.019010 0.000000 0.000000 0.000000
# 4 0.000000 0.000000 0.000000 0.049212 0.000000 0.000000
# 5 0.000000 0.000000 0.000000 0.000000 0.047029 0.000000
# 6 0.000000 0.000000 0.000000 0.000000 0.000000 0.034148
#
#
# Mechanical properties :
#
#
# Convention : Reuss Voigt Hill
#
# Bulk Modulus (GPa) = 36.83238 39.74021 38.28630
# Shear Modulus (GPa) = 24.69743 25.73478 25.21611
#
# Velocity S-wave (km/s) = 3.56156 3.63559 3.59876
# Velocity P-wave (km/s) = 5.98584 6.16718 6.07718
#
# Compressibility (1/GPa) = 0.02715002
#
# Stress axis : x y z
#
# Youngs Moduli (GPa) = 81.15442 72.73790 52.60268
#
# Poissons Ratio (x) = 0.28022 0.15592
# Poissons Ratio (y) = 0.31264 0.11303
# Poissons Ratio (z) = 0.24055 0.15630
#
# Static dielectric constant tensor:
#      x y z
#    x 1.762180 0.000000 0.000000 
#    y 0.000000 1.744290 0.000000 
#    z 0.000000 0.000000 1.660960 
# 
# From -- ./inp_files/28368.got.cif
#   From: 2010.05.17/outbox.cif.g08.bks.cpg/sg48_15_cif.got.tgz:28368.got - 2010.06.03 20:39:00.
