data_PCOD9389896
_publ_section_title
;
Structure prediction by ZEFSAII (Michael W. Deem and Ramdas Pophale) SiO2 
 PCOD9389896
Probable space group: P N N N
;
_chemical_formula_sum "Si O2"
_cell_formula_units_Z 64
_cell_length_a 8.081657
_cell_length_b 17.695631
_cell_length_c 22.329988
_cell_angle_alpha 90.000000
_cell_angle_beta 90.000000
_cell_angle_gamma 90.000000
_cell_volume 3193.412034
_symmetry_space_group_name_H-M "P N N N"
_symmetry_group_IT_number 48
_space_group.IT_coordinate_system_code '2'
_symmetry_cell_setting 'orthorhombic'
loop_
_space_group_symop_operation_xyz
x,y,z
1/2-x,1/2-y,z
x,1/2-y,1/2-z
1/2-x,y,1/2-z
-x,-y,-z
1/2+x,1/2+y,-z
-x,1/2+y,1/2+z
1/2+x,-y,1/2+z
loop_
_atom_site_type_symbol
_atom_site_label
_atom_site_fract_x
_atom_site_fract_y
_atom_site_fract_z
Si Si1 0.012388 0.575455 0.042266
Si Si2 0.436461 0.010659 0.733225
Si Si3 0.562731 0.525041 0.893191
Si Si4 0.125542 0.861480 0.081203
Si Si5 0.553747 0.971555 0.859258
Si Si6 0.924879 0.174207 0.782939
Si Si7 0.069510 0.671757 0.545218
Si Si8 0.464599 0.831186 0.932916
O O1 0.187091 0.613501 0.063350
O O2 0.952460 0.537996 0.105068
O O3 0.949016 0.636872 0.993884
O O4 0.000000 0.500000 0.000000
O O5 0.250000 0.994115 0.750000
O O6 0.464095 0.100368 0.725182
O O7 0.481207 0.969568 0.671844
O O8 0.546335 0.985399 0.789255
O O9 0.526135 0.440917 0.917088
O O10 0.758735 0.524912 0.882287
O O11 0.508036 0.592690 0.935361
O O12 0.111121 0.821629 0.145655
O O13 0.057047 0.814255 0.025885
O O14 0.494860 0.889650 0.879863
O O15 0.988802 0.250000 0.750000
O O16 0.750000 0.158831 0.750000
O O17 0.265831 0.667003 0.557779
O O18 0.992447 0.744165 0.577728
#
# Coordination Sequence:
#
# PCOD9389896 Si02
#       8
#     8   8   8   8   8   8   8   8
#     4   8  15  29  51  78 107 141 181 225 270 325
#     4  11  22  37  58  80 107 142 184 231 279 333
#     4  10  20  35  56  80 105 141 184 228 278 331
#     4   9  18  32  53  81 110 148 189 226 274 331
#     4  10  19  35  56  78 108 140 183 230 272 332
#     4  10  21  36  57  85 117 153 191 228 272 326
#     4  10  19  33  53  77 112 144 178 226 276 331
#     4   9  19  32  50  79 108 141 179 217 271 328
#
# _framework density 20.041257999999999
#
# number of rings (size 3 to 8) (size 9 to 14) (size 15 to 20)
#    0.000    2.375    0.000    3.750    0.000    5.750 
#    0.000    4.375    0.000    6.750    0.000    0.000 
#    0.000    0.000    0.000    0.000    0.000    0.000 
#
# Total GULP energy -356403.062281 kJ/mol
# GULP energy per Si atom -5568.797848 kJ/mol
# Density = 1.999564 g / cm^3
# Si number density = 20.041258 Si / 1000 Ang^3
#
#
#
# Elastic Constant Matrix: (Units=GPa)
#
#
# Indices 1 2 3 4 5 6 
#
# 1 20.5829 3.5946 4.3338 0.0000 0.0000 0.0000
# 2 3.5946 87.0677 25.8410 0.0000 0.0000 0.0000
# 3 4.3338 25.8410 105.3779 0.0000 0.0000 0.0000
# 4 0.0000 0.0000 0.0000 -55.0786 0.0000 0.0000
# 5 0.0000 0.0000 0.0000 0.0000 17.6848 0.0000
# 6 0.0000 0.0000 0.0000 0.0000 0.0000 16.8275
#
#
#
# Elastic Compliance Matrix: (Units=1/GPa)
#
#
# Indices 1 2 3 4 5 6 
#
# 1 0.049200 -0.001543 -0.001645 0.000000 0.000000 0.000000
# 2 -0.001543 0.012435 -0.002986 0.000000 0.000000 0.000000
# 3 -0.001645 -0.002986 0.010290 0.000000 0.000000 0.000000
# 4 0.000000 0.000000 0.000000 -0.018156 0.000000 0.000000
# 5 0.000000 0.000000 0.000000 0.000000 0.056546 0.000000
# 6 0.000000 0.000000 0.000000 0.000000 0.000000 0.059427
#
#
# Mechanical properties :
#
#
# Convention : Reuss Voigt Hill
#
# Bulk Modulus (GPa) = 16.78505 31.17412 23.97959
# Shear Modulus (GPa) = 24.75885 7.83734 16.29810
#
# Velocity S-wave (km/s) = 3.51863 1.97967 2.85481
# Velocity P-wave (km/s) = 4.99010 4.56226 4.78097
#
# Compressibility (1/GPa) = 0.05957682
#
# Stress axis : x y z
#
# Youngs Moduli (GPa) = 20.32522 80.41671 97.18616
#
# Poissons Ratio (x) = 0.12408 0.15987
# Poissons Ratio (y) = 0.03136 0.29019
# Poissons Ratio (z) = 0.03344 0.24012
#
# Static dielectric constant tensor:
#      x y z
#    x 1.870340 0.000000 0.000000 
#    y 0.000000 1.739160 0.000000 
#    z 0.000000 0.000000 2.089560 
# 
# From -- ./inp_files/14577.got.cif
#   From: 2010.05.17/outbox.cif.g08.bks.cpg/sg48_8_cif.got.tgz:14577.got - 2010.06.03 20:39:00.
