data_PCOD9389591
_publ_section_title
;
Structure prediction by ZEFSAII (Michael W. Deem and Ramdas Pophale) SiO2 
 PCOD9389591
Probable space group: P N N N
;
_chemical_formula_sum "Si O2"
_cell_formula_units_Z 44
_cell_length_a 9.099952
_cell_length_b 16.357211
_cell_length_c 16.491510
_cell_angle_alpha 90.000000
_cell_angle_beta 90.000000
_cell_angle_gamma 90.000000
_cell_volume 2454.758542
_symmetry_space_group_name_H-M "P N N N"
_symmetry_group_IT_number 48
_space_group.IT_coordinate_system_code '2'
_symmetry_cell_setting 'orthorhombic'
loop_
_space_group_symop_operation_xyz
x,y,z
1/2-x,1/2-y,z
x,1/2-y,1/2-z
1/2-x,y,1/2-z
-x,-y,-z
1/2+x,1/2+y,-z
-x,1/2+y,1/2+z
1/2+x,-y,1/2+z
loop_
_atom_site_type_symbol
_atom_site_label
_atom_site_fract_x
_atom_site_fract_y
_atom_site_fract_z
Si Si1 0.433868 0.390879 0.820748
Si Si2 0.703634 0.455013 0.094679
Si Si3 0.203635 0.544987 0.405320
Si Si4 0.250000 0.250000 0.250000
Si Si5 0.750000 0.750000 0.250000
Si Si6 0.500000 0.500000 0.671091
Si Si7 0.433868 0.109121 0.320748
O O1 0.354116 0.453895 0.881925
O O2 0.602199 0.393940 0.852224
O O3 0.353101 0.306077 0.806989
O O4 0.430124 0.434522 0.732853
O O5 0.873472 0.456734 0.119784
O O6 0.602198 0.393940 0.147776
O O7 0.684102 0.439400 1.000000
O O8 0.373473 0.543266 0.380216
O O9 0.145885 0.453895 0.381924
O O10 0.353101 0.193923 0.306989
O O11 0.569875 0.565478 0.732852
#
# Coordination Sequence:
#
# PCOD9389591 Si02
#       7
#     8   8   8   2   2   8   8
#     4  10  19  35  56  83 111 151 195 235 278 342
#     4  10  19  35  59  86 113 148 192 240 288 343
#     4  10  19  35  59  86 113 148 192 240 288 343
#     4  12  20  36  60  84 116 150 208 236 292 334
#     4  12  20  36  60  84 116 150 208 236 292 334
#     4  10  17  36  59  86 108 148 198 234 277 350
#     4  10  19  35  56  83 111 151 195 235 278 342
#
# _framework density 17.924368999999999
#
# number of rings (size 3 to 8) (size 9 to 14) (size 15 to 20)
#    0.000    2.182    3.636    6.000    0.000    0.000 
#    0.000    7.273    0.000    2.182    0.000    0.000 
#    0.000    0.000    0.000    0.000    0.000    0.000 
#
# Total GULP energy -245164.569778 kJ/mol
# GULP energy per Si atom -5571.922040 kJ/mol
# Density = 1.788357 g / cm^3
# Si number density = 17.924369 Si / 1000 Ang^3
#
#
#
# Elastic Constant Matrix: (Units=GPa)
#
#
# Indices 1 2 3 4 5 6 
#
# 1 114.3462 37.7549 38.1780 0.0000 0.0000 0.0000
# 2 37.7549 84.8577 23.2649 0.0000 0.0000 0.0000
# 3 38.1780 23.2649 86.7069 0.0000 0.0000 0.0000
# 4 0.0000 0.0000 0.0000 10.0385 0.0000 0.0000
# 5 0.0000 0.0000 0.0000 0.0000 26.0608 0.0000
# 6 0.0000 0.0000 0.0000 0.0000 0.0000 36.1041
#
#
#
# Elastic Compliance Matrix: (Units=1/GPa)
#
#
# Indices 1 2 3 4 5 6 
#
# 1 0.011375 -0.003981 -0.003941 0.000000 0.000000 0.000000
# 2 -0.003981 0.014113 -0.002034 0.000000 0.000000 0.000000
# 3 -0.003941 -0.002034 0.013814 0.000000 0.000000 0.000000
# 4 0.000000 0.000000 0.000000 0.099617 0.000000 0.000000
# 5 0.000000 0.000000 0.000000 0.000000 0.038372 0.000000
# 6 0.000000 0.000000 0.000000 0.000000 0.000000 0.027698
#
#
# Mechanical properties :
#
#
# Convention : Reuss Voigt Hill
#
# Bulk Modulus (GPa) = 51.56827 53.81181 52.69004
# Shear Modulus (GPa) = 21.61101 26.88820 24.24961
#
# Velocity S-wave (km/s) = 3.47605 3.87730 3.68215
# Velocity P-wave (km/s) = 6.70395 7.08035 6.89472
#
# Compressibility (1/GPa) = 0.01939177
#
# Stress axis : x y z
#
# Youngs Moduli (GPa) = 87.90854 70.85550 72.39048
#
# Poissons Ratio (x) = 0.28206 0.28526
# Poissons Ratio (y) = 0.34995 0.14724
# Poissons Ratio (z) = 0.34641 0.14412
#
# Static dielectric constant tensor:
#      x y z
#    x 1.720550 0.000000 0.000000 
#    y 0.000000 1.612280 0.000000 
#    z 0.000000 0.000000 1.589490 
# 
# From -- ./inp_files/25347.got.cif
#   From: 2010.05.17/outbox.cif.g08.bks.cpg/sg48_13_cif.got.tgz:25347.got - 2010.06.03 20:39:00.
