data_PCOD9389686
_publ_section_title
;
Structure prediction by ZEFSAII (Michael W. Deem and Ramdas Pophale) SiO2 
 PCOD9389686
Probable space group: P N N N
;
_chemical_formula_sum "Si O2"
_cell_formula_units_Z 32
_cell_length_a 14.205655
_cell_length_b 12.118305
_cell_length_c 8.272012
_cell_angle_alpha 90.000000
_cell_angle_beta 90.000000
_cell_angle_gamma 90.000000
_cell_volume 1424.014127
_symmetry_space_group_name_H-M "P N N N"
_symmetry_group_IT_number 48
_space_group.IT_coordinate_system_code '2'
_symmetry_cell_setting 'orthorhombic'
loop_
_space_group_symop_operation_xyz
x,y,z
1/2-x,1/2-y,z
x,1/2-y,1/2-z
1/2-x,y,1/2-z
-x,-y,-z
1/2+x,1/2+y,-z
-x,1/2+y,1/2+z
1/2+x,-y,1/2+z
loop_
_atom_site_type_symbol
_atom_site_label
_atom_site_fract_x
_atom_site_fract_y
_atom_site_fract_z
Si Si1 0.921106 0.542742 0.620777
Si Si2 0.231799 0.464073 0.940226
Si Si3 0.539180 0.878096 0.948376
Si Si4 0.632468 0.348001 0.634385
O O1 0.826920 0.575928 0.526953
O O2 0.957976 0.628313 0.754943
O O3 0.892298 0.442289 0.736350
O O4 0.000000 0.500000 0.500000
O O5 0.250000 0.471674 0.750000
O O6 0.144859 0.382168 0.981936
O O7 0.201704 0.585354 0.012120
O O8 0.460064 0.806119 0.036094
O O9 0.500000 0.000000 0.000000
O O10 0.661828 0.250000 0.750000
#
# Coordination Sequence:
#
# PCOD9389686 Si02
#       4
#     8   8   8   8
#     4  10  18  32  54  77 103 141 184 222 258 314
#     4  10  18  32  55  80 104 141 187 227 264 319
#     4   8  16  31  50  74 102 138 180 218 258 314
#     4  10  20  34  52  79 112 141 171 223 285 326
#
# _framework density 22.471688
#
# number of rings (size 3 to 8) (size 9 to 14) (size 15 to 20)
#    0.000    3.000    0.000    7.500    0.000    2.000 
#    0.000    6.250    0.000    6.750    0.000   14.000 
#    0.000    0.000    0.000    0.000    0.000    0.000 
#
# Total GULP energy -178399.074066 kJ/mol
# GULP energy per Si atom -5574.971065 kJ/mol
# Density = 2.242054 g / cm^3
# Si number density = 22.471688 Si / 1000 Ang^3
#
#
#
# Elastic Constant Matrix: (Units=GPa)
#
#
# Indices 1 2 3 4 5 6 
#
# 1 184.9676 -5.7910 93.1707 0.0000 0.0000 0.0000
# 2 -5.7910 51.9082 19.7940 0.0000 0.0000 0.0000
# 3 93.1707 19.7940 214.9734 0.0000 0.0000 0.0000
# 4 0.0000 0.0000 0.0000 10.5830 0.0000 0.0000
# 5 0.0000 0.0000 0.0000 0.0000 49.3994 0.0000
# 6 0.0000 0.0000 0.0000 0.0000 0.0000 -0.9777
#
#
#
# Elastic Compliance Matrix: (Units=1/GPa)
#
#
# Indices 1 2 3 4 5 6 
#
# 1 0.007119 0.002043 -0.003274 0.000000 0.000000 0.000000
# 2 0.002043 0.020552 -0.002778 0.000000 0.000000 0.000000
# 3 -0.003274 -0.002778 0.006326 0.000000 0.000000 0.000000
# 4 0.000000 0.000000 0.000000 0.094491 0.000000 0.000000
# 5 0.000000 0.000000 0.000000 0.000000 0.020243 0.000000
# 6 0.000000 0.000000 0.000000 0.000000 0.000000 -1.022847
#
#
# Mechanical properties :
#
#
# Convention : Reuss Voigt Hill
#
# Bulk Modulus (GPa) = 38.49101 74.02184 56.25643
# Shear Modulus (GPa) = -5.83132 34.77932 14.47400
#
# Velocity S-wave (km/s) = -1.61264 3.93834 2.54066
# Velocity P-wave (km/s) = 3.70113 7.32750 5.80477
#
# Compressibility (1/GPa) = 0.02598009
#
# Stress axis : x y z
#
# Youngs Moduli (GPa) = 140.46409 48.65747 158.07070
#
# Poissons Ratio (x) = -0.09939 0.51746
# Poissons Ratio (y) = -0.28690 0.43906
# Poissons Ratio (z) = 0.45982 0.13515
#
# Static dielectric constant tensor:
#      x y z
#    x 2.073930 0.000000 0.000000 
#    y 0.000000 2.184230 0.000000 
#    z 0.000000 0.000000 1.852900 
# 
# From -- ./inp_files/10246.got.cif
#   From: 2010.05.17/outbox.cif.g08.bks.cpg/sg48_6_cif.got.tgz:10246.got - 2010.06.03 20:39:00.
