data_PCOD9389351
_publ_section_title
;
Structure prediction by ZEFSAII (Michael W. Deem and Ramdas Pophale) SiO2 
 PCOD9389351
Probable space group: P M M M
;
_chemical_formula_sum "Si O2"
_cell_formula_units_Z 64
_cell_length_a 24.000000
_cell_length_b 15.000000
_cell_length_c 9.000000
_cell_angle_alpha 90.000000
_cell_angle_beta 90.000000
_cell_angle_gamma 90.000000
_cell_volume 3240.000000
_symmetry_space_group_name_H-M "P M M M"
_symmetry_group_IT_number 47
_symmetry_cell_setting 'orthorhombic'
loop_
_space_group_symop_operation_xyz
x,y,z
-x,-y,z
x,-y,-z
-x,y,-z
-x,-y,-z
x,y,-z
-x,y,z
x,-y,z
loop_
_atom_site_type_symbol
_atom_site_label
_atom_site_fract_x
_atom_site_fract_y
_atom_site_fract_z
Si Si1 0.748919 0.596391 0.820884
Si Si2 0.336280 0.897152 0.679500
Si Si3 0.933690 0.771956 0.164699
Si Si4 0.562537 0.776968 0.680665
Si Si5 0.860888 0.104632 0.670574
Si Si6 0.372988 0.400777 0.677544
Si Si7 0.931987 0.599305 0.329161
Si Si8 0.764292 0.791213 0.823330
O O1 0.771328 0.500000 0.768217
O O2 0.685333 0.602450 0.763763
O O3 0.775619 0.689573 0.772476
O O4 0.749712 0.595135 0.000000
O O5 0.331824 0.894496 0.500000
O O6 0.395892 0.856303 0.723014
O O7 0.290184 0.832205 0.747086
O O8 0.328782 0.000000 0.725704
O O9 0.916691 0.845507 0.282841
O O10 0.912529 0.676390 0.220584
O O11 0.000000 0.766881 0.157356
O O12 0.912212 0.792541 0.000000
O O13 0.560768 0.776732 0.500000
O O14 0.500000 0.787919 0.736190
O O15 0.588521 0.681490 0.723780
O O16 0.846116 0.122411 0.500000
O O17 0.814331 0.146287 0.774651
O O18 0.865593 0.000000 0.691493
O O19 0.362039 0.391814 0.500000
O O20 0.397484 0.500000 0.700747
O O21 0.915411 0.616290 0.500000
O O22 0.914495 0.500000 0.285488
O O23 0.000000 0.599900 0.327999
O O24 0.756910 0.791481 0.000000
#
# Coordination Sequence:
#
# PCOD9389351 Si02
#       8
#     8   8   8   8   8   8   8   8
#     4   9  18  33  54  80 109 140 173 211 262 325
#     4  10  20  34  53  76 103 138 181 228 277 329
#     4  10  21  37  59  88 121 156 192 232 281 335
#     4   9  17  29  46  72 106 140 177 224 273 323
#     4  11  25  43  62  84 111 146 188 234 282 332
#     4   9  16  27  47  74 102 135 175 219 267 319
#     4   8  14  27  50  80 114 153 195 235 273 317
#     4  11  22  37  60  85 109 139 176 223 277 332
#
# _framework density 19.753086
#
# number of rings (size 3 to 8) (size 9 to 14) (size 15 to 20)
#    0.000    2.375    1.250    1.875    0.000    5.000 
#    0.000    5.625    0.000    3.750    0.000    2.625 
#    0.000    0.000    0.000    0.000    0.000    0.000 
#
# Total GULP energy -356904.321855 kJ/mol
# GULP energy per Si atom -5576.630029 kJ/mol
# Density = 1.970813 g / cm^3
# Si number density = 19.753086 Si / 1000 Ang^3
#
#
#
# Elastic Constant Matrix: (Units=GPa)
#
#
# Indices 1 2 3 4 5 6 
#
# 1 41.5538 5.2583 -0.5182 0.0000 0.0000 0.0000
# 2 5.2583 62.4679 21.3876 0.0000 0.0000 0.0000
# 3 -0.5182 21.3876 -2.6965 0.0000 0.0000 0.0000
# 4 0.0000 0.0000 0.0000 21.9413 0.0000 0.0000
# 5 0.0000 0.0000 0.0000 0.0000 -28.2471 0.0000
# 6 0.0000 0.0000 0.0000 0.0000 0.0000 20.5532
#
#
#
# Elastic Compliance Matrix: (Units=1/GPa)
#
#
# Indices 1 2 3 4 5 6 
#
# 1 0.024011 -0.000119 -0.005556 0.000000 0.000000 0.000000
# 2 -0.000119 0.004309 0.034200 0.000000 0.000000 0.000000
# 3 -0.005556 0.034200 -0.098523 0.000000 0.000000 0.000000
# 4 0.000000 0.000000 0.000000 0.045576 0.000000 0.000000
# 5 0.000000 0.000000 0.000000 0.000000 -0.035402 0.000000
# 6 0.000000 0.000000 0.000000 0.000000 0.000000 0.048654
#
#
# Mechanical properties :
#
#
# Convention : Reuss Voigt Hill
#
# Bulk Modulus (GPa) = -76.02187 17.06452 -29.47868
# Shear Modulus (GPa) = -68.67282 7.86262 -30.40510
#
# Velocity S-wave (km/s) = -5.90263 1.99727 -3.92759
# Velocity P-wave (km/s) = 9.22087 3.73851 5.96020
#
# Compressibility (1/GPa) = -0.01315411
#
# Stress axis : x y z
#
# Youngs Moduli (GPa) = 41.64774 232.07564 -10.14987
#
# Poissons Ratio (x) = 0.02756 -0.05640
# Poissons Ratio (y) = 0.00495 0.34712
# Poissons Ratio (z) = 0.23141 -7.93697
#
# Static dielectric constant tensor:
#      x y z
#    x 1.731380 0.000000 0.000000 
#    y 0.000000 1.708830 0.000000 
#    z 0.000000 0.000000 1.691770 
# 
# From -- ./inp_files/12766.got.cif
#   From: 2010.05.17/outbox.ucp.g08.bks.cvg/sg47_7_cif.got.tgz:12766.got - 2010.06.11 16:36:43.
