data_PCOD9389639
_publ_section_title
;
Structure prediction by ZEFSAII (Michael W. Deem and Ramdas Pophale) SiO2 
 PCOD9389639
Probable space group: P N N N
;
_chemical_formula_sum "Si O2"
_cell_formula_units_Z 40
_cell_length_a 12.536467
_cell_length_b 4.994780
_cell_length_c 30.788673
_cell_angle_alpha 90.000000
_cell_angle_beta 90.000000
_cell_angle_gamma 90.000000
_cell_volume 1927.891093
_symmetry_space_group_name_H-M "P N N N"
_symmetry_group_IT_number 48
_space_group.IT_coordinate_system_code '2'
_symmetry_cell_setting 'orthorhombic'
loop_
_space_group_symop_operation_xyz
x,y,z
1/2-x,1/2-y,z
x,1/2-y,1/2-z
1/2-x,y,1/2-z
-x,-y,-z
1/2+x,1/2+y,-z
-x,1/2+y,1/2+z
1/2+x,-y,1/2+z
loop_
_atom_site_type_symbol
_atom_site_label
_atom_site_fract_x
_atom_site_fract_y
_atom_site_fract_z
Si Si1 0.362378 0.700158 0.494343
Si Si2 0.538195 0.767906 0.356397
Si Si3 0.322375 0.496474 0.162123
Si Si4 0.978502 0.267806 0.299407
Si Si5 0.585286 0.795831 0.451592
O O1 0.250000 0.750000 0.472146
O O2 0.461264 0.743945 0.462944
O O3 0.359315 0.410177 0.515872
O O4 0.382118 0.908105 0.533903
O O5 0.526813 0.502782 0.327466
O O6 0.600366 0.735820 0.401132
O O7 0.418507 0.883224 0.367365
O O8 0.583589 0.002486 0.325879
O O9 0.250000 0.250000 0.145236
O O10 0.397679 0.371028 0.199765
O O11 0.250000 0.750000 0.174488
O O12 0.943076 0.250000 0.250000
#
# Coordination Sequence:
#
# PCOD9389639 Si02
#       5
#     8   8   8   8   8
#     4  10  21  38  60  86 112 146 182 222 279 337
#     4  10  20  33  49  71 102 141 180 224 263 319
#     4  10  18  31  42  65  96 139 184 224 266 312
#     4  10  20  33  46  68 102 142 186 226 266 317
#     4  10  21  38  59  82 117 147 178 232 275 316
#
# _framework density 20.748059999999999
#
# number of rings (size 3 to 8) (size 9 to 14) (size 15 to 20)
#    1.200    0.800    2.000    2.400    0.000    1.200 
#    3.600    0.000    0.000    0.000    0.000    0.000 
#    0.000   56.000    0.000    0.000    0.000    0.000 
#
# Total GULP energy -222735.306164 kJ/mol
# GULP energy per Si atom -5568.382654 kJ/mol
# Density = 2.070084 g / cm^3
# Si number density = 20.748060 Si / 1000 Ang^3
#
#
#
# Elastic Constant Matrix: (Units=GPa)
#
#
# Indices 1 2 3 4 5 6 
#
# 1 28.8099 -5.6293 -6.3398 0.0000 0.0000 0.0000
# 2 -5.6293 115.0928 14.9882 0.0000 0.0000 0.0000
# 3 -6.3398 14.9882 70.2382 0.0000 0.0000 0.0000
# 4 0.0000 0.0000 0.0000 24.4267 0.0000 0.0000
# 5 0.0000 0.0000 0.0000 0.0000 28.7222 0.0000
# 6 0.0000 0.0000 0.0000 0.0000 0.0000 8.2771
#
#
#
# Elastic Compliance Matrix: (Units=1/GPa)
#
#
# Indices 1 2 3 4 5 6 
#
# 1 0.035620 0.001361 0.002925 0.000000 0.000000 0.000000
# 2 0.001361 0.008989 -0.001795 0.000000 0.000000 0.000000
# 3 0.002925 -0.001795 0.014884 0.000000 0.000000 0.000000
# 4 0.000000 0.000000 0.000000 0.040939 0.000000 0.000000
# 5 0.000000 0.000000 0.000000 0.000000 0.034816 0.000000
# 6 0.000000 0.000000 0.000000 0.000000 0.000000 0.120816
#
#
# Mechanical properties :
#
#
# Convention : Reuss Voigt Hill
#
# Bulk Modulus (GPa) = 15.51000 24.46432 19.98716
# Shear Modulus (GPa) = 18.34363 26.35998 22.35181
#
# Velocity S-wave (km/s) = 2.97663 3.56825 3.28578
# Velocity P-wave (km/s) = 4.39379 5.36593 4.90401
#
# Compressibility (1/GPa) = 0.06447455
#
# Stress axis : x y z
#
# Youngs Moduli (GPa) = 28.07424 111.24680 67.18466
#
# Poissons Ratio (x) = -0.15144 -0.19649
# Poissons Ratio (y) = -0.03822 0.12062
# Poissons Ratio (z) = -0.08211 0.19972
#
# Static dielectric constant tensor:
#      x y z
#    x 1.799080 0.000000 0.000000 
#    y 0.000000 1.633170 0.000000 
#    z 0.000000 0.000000 1.727500 
# 
# From -- ./inp_files/38896.got.cif
#   From: 2010.05.17/outbox.cif.g08.bks.cpg/sg48_20_cif.got.tgz:38896.got - 2010.06.03 20:39:00.
