data_PCOD9389129
_publ_section_title
;
Structure prediction by ZEFSAII (Michael W. Deem and Ramdas Pophale) SiO2 
 PCOD9389129
Probable space group: P M M M
;
_chemical_formula_sum "Si O2"
_cell_formula_units_Z 52
_cell_length_a 9.900428
_cell_length_b 34.356348
_cell_length_c 7.522095
_cell_angle_alpha 90.000000
_cell_angle_beta 90.000000
_cell_angle_gamma 90.000000
_cell_volume 2558.584573
_symmetry_space_group_name_H-M "P M M M"
_symmetry_group_IT_number 47
_symmetry_cell_setting 'orthorhombic'
loop_
_space_group_symop_operation_xyz
x,y,z
-x,-y,z
x,-y,-z
-x,y,-z
-x,-y,-z
x,y,-z
-x,y,z
x,-y,z
loop_
_atom_site_type_symbol
_atom_site_label
_atom_site_fract_x
_atom_site_fract_y
_atom_site_fract_z
Si Si1 0.344801 0.500000 0.217956
Si Si2 0.344515 0.728016 0.717814
Si Si3 0.153088 0.658704 0.287132
Si Si4 0.346791 0.042917 0.786933
Si Si5 0.846971 0.430694 0.212873
Si Si6 0.848668 0.114122 0.712337
Si Si7 0.155957 0.798775 0.283228
O O1 0.500000 0.500000 0.276086
O O2 0.261105 0.537952 0.276914
O O3 0.346549 0.500000 0.000000
O O4 0.345774 0.727982 0.500000
O O5 0.500000 0.728234 0.775424
O O6 0.261397 0.689985 0.777232
O O7 0.260240 0.765945 0.775274
O O8 0.146807 0.663188 0.500000
O O9 0.189832 0.613995 0.250188
O O10 0.000000 0.665354 0.218704
O O11 0.500000 0.049049 0.721257
O O12 0.251446 0.078919 0.746812
O O13 0.300213 0.000000 0.723750
O O14 0.353318 0.040889 0.000000
O O15 0.000000 0.437383 0.281294
O O16 0.853230 0.435092 0.000000
O O17 0.857416 0.117529 0.500000
O O18 0.807999 0.157331 0.775702
O O19 0.000000 0.105798 0.780131
O O20 0.157275 0.798066 0.500000
O O21 0.000000 0.790898 0.231020
#
# Coordination Sequence:
#
# PCOD9389129 Si02
#       7
#     4   8   8   8   8   8   8
#     4   9  17  29  46  67  88 112 144 179 216 260
#     4   9  16  25  40  64  91 118 149 183 217 257
#     4   9  17  29  45  65  89 117 147 179 218 261
#     4   9  19  35  51  67  91 125 162 195 229 276
#     4   9  17  30  48  67  86 111 145 182 216 254
#     4   9  18  31  48  73 100 122 150 193 240 280
#     4   8  14  26  43  63  90 121 149 180 221 267
#
# _framework density 20.323737000000001
#
# number of rings (size 3 to 8) (size 9 to 14) (size 15 to 20)
#    0.000    3.154    0.000    2.077    0.000    5.231 
#    0.000    4.231    0.000    3.231    0.000    2.154 
#    0.000    0.000    0.000    0.000    0.000    0.000 
#
# Total GULP energy -290032.639103 kJ/mol
# GULP energy per Si atom -5577.550752 kJ/mol
# Density = 2.027748 g / cm^3
# Si number density = 20.323737 Si / 1000 Ang^3
#
#
#
# Elastic Constant Matrix: (Units=GPa)
#
#
# Indices 1 2 3 4 5 6 
#
# 1 175.5499 170.3350 6.5084 0.0000 0.0000 0.0000
# 2 170.3350 219.8441 3.2036 0.0000 0.0000 0.0000
# 3 6.5084 3.2036 48.9816 0.0000 0.0000 0.0000
# 4 0.0000 0.0000 0.0000 26.4851 0.0000 0.0000
# 5 0.0000 0.0000 0.0000 0.0000 10.3842 0.0000
# 6 0.0000 0.0000 0.0000 0.0000 0.0000 68.0123
#
#
#
# Elastic Compliance Matrix: (Units=1/GPa)
#
#
# Indices 1 2 3 4 5 6 
#
# 1 0.023125 -0.017890 -0.001903 0.000000 0.000000 0.000000
# 2 -0.017890 0.018392 0.001174 0.000000 0.000000 0.000000
# 3 -0.001903 0.001174 0.020592 0.000000 0.000000 0.000000
# 4 0.000000 0.000000 0.000000 0.037757 0.000000 0.000000
# 5 0.000000 0.000000 0.000000 0.000000 0.096300 0.000000
# 6 0.000000 0.000000 0.000000 0.000000 0.000000 0.014703
#
#
# Mechanical properties :
#
#
# Convention : Reuss Voigt Hill
#
# Bulk Modulus (GPa) = 40.20412 89.38553 64.79483
# Shear Modulus (GPa) = 19.50102 38.59823 29.04963
#
# Velocity S-wave (km/s) = 3.10097 4.36267 3.78477
# Velocity P-wave (km/s) = 5.71368 8.33388 7.14492
#
# Compressibility (1/GPa) = 0.02487307
#
# Stress axis : x y z
#
# Youngs Moduli (GPa) = 43.24322 54.37043 48.56294
#
# Poissons Ratio (x) = 0.97266 0.09240
# Poissons Ratio (y) = 0.77360 -0.05702
# Poissons Ratio (z) = 0.08228 -0.06384
#
# Static dielectric constant tensor:
#      x y z
#    x 1.698610 0.000000 0.000000 
#    y 0.000000 1.706480 0.000000 
#    z 0.000000 0.000000 1.777720 
# 
# From -- ./inp_files/15440.got.cif
#   From: 2010.05.17/outbox.cif.g08.bks.cpg/sg47_8_cif.got.tgz:15440.got - 2010.06.03 20:15:42.
