data_PCOD9389298
_publ_section_title
;
Structure prediction by ZEFSAII (Michael W. Deem and Ramdas Pophale) SiO2 
 PCOD9389298
Probable space group: P M M M
;
_chemical_formula_sum "Si O2"
_cell_formula_units_Z 64
_cell_length_a 15.000000
_cell_length_b 9.000000
_cell_length_c 30.000000
_cell_angle_alpha 90.000000
_cell_angle_beta 90.000000
_cell_angle_gamma 90.000000
_cell_volume 4050.000000
_symmetry_space_group_name_H-M "P M M M"
_symmetry_group_IT_number 47
_symmetry_cell_setting 'orthorhombic'
loop_
_space_group_symop_operation_xyz
x,y,z
-x,-y,z
x,-y,-z
-x,y,-z
-x,-y,-z
x,y,-z
-x,y,z
x,-y,z
loop_
_atom_site_type_symbol
_atom_site_label
_atom_site_fract_x
_atom_site_fract_y
_atom_site_fract_z
Si Si1 0.276837 0.181190 0.950001
Si Si2 0.103810 0.677345 0.192854
Si Si3 0.892129 0.673277 0.450248
Si Si4 0.775374 0.320888 0.721796
Si Si5 0.105878 0.178360 0.356601
Si Si6 0.101353 0.179010 0.901684
Si Si7 0.394330 0.179614 0.764642
Si Si8 0.603170 0.180470 0.866728
O O1 0.175401 0.222547 0.937604
O O2 0.337453 0.232198 0.908352
O O3 0.281724 0.000000 0.950309
O O4 0.301580 0.230940 0.000000
O O5 0.110116 0.500000 0.185906
O O6 0.166133 0.717169 0.234207
O O7 0.127065 0.759103 0.146917
O O8 0.000000 0.712492 0.203092
O O9 0.861772 0.722806 0.500000
O O10 0.866233 0.500000 0.444630
O O11 0.867807 0.766409 0.406399
O O12 0.000000 0.677055 0.451503
O O13 0.771574 0.500000 0.717571
O O14 0.829262 0.252854 0.679888
O O15 0.676829 0.255194 0.731623
O O16 0.000000 0.218280 0.349396
O O17 0.112149 0.000000 0.353938
O O18 0.000000 0.227968 0.911494
O O19 0.101455 0.000000 0.899296
O O20 0.500000 0.213794 0.757052
O O21 0.372374 0.226071 0.816101
O O22 0.385677 0.000000 0.761930
O O23 0.500000 0.221613 0.873893
O O24 0.607668 0.000000 0.866396
#
# Coordination Sequence:
#
# PCOD9389298 Si02
#       8
#     8   8   8   8   8   8   8   8
#     4   9  16  24  36  57  83 107 131 164 207 254
#     4   9  18  31  45  62  85 114 147 181 219 264
#     4   8  14  26  44  64  89 126 169 208 244 279
#     4  11  21  31  46  67  93 123 152 188 234 281
#     4  10  20  31  44  66  97 132 168 203 237 276
#     4   9  17  28  42  59  78 104 139 175 209 249
#     4   9  18  33  51  68  88 116 149 186 228 275
#     4   8  14  25  41  60  81 106 135 167 208 260
#
# _framework density 15.802469
#
# number of rings (size 3 to 8) (size 9 to 14) (size 15 to 20)
#    0.000    2.875    0.000    3.000    0.000    4.250 
#    0.000    5.000    0.000    0.375    0.000    1.750 
#    0.000    0.500    0.000   16.000    0.000   11.250 
#
# Total GULP energy -356501.847878 kJ/mol
# GULP energy per Si atom -5570.341373 kJ/mol
# Density = 1.576650 g / cm^3
# Si number density = 15.802469 Si / 1000 Ang^3
#
#
#
# Elastic Constant Matrix: (Units=GPa)
#
#
# Indices 1 2 3 4 5 6 
#
# 1 76.6355 26.0454 62.7255 0.0000 0.0000 0.0000
# 2 26.0454 27.2145 31.1368 0.0000 0.0000 0.0000
# 3 62.7255 31.1368 112.3496 0.0000 0.0000 0.0000
# 4 0.0000 0.0000 0.0000 19.6400 0.0000 0.0000
# 5 0.0000 0.0000 0.0000 0.0000 22.5608 0.0000
# 6 0.0000 0.0000 0.0000 0.0000 0.0000 16.5264
#
#
#
# Elastic Compliance Matrix: (Units=1/GPa)
#
#
# Indices 1 2 3 4 5 6 
#
# 1 0.026611 -0.012402 -0.011420 0.000000 0.000000 0.000000
# 2 -0.012402 0.059586 -0.009590 0.000000 0.000000 0.000000
# 3 -0.011420 -0.009590 0.017934 0.000000 0.000000 0.000000
# 4 0.000000 0.000000 0.000000 0.050916 0.000000 0.000000
# 5 0.000000 0.000000 0.000000 0.000000 0.044325 0.000000
# 6 0.000000 0.000000 0.000000 0.000000 0.000000 0.060509
#
#
# Mechanical properties :
#
#
# Convention : Reuss Voigt Hill
#
# Bulk Modulus (GPa) = 26.80378 50.66833 38.73605
# Shear Modulus (GPa) = 14.74315 18.16491 16.45403
#
# Velocity S-wave (km/s) = 3.05776 3.39410 3.23031
# Velocity P-wave (km/s) = 5.42818 6.89152 6.20315
#
# Compressibility (1/GPa) = 0.03730818
#
# Stress axis : x y z
#
# Youngs Moduli (GPa) = 37.57874 16.78243 55.75900
#
# Poissons Ratio (x) = 0.20813 0.63676
# Poissons Ratio (y) = 0.46605 0.53472
# Poissons Ratio (z) = 0.42915 0.16094
#
# Static dielectric constant tensor:
#      x y z
#    x 1.534960 0.000000 0.000000 
#    y 0.000000 1.527940 0.000000 
#    z 0.000000 0.000000 1.528290 
# 
# From -- ./inp_files/34658.got.cif
#   From: 2010.05.17/outbox.ucp.g08.bks.cvg/sg47_18_cif.got.tgz:34658.got - 2010.06.11 16:36:43.
