data_PCOD9389184
_publ_section_title
;
Structure prediction by ZEFSAII (Michael W. Deem and Ramdas Pophale) SiO2 
 PCOD9389184
Probable space group: P M M M
;
_chemical_formula_sum "Si O2"
_cell_formula_units_Z 52
_cell_length_a 14.107785
_cell_length_b 29.321298
_cell_length_c 7.875697
_cell_angle_alpha 90.000000
_cell_angle_beta 90.000000
_cell_angle_gamma 90.000000
_cell_volume 3257.849544
_symmetry_space_group_name_H-M "P M M M"
_symmetry_group_IT_number 47
_symmetry_cell_setting 'orthorhombic'
loop_
_space_group_symop_operation_xyz
x,y,z
-x,-y,z
x,-y,-z
-x,y,-z
-x,-y,-z
x,y,-z
-x,y,z
x,-y,z
loop_
_atom_site_type_symbol
_atom_site_label
_atom_site_fract_x
_atom_site_fract_y
_atom_site_fract_z
Si Si1 0.892873 0.098219 0.205838
Si Si2 0.296217 0.050172 0.702851
Si Si3 0.606549 0.142618 0.294654
Si Si4 0.794371 0.808729 0.203330
Si Si5 0.115290 0.615256 0.311304
Si Si6 0.110821 0.716210 0.794289
Si Si7 0.115741 0.552493 0.000000
O O1 0.813365 0.062757 0.264318
O O2 0.857265 0.148288 0.264696
O O3 0.000000 0.089052 0.262467
O O4 0.892347 0.098277 0.000000
O O5 0.310683 0.048908 0.500000
O O6 0.357212 0.092981 0.768281
O O7 0.319206 0.000000 0.771522
O O8 0.605852 0.141114 0.500000
O O9 0.500000 0.152061 0.235999
O O10 0.686134 0.178857 0.243016
O O11 0.830671 0.760020 0.266465
O O12 0.805773 0.807771 0.000000
O O13 0.144232 0.601314 0.500000
O O14 0.143834 0.667444 0.275185
O O15 0.146638 0.580658 0.165580
O O16 0.000000 0.615697 0.305343
O O17 0.000000 0.722611 0.749186
O O18 0.115257 0.713585 0.000000
O O19 0.146321 0.500000 0.000000
O O20 0.000000 0.552344 0.000000
#
# Coordination Sequence:
#
# PCOD9389184 Si02
#       7
#     8   8   8   8   8   8   4
#     4   9  17  29  43  60  83 108 133 160 194 241
#     4   9  18  31  45  61  79 100 130 166 203 245
#     4   9  18  32  47  61  79 102 128 164 208 251
#     4   9  17  28  44  64  82 104 135 166 200 247
#     4   9  16  25  37  55  79 109 148 190 229 266
#     4   9  15  25  41  59  83 112 139 172 214 256
#     4   9  16  26  38  52  76 112 153 197 236 263
#
# _framework density 15.961449
#
# number of rings (size 3 to 8) (size 9 to 14) (size 15 to 20)
#    0.000    3.000    0.769    0.462    0.000    4.308 
#    0.000    4.615    0.000    2.769    0.000    4.308 
#    0.000    0.000    0.000    0.000    0.000    1.538 
#
# Total GULP energy -289740.443892 kJ/mol
# GULP energy per Si atom -5571.931613 kJ/mol
# Density = 1.592512 g / cm^3
# Si number density = 15.961449 Si / 1000 Ang^3
#
#
#
# Elastic Constant Matrix: (Units=GPa)
#
#
# Indices 1 2 3 4 5 6 
#
# 1 46.0997 20.2111 2.4792 0.0000 0.0000 0.0000
# 2 20.2111 117.9252 35.0656 0.0000 0.0000 0.0000
# 3 2.4792 35.0656 44.0766 0.0000 0.0000 0.0000
# 4 0.0000 0.0000 0.0000 7.7171 0.0000 0.0000
# 5 0.0000 0.0000 0.0000 0.0000 14.5812 0.0000
# 6 0.0000 0.0000 0.0000 0.0000 0.0000 9.6756
#
#
#
# Elastic Compliance Matrix: (Units=1/GPa)
#
#
# Indices 1 2 3 4 5 6 
#
# 1 0.023660 -0.004793 0.002482 0.000000 0.000000 0.000000
# 2 -0.004793 0.012079 -0.009340 0.000000 0.000000 0.000000
# 3 0.002482 -0.009340 0.029978 0.000000 0.000000 0.000000
# 4 0.000000 0.000000 0.000000 0.129583 0.000000 0.000000
# 5 0.000000 0.000000 0.000000 0.000000 0.068582 0.000000
# 6 0.000000 0.000000 0.000000 0.000000 0.000000 0.103352
#
#
# Mechanical properties :
#
#
# Convention : Reuss Voigt Hill
#
# Bulk Modulus (GPa) = 23.57588 35.95704 29.76646
# Shear Modulus (GPa) = 12.35563 16.41781 14.38672
#
# Velocity S-wave (km/s) = 2.78527 3.21065 3.00549
# Velocity P-wave (km/s) = 5.01460 6.02666 5.54377
#
# Compressibility (1/GPa) = 0.04241623
#
# Stress axis : x y z
#
# Youngs Moduli (GPa) = 42.26529 82.79065 33.35734
#
# Poissons Ratio (x) = 0.39684 -0.08281
# Poissons Ratio (y) = 0.20259 0.31155
# Poissons Ratio (z) = -0.10492 0.77324
#
# Static dielectric constant tensor:
#      x y z
#    x 1.507330 0.000000 0.000000 
#    y 0.000000 1.534950 0.000000 
#    z 0.000000 0.000000 1.581840 
# 
# From -- ./inp_files/8049.got.cif
#   From: 2010.05.17/outbox.cif.g08.bks.cpg/sg47_5_cif.got.tgz:8049.got - 2010.06.03 20:15:42.
