data_PCOD9389026
_publ_section_title
;
Structure prediction by ZEFSAII (Michael W. Deem and Ramdas Pophale) SiO2 
 PCOD9389026
Probable space group: P M M M
;
_chemical_formula_sum "Si O2"
_cell_formula_units_Z 52
_cell_length_a 35.459014
_cell_length_b 9.390192
_cell_length_c 7.343451
_cell_angle_alpha 90.000000
_cell_angle_beta 90.000000
_cell_angle_gamma 90.000000
_cell_volume 2445.126479
_symmetry_space_group_name_H-M "P M M M"
_symmetry_group_IT_number 47
_symmetry_cell_setting 'orthorhombic'
loop_
_space_group_symop_operation_xyz
x,y,z
-x,-y,z
x,-y,-z
-x,y,-z
-x,-y,-z
x,y,-z
-x,y,z
x,-y,z
loop_
_atom_site_type_symbol
_atom_site_label
_atom_site_fract_x
_atom_site_fract_y
_atom_site_fract_z
Si Si1 0.351345 0.664078 0.777620
Si Si2 0.958458 0.665022 0.721961
Si Si3 0.425615 0.164341 0.777849
Si Si4 0.113224 0.161353 0.284047
Si Si5 0.195351 0.164027 0.782099
Si Si6 0.722342 0.166472 0.221799
Si Si7 0.500000 0.664472 0.222178
O O1 0.353772 0.500000 0.720572
O O2 0.387665 0.754963 0.720809
O O3 0.312763 0.739584 0.717507
O O4 0.351250 0.664468 0.000000
O O5 0.958016 0.667363 0.500000
O O6 0.955486 0.500000 0.775484
O O7 0.922406 0.752127 0.787541
O O8 0.000000 0.718940 0.777228
O O9 0.462569 0.251391 0.720708
O O10 0.426485 0.000000 0.719682
O O11 0.425675 0.163448 0.000000
O O12 0.107779 0.150661 0.500000
O O13 0.154724 0.229612 0.260772
O O14 0.114134 0.000000 0.209711
O O15 0.236070 0.220438 0.720397
O O16 0.193696 0.000000 0.715243
O O17 0.197208 0.159702 0.000000
O O18 0.718407 0.000000 0.274274
O O19 0.721689 0.167990 0.000000
O O20 0.500000 0.500000 0.280236
O O21 0.500000 0.663531 0.000000
#
# Coordination Sequence:
#
# PCOD9389026 Si02
#       7
#     8   8   8   8   8   8   4
#     4   9  15  21  29  42  59  76  97 133 179 215
#     4   8  14  25  40  57  78 104 130 154 185 227
#     4   9  15  21  28  37  50  71 100 132 168 215
#     4   9  16  25  40  63  84  99 123 162 197 221
#     4   8  14  25  40  56  76 103 129 152 186 233
#     4   8  13  22  35  47  59  81 113 141 166 206
#     4   9  15  21  27  35  49  69  95 131 176 219
#
# _framework density 21.266791999999999
#
# number of rings (size 3 to 8) (size 9 to 14) (size 15 to 20)
#    0.000    3.462    0.000    2.538    0.000    4.923 
#    0.000    2.308    0.000    1.846    0.000    3.231 
#    0.000    0.000    0.000    0.000    0.000    0.000 
#
# Total GULP energy -289975.823421 kJ/mol
# GULP energy per Si atom -5576.458143 kJ/mol
# Density = 2.121839 g / cm^3
# Si number density = 21.266792 Si / 1000 Ang^3
#
#
#
# Elastic Constant Matrix: (Units=GPa)
#
#
# Indices 1 2 3 4 5 6 
#
# 1 277.9347 124.2454 5.4071 0.0000 0.0000 0.0000
# 2 124.2454 129.6535 3.5751 0.0000 0.0000 0.0000
# 3 5.4071 3.5751 79.7848 0.0000 0.0000 0.0000
# 4 0.0000 0.0000 0.0000 -12.1058 0.0000 0.0000
# 5 0.0000 0.0000 0.0000 0.0000 7.0391 0.0000
# 6 0.0000 0.0000 0.0000 0.0000 0.0000 -28.3778
#
#
#
# Elastic Compliance Matrix: (Units=1/GPa)
#
#
# Indices 1 2 3 4 5 6 
#
# 1 0.006296 -0.006029 -0.000157 0.000000 0.000000 0.000000
# 2 -0.006029 0.013496 -0.000196 0.000000 0.000000 0.000000
# 3 -0.000157 -0.000196 0.012553 0.000000 0.000000 0.000000
# 4 0.000000 0.000000 0.000000 -0.082605 0.000000 0.000000
# 5 0.000000 0.000000 0.000000 0.000000 0.142063 0.000000
# 6 0.000000 0.000000 0.000000 0.000000 0.000000 -0.035239
#
#
# Mechanical properties :
#
#
# Convention : Reuss Voigt Hill
#
# Bulk Modulus (GPa) = 51.06860 83.75866 67.41363
# Shear Modulus (GPa) = 65.91431 16.92080 41.41756
#
# Velocity S-wave (km/s) = 5.57327 2.82378 4.41786
# Velocity P-wave (km/s) = 8.09200 7.07827 7.60205
#
# Compressibility (1/GPa) = 0.01958150
#
# Stress axis : x y z
#
# Youngs Moduli (GPa) = 158.82258 74.09512 79.66148
#
# Poissons Ratio (x) = 0.44675 0.01247
# Poissons Ratio (y) = 0.95760 0.01562
# Poissons Ratio (z) = 0.02486 0.01453
#
# Static dielectric constant tensor:
#      x y z
#    x 1.773000 0.000000 0.000000 
#    y 0.000000 1.713810 0.000000 
#    z 0.000000 0.000000 1.890150 
# 
# From -- ./inp_files/20040.got.cif
#   From: 2010.05.17/outbox.cif.g08.bks.cpg/sg47_11_cif.got.tgz:20040.got - 2010.06.03 20:15:42.
