data_PCOD9389963
_publ_section_title
;
Structure prediction by ZEFSAII (Michael W. Deem and Ramdas Pophale) SiO2 
 PCOD9389963
Probable space group: P N N N
;
_chemical_formula_sum "Si O2"
_cell_formula_units_Z 64
_cell_length_a 27.499939
_cell_length_b 11.979336
_cell_length_c 9.702780
_cell_angle_alpha 90.000000
_cell_angle_beta 90.000000
_cell_angle_gamma 90.000000
_cell_volume 3196.396608
_symmetry_space_group_name_H-M "P N N N"
_symmetry_group_IT_number 48
_space_group.IT_coordinate_system_code '2'
_symmetry_cell_setting 'orthorhombic'
loop_
_space_group_symop_operation_xyz
x,y,z
1/2-x,1/2-y,z
x,1/2-y,1/2-z
1/2-x,y,1/2-z
-x,-y,-z
1/2+x,1/2+y,-z
-x,1/2+y,1/2+z
1/2+x,-y,1/2+z
loop_
_atom_site_type_symbol
_atom_site_label
_atom_site_fract_x
_atom_site_fract_y
_atom_site_fract_z
Si Si1 0.640468 0.859022 0.560578
Si Si2 0.470248 0.821410 0.047423
Si Si3 0.362044 0.098247 0.118806
Si Si4 0.199091 0.937859 0.572997
Si Si5 0.625679 0.236960 0.410750
Si Si6 0.970140 0.956608 0.663817
Si Si7 0.190962 0.528753 0.606868
Si Si8 0.031209 0.389597 0.471358
O O1 0.644245 0.907261 0.715878
O O2 0.643481 0.726312 0.574103
O O3 0.588252 0.892349 0.495894
O O4 0.681585 0.912595 0.467361
O O5 0.417670 0.771019 0.012564
O O6 0.507308 0.718773 0.039662
O O7 0.486261 0.904507 0.923724
O O8 0.473406 0.908226 0.174997
O O9 0.418039 0.063874 0.091673
O O10 0.325076 0.019819 0.037571
O O11 0.170160 0.822040 0.568449
O O12 0.256844 0.924494 0.559873
O O13 0.191047 0.982882 0.728349
O O14 0.609494 0.250000 0.250000
O O15 0.647782 0.114422 0.431171
O O16 0.969444 0.887542 0.804917
O O17 0.000000 0.500000 0.500000
#
# Coordination Sequence:
#
# PCOD9389963 Si02
#       8
#     8   8   8   8   8   8   8   8
#     4  10  22  39  60  84 118 158 199 246 297 357
#     4  11  20  35  61  88 114 156 201 235 284 361
#     4  10  20  41  62  82 116 160 202 244 296 358
#     4  10  21  39  63  85 118 154 198 251 304 355
#     4  10  19  34  60  90 119 154 194 239 297 363
#     4  10  21  37  58  84 117 158 201 242 289 351
#     4  10  22  39  58  91 120 150 196 255 306 352
#     4  11  22  37  55  84 124 157 190 246 299 352
#
# _framework density 20.022546999999999
#
# number of rings (size 3 to 8) (size 9 to 14) (size 15 to 20)
#    0.000    1.750    2.500    2.250    0.000    4.500 
#    0.000    4.375    0.000    1.500    0.000    0.000 
#    0.000    0.000    0.000    0.000    0.000    0.000 
#
# Total GULP energy -357266.067047 kJ/mol
# GULP energy per Si atom -5582.282298 kJ/mol
# Density = 1.997697 g / cm^3
# Si number density = 20.022547 Si / 1000 Ang^3
#
#
#
# Elastic Constant Matrix: (Units=GPa)
#
#
# Indices 1 2 3 4 5 6 
#
# 1 64.1936 20.4661 19.8647 0.0000 0.0000 0.0000
# 2 20.4661 96.4768 25.4533 0.0000 0.0000 0.0000
# 3 19.8647 25.4533 21.0559 0.0000 0.0000 0.0000
# 4 0.0000 0.0000 0.0000 25.0691 0.0000 0.0000
# 5 0.0000 0.0000 0.0000 0.0000 22.4738 0.0000
# 6 0.0000 0.0000 0.0000 0.0000 0.0000 31.6147
#
#
#
# Elastic Compliance Matrix: (Units=1/GPa)
#
#
# Indices 1 2 3 4 5 6 
#
# 1 0.022094 0.001193 -0.022286 0.000000 0.000000 0.000000
# 2 0.001193 0.015283 -0.019601 0.000000 0.000000 0.000000
# 3 -0.022286 -0.019601 0.092212 0.000000 0.000000 0.000000
# 4 0.000000 0.000000 0.000000 0.039890 0.000000 0.000000
# 5 0.000000 0.000000 0.000000 0.000000 0.044496 0.000000
# 6 0.000000 0.000000 0.000000 0.000000 0.000000 0.031631
#
#
# Mechanical properties :
#
#
# Convention : Reuss Voigt Hill
#
# Bulk Modulus (GPa) = 20.74609 34.81051 27.77830
# Shear Modulus (GPa) = 14.57466 23.56100 19.06783
#
# Velocity S-wave (km/s) = 2.70091 3.43406 3.08931
# Velocity P-wave (km/s) = 4.48447 5.75735 5.16031
#
# Compressibility (1/GPa) = 0.04820186
#
# Stress axis : x y z
#
# Youngs Moduli (GPa) = 45.26111 65.43076 10.84457
#
# Poissons Ratio (x) = -0.07804 0.24168
# Poissons Ratio (y) = -0.05399 0.21256
# Poissons Ratio (z) = 1.00869 1.28248
#
# Static dielectric constant tensor:
#      x y z
#    x 1.698240 0.000000 0.000000 
#    y 0.000000 1.696920 0.000000 
#    z 0.000000 0.000000 1.731350 
# 
# From -- ./inp_files/23707.got.cif
#   From: 2010.05.17/outbox.cif.g08.bks.cpg/sg48_12_cif.got.tgz:23707.got - 2010.06.03 20:39:00.
