data_PCOD9389492
_publ_section_title
;
Structure prediction by ZEFSAII (Michael W. Deem and Ramdas Pophale) SiO2 
 PCOD9389492
Probable space group: P N N N
;
_chemical_formula_sum "Si O2"
_cell_formula_units_Z 60
_cell_length_a 29.594961
_cell_length_b 27.788187
_cell_length_c 5.420563
_cell_angle_alpha 90.000000
_cell_angle_beta 90.000000
_cell_angle_gamma 90.000000
_cell_volume 4457.818489
_symmetry_space_group_name_H-M "P N N N"
_symmetry_group_IT_number 48
_space_group.IT_coordinate_system_code '2'
_symmetry_cell_setting 'orthorhombic'
loop_
_space_group_symop_operation_xyz
x,y,z
1/2-x,1/2-y,z
x,1/2-y,1/2-z
1/2-x,y,1/2-z
-x,-y,-z
1/2+x,1/2+y,-z
-x,1/2+y,1/2+z
1/2+x,-y,1/2+z
loop_
_atom_site_type_symbol
_atom_site_label
_atom_site_fract_x
_atom_site_fract_y
_atom_site_fract_z
Si Si1 0.619257 0.049220 0.002278
Si Si2 0.291616 0.664278 0.565107
Si Si3 0.277685 0.943734 0.010691
Si Si4 0.013677 0.443256 0.507687
Si Si5 0.914925 0.398869 0.505487
Si Si6 0.954781 0.966608 0.507764
Si Si7 0.811024 0.250000 0.750000
Si Si8 0.375885 0.699530 0.865964
O O1 0.671974 0.035161 0.011617
O O2 0.608462 0.081874 0.758556
O O3 0.587153 0.002676 0.980157
O O4 0.605764 0.075313 0.260540
O O5 0.250000 0.662912 0.750000
O O6 0.288871 0.612818 0.436956
O O7 0.284934 0.712260 0.413256
O O8 0.341047 0.672513 0.681842
O O9 0.250000 0.961455 0.250000
O O10 0.250000 0.947495 0.750000
O O11 0.967287 0.413948 0.519451
O O12 0.000000 0.500000 0.500000
O O13 0.040156 0.435259 0.253690
O O14 0.042936 0.437330 0.753846
O O15 0.908750 0.341698 0.465922
O O16 0.000000 0.000000 0.500000
O O17 0.843231 0.282526 0.581735
O O18 0.394007 0.750000 0.750000
#
# Coordination Sequence:
#
# PCOD9389492 Si02
#       8
#     8   8   8   8   8   8   4   8
#     4  12  20  31  52  64  84 113 130 164 223 260
#     4  10  22  34  44  56  68  93 128 185 231 258
#     4  11  24  37  45  61  82 105 145 176 205 264
#     4  10  16  28  43  70  94 100 118 159 193 280
#     4  12  20  31  50  65  83 110 132 158 228 260
#     4  10  16  29  43  72  92 100 122 157 200 273
#     4  10  22  37  44  52  72  88 140 180 224 266
#     4  10  23  36  43  58  74 102 141 175 209 265
#
# _framework density 13.459498999999999
#
# number of rings (size 3 to 8) (size 9 to 14) (size 15 to 20)
#    0.000    1.333    6.667    1.600    7.467    2.933 
#    0.000    0.000    0.000    0.000    0.000    0.000 
#    0.000    0.000    0.000    0.000    0.000    0.000 
#
# Total GULP energy -334306.605054 kJ/mol
# GULP energy per Si atom -5571.776751 kJ/mol
# Density = 1.342886 g / cm^3
# Si number density = 13.459499 Si / 1000 Ang^3
#
#
#
# Elastic Constant Matrix: (Units=GPa)
#
#
# Indices 1 2 3 4 5 6 
#
# 1 86.6323 38.6093 27.4458 0.0000 0.0000 0.0000
# 2 38.6093 32.7835 11.7682 0.0000 0.0000 0.0000
# 3 27.4458 11.7682 100.9908 0.0000 0.0000 0.0000
# 4 0.0000 0.0000 0.0000 13.9297 0.0000 0.0000
# 5 0.0000 0.0000 0.0000 0.0000 63.4998 0.0000
# 6 0.0000 0.0000 0.0000 0.0000 0.0000 20.2944
#
#
#
# Elastic Compliance Matrix: (Units=1/GPa)
#
#
# Indices 1 2 3 4 5 6 
#
# 1 0.025475 -0.028718 -0.003577 0.000000 0.000000 0.000000
# 2 -0.028718 0.064209 0.000322 0.000000 0.000000 0.000000
# 3 -0.003577 0.000322 0.010836 0.000000 0.000000 0.000000
# 4 0.000000 0.000000 0.000000 0.071789 0.000000 0.000000
# 5 0.000000 0.000000 0.000000 0.000000 0.015748 0.000000
# 6 0.000000 0.000000 0.000000 0.000000 0.000000 0.049275
#
#
# Mechanical properties :
#
#
# Convention : Reuss Voigt Hill
#
# Bulk Modulus (GPa) = 27.34075 41.78368 34.56221
# Shear Modulus (GPa) = 15.95060 29.05033 22.50047
#
# Velocity S-wave (km/s) = 3.44624 4.65085 4.09310
# Velocity P-wave (km/s) = 6.01605 7.74286 6.93342
#
# Compressibility (1/GPa) = 0.03657544
#
# Stress axis : x y z
#
# Youngs Moduli (GPa) = 39.25440 15.57421 92.28191
#
# Poissons Ratio (x) = 0.44726 0.33007
# Poissons Ratio (y) = 1.12731 -0.02976
# Poissons Ratio (z) = 0.14040 -0.00502
#
# Static dielectric constant tensor:
#      x y z
#    x 1.453260 0.000000 0.000000 
#    y 0.000000 1.384420 0.000000 
#    z 0.000000 0.000000 1.744500 
# 
# From -- ./inp_files/7181.got.cif
#   From: 2010.05.17/outbox.cif.g08.bks.cpg/sg48_4_cif.got.tgz:7181.got - 2010.06.03 20:39:00.
