data_PCOD9389914
_publ_section_title
;
Structure prediction by ZEFSAII (Michael W. Deem and Ramdas Pophale) SiO2 
 PCOD9389914
Probable space group: P N N N
;
_chemical_formula_sum "Si O2"
_cell_formula_units_Z 42
_cell_length_a 16.086744
_cell_length_b 12.252381
_cell_length_c 8.245674
_cell_angle_alpha 90.000000
_cell_angle_beta 90.000000
_cell_angle_gamma 90.000000
_cell_volume 1625.229903
_symmetry_space_group_name_H-M "P N N N"
_symmetry_group_IT_number 48
_space_group.IT_coordinate_system_code '2'
_symmetry_cell_setting 'orthorhombic'
loop_
_space_group_symop_operation_xyz
x,y,z
1/2-x,1/2-y,z
x,1/2-y,1/2-z
1/2-x,y,1/2-z
-x,-y,-z
1/2+x,1/2+y,-z
-x,1/2+y,1/2+z
1/2+x,-y,1/2+z
loop_
_atom_site_type_symbol
_atom_site_label
_atom_site_fract_x
_atom_site_fract_y
_atom_site_fract_z
Si Si1 0.750000 0.250000 0.750000
Si Si2 0.361342 0.337624 0.973299
Si Si3 0.450194 0.813114 0.581178
Si Si4 0.619848 0.600900 0.400171
Si Si5 0.581166 0.399216 0.586659
Si Si6 0.331855 0.556366 0.079991
O O1 0.732442 0.348066 0.883685
O O2 0.356615 0.369812 0.783490
O O3 0.346027 0.208194 0.994185
O O4 0.458010 0.348551 0.028213
O O5 0.308625 0.429933 0.064630
O O6 0.455627 0.750000 0.750000
O O7 0.408717 0.727825 0.454444
O O8 0.387197 0.913330 0.576966
O O9 0.632753 0.479810 0.469097
O O10 0.519324 0.599842 0.421411
O O11 0.606231 0.433426 0.766207
#
# Coordination Sequence:
#
# PCOD9389914 Si02
#       6
#     2   8   8   8   8   8
#     4  12  28  48  62  82 120 180 238 268 308 376
#     4  10  21  34  59  94 135 158 194 257 334 390
#     4  11  21  34  58  97 130 163 199 257 331 390
#     4   9  19  34  56  97 131 159 187 251 335 402
#     4  10  19  33  56  87 132 162 198 247 319 389
#     4  12  23  41  61  84 124 174 217 267 303 381
#
# _framework density 25.842497999999999
#
# number of rings (size 3 to 8) (size 9 to 14) (size 15 to 20)
#    0.000    1.524    3.810    1.714    8.000    0.000 
#    0.000    0.476    0.000    2.286    0.000    2.667 
#    0.000    0.000    0.000    0.000    0.000    0.000 
#
# Total GULP energy -234160.756841 kJ/mol
# GULP energy per Si atom -5575.256115 kJ/mol
# Density = 2.578368 g / cm^3
# Si number density = 25.842498 Si / 1000 Ang^3
#
#
#
# Elastic Constant Matrix: (Units=GPa)
#
#
# Indices 1 2 3 4 5 6 
#
# 1 51.5284 48.0063 5.7698 0.0000 0.0000 0.0000
# 2 48.0063 226.2504 44.1394 0.0000 0.0000 0.0000
# 3 5.7698 44.1394 77.7503 0.0000 0.0000 0.0000
# 4 0.0000 0.0000 0.0000 44.9377 0.0000 0.0000
# 5 0.0000 0.0000 0.0000 0.0000 -7.4200 0.0000
# 6 0.0000 0.0000 0.0000 0.0000 0.0000 49.2456
#
#
#
# Elastic Compliance Matrix: (Units=1/GPa)
#
#
# Indices 1 2 3 4 5 6 
#
# 1 0.024298 -0.005402 0.001264 0.000000 0.000000 0.000000
# 2 -0.005402 0.006171 -0.003103 0.000000 0.000000 0.000000
# 3 0.001264 -0.003103 0.014529 0.000000 0.000000 0.000000
# 4 0.000000 0.000000 0.000000 0.022253 0.000000 0.000000
# 5 0.000000 0.000000 0.000000 0.000000 -0.134771 0.000000
# 6 0.000000 0.000000 0.000000 0.000000 0.000000 0.020306
#
#
# Mechanical properties :
#
#
# Convention : Reuss Voigt Hill
#
# Bulk Modulus (GPa) = 32.76900 61.26223 47.01561
# Shear Modulus (GPa) = -221.65361 34.52690 -93.56335
#
# Velocity S-wave (km/s) = -9.27131 3.65917 -6.02361
# Velocity P-wave (km/s) = 10.09464 6.45059 5.49052
#
# Compressibility (1/GPa) = 0.03051665
#
# Stress axis : x y z
#
# Youngs Moduli (GPa) = 41.15535 162.03703 68.82636
#
# Poissons Ratio (x) = 0.87535 -0.08698
# Poissons Ratio (y) = 0.22233 0.21355
# Poissons Ratio (z) = -0.05201 0.50275
#
# Static dielectric constant tensor:
#      x y z
#    x 2.176350 0.000000 0.000000 
#    y 0.000000 2.041340 0.000000 
#    z 0.000000 0.000000 2.014060 
# 
# From -- ./inp_files/11183.got.cif
#   From: 2010.05.17/outbox.cif.g08.bks.cpg/sg48_6_cif.got.tgz:11183.got - 2010.06.03 20:39:00.
