data_PCOD9389992
_publ_section_title
;
Structure prediction by ZEFSAII (Michael W. Deem and Ramdas Pophale) SiO2 
 PCOD9389992
Probable space group: P N N N
;
_chemical_formula_sum "Si O2"
_cell_formula_units_Z 42
_cell_length_a 7.381261
_cell_length_b 9.217795
_cell_length_c 21.773905
_cell_angle_alpha 90.000000
_cell_angle_beta 90.000000
_cell_angle_gamma 90.000000
_cell_volume 1481.473650
_symmetry_space_group_name_H-M "P N N N"
_symmetry_group_IT_number 48
_space_group.IT_coordinate_system_code '2'
_symmetry_cell_setting 'orthorhombic'
loop_
_space_group_symop_operation_xyz
x,y,z
1/2-x,1/2-y,z
x,1/2-y,1/2-z
1/2-x,y,1/2-z
-x,-y,-z
1/2+x,1/2+y,-z
-x,1/2+y,1/2+z
1/2+x,-y,1/2+z
loop_
_atom_site_type_symbol
_atom_site_label
_atom_site_fract_x
_atom_site_fract_y
_atom_site_fract_z
Si Si1 0.200441 0.885704 0.023878
Si Si2 0.012006 0.918807 0.812572
Si Si3 0.917132 0.507041 0.816426
Si Si4 0.750000 0.250000 0.750000
Si Si5 0.440699 0.178609 0.427525
Si Si6 0.216384 0.421632 0.903163
O O1 0.250000 0.750000 0.068384
O O2 0.069368 0.779740 0.982896
O O3 0.270178 0.992313 0.968472
O O4 0.094360 0.005937 0.063226
O O5 0.031685 0.788506 0.862054
O O6 0.790650 0.936579 0.819577
O O7 0.026955 0.914171 0.739357
O O8 0.149754 0.030845 0.846007
O O9 0.882711 0.348510 0.788786
O O10 0.021018 0.476041 0.879012
O O11 0.250000 0.250000 0.432560
O O12 0.250000 0.250000 0.912499
#
# Coordination Sequence:
#
# PCOD9389992 Si02
#       6
#     8   8   8   2   8   8
#     4  10  24  44  63  97 128 164 225 271 328 410
#     4   9  21  38  57  95 129 164 218 262 320 395
#     4  10  19  35  58  91 130 169 207 265 320 385
#     4   8  16  32  50  88 134 154 220 260 300 392
#     4  10  22  44  67  91 130 168 216 280 326 396
#     4  11  21  37  66  94 130 171 213 270 331 385
#
# _framework density 28.350152000000001
#
# number of rings (size 3 to 8) (size 9 to 14) (size 15 to 20)
#    0.000    2.286    0.000    3.429    2.667    1.524 
#   17.143    1.905    0.000    1.143    0.000    0.000 
#    0.000    0.000    0.000    0.000    0.000    0.000 
#
# Total GULP energy -234112.698096 kJ/mol
# GULP energy per Si atom -5574.111859 kJ/mol
# Density = 2.828563 g / cm^3
# Si number density = 28.350152 Si / 1000 Ang^3
#
#
#
# Elastic Constant Matrix: (Units=GPa)
#
#
# Indices 1 2 3 4 5 6 
#
# 1 70.0105 11.0278 -0.2440 0.0000 0.0000 0.0000
# 2 11.0278 161.3714 4.3254 0.0000 0.0000 0.0000
# 3 -0.2440 4.3254 152.6833 0.0000 0.0000 0.0000
# 4 0.0000 0.0000 0.0000 50.4533 0.0000 0.0000
# 5 0.0000 0.0000 0.0000 0.0000 -295.5214 0.0000
# 6 0.0000 0.0000 0.0000 0.0000 0.0000 29.3427
#
#
#
# Elastic Compliance Matrix: (Units=1/GPa)
#
#
# Indices 1 2 3 4 5 6 
#
# 1 0.014439 -0.000988 0.000051 0.000000 0.000000 0.000000
# 2 -0.000988 0.006269 -0.000179 0.000000 0.000000 0.000000
# 3 0.000051 -0.000179 0.006555 0.000000 0.000000 0.000000
# 4 0.000000 0.000000 0.000000 0.019820 0.000000 0.000000
# 5 0.000000 0.000000 0.000000 0.000000 -0.003384 0.000000
# 6 0.000000 0.000000 0.000000 0.000000 0.000000 0.034080
#
#
# Mechanical properties :
#
#
# Convention : Reuss Voigt Hill
#
# Bulk Modulus (GPa) = 39.95080 46.03151 42.99115
# Shear Modulus (GPa) = 56.58934 -18.54803 19.02066
#
# Velocity S-wave (km/s) = 4.47260 -2.56060 2.59302
# Velocity P-wave (km/s) = 6.38708 2.74405 4.91551
#
# Compressibility (1/GPa) = 0.02503079
#
# Stress axis : x y z
#
# Youngs Moduli (GPa) = 69.25501 159.50966 152.56314
#
# Poissons Ratio (x) = 0.15762 -0.00779
# Poissons Ratio (y) = 0.06843 0.02734
# Poissons Ratio (z) = -0.00354 0.02858
#
# Static dielectric constant tensor:
#      x y z
#    x 2.409640 0.000000 0.000000 
#    y 0.000000 2.311410 0.000000 
#    z 0.000000 0.000000 2.230910 
# 
# From -- ./inp_files/35805.got.cif
#   From: 2010.05.17/outbox.cif.g08.bks.cpg/sg48_18_cif.got.tgz:35805.got - 2010.06.03 20:39:00.
