data_PCOD9389437
_publ_section_title
;
Structure prediction by ZEFSAII (Michael W. Deem and Ramdas Pophale) SiO2 
 PCOD9389437
Probable space group: P M M M
;
_chemical_formula_sum "Si O2"
_cell_formula_units_Z 52
_cell_length_a 15.000000
_cell_length_b 21.000000
_cell_length_c 9.000000
_cell_angle_alpha 90.000000
_cell_angle_beta 90.000000
_cell_angle_gamma 90.000000
_cell_volume 2835.000000
_symmetry_space_group_name_H-M "P M M M"
_symmetry_group_IT_number 47
_symmetry_cell_setting 'orthorhombic'
loop_
_space_group_symop_operation_xyz
x,y,z
-x,-y,z
x,-y,-z
-x,y,-z
-x,-y,-z
x,y,-z
-x,y,z
x,-y,z
loop_
_atom_site_type_symbol
_atom_site_label
_atom_site_fract_x
_atom_site_fract_y
_atom_site_fract_z
Si Si1 0.108130 0.431713 0.176715
Si Si2 0.106785 0.291290 0.820406
Si Si3 0.391580 0.370243 0.670242
Si Si4 0.775242 0.820008 0.322383
Si Si5 0.609360 0.500000 0.828511
Si Si6 0.897288 0.075868 0.176997
Si Si7 0.605082 0.764106 0.177985
O O1 0.140270 0.500000 0.238621
O O2 0.136604 0.362202 0.231685
O O3 0.000000 0.431592 0.190021
O O4 0.127047 0.432058 0.000000
O O5 0.163961 0.237654 0.740484
O O6 0.000000 0.284171 0.793528
O O7 0.118695 0.287062 0.000000
O O8 0.360572 0.365020 0.500000
O O9 0.500000 0.374020 0.666426
O O10 0.360684 0.435444 0.747511
O O11 0.371520 0.306815 0.763002
O O12 0.770867 0.818050 0.500000
O O13 0.825571 0.883269 0.265828
O O14 0.676499 0.810752 0.253663
O O15 0.500000 0.500000 0.826848
O O16 0.637415 0.500000 0.000000
O O17 0.000000 0.093071 0.216985
O O18 0.887452 0.000000 0.199681
O O19 0.887614 0.088292 0.000000
O O20 0.500000 0.775976 0.214382
O O21 0.613972 0.766074 0.000000
#
# Coordination Sequence:
#
# PCOD9389437 Si02
#       7
#     8   8   8   8   4   8   8
#     4   7  10  19  39  67  95 126 170 223 274 318
#     4   9  17  30  50  76 107 143 183 228 275 325
#     4   9  16  27  45  70  99 129 165 218 286 347
#     4  12  24  35  53  82 117 152 184 223 274 334
#     4   9  15  23  39  65  95 129 172 217 266 335
#     4   9  19  38  64  92 122 156 191 225 264 315
#     4  10  21  38  59  79 101 136 186 241 289 337
#
# _framework density 18.342151999999999
#
# number of rings (size 3 to 8) (size 9 to 14) (size 15 to 20)
#    0.000    2.692    0.000    4.846    0.000    6.462 
#    0.000    0.769    1.692    0.923    0.000    5.385 
#    0.000    0.000    0.000    0.000    0.000    0.000 
#
# Total GULP energy -290217.075997 kJ/mol
# GULP energy per Si atom -5581.097615 kJ/mol
# Density = 1.830040 g / cm^3
# Si number density = 18.342152 Si / 1000 Ang^3
#
#
#
# Elastic Constant Matrix: (Units=GPa)
#
#
# Indices 1 2 3 4 5 6 
#
# 1 83.9005 51.9422 51.7997 0.0000 0.0000 0.0000
# 2 51.9422 85.2870 48.0595 0.0000 0.0000 0.0000
# 3 51.7997 48.0595 97.1305 0.0000 0.0000 0.0000
# 4 0.0000 0.0000 0.0000 3.6480 0.0000 0.0000
# 5 0.0000 0.0000 0.0000 0.0000 18.2857 0.0000
# 6 0.0000 0.0000 0.0000 0.0000 0.0000 20.9718
#
#
#
# Elastic Compliance Matrix: (Units=1/GPa)
#
#
# Indices 1 2 3 4 5 6 
#
# 1 0.022212 -0.009502 -0.007144 0.000000 0.000000 0.000000
# 2 -0.009502 0.020323 -0.004988 0.000000 0.000000 0.000000
# 3 -0.007144 -0.004988 0.016574 0.000000 0.000000 0.000000
# 4 0.000000 0.000000 0.000000 0.274121 0.000000 0.000000
# 5 0.000000 0.000000 0.000000 0.000000 0.054687 0.000000
# 6 0.000000 0.000000 0.000000 0.000000 0.000000 0.047683
#
#
# Mechanical properties :
#
#
# Convention : Reuss Voigt Hill
#
# Bulk Modulus (GPa) = 63.13215 63.32453 63.22834
# Shear Modulus (GPa) = 10.32739 16.21556 13.27148
#
# Velocity S-wave (km/s) = 2.37542 2.97654 2.69281
# Velocity P-wave (km/s) = 6.48208 6.81264 6.64942
#
# Compressibility (1/GPa) = 0.01583979
#
# Stress axis : x y z
#
# Youngs Moduli (GPa) = 45.01979 49.20517 60.33691
#
# Poissons Ratio (x) = 0.46756 0.43107
# Poissons Ratio (y) = 0.42779 0.30097
# Poissons Ratio (z) = 0.32164 0.24545
#
# Static dielectric constant tensor:
#      x y z
#    x 1.655950 0.000000 0.000000 
#    y 0.000000 1.643050 0.000000 
#    z 0.000000 0.000000 1.609730 
# 
# From -- ./inp_files/7095.got.cif
#   From: 2010.05.17/outbox.ucp.g08.bks.cvg/sg47_4_cif.got.tgz:7095.got - 2010.06.11 16:36:43.
