data_PCOD9389836
_publ_section_title
;
Structure prediction by ZEFSAII (Michael W. Deem and Ramdas Pophale) SiO2 
 PCOD9389836
Probable space group: P N N N
;
_chemical_formula_sum "Si O2"
_cell_formula_units_Z 56
_cell_length_a 15.080164
_cell_length_b 22.349595
_cell_length_c 10.011717
_cell_angle_alpha 90.000000
_cell_angle_beta 90.000000
_cell_angle_gamma 90.000000
_cell_volume 3374.304625
_symmetry_space_group_name_H-M "P N N N"
_symmetry_group_IT_number 48
_space_group.IT_coordinate_system_code '2'
_symmetry_cell_setting 'orthorhombic'
loop_
_space_group_symop_operation_xyz
x,y,z
1/2-x,1/2-y,z
x,1/2-y,1/2-z
1/2-x,y,1/2-z
-x,-y,-z
1/2+x,1/2+y,-z
-x,1/2+y,1/2+z
1/2+x,-y,1/2+z
loop_
_atom_site_type_symbol
_atom_site_label
_atom_site_fract_x
_atom_site_fract_y
_atom_site_fract_z
Si Si1 0.996992 0.567888 0.228113
Si Si2 0.208215 0.966086 0.896631
Si Si3 0.885713 0.589930 0.476437
Si Si4 0.925739 0.601081 0.941841
Si Si5 0.675451 0.478801 0.642369
Si Si6 0.741870 0.680159 0.590175
Si Si7 0.468882 0.930556 0.702462
O O1 0.949707 0.601751 0.349833
O O2 0.965052 0.499051 0.245995
O O3 0.103090 0.562360 0.217313
O O4 0.965131 0.591958 0.087145
O O5 0.250000 0.972249 0.750000
O O6 0.123836 0.922438 0.874739
O O7 0.171136 0.030566 0.944191
O O8 0.279406 0.949995 0.010965
O O9 0.818250 0.641953 0.517295
O O10 0.950888 0.574919 0.598484
O O11 0.874039 0.539557 0.903067
O O12 0.853814 0.653217 0.944126
O O13 0.002472 0.608202 0.830298
O O14 0.750000 0.494733 0.750000
O O15 0.750000 0.750000 0.558187
O O16 0.750000 0.672531 0.750000
#
# Coordination Sequence:
#
# PCOD9389836 Si02
#       7
#     8   8   8   8   8   8   8
#     4  10  21  30  47  73 105 136 175 205 262 317
#     4  11  19  28  47  74 107 135 175 203 249 312
#     4  11  20  34  49  70 104 141 173 215 255 300
#     4  11  19  34  49  70 105 142 171 217 260 296
#     4  11  18  29  48  72 104 142 173 199 247 317
#     4  11  23  38  57  77  97 140 190 221 252 306
#     4  10  19  31  47  71  98 145 175 203 247 320
#
# _framework density 16.596012000000002
#
# number of rings (size 3 to 8) (size 9 to 14) (size 15 to 20)
#    0.000    1.286    2.857    9.000    0.000    0.000 
#    0.000    1.429    0.000    0.000    0.000    0.000 
#    0.000   17.143    0.000    0.000    0.000    0.000 
#
# Total GULP energy -312419.385293 kJ/mol
# GULP energy per Si atom -5578.917595 kJ/mol
# Density = 1.655824 g / cm^3
# Si number density = 16.596012 Si / 1000 Ang^3
#
#
#
# Elastic Constant Matrix: (Units=GPa)
#
#
# Indices 1 2 3 4 5 6 
#
# 1 77.5466 32.7466 23.5372 0.0000 0.0000 0.0000
# 2 32.7466 49.9820 15.4535 0.0000 0.0000 0.0000
# 3 23.5372 15.4535 79.4682 0.0000 0.0000 0.0000
# 4 0.0000 0.0000 0.0000 -194.4750 0.0000 0.0000
# 5 0.0000 0.0000 0.0000 0.0000 37.5705 0.0000
# 6 0.0000 0.0000 0.0000 0.0000 0.0000 10.9589
#
#
#
# Elastic Compliance Matrix: (Units=1/GPa)
#
#
# Indices 1 2 3 4 5 6 
#
# 1 0.018628 -0.011170 -0.003345 0.000000 0.000000 0.000000
# 2 -0.011170 0.027985 -0.002134 0.000000 0.000000 0.000000
# 3 -0.003345 -0.002134 0.013989 0.000000 0.000000 0.000000
# 4 0.000000 0.000000 0.000000 -0.005142 0.000000 0.000000
# 5 0.000000 0.000000 0.000000 0.000000 0.026617 0.000000
# 6 0.000000 0.000000 0.000000 0.000000 0.000000 0.091250
#
#
# Mechanical properties :
#
#
# Convention : Reuss Voigt Hill
#
# Bulk Modulus (GPa) = 36.62383 38.94126 37.78255
# Shear Modulus (GPa) = 23.17756 -20.17183 1.50287
#
# Velocity S-wave (km/s) = 3.74113 -3.49013 0.95264
# Velocity P-wave (km/s) = 6.38570 2.69700 4.90158
#
# Compressibility (1/GPa) = 0.02730463
#
# Stress axis : x y z
#
# Youngs Moduli (GPa) = 53.68353 35.73326 71.48305
#
# Poissons Ratio (x) = 0.39914 0.23912
# Poissons Ratio (y) = 0.59965 0.15252
# Poissons Ratio (z) = 0.17958 0.07624
#
# Static dielectric constant tensor:
#      x y z
#    x 1.662730 0.000000 0.000000 
#    y 0.000000 1.511740 0.000000 
#    z 0.000000 0.000000 1.591600 
# 
# From -- ./inp_files/13100.got.cif
#   From: 2010.05.17/outbox.cif.g08.bks.cpg/sg48_7_cif.got.tgz:13100.got - 2010.06.03 20:39:00.
