data_PCOD9389007
_publ_section_title
;
Structure prediction by ZEFSAII (Michael W. Deem and Ramdas Pophale) SiO2 
 PCOD9389007
Probable space group: P M M M
;
_chemical_formula_sum "Si O2"
_cell_formula_units_Z 36
_cell_length_a 24.222218
_cell_length_b 9.131186
_cell_length_c 9.511365
_cell_angle_alpha 90.000000
_cell_angle_beta 90.000000
_cell_angle_gamma 90.000000
_cell_volume 2103.700673
_symmetry_space_group_name_H-M "P M M M"
_symmetry_group_IT_number 47
_symmetry_cell_setting 'orthorhombic'
loop_
_space_group_symop_operation_xyz
x,y,z
-x,-y,z
x,-y,-z
-x,y,-z
-x,-y,-z
x,y,-z
-x,y,z
x,-y,z
loop_
_atom_site_type_symbol
_atom_site_label
_atom_site_fract_x
_atom_site_fract_y
_atom_site_fract_z
Si Si1 0.000000 0.168847 0.171659
Si Si2 0.332426 0.178823 0.338357
Si Si3 0.775650 0.175684 0.165790
Si Si4 0.111324 0.668614 0.828688
Si Si5 0.438113 0.821659 0.837048
O O1 0.055842 0.249359 0.218018
O O2 0.000000 0.000000 0.214749
O O3 0.000000 0.171727 0.000000
O O4 0.330848 0.225445 0.500000
O O5 0.277691 0.222933 0.253787
O O6 0.388111 0.228660 0.260310
O O7 0.333123 0.000000 0.336437
O O8 0.832207 0.251667 0.213396
O O9 0.781775 0.000000 0.178778
O O10 0.766964 0.207372 0.000000
O O11 0.110823 0.500000 0.784561
O O12 0.110718 0.671629 0.000000
O O13 0.500000 0.775235 0.794424
O O14 0.437892 0.000000 0.833833
O O15 0.429261 0.779994 0.000000
#
# Coordination Sequence:
#
# PCOD9389007 Si02
#       5
#     4   8   8   8   8
#     4   9  15  23  37  59  88 117 142 171 212 260
#     4   9  16  24  35  53  77 106 141 180 218 254
#     4   9  16  26  40  57  79 109 143 176 212 256
#     4   9  16  25  38  58  84 112 142 177 215 253
#     4   8  13  21  33  50  75 108 142 174 212 259
#
# _framework density 17.1127
#
# number of rings (size 3 to 8) (size 9 to 14) (size 15 to 20)
#    0.000    3.222    0.000    2.333    0.000    7.111 
#    0.000    2.222    0.000    0.667    0.000    0.778 
#    0.000    7.111    0.000   10.222    0.000   13.111 
#
# Total GULP energy -200481.826568 kJ/mol
# GULP energy per Si atom -5568.939627 kJ/mol
# Density = 1.707375 g / cm^3
# Si number density = 17.112700 Si / 1000 Ang^3
#
#
#
# Elastic Constant Matrix: (Units=GPa)
#
#
# Indices 1 2 3 4 5 6 
#
# 1 223.1720 58.4675 87.2582 0.0000 0.0000 0.0000
# 2 58.4675 37.8108 28.4226 0.0000 0.0000 0.0000
# 3 87.2582 28.4226 59.5545 0.0000 0.0000 0.0000
# 4 0.0000 0.0000 0.0000 3.2546 0.0000 0.0000
# 5 0.0000 0.0000 0.0000 0.0000 -1.8773 0.0000
# 6 0.0000 0.0000 0.0000 0.0000 0.0000 -4.1926
#
#
#
# Elastic Compliance Matrix: (Units=1/GPa)
#
#
# Indices 1 2 3 4 5 6 
#
# 1 0.011955 -0.008295 -0.013557 0.000000 0.000000 0.000000
# 2 -0.008295 0.046999 -0.010277 0.000000 0.000000 0.000000
# 3 -0.013557 -0.010277 0.041559 0.000000 0.000000 0.000000
# 4 0.000000 0.000000 0.000000 0.307260 0.000000 0.000000
# 5 0.000000 0.000000 0.000000 0.000000 -0.532668 0.000000
# 6 0.000000 0.000000 0.000000 0.000000 0.000000 -0.238514
#
#
# Mechanical properties :
#
#
# Convention : Reuss Voigt Hill
#
# Bulk Modulus (GPa) = 27.58204 74.31487 50.94845
# Shear Modulus (GPa) = -17.41764 9.19620 -4.11072
#
# Velocity S-wave (km/s) = -3.19379 2.32068 -1.55157
# Velocity P-wave (km/s) = 1.59765 7.12052 5.16015
#
# Compressibility (1/GPa) = 0.03625548
#
# Stress axis : x y z
#
# Youngs Moduli (GPa) = 83.65012 21.27699 24.06190
#
# Poissons Ratio (x) = 0.17649 0.32620
# Poissons Ratio (y) = 0.69385 0.24729
# Poissons Ratio (z) = 1.13404 0.21867
#
# Static dielectric constant tensor:
#      x y z
#    x 1.576780 0.000000 0.000000 
#    y 0.000000 1.562920 0.000000 
#    z 0.000000 0.000000 1.559340 
# 
# From -- ./inp_files/1360.got.cif
#   From: 2010.05.17/outbox.cif.g08.bks.cpg/sg47_1_cif.got.tgz:1360.got - 2010.06.03 20:15:42.
