data_PCOD9389663
_publ_section_title
;
Structure prediction by ZEFSAII (Michael W. Deem and Ramdas Pophale) SiO2 
 PCOD9389663
Probable space group: P N N N
;
_chemical_formula_sum "Si O2"
_cell_formula_units_Z 64
_cell_length_a 13.545904
_cell_length_b 14.312925
_cell_length_c 15.965684
_cell_angle_alpha 90.000000
_cell_angle_beta 90.000000
_cell_angle_gamma 90.000000
_cell_volume 3095.450890
_symmetry_space_group_name_H-M "P N N N"
_symmetry_group_IT_number 48
_space_group.IT_coordinate_system_code '2'
_symmetry_cell_setting 'orthorhombic'
loop_
_space_group_symop_operation_xyz
x,y,z
1/2-x,1/2-y,z
x,1/2-y,1/2-z
1/2-x,y,1/2-z
-x,-y,-z
1/2+x,1/2+y,-z
-x,1/2+y,1/2+z
1/2+x,-y,1/2+z
loop_
_atom_site_type_symbol
_atom_site_label
_atom_site_fract_x
_atom_site_fract_y
_atom_site_fract_z
Si Si1 0.183348 0.901301 0.322923
Si Si2 0.479200 0.041705 0.240320
Si Si3 0.508067 0.679956 0.394784
Si Si4 0.879127 0.697106 0.665512
Si Si5 0.852583 0.910278 0.253170
Si Si6 0.834773 0.675880 0.419744
Si Si7 0.256509 0.447861 0.059623
Si Si8 0.541336 0.625373 0.569121
O O1 0.250000 0.861307 0.250000
O O2 0.095936 0.830033 0.348175
O O3 0.122668 0.988171 0.280614
O O4 0.250779 0.950203 0.395741
O O5 0.461902 0.126445 0.301867
O O6 0.511306 0.077005 0.147850
O O7 0.557889 0.972832 0.278726
O O8 0.595506 0.633771 0.336493
O O9 0.556942 0.777483 0.423061
O O10 0.485627 0.628499 0.482107
O O11 0.849093 0.750000 0.750000
O O12 0.796924 0.630898 0.624513
O O13 0.922290 0.773741 0.602690
O O14 0.750000 0.967791 0.250000
O O15 0.823965 0.839192 0.179556
O O16 0.750000 0.750000 0.447664
O O17 0.815679 0.582837 0.475289
O O18 0.141949 0.427155 0.045512
#
# Coordination Sequence:
#
# PCOD9389663 Si02
#       8
#     8   8   8   8   8   8   8   8
#     4  10  21  36  57  86 126 164 199 248 308 381
#     4   9  21  34  55  88 117 155 199 243 317 375
#     4  11  22  36  58  88 121 160 204 254 315 364
#     4  10  18  31  55  86 123 155 192 249 316 371
#     4  11  22  36  58  78 115 155 199 257 306 360
#     4  12  21  37  57  89 120 153 204 257 313 370
#     4  11  19  32  58  89 124 152 198 253 321 370
#     4  10  19  32  56  90 121 147 192 256 314 368
#
# _framework density 20.675502000000002
#
# number of rings (size 3 to 8) (size 9 to 14) (size 15 to 20)
#    0.000    1.500    5.000    0.750    0.000    8.000 
#    0.000    0.625    0.000    9.375    0.000    5.250 
#    0.000    0.000    0.000    0.000    0.000    0.000 
#
# Total GULP energy -356335.034781 kJ/mol
# GULP energy per Si atom -5567.734918 kJ/mol
# Density = 2.062844 g / cm^3
# Si number density = 20.675502 Si / 1000 Ang^3
#
#
#
# Elastic Constant Matrix: (Units=GPa)
#
#
# Indices 1 2 3 4 5 6 
#
# 1 73.9823 22.9648 41.4782 0.0000 0.0000 0.0000
# 2 22.9648 42.0940 9.4172 0.0000 0.0000 0.0000
# 3 41.4782 9.4172 105.9079 0.0000 0.0000 0.0000
# 4 0.0000 0.0000 0.0000 5.8938 0.0000 0.0000
# 5 0.0000 0.0000 0.0000 0.0000 25.9964 0.0000
# 6 0.0000 0.0000 0.0000 0.0000 0.0000 24.7008
#
#
#
# Elastic Compliance Matrix: (Units=1/GPa)
#
#
# Indices 1 2 3 4 5 6 
#
# 1 0.020521 -0.009588 -0.007184 0.000000 0.000000 0.000000
# 2 -0.009588 0.028718 0.001202 0.000000 0.000000 0.000000
# 3 -0.007184 0.001202 0.012149 0.000000 0.000000 0.000000
# 4 0.000000 0.000000 0.000000 0.169669 0.000000 0.000000
# 5 0.000000 0.000000 0.000000 0.000000 0.038467 0.000000
# 6 0.000000 0.000000 0.000000 0.000000 0.000000 0.040484
#
#
# Mechanical properties :
#
#
# Convention : Reuss Voigt Hill
#
# Bulk Modulus (GPa) = 33.06165 41.07830 37.06998
# Shear Modulus (GPa) = 14.23556 21.19314 17.71435
#
# Velocity S-wave (km/s) = 2.62682 3.20509 2.93026
# Velocity P-wave (km/s) = 5.02252 5.79725 5.42373
#
# Compressibility (1/GPa) = 0.03024652
#
# Stress axis : x y z
#
# Youngs Moduli (GPa) = 48.73087 34.82084 82.31116
#
# Poissons Ratio (x) = 0.33387 0.59135
# Poissons Ratio (y) = 0.46724 -0.09890
# Poissons Ratio (z) = 0.35010 -0.04184
#
# Static dielectric constant tensor:
#      x y z
#    x 1.803470 0.000000 0.000000 
#    y 0.000000 1.804570 0.000000 
#    z 0.000000 0.000000 1.831190 
# 
# From -- ./inp_files/26715.got.cif
#   From: 2010.05.17/outbox.cif.g08.bks.cpg/sg48_14_cif.got.tgz:26715.got - 2010.06.03 20:39:00.
