data_PCOD9389505
_publ_section_title
;
Structure prediction by ZEFSAII (Michael W. Deem and Ramdas Pophale) SiO2 
 PCOD9389505
Probable space group: P N N N
;
_chemical_formula_sum "Si O2"
_cell_formula_units_Z 52
_cell_length_a 19.369661
_cell_length_b 30.456134
_cell_length_c 5.201850
_cell_angle_alpha 90.000000
_cell_angle_beta 90.000000
_cell_angle_gamma 90.000000
_cell_volume 3068.701314
_symmetry_space_group_name_H-M "P N N N"
_symmetry_group_IT_number 48
_space_group.IT_coordinate_system_code '2'
_symmetry_cell_setting 'orthorhombic'
loop_
_space_group_symop_operation_xyz
x,y,z
1/2-x,1/2-y,z
x,1/2-y,1/2-z
1/2-x,y,1/2-z
-x,-y,-z
1/2+x,1/2+y,-z
-x,1/2+y,1/2+z
1/2+x,-y,1/2+z
loop_
_atom_site_type_symbol
_atom_site_label
_atom_site_fract_x
_atom_site_fract_y
_atom_site_fract_z
Si Si1 0.825883 0.697625 0.218132
Si Si2 0.496379 0.942087 0.299935
Si Si3 0.750000 0.508075 0.250000
Si Si4 0.680152 0.573446 0.659202
Si Si5 0.913501 0.698576 0.718867
Si Si6 0.116679 0.498718 0.535130
Si Si7 0.032790 0.110679 0.320852
O O1 0.819121 0.750000 0.250000
O O2 0.750000 0.677153 0.250000
O O3 0.880429 0.685943 0.442283
O O4 0.854558 0.692451 0.933507
O O5 0.427817 0.969714 0.355775
O O6 0.514319 0.913827 0.555077
O O7 0.559606 0.977295 0.274321
O O8 0.491463 0.911689 0.051767
O O9 0.708839 0.540776 0.441779
O O10 0.813976 0.479765 0.354480
O O11 0.750000 0.597795 0.750000
O O12 0.650350 0.541675 0.880196
O O13 0.613167 0.601758 0.597698
O O14 0.933869 0.750000 0.750000
O O15 0.971858 0.662825 0.782738
#
# Coordination Sequence:
#
# PCOD9389505 Si02
#       7
#     8   8   4   8   8   8   8
#     4   9  17  30  46  63  84 112 153 203 251 301
#     4  10  21  33  52  70  96 126 168 204 244 291
#     4  10  16  32  48  68  98 129 163 196 240 298
#     4   9  19  30  45  68  96 126 162 200 244 286
#     4  10  20  33  48  65  89 123 165 207 255 297
#     4   9  19  31  50  71  96 130 164 201 239 295
#     4  11  21  35  47  69  94 127 167 212 247 292
#
# _framework density 16.94528
#
# number of rings (size 3 to 8) (size 9 to 14) (size 15 to 20)
#    0.000    2.308    1.538    1.385    2.154    4.923 
#    1.385    0.000    0.000    0.000    0.000    0.000 
#    0.000    0.000    0.000    0.692    7.692    0.308 
#
# Total GULP energy -289599.218700 kJ/mol
# GULP energy per Si atom -5569.215744 kJ/mol
# Density = 1.690671 g / cm^3
# Si number density = 16.945280 Si / 1000 Ang^3
#
#
#
# Elastic Constant Matrix: (Units=GPa)
#
#
# Indices 1 2 3 4 5 6 
#
# 1 76.0893 24.3874 9.0751 0.0000 0.0000 0.0000
# 2 24.3874 63.1652 4.4093 0.0000 0.0000 0.0000
# 3 9.0751 4.4093 48.1851 0.0000 0.0000 0.0000
# 4 0.0000 0.0000 0.0000 5.6120 0.0000 0.0000
# 5 0.0000 0.0000 0.0000 0.0000 -21.5660 0.0000
# 6 0.0000 0.0000 0.0000 0.0000 0.0000 2.1019
#
#
#
# Elastic Compliance Matrix: (Units=1/GPa)
#
#
# Indices 1 2 3 4 5 6 
#
# 1 0.015258 -0.005727 -0.002350 0.000000 0.000000 0.000000
# 2 -0.005727 0.018083 -0.000576 0.000000 0.000000 0.000000
# 3 -0.002350 -0.000576 0.021249 0.000000 0.000000 0.000000
# 4 0.000000 0.000000 0.000000 0.178188 0.000000 0.000000
# 5 0.000000 0.000000 0.000000 0.000000 -0.046369 0.000000
# 6 0.000000 0.000000 0.000000 0.000000 0.000000 0.475752
#
#
# Mechanical properties :
#
#
# Convention : Reuss Voigt Hill
#
# Bulk Modulus (GPa) = 26.82106 29.24258 28.03182
# Shear Modulus (GPa) = 7.22653 7.20077 7.21365
#
# Velocity S-wave (km/s) = 2.06734 2.06365 2.06549
# Velocity P-wave (km/s) = 4.64337 4.79299 4.71877
#
# Compressibility (1/GPa) = 0.03728413
#
# Stress axis : x y z
#
# Youngs Moduli (GPa) = 65.53823 55.30103 47.06198
#
# Poissons Ratio (x) = 0.31671 0.11058
# Poissons Ratio (y) = 0.37534 0.02711
# Poissons Ratio (z) = 0.15399 0.03186
#
# Static dielectric constant tensor:
#      x y z
#    x 1.614470 0.000000 0.000000 
#    y 0.000000 0.648070 0.000000 
#    z 0.000000 0.000000 1.826830 
# 
# From -- ./inp_files/4628.got.cif
#   From: 2010.05.17/outbox.cif.g08.bks.cpg/sg48_3_cif.got.tgz:4628.got - 2010.06.03 20:39:00.
