data_PCOD9389969
_publ_section_title
;
Structure prediction by ZEFSAII (Michael W. Deem and Ramdas Pophale) SiO2 
 PCOD9389969
Probable space group: P N N N
;
_chemical_formula_sum "Si O2"
_cell_formula_units_Z 58
_cell_length_a 6.013754
_cell_length_b 18.454352
_cell_length_c 27.904503
_cell_angle_alpha 90.000000
_cell_angle_beta 90.000000
_cell_angle_gamma 90.000000
_cell_volume 3096.839878
_symmetry_space_group_name_H-M "P N N N"
_symmetry_group_IT_number 48
_space_group.IT_coordinate_system_code '2'
_symmetry_cell_setting 'orthorhombic'
loop_
_space_group_symop_operation_xyz
x,y,z
1/2-x,1/2-y,z
x,1/2-y,1/2-z
1/2-x,y,1/2-z
-x,-y,-z
1/2+x,1/2+y,-z
-x,1/2+y,1/2+z
1/2+x,-y,1/2+z
loop_
_atom_site_type_symbol
_atom_site_label
_atom_site_fract_x
_atom_site_fract_y
_atom_site_fract_z
Si Si1 0.875459 0.323646 0.322505
Si Si2 0.250000 0.250000 0.750000
Si Si3 0.040544 0.966812 0.948217
Si Si4 0.932594 0.067813 0.381030
Si Si5 0.138432 0.673617 0.300066
Si Si6 0.311964 0.967472 0.357975
Si Si7 0.319065 0.327009 0.084498
Si Si8 0.501615 0.452774 0.229558
O O1 0.750000 0.250000 0.311020
O O2 0.703854 0.382576 0.344248
O O3 0.049476 0.311224 0.365880
O O4 0.987414 0.366069 0.278704
O O5 0.393618 0.197378 0.716185
O O6 0.282609 0.965465 0.923351
O O7 0.967923 0.882179 0.946322
O O8 0.892267 0.013534 0.911118
O O9 0.000000 0.000000 0.000000
O O10 0.106572 0.124514 0.403208
O O11 0.070074 0.004715 0.354520
O O12 0.250000 0.750000 0.312927
O O13 0.250000 0.647189 0.250000
O O14 0.173594 0.614589 0.340614
O O15 0.477086 0.009523 0.322228
O O16 0.250000 0.250000 0.062991
O O17 0.250000 0.468934 0.250000
O O18 0.750000 0.473734 0.250000
#
# Coordination Sequence:
#
# PCOD9389969 Si02
#       8
#     8   2   8   8   8   8   8   8
#     4  11  21  37  58  86 123 172 215 266 309 371
#     4   8  18  36  60  86 120 160 208 252 312 390
#     4  10  23  39  63  92 121 154 214 267 334 391
#     4  10  19  38  62  89 122 160 212 257 321 377
#     4   9  20  37  57  88 118 159 211 251 322 391
#     4  11  22  38  64  87 122 172 204 274 322 388
#     4  10  19  34  64  89 116 163 212 255 319 379
#     4  12  26  40  59  95 133 174 231 268 322 385
#
# _framework density 18.728767999999999
#
# number of rings (size 3 to 8) (size 9 to 14) (size 15 to 20)
#    0.000    1.793    5.517    1.241    0.966    4.690 
#    0.000    2.069    7.586    0.000    0.000    0.000 
#    0.000    0.000    0.000    0.000    0.000    0.000 
#
# Total GULP energy -323148.268889 kJ/mol
# GULP energy per Si atom -5571.521877 kJ/mol
# Density = 1.868614 g / cm^3
# Si number density = 18.728768 Si / 1000 Ang^3
#
#
#
# Elastic Constant Matrix: (Units=GPa)
#
#
# Indices 1 2 3 4 5 6 
#
# 1 109.3218 41.6898 33.8899 0.0000 0.0000 0.0000
# 2 41.6898 135.4248 42.5841 0.0000 0.0000 0.0000
# 3 33.8899 42.5841 90.5744 0.0000 0.0000 0.0000
# 4 0.0000 0.0000 0.0000 8.7624 0.0000 0.0000
# 5 0.0000 0.0000 0.0000 0.0000 -22.1690 0.0000
# 6 0.0000 0.0000 0.0000 0.0000 0.0000 -5.3377
#
#
#
# Elastic Compliance Matrix: (Units=1/GPa)
#
#
# Indices 1 2 3 4 5 6 
#
# 1 0.011002 -0.002455 -0.002962 0.000000 0.000000 0.000000
# 2 -0.002455 0.009213 -0.003413 0.000000 0.000000 0.000000
# 3 -0.002962 -0.003413 0.013754 0.000000 0.000000 0.000000
# 4 0.000000 0.000000 0.000000 0.114124 0.000000 0.000000
# 5 0.000000 0.000000 0.000000 0.000000 -0.045108 0.000000
# 6 0.000000 0.000000 0.000000 0.000000 0.000000 -0.187345
#
#
# Mechanical properties :
#
#
# Convention : Reuss Voigt Hill
#
# Bulk Modulus (GPa) = 61.32031 63.51650 62.41841
# Shear Modulus (GPa) = -81.61462 10.72826 -35.44318
#
# Velocity S-wave (km/s) = -6.60846 2.39597 -4.35494
# Velocity P-wave (km/s) = 5.04150 6.45304 2.84825
#
# Compressibility (1/GPa) = 0.01630781
#
# Stress axis : x y z
#
# Youngs Moduli (GPa) = 90.89292 108.53918 72.70834
#
# Poissons Ratio (x) = 0.26651 0.21537
# Poissons Ratio (y) = 0.22318 0.24815
# Poissons Ratio (z) = 0.26923 0.37044
#
# Static dielectric constant tensor:
#      x y z
#    x 1.772120 0.000000 0.000000 
#    y 0.000000 1.643220 0.000000 
#    z 0.000000 0.000000 1.653750 
# 
# From -- ./inp_files/37191.got.cif
#   From: 2010.05.17/outbox.cif.g08.bks.cpg/sg48_19_cif.got.tgz:37191.got - 2010.06.03 20:39:00.
