data_PCOD9389228
_publ_section_title
;
Structure prediction by ZEFSAII (Michael W. Deem and Ramdas Pophale) SiO2 
 PCOD9389228
Probable space group: P M M M
;
_chemical_formula_sum "Si O2"
_cell_formula_units_Z 64
_cell_length_a 21.000000
_cell_length_b 9.000000
_cell_length_c 21.000000
_cell_angle_alpha 90.000000
_cell_angle_beta 90.000000
_cell_angle_gamma 90.000000
_cell_volume 3969.000000
_symmetry_space_group_name_H-M "P M M M"
_symmetry_group_IT_number 47
_symmetry_cell_setting 'orthorhombic'
loop_
_space_group_symop_operation_xyz
x,y,z
-x,-y,z
x,-y,-z
-x,y,-z
-x,-y,-z
x,y,-z
-x,y,z
x,-y,z
loop_
_atom_site_type_symbol
_atom_site_label
_atom_site_fract_x
_atom_site_fract_y
_atom_site_fract_z
Si Si1 0.691610 0.679542 0.659383
Si Si2 0.814983 0.679439 0.425403
Si Si3 0.264262 0.176926 0.790038
Si Si4 0.072167 0.820905 0.343334
Si Si5 0.888112 0.822580 0.201662
Si Si6 0.252324 0.178382 0.930005
Si Si7 0.111992 0.321890 0.070577
Si Si8 0.426947 0.319149 0.426676
O O1 0.690548 0.500000 0.663440
O O2 0.751276 0.721313 0.613883
O O3 0.703335 0.743067 0.730155
O O4 0.626609 0.728833 0.623804
O O5 0.812104 0.724060 0.500000
O O6 0.819269 0.500000 0.423878
O O7 0.875167 0.747443 0.388329
O O8 0.187901 0.206910 0.790249
O O9 0.285613 0.217187 0.862641
O O10 0.272602 0.000000 0.781897
O O11 0.081405 0.776977 0.269008
O O12 0.000000 0.784718 0.363076
O O13 0.080064 0.000000 0.345559
O O14 0.913321 0.746339 0.136911
O O15 0.896097 0.000000 0.194183
O O16 0.184996 0.263460 0.930633
O O17 0.239659 0.000000 0.926473
O O18 0.282745 0.206214 0.000000
O O19 0.109923 0.500000 0.074768
O O20 0.084998 0.280215 0.000000
O O21 0.411999 0.274692 0.500000
O O22 0.500000 0.273500 0.412420
O O23 0.426223 0.500000 0.426381
#
# Coordination Sequence:
#
# PCOD9389228 Si02
#       8
#     8   8   8   8   8   8   8   8
#     4  10  18  28  46  71  96 122 152 186 223 266
#     4  10  21  35  50  70  95 120 146 181 228 281
#     4   9  16  26  42  64  90 119 149 184 226 270
#     4  10  21  37  54  69  86 112 151 196 236 275
#     4   9  17  30  46  63  85 114 148 185 226 273
#     4   8  14  25  39  56  83 120 155 184 219 263
#     4   9  16  24  38  63  90 114 143 180 221 266
#     4   8  14  26  45  68  93 122 157 193 223 255
#
# _framework density 16.124969
#
# number of rings (size 3 to 8) (size 9 to 14) (size 15 to 20)
#    0.000    2.875    1.250    1.875    0.000    5.500 
#    0.000    1.250    0.000    1.875    0.000    3.500 
#    0.000    0.500    0.000    6.250    0.000    0.125 
#
# Total GULP energy -356341.532387 kJ/mol
# GULP energy per Si atom -5567.836444 kJ/mol
# Density = 1.608827 g / cm^3
# Si number density = 16.124969 Si / 1000 Ang^3
#
#
#
# Elastic Constant Matrix: (Units=GPa)
#
#
# Indices 1 2 3 4 5 6 
#
# 1 75.7684 16.9953 59.2990 0.0000 0.0000 0.0000
# 2 16.9953 15.3814 29.0669 0.0000 0.0000 0.0000
# 3 59.2990 29.0669 168.4650 0.0000 0.0000 0.0000
# 4 0.0000 0.0000 0.0000 32.5256 0.0000 0.0000
# 5 0.0000 0.0000 0.0000 0.0000 15.1292 0.0000
# 6 0.0000 0.0000 0.0000 0.0000 0.0000 10.8069
#
#
#
# Elastic Compliance Matrix: (Units=1/GPa)
#
#
# Indices 1 2 3 4 5 6 
#
# 1 0.019809 -0.012925 -0.004743 0.000000 0.000000 0.000000
# 2 -0.012925 0.104901 -0.013550 0.000000 0.000000 0.000000
# 3 -0.004743 -0.013550 0.009943 0.000000 0.000000 0.000000
# 4 0.000000 0.000000 0.000000 0.030745 0.000000 0.000000
# 5 0.000000 0.000000 0.000000 0.000000 0.066097 0.000000
# 6 0.000000 0.000000 0.000000 0.000000 0.000000 0.092533
#
#
# Mechanical properties :
#
#
# Convention : Reuss Voigt Hill
#
# Bulk Modulus (GPa) = 13.84706 52.25969 33.05337
# Shear Modulus (GPa) = 12.17918 21.97591 17.07754
#
# Velocity S-wave (km/s) = 2.75125 3.69568 3.25787
# Velocity P-wave (km/s) = 4.32418 7.11971 5.89020
#
# Compressibility (1/GPa) = 0.07221752
#
# Stress axis : x y z
#
# Youngs Moduli (GPa) = 50.48198 9.53282 100.57102
#
# Poissons Ratio (x) = 0.12321 0.47697
# Poissons Ratio (y) = 0.65249 1.36273
# Poissons Ratio (z) = 0.23942 0.12917
#
# Static dielectric constant tensor:
#      x y z
#    x 1.526920 0.000000 0.000000 
#    y 0.000000 1.542090 0.000000 
#    z 0.000000 0.000000 1.575680 
# 
# From -- ./inp_files/10036.got.cif
#   From: 2010.05.17/outbox.ucp.g08.bks.cvg/sg47_6_cif.got.tgz:10036.got - 2010.06.11 16:36:43.
