data_PCOD9389363
_publ_section_title
;
Structure prediction by ZEFSAII (Michael W. Deem and Ramdas Pophale) SiO2 
 PCOD9389363
Probable space group: P M M M
;
_chemical_formula_sum "Si O2"
_cell_formula_units_Z 48
_cell_length_a 9.000000
_cell_length_b 30.000000
_cell_length_c 9.000000
_cell_angle_alpha 90.000000
_cell_angle_beta 90.000000
_cell_angle_gamma 90.000000
_cell_volume 2430.000000
_symmetry_space_group_name_H-M "P M M M"
_symmetry_group_IT_number 47
_symmetry_cell_setting 'orthorhombic'
loop_
_space_group_symop_operation_xyz
x,y,z
-x,-y,z
x,-y,-z
-x,y,-z
-x,-y,-z
x,y,-z
-x,y,z
x,-y,z
loop_
_atom_site_type_symbol
_atom_site_label
_atom_site_fract_x
_atom_site_fract_y
_atom_site_fract_z
Si Si1 0.329084 0.588051 0.174026
Si Si2 0.666559 0.000000 0.175444
Si Si3 0.828943 0.920664 0.671173
Si Si4 0.323493 0.173891 0.334464
Si Si5 0.178391 0.334673 0.335607
Si Si6 0.822167 0.249578 0.166500
Si Si7 0.319655 0.500000 0.328346
O O1 0.500000 0.594880 0.223531
O O2 0.236205 0.630548 0.217638
O O3 0.264780 0.544739 0.253279
O O4 0.330417 0.580084 0.000000
O O5 0.755977 0.957336 0.227756
O O6 0.500000 0.000000 0.240112
O O7 0.655936 0.000000 0.000000
O O8 0.824569 0.936330 0.500000
O O9 0.736058 0.875726 0.680314
O O10 0.000000 0.911962 0.709654
O O11 0.276485 0.189910 0.500000
O O12 0.500000 0.174980 0.327076
O O13 0.253083 0.203790 0.208184
O O14 0.232383 0.346430 0.500000
O O15 0.228116 0.286053 0.285117
O O16 0.000000 0.334804 0.336398
O O17 0.000000 0.245048 0.176022
O O18 0.785329 0.264407 0.000000
O O19 0.500000 0.500000 0.309586
O O20 0.285064 0.500000 0.500000
#
# Coordination Sequence:
#
# PCOD9389363 Si02
#       7
#     8   4   8   8   8   8   4
#     4  10  20  34  54  80 109 141 178 221 270 324
#     4  11  24  39  56  82 116 151 186 227 276 326
#     4  10  21  38  61  86 111 144 187 230 273 325
#     4  10  21  37  58  84 112 143 180 223 271 321
#     4  10  21  37  57  80 107 141 181 225 272 322
#     4  10  21  37  57  80 107 142 181 220 267 323
#     4   9  17  31  52  77 106 141 180 222 268 319
#
# _framework density 19.753086
#
# number of rings (size 3 to 8) (size 9 to 14) (size 15 to 20)
#    0.000    2.000    0.000    3.250    0.000    9.000 
#    0.000    0.417    0.000    2.500    0.000    0.000 
#    0.000    0.000    0.000    0.000    0.000    0.000 
#
# Total GULP energy -267765.447813 kJ/mol
# GULP energy per Si atom -5578.446829 kJ/mol
# Density = 1.970813 g / cm^3
# Si number density = 19.753086 Si / 1000 Ang^3
#
#
#
# Elastic Constant Matrix: (Units=GPa)
#
#
# Indices 1 2 3 4 5 6 
#
# 1 -40.7527 -0.3116 20.8296 0.0000 0.0000 0.0000
# 2 -0.3116 60.7619 33.5646 0.0000 0.0000 0.0000
# 3 20.8296 33.5646 -7.4225 0.0000 0.0000 0.0000
# 4 0.0000 0.0000 0.0000 31.1515 0.0000 0.0000
# 5 0.0000 0.0000 0.0000 0.0000 23.0716 0.0000
# 6 0.0000 0.0000 0.0000 0.0000 0.0000 16.6860
#
#
#
# Elastic Compliance Matrix: (Units=1/GPa)
#
#
# Indices 1 2 3 4 5 6 
#
# 1 -0.042077 0.018585 -0.034036 0.000000 0.000000 0.000000
# 2 0.018585 -0.003504 0.036310 0.000000 0.000000 0.000000
# 3 -0.034036 0.036310 -0.066047 0.000000 0.000000 0.000000
# 4 0.000000 0.000000 0.000000 0.032101 0.000000 0.000000
# 5 0.000000 0.000000 0.000000 0.000000 0.043343 0.000000
# 6 0.000000 0.000000 0.000000 0.000000 0.000000 0.059930
#
#
# Mechanical properties :
#
#
# Convention : Reuss Voigt Hill
#
# Bulk Modulus (GPa) = -14.30421 13.41687 -0.44367
# Shear Modulus (GPa) = -121.13964 11.41542 -54.86211
#
# Velocity S-wave (km/s) = -7.83965 2.40657 -5.27582
# Velocity P-wave (km/s) = 9.44479 3.81172 6.11043
#
# Compressibility (1/GPa) = -0.06990949
#
# Stress axis : x y z
#
# Youngs Moduli (GPa) = -23.76613 -285.36745 -15.14071
#
# Poissons Ratio (x) = 5.30366 -0.51532
# Poissons Ratio (y) = 0.44170 0.54975
# Poissons Ratio (z) = -0.80890 10.36157
#
# Static dielectric constant tensor:
#      x y z
#    x 1.694840 0.000000 0.000000 
#    y 0.000000 1.701410 0.000000 
#    z 0.000000 0.000000 1.711710 
# 
# From -- ./inp_files/2596.got.cif
#   From: 2010.05.17/outbox.ucp.g08.bks.cvg/sg47_2_cif.got.tgz:2596.got - 2010.06.11 16:36:43.
