data_PCOD9389359
_publ_section_title
;
Structure prediction by ZEFSAII (Michael W. Deem and Ramdas Pophale) SiO2 
 PCOD9389359
Probable space group: P M M M
;
_chemical_formula_sum "Si O2"
_cell_formula_units_Z 64
_cell_length_a 9.000000
_cell_length_b 18.000000
_cell_length_c 21.000000
_cell_angle_alpha 90.000000
_cell_angle_beta 90.000000
_cell_angle_gamma 90.000000
_cell_volume 3402.000000
_symmetry_space_group_name_H-M "P M M M"
_symmetry_group_IT_number 47
_symmetry_cell_setting 'orthorhombic'
loop_
_space_group_symop_operation_xyz
x,y,z
-x,-y,z
x,-y,-z
-x,y,-z
-x,-y,-z
x,y,-z
-x,y,z
x,-y,z
loop_
_atom_site_type_symbol
_atom_site_label
_atom_site_fract_x
_atom_site_fract_y
_atom_site_fract_z
Si Si1 0.680877 0.583478 0.427695
Si Si2 0.172681 0.410501 0.795081
Si Si3 0.819570 0.412570 0.067436
Si Si4 0.333544 0.910783 0.803853
Si Si5 0.676187 0.678848 0.311599
Si Si6 0.827747 0.909505 0.070642
Si Si7 0.322944 0.912091 0.427473
Si Si8 0.174668 0.165160 0.309350
O O1 0.728772 0.596527 0.500000
O O2 0.500000 0.583427 0.427349
O O3 0.727263 0.500000 0.408467
O O4 0.729886 0.645611 0.378833
O O5 0.174069 0.500000 0.796842
O O6 0.225206 0.381608 0.864361
O O7 0.278133 0.380623 0.740958
O O8 0.000000 0.388209 0.784349
O O9 0.778792 0.500000 0.066675
O O10 0.000000 0.410761 0.068190
O O11 0.769360 0.379329 0.000000
O O12 0.500000 0.883440 0.790985
O O13 0.272340 0.883094 0.871448
O O14 0.226622 0.887982 0.747292
O O15 0.338369 0.000000 0.806946
O O16 0.500000 0.689289 0.314146
O O17 0.755013 0.755192 0.296400
O O18 0.000000 0.888272 0.080144
O O19 0.824362 0.000000 0.070868
O O20 0.780487 0.885553 0.000000
O O21 0.283567 0.892357 0.500000
O O22 0.500000 0.901095 0.419950
O O23 0.238066 0.865813 0.375283
O O24 0.294497 0.000000 0.418918
O O25 0.000000 0.169846 0.311934
#
# Coordination Sequence:
#
# PCOD9389359 Si02
#       8
#     8   8   8   8   8   8   8   8
#     4   8  15  30  53  79 102 125 160 205 248 293
#     4   9  17  30  50  76 105 135 168 211 261 310
#     4   7  10  19  39  68  98 127 162 203 246 296
#     4  10  20  34  54  79 106 137 175 219 266 317
#     4  11  22  35  52  74 102 137 176 216 259 310
#     4   8  14  26  46  74 107 139 171 210 257 309
#     4   9  19  38  63  87 110 137 170 209 254 308
#     4  12  25  38  53  75 106 142 179 221 267 314
#
# _framework density 18.812463000000001
#
# number of rings (size 3 to 8) (size 9 to 14) (size 15 to 20)
#    0.000    2.750    0.000    4.875    0.000    4.250 
#    0.000    3.125    0.000    2.250    0.000    7.875 
#    0.000    0.000    0.000    0.000    0.000    0.000 
#
# Total GULP energy -356567.529764 kJ/mol
# GULP energy per Si atom -5571.367653 kJ/mol
# Density = 1.876965 g / cm^3
# Si number density = 18.812463 Si / 1000 Ang^3
#
#
#
# Elastic Constant Matrix: (Units=GPa)
#
#
# Indices 1 2 3 4 5 6 
#
# 1 -38.7468 10.7928 -11.4588 0.0000 0.0000 0.0000
# 2 10.7928 10.8848 17.2230 0.0000 0.0000 0.0000
# 3 -11.4588 17.2230 46.7348 0.0000 0.0000 0.0000
# 4 0.0000 0.0000 0.0000 -61.1169 0.0000 0.0000
# 5 0.0000 0.0000 0.0000 0.0000 23.6268 0.0000
# 6 0.0000 0.0000 0.0000 0.0000 0.0000 17.8935
#
#
#
# Elastic Compliance Matrix: (Units=1/GPa)
#
#
# Indices 1 2 3 4 5 6 
#
# 1 -0.010960 0.036266 -0.016052 0.000000 0.000000 0.000000
# 2 0.036266 0.100367 -0.028096 0.000000 0.000000 0.000000
# 3 -0.016052 -0.028096 0.027816 0.000000 0.000000 0.000000
# 4 0.000000 0.000000 0.000000 -0.016362 0.000000 0.000000
# 5 0.000000 0.000000 0.000000 0.000000 0.042325 0.000000
# 6 0.000000 0.000000 0.000000 0.000000 0.000000 0.055886
#
#
# Mechanical properties :
#
#
# Convention : Reuss Voigt Hill
#
# Bulk Modulus (GPa) = 9.85615 5.77631 7.81623
# Shear Modulus (GPa) = 20.10806 -3.76495 8.17156
#
# Velocity S-wave (km/s) = 3.27290 -1.41621 2.08641
# Velocity P-wave (km/s) = 4.41962 0.63477 3.15721
#
# Compressibility (1/GPa) = 0.10145945
#
# Stress axis : x y z
#
# Youngs Moduli (GPa) = -91.24464 9.96339 35.95098
#
# Poissons Ratio (x) = -0.36133 0.57709
# Poissons Ratio (y) = 3.30909 1.01008
# Poissons Ratio (z) = -1.46467 0.27993
#
# Static dielectric constant tensor:
#      x y z
#    x 1.636090 0.000000 0.000000 
#    y 0.000000 1.655310 0.000000 
#    z 0.000000 0.000000 1.671240 
# 
# From -- ./inp_files/29999.got.cif
#   From: 2010.05.17/outbox.ucp.g08.bks.cvg/sg47_15_cif.got.tgz:29999.got - 2010.06.11 16:36:43.
