data_PCOD9389140
_publ_section_title
;
Structure prediction by ZEFSAII (Michael W. Deem and Ramdas Pophale) SiO2 
 PCOD9389140
Probable space group: P M M M
;
_chemical_formula_sum "Si O2"
_cell_formula_units_Z 36
_cell_length_a 10.685343
_cell_length_b 21.122050
_cell_length_c 7.581605
_cell_angle_alpha 90.000000
_cell_angle_beta 90.000000
_cell_angle_gamma 90.000000
_cell_volume 1711.140569
_symmetry_space_group_name_H-M "P M M M"
_symmetry_group_IT_number 47
_symmetry_cell_setting 'orthorhombic'
loop_
_space_group_symop_operation_xyz
x,y,z
-x,-y,z
x,-y,-z
-x,y,-z
-x,-y,-z
x,y,-z
-x,y,z
x,-y,z
loop_
_atom_site_type_symbol
_atom_site_label
_atom_site_fract_x
_atom_site_fract_y
_atom_site_fract_z
Si Si1 0.646857 0.431968 0.787628
Si Si2 0.642549 0.708169 0.707779
Si Si3 0.222310 0.928977 0.295607
Si Si4 0.863427 0.203057 0.716715
Si Si5 0.500000 0.923644 0.199047
O O1 0.500000 0.432534 0.736577
O O2 0.700784 0.500000 0.727699
O O3 0.692520 0.363818 0.725698
O O4 0.652467 0.431430 0.000000
O O5 0.631832 0.721388 0.500000
O O6 0.500000 0.712355 0.781478
O O7 0.745686 0.756147 0.780378
O O8 0.186150 0.934348 0.500000
O O9 0.149168 0.869496 0.220490
O O10 0.368698 0.908544 0.288522
O O11 0.209589 0.000000 0.217931
O O12 0.858516 0.202187 0.500000
O O13 0.000000 0.228517 0.765834
O O14 0.500000 0.000000 0.192530
O O15 0.500000 0.898717 0.000000
#
# Coordination Sequence:
#
# PCOD9389140 Si02
#       5
#     8   8   8   8   4
#     4   8  14  26  45  69  96 122 148 185 233 277
#     4   9  17  28  45  69  94 122 156 192 229 274
#     4   9  17  29  48  71  92 119 159 202 240 280
#     4   9  18  31  47  68  96 128 158 195 242 284
#     4   9  17  29  45  67  95 121 146 185 240 291
#
# _framework density 21.038599000000001
#
# number of rings (size 3 to 8) (size 9 to 14) (size 15 to 20)
#    0.000    3.222    0.000    1.000    1.556    2.222 
#    0.000    5.556    0.000    3.333    0.000    7.778 
#    0.000    0.000    0.000    0.000    0.000    0.000 
#
# Total GULP energy -200462.042464 kJ/mol
# GULP energy per Si atom -5568.390068 kJ/mol
# Density = 2.099071 g / cm^3
# Si number density = 21.038599 Si / 1000 Ang^3
#
#
#
# Elastic Constant Matrix: (Units=GPa)
#
#
# Indices 1 2 3 4 5 6 
#
# 1 95.2163 73.7385 1.1274 0.0000 0.0000 0.0000
# 2 73.7385 142.9845 3.3319 0.0000 0.0000 0.0000
# 3 1.1274 3.3319 45.7896 0.0000 0.0000 0.0000
# 4 0.0000 0.0000 0.0000 68.2176 0.0000 0.0000
# 5 0.0000 0.0000 0.0000 0.0000 -9.0590 0.0000
# 6 0.0000 0.0000 0.0000 0.0000 0.0000 -21.3453
#
#
#
# Elastic Compliance Matrix: (Units=1/GPa)
#
#
# Indices 1 2 3 4 5 6 
#
# 1 0.017488 -0.009024 0.000226 0.000000 0.000000 0.000000
# 2 -0.009024 0.011662 -0.000626 0.000000 0.000000 0.000000
# 3 0.000226 -0.000626 0.021879 0.000000 0.000000 0.000000
# 4 0.000000 0.000000 0.000000 0.014659 0.000000 0.000000
# 5 0.000000 0.000000 0.000000 0.000000 -0.110387 0.000000
# 6 0.000000 0.000000 0.000000 0.000000 0.000000 -0.046849
#
#
# Mechanical properties :
#
#
# Convention : Reuss Voigt Hill
#
# Bulk Modulus (GPa) = 31.07472 48.93178 40.00325
# Shear Modulus (GPa) = -80.68195 21.28217 -29.69989
#
# Velocity S-wave (km/s) = -6.19941 3.18398 -3.76132
# Velocity P-wave (km/s) = 6.03666 6.06841 0.43836
#
# Compressibility (1/GPa) = 0.03218050
#
# Stress axis : x y z
#
# Youngs Moduli (GPa) = 57.18104 85.74706 45.70587
#
# Poissons Ratio (x) = 0.77380 -0.01033
# Poissons Ratio (y) = 0.51601 0.02863
# Poissons Ratio (z) = -0.01293 0.05371
#
# Static dielectric constant tensor:
#      x y z
#    x 1.748530 0.000000 0.000000 
#    y 0.000000 1.807800 0.000000 
#    z 0.000000 0.000000 1.795960 
# 
# From -- ./inp_files/3919.got.cif
#   From: 2010.05.17/outbox.cif.g08.bks.cpg/sg47_2_cif.got.tgz:3919.got - 2010.06.03 20:15:42.
