data_PCOD9389916
_publ_section_title
;
Structure prediction by ZEFSAII (Michael W. Deem and Ramdas Pophale) SiO2 
 PCOD9389916
Probable space group: P N N N
;
_chemical_formula_sum "Si O2"
_cell_formula_units_Z 56
_cell_length_a 21.922604
_cell_length_b 7.466979
_cell_length_c 15.193147
_cell_angle_alpha 90.000000
_cell_angle_beta 90.000000
_cell_angle_gamma 90.000000
_cell_volume 2487.051674
_symmetry_space_group_name_H-M "P N N N"
_symmetry_group_IT_number 48
_space_group.IT_coordinate_system_code '2'
_symmetry_cell_setting 'orthorhombic'
loop_
_space_group_symop_operation_xyz
x,y,z
1/2-x,1/2-y,z
x,1/2-y,1/2-z
1/2-x,y,1/2-z
-x,-y,-z
1/2+x,1/2+y,-z
-x,1/2+y,1/2+z
1/2+x,-y,1/2+z
loop_
_atom_site_type_symbol
_atom_site_label
_atom_site_fract_x
_atom_site_fract_y
_atom_site_fract_z
Si Si1 0.147651 0.027035 0.656733
Si Si2 0.361709 0.035874 0.646446
Si Si3 0.781368 0.449524 0.832430
Si Si4 0.485600 0.467557 0.601092
Si Si5 0.752536 0.961433 0.030372
Si Si6 0.918982 0.462873 0.759810
Si Si7 0.002456 0.460956 0.603669
O O1 0.141669 0.245350 0.649511
O O2 0.161575 0.980156 0.757439
O O3 0.081093 0.964993 0.626683
O O4 0.199711 0.959597 0.591772
O O5 0.318519 0.977380 0.565774
O O6 0.431570 0.974165 0.637897
O O7 0.750000 0.250000 0.834572
O O8 0.750000 0.544472 0.750000
O O9 0.851879 0.471534 0.803806
O O10 0.764741 0.515512 0.929014
O O11 0.500000 0.500000 0.500000
O O12 0.534917 0.543334 0.668786
O O13 0.491025 0.253531 0.612482
O O14 0.750000 0.750000 0.047162
O O15 0.926053 0.250000 0.750000
O O16 0.944589 0.524173 0.663251
O O17 0.000000 0.500000 0.500000
#
# Coordination Sequence:
#
# PCOD9389916 Si02
#       7
#     8   8   8   8   8   8   8
#     4   9  16  33  53  84 109 142 177 218 273 337
#     4   9  17  32  56  83 110 140 179 220 274 335
#     4  11  23  39  57  77 107 150 197 222 261 328
#     4  10  19  33  57  79 108 141 183 224 270 324
#     4  10  21  34  58  85 115 139 176 232 283 323
#     4  10  19  37  59  79 104 150 191 223 261 327
#     4  10  21  34  57  81 107 141 184 229 272 320
#
# _framework density 22.516622000000002
#
# number of rings (size 3 to 8) (size 9 to 14) (size 15 to 20)
#    0.000    2.143    2.857    1.286    2.000    2.000 
#    0.000    0.714    3.143    3.429    0.000    0.000 
#    0.000    0.000    0.000    0.000    0.000    0.000 
#
# Total GULP energy -312109.896941 kJ/mol
# GULP energy per Si atom -5573.391017 kJ/mol
# Density = 2.246537 g / cm^3
# Si number density = 22.516622 Si / 1000 Ang^3
#
#
#
# Elastic Constant Matrix: (Units=GPa)
#
#
# Indices 1 2 3 4 5 6 
#
# 1 155.1377 7.0655 85.9317 0.0000 0.0000 0.0000
# 2 7.0655 49.3157 -14.5678 0.0000 0.0000 0.0000
# 3 85.9317 -14.5678 188.8173 0.0000 0.0000 0.0000
# 4 0.0000 0.0000 0.0000 30.4542 0.0000 0.0000
# 5 0.0000 0.0000 0.0000 0.0000 58.5537 0.0000
# 6 0.0000 0.0000 0.0000 0.0000 0.0000 -8.0103
#
#
#
# Elastic Compliance Matrix: (Units=1/GPa)
#
#
# Indices 1 2 3 4 5 6 
#
# 1 0.008918 -0.002534 -0.004254 0.000000 0.000000 0.000000
# 2 -0.002534 0.021471 0.002810 0.000000 0.000000 0.000000
# 3 -0.004254 0.002810 0.007449 0.000000 0.000000 0.000000
# 4 0.000000 0.000000 0.000000 0.032836 0.000000 0.000000
# 5 0.000000 0.000000 0.000000 0.000000 0.017078 0.000000
# 6 0.000000 0.000000 0.000000 0.000000 0.000000 -0.124840
#
#
# Mechanical properties :
#
#
# Convention : Reuss Voigt Hill
#
# Bulk Modulus (GPa) = 33.46670 61.12550 47.29610
# Shear Modulus (GPa) = -260.80594 37.18895 -111.80849
#
# Velocity S-wave (km/s) = -10.77403 4.06842 -7.05434
# Velocity P-wave (km/s) = 11.82698 7.01963 6.73061
#
# Compressibility (1/GPa) = 0.02988045
#
# Stress axis : x y z
#
# Youngs Moduli (GPa) = 112.13773 46.57525 134.24764
#
# Poissons Ratio (x) = 0.11803 0.57109
# Poissons Ratio (y) = 0.28419 -0.37722
# Poissons Ratio (z) = 0.47703 -0.13087
#
# Static dielectric constant tensor:
#      x y z
#    x 1.857020 0.000000 0.000000 
#    y 0.000000 1.895050 0.000000 
#    z 0.000000 0.000000 1.845210 
# 
# From -- ./inp_files/20266.got.cif
#   From: 2010.05.17/outbox.cif.g08.bks.cpg/sg48_11_cif.got.tgz:20266.got - 2010.06.03 20:39:00.
