data_PCOD9389097
_publ_section_title
;
Structure prediction by ZEFSAII (Michael W. Deem and Ramdas Pophale) SiO2 
 PCOD9389097
Probable space group: P M M M
;
_chemical_formula_sum "Si O2"
_cell_formula_units_Z 44
_cell_length_a 7.347379
_cell_length_b 29.568920
_cell_length_c 9.451976
_cell_angle_alpha 90.000000
_cell_angle_beta 90.000000
_cell_angle_gamma 90.000000
_cell_volume 2053.480179
_symmetry_space_group_name_H-M "P M M M"
_symmetry_group_IT_number 47
_symmetry_cell_setting 'orthorhombic'
loop_
_space_group_symop_operation_xyz
x,y,z
-x,-y,z
x,-y,-z
-x,y,-z
-x,-y,-z
x,y,-z
-x,y,z
x,-y,z
loop_
_atom_site_type_symbol
_atom_site_label
_atom_site_fract_x
_atom_site_fract_y
_atom_site_fract_z
Si Si1 0.216556 0.763489 0.338288
Si Si2 0.778053 0.411248 0.663447
Si Si3 0.717765 0.135534 0.660712
Si Si4 0.222049 0.500000 0.163653
Si Si5 0.278232 0.049818 0.836031
Si Si6 0.222415 0.322654 0.837147
O O1 0.288346 0.761052 0.500000
O O2 0.246776 0.814184 0.281952
O O3 0.284032 0.723442 0.238636
O O4 0.000000 0.757354 0.347974
O O5 0.719487 0.412326 0.500000
O O6 0.721103 0.455301 0.751483
O O7 0.721775 0.365835 0.744566
O O8 0.000000 0.411402 0.661844
O O9 0.788016 0.134451 0.500000
O O10 0.500000 0.130976 0.654511
O O11 0.786431 0.093073 0.749435
O O12 0.000000 0.500000 0.162159
O O13 0.280238 0.500000 0.000000
O O14 0.500000 0.050279 0.833169
O O15 0.222572 0.000000 0.782646
O O16 0.225005 0.053411 0.000000
O O17 0.000000 0.322585 0.838505
O O18 0.280546 0.325829 0.000000
#
# Coordination Sequence:
#
# PCOD9389097 Si02
#       6
#     8   8   8   4   8   8
#     4   9  17  29  43  58  79 108 138 166 200 243
#     4   9  15  22  32  46  66  94 128 164 203 247
#     4   9  17  28  43  64  86 106 132 168 205 238
#     4   9  15  21  29  43  65  93 126 165 206 245
#     4   8  14  25  41  61  84 108 133 162 198 240
#     4   9  16  25  37  53  72  96 130 169 203 237
#
# _framework density 21.427040999999999
#
# number of rings (size 3 to 8) (size 9 to 14) (size 15 to 20)
#    0.000    3.182    0.000    1.909    0.000    6.545 
#    0.000    1.818    0.000    0.545    0.000    3.818 
#    0.000    0.000    0.000    0.818    0.000   17.818 
#
# Total GULP energy -245624.537729 kJ/mol
# GULP energy per Si atom -5582.375857 kJ/mol
# Density = 2.137827 g / cm^3
# Si number density = 21.427041 Si / 1000 Ang^3
#
#
#
# Elastic Constant Matrix: (Units=GPa)
#
#
# Indices 1 2 3 4 5 6 
#
# 1 80.9271 1.8772 4.9614 0.0000 0.0000 0.0000
# 2 1.8772 265.5801 144.8879 0.0000 0.0000 0.0000
# 3 4.9614 144.8879 163.5753 0.0000 0.0000 0.0000
# 4 0.0000 0.0000 0.0000 42.1492 0.0000 0.0000
# 5 0.0000 0.0000 0.0000 0.0000 -9.1652 0.0000
# 6 0.0000 0.0000 0.0000 0.0000 0.0000 12.2073
#
#
#
# Elastic Compliance Matrix: (Units=1/GPa)
#
#
# Indices 1 2 3 4 5 6 
#
# 1 0.012387 0.000227 -0.000577 0.000000 0.000000 0.000000
# 2 0.000227 0.007290 -0.006464 0.000000 0.000000 0.000000
# 3 -0.000577 -0.006464 0.011857 0.000000 0.000000 0.000000
# 4 0.000000 0.000000 0.000000 0.023725 0.000000 0.000000
# 5 0.000000 0.000000 0.000000 0.000000 -0.109109 0.000000
# 6 0.000000 0.000000 0.000000 0.000000 0.000000 0.081918
#
#
# Mechanical properties :
#
#
# Convention : Reuss Voigt Hill
#
# Bulk Modulus (GPa) = 55.84792 90.39283 73.12037
# Shear Modulus (GPa) = 104.89818 32.92869 68.91344
#
# Velocity S-wave (km/s) = 7.00445 3.92443 5.67730
# Velocity P-wave (km/s) = 9.56751 7.92545 8.78493
#
# Compressibility (1/GPa) = 0.01790577
#
# Stress axis : x y z
#
# Youngs Moduli (GPa) = 80.73042 137.16628 84.33976
#
# Poissons Ratio (x) = -0.03116 0.04866
# Poissons Ratio (y) = -0.01834 0.54521
# Poissons Ratio (z) = 0.04658 0.88670
#
# Static dielectric constant tensor:
#      x y z
#    x 1.874160 0.000000 0.000000 
#    y 0.000000 1.744340 0.000000 
#    z 0.000000 0.000000 1.728290 
# 
# From -- ./inp_files/2111.got.cif
#   From: 2010.05.17/outbox.cif.g08.bks.cpg/sg47_2_cif.got.tgz:2111.got - 2010.06.03 20:15:42.
