data_PCOD9389383
_publ_section_title
;
Structure prediction by ZEFSAII (Michael W. Deem and Ramdas Pophale) SiO2 
 PCOD9389383
Probable space group: P M M M
;
_chemical_formula_sum "Si O2"
_cell_formula_units_Z 48
_cell_length_a 9.000000
_cell_length_b 9.000000
_cell_length_c 30.000000
_cell_angle_alpha 90.000000
_cell_angle_beta 90.000000
_cell_angle_gamma 90.000000
_cell_volume 2430.000000
_symmetry_space_group_name_H-M "P M M M"
_symmetry_group_IT_number 47
_symmetry_cell_setting 'orthorhombic'
loop_
_space_group_symop_operation_xyz
x,y,z
-x,-y,z
x,-y,-z
-x,y,-z
-x,-y,-z
x,y,-z
-x,y,z
x,-y,z
loop_
_atom_site_type_symbol
_atom_site_label
_atom_site_fract_x
_atom_site_fract_y
_atom_site_fract_z
Si Si1 0.678164 0.667042 0.588620
Si Si2 0.834142 0.824282 0.332481
Si Si3 0.166431 0.824559 0.078630
Si Si4 0.324767 0.664701 0.000000
Si Si5 0.329140 0.328537 0.152457
Si Si6 0.318230 0.169527 0.500000
Si Si7 0.669985 0.672029 0.258527
O O1 0.500000 0.662225 0.586052
O O2 0.735094 0.500000 0.590364
O O3 0.723941 0.753215 0.632358
O O4 0.732676 0.748793 0.544406
O O5 0.783815 0.774405 0.283859
O O6 0.000000 0.770650 0.341966
O O7 0.830086 0.000000 0.336325
O O8 0.217837 0.777421 0.127373
O O9 0.000000 0.772299 0.069714
O O10 0.171385 0.000000 0.073439
O O11 0.273542 0.749559 0.043572
O O12 0.259483 0.500000 0.000000
O O13 0.500000 0.655178 0.000000
O O14 0.500000 0.292082 0.140902
O O15 0.302948 0.500000 0.139045
O O16 0.315416 0.320046 0.205502
O O17 0.500000 0.171249 0.500000
O O18 0.270339 0.000000 0.500000
O O19 0.500000 0.712727 0.269970
O O20 0.691737 0.500000 0.271950
#
# Coordination Sequence:
#
# PCOD9389383 Si02
#       7
#     8   8   8   4   8   4   8
#     4  10  20  35  57  83 109 139 179 225 270 320
#     4  11  24  38  52  76 111 147 183 225 273 325
#     4  11  24  39  56  83 118 151 184 224 271 325
#     4  11  24  41  62  86 110 141 186 235 278 324
#     4   9  19  37  60  85 112 143 183 228 272 323
#     4   9  17  31  54  83 112 141 174 216 268 323
#     4   9  19  37  60  84 109 140 182 230 275 322
#
# _framework density 19.753086
#
# number of rings (size 3 to 8) (size 9 to 14) (size 15 to 20)
#    0.000    2.000    0.000    4.250    0.000   12.333 
#    0.000    5.417    0.000    2.500    0.000    0.000 
#    0.000    0.000    0.000    0.000    0.000    0.000 
#
# Total GULP energy -267873.644243 kJ/mol
# GULP energy per Si atom -5580.700922 kJ/mol
# Density = 1.970813 g / cm^3
# Si number density = 19.753086 Si / 1000 Ang^3
#
#
#
# Elastic Constant Matrix: (Units=GPa)
#
#
# Indices 1 2 3 4 5 6 
#
# 1 27.8604 43.3899 26.3000 0.0000 0.0000 0.0000
# 2 43.3899 47.4738 29.9972 0.0000 0.0000 0.0000
# 3 26.3000 29.9972 38.5461 0.0000 0.0000 0.0000
# 4 0.0000 0.0000 0.0000 42.8979 0.0000 0.0000
# 5 0.0000 0.0000 0.0000 0.0000 -35.8173 0.0000
# 6 0.0000 0.0000 0.0000 0.0000 0.0000 18.8041
#
#
#
# Elastic Compliance Matrix: (Units=1/GPa)
#
#
# Indices 1 2 3 4 5 6 
#
# 1 -0.084313 0.080097 -0.004806 0.000000 0.000000 0.000000
# 2 0.080097 -0.034648 -0.027686 0.000000 0.000000 0.000000
# 3 -0.004806 -0.027686 0.050768 0.000000 0.000000 0.000000
# 4 0.000000 0.000000 0.000000 0.023311 0.000000 0.000000
# 5 0.000000 0.000000 0.000000 0.000000 -0.027919 0.000000
# 6 0.000000 0.000000 0.000000 0.000000 0.000000 0.053180
#
#
# Mechanical properties :
#
#
# Convention : Reuss Voigt Hill
#
# Bulk Modulus (GPa) = 37.01505 34.80605 35.91055
# Shear Modulus (GPa) = -47.24815 6.12315 -20.56250
#
# Velocity S-wave (km/s) = -4.89605 1.76255 -3.22992
# Velocity P-wave (km/s) = 3.63073 4.66915 2.07590
#
# Compressibility (1/GPa) = 0.02701604
#
# Stress axis : x y z
#
# Youngs Moduli (GPa) = -11.86060 -28.86178 19.69741
#
# Poissons Ratio (x) = 2.31173 0.09466
# Poissons Ratio (y) = 0.94999 0.54535
# Poissons Ratio (z) = -0.05700 -0.79908
#
# Static dielectric constant tensor:
#      x y z
#    x 1.681650 0.000000 0.000000 
#    y 0.000000 1.669990 0.000000 
#    z 0.000000 0.000000 1.654010 
# 
# From -- ./inp_files/13809.got.cif
#   From: 2010.05.17/outbox.ucp.g08.bks.cvg/sg47_7_cif.got.tgz:13809.got - 2010.06.11 16:36:43.
