data_PCOD9389474
_publ_section_title
;
Structure prediction by ZEFSAII (Michael W. Deem and Ramdas Pophale) SiO2 
 PCOD9389474
Probable space group: P N N N
;
_chemical_formula_sum "Si O2"
_cell_formula_units_Z 40
_cell_length_a 13.190957
_cell_length_b 7.254133
_cell_length_c 16.827725
_cell_angle_alpha 90.000000
_cell_angle_beta 90.000000
_cell_angle_gamma 90.000000
_cell_volume 1610.227445
_symmetry_space_group_name_H-M "P N N N"
_symmetry_group_IT_number 48
_space_group.IT_coordinate_system_code '2'
_symmetry_cell_setting 'orthorhombic'
loop_
_space_group_symop_operation_xyz
x,y,z
1/2-x,1/2-y,z
x,1/2-y,1/2-z
1/2-x,y,1/2-z
-x,-y,-z
1/2+x,1/2+y,-z
-x,1/2+y,1/2+z
1/2+x,-y,1/2+z
loop_
_atom_site_type_symbol
_atom_site_label
_atom_site_fract_x
_atom_site_fract_y
_atom_site_fract_z
Si Si1 0.101587 0.475674 0.761307
Si Si2 0.782725 0.490053 0.385269
Si Si3 0.461753 0.190705 0.539658
Si Si4 0.597793 0.130449 0.824986
Si Si5 0.315660 0.068593 0.042870
O O1 0.103787 0.250000 0.750000
O O2 0.134510 0.583395 0.680665
O O3 0.187373 0.500915 0.827256
O O4 0.988852 0.509012 0.792059
O O5 0.854635 0.654609 0.415982
O O6 0.728955 0.446231 0.469979
O O7 0.541147 0.251679 0.605899
O O8 0.427837 0.350878 0.478878
O O9 0.500000 0.000000 0.500000
O O10 0.628417 0.250000 0.750000
O O11 0.684882 0.034872 0.874228
O O12 0.250000 0.250000 0.053742
#
# Coordination Sequence:
#
# PCOD9389474 Si02
#       5
#     8   8   8   8   8
#     4  10  15  27  61 100 126 159 217 285 339 412
#     4  10  17  32  59  97 132 168 217 279 349 415
#     4  11  21  35  59  99 140 179 222 282 352 432
#     4  11  21  37  68 103 131 183 242 290 354 432
#     4  10  21  39  65  97 136 186 232 288 359 431
#
# _framework density 24.841211999999999
#
# number of rings (size 3 to 8) (size 9 to 14) (size 15 to 20)
#    0.000    1.600    6.000    4.200    0.000    0.000 
#    0.000    5.000    0.000   13.200    5.200    0.000 
#    0.000    0.200    0.000    0.000    0.000    0.000 
#
# Total GULP energy -222760.029910 kJ/mol
# GULP energy per Si atom -5569.000748 kJ/mol
# Density = 2.478467 g / cm^3
# Si number density = 24.841212 Si / 1000 Ang^3
#
#
#
# Elastic Constant Matrix: (Units=GPa)
#
#
# Indices 1 2 3 4 5 6 
#
# 1 62.1986 26.8132 44.0538 0.0000 0.0000 0.0000
# 2 26.8132 89.4652 49.3570 0.0000 0.0000 0.0000
# 3 44.0538 49.3570 196.4346 0.0000 0.0000 0.0000
# 4 0.0000 0.0000 0.0000 25.0273 0.0000 0.0000
# 5 0.0000 0.0000 0.0000 0.0000 42.4068 0.0000
# 6 0.0000 0.0000 0.0000 0.0000 0.0000 -6.7906
#
#
#
# Elastic Compliance Matrix: (Units=1/GPa)
#
#
# Indices 1 2 3 4 5 6 
#
# 1 0.020366 -0.004161 -0.003522 0.000000 0.000000 0.000000
# 2 -0.004161 0.013826 -0.002541 0.000000 0.000000 0.000000
# 3 -0.003522 -0.002541 0.006519 0.000000 0.000000 0.000000
# 4 0.000000 0.000000 0.000000 0.039956 0.000000 0.000000
# 5 0.000000 0.000000 0.000000 0.000000 0.023581 0.000000
# 6 0.000000 0.000000 0.000000 0.000000 0.000000 -0.147262
#
#
# Mechanical properties :
#
#
# Convention : Reuss Voigt Hill
#
# Bulk Modulus (GPa) = 49.34881 65.39405 57.37143
# Shear Modulus (GPa) = -316.22850 27.32033 -144.45409
#
# Velocity S-wave (km/s) = -11.29497 3.31992 -7.63395
# Velocity P-wave (km/s) = 12.25532 6.40920 7.38631
#
# Compressibility (1/GPa) = 0.02026391
#
# Stress axis : x y z
#
# Youngs Moduli (GPa) = 49.10231 72.32580 153.39649
#
# Poissons Ratio (x) = 0.30092 0.54025
# Poissons Ratio (y) = 0.20430 0.38977
# Poissons Ratio (z) = 0.17293 0.18378
#
# Static dielectric constant tensor:
#      x y z
#    x 2.017930 0.000000 0.000000 
#    y 0.000000 2.130170 0.000000 
#    z 0.000000 0.000000 1.998860 
# 
# From -- ./inp_files/27748.got.cif
#   From: 2010.05.17/outbox.cif.g08.bks.cpg/sg48_14_cif.got.tgz:27748.got - 2010.06.03 20:39:00.
