data_PCOD9389714
_publ_section_title
;
Structure prediction by ZEFSAII (Michael W. Deem and Ramdas Pophale) SiO2 
 PCOD9389714
Probable space group: P N N N
;
_chemical_formula_sum "Si O2"
_cell_formula_units_Z 56
_cell_length_a 12.450075
_cell_length_b 19.702385
_cell_length_c 11.183252
_cell_angle_alpha 90.000000
_cell_angle_beta 90.000000
_cell_angle_gamma 90.000000
_cell_volume 2743.208894
_symmetry_space_group_name_H-M "P N N N"
_symmetry_group_IT_number 48
_space_group.IT_coordinate_system_code '2'
_symmetry_cell_setting 'orthorhombic'
loop_
_space_group_symop_operation_xyz
x,y,z
1/2-x,1/2-y,z
x,1/2-y,1/2-z
1/2-x,y,1/2-z
-x,-y,-z
1/2+x,1/2+y,-z
-x,1/2+y,1/2+z
1/2+x,-y,1/2+z
loop_
_atom_site_type_symbol
_atom_site_label
_atom_site_fract_x
_atom_site_fract_y
_atom_site_fract_z
Si Si1 0.638645 0.059578 0.811634
Si Si2 0.093847 0.448358 0.778781
Si Si3 0.586765 0.093862 0.449951
Si Si4 0.092096 0.894817 0.678249
Si Si5 0.148175 0.435258 0.527423
Si Si6 0.723699 0.328423 0.535626
Si Si7 0.621311 0.572825 0.544539
O O1 0.750000 0.038457 0.750000
O O2 0.530929 0.049651 0.735172
O O3 0.617703 0.007446 0.921420
O O4 0.654987 0.135299 0.860588
O O5 0.126405 0.525465 0.812629
O O6 0.158244 0.417721 0.668259
O O7 0.092363 0.412465 0.906807
O O8 0.600842 0.124560 0.316890
O O9 0.461098 0.093768 0.475436
O O10 0.660564 0.135789 0.538430
O O11 0.631186 0.016851 0.462854
O O12 0.164478 0.851966 0.587110
O O13 0.968851 0.894630 0.629657
O O14 0.251433 0.412956 0.451879
O O15 0.750000 0.250000 0.544535
#
# Coordination Sequence:
#
# PCOD9389714 Si02
#       7
#     8   8   8   8   8   8   8
#     4  11  21  34  55  84 121 153 189 239 294 353
#     4  10  18  34  55  82 119 151 184 233 298 350
#     4  10  21  35  51  84 120 145 192 235 289 340
#     4  10  20  34  54  81 113 154 190 234 282 349
#     4  10  20  32  57  86 116 149 180 241 294 353
#     4  12  23  39  58  79 115 163 202 235 280 341
#     4  11  19  33  58  85 117 151 186 227 306 355
#
# _framework density 20.414048000000001
#
# number of rings (size 3 to 8) (size 9 to 14) (size 15 to 20)
#    0.000    1.429    4.286    2.571    6.000    3.714 
#    0.000    0.000    0.000    0.857    0.000    2.000 
#    0.000    0.000    0.000    0.000    0.000    0.000 
#
# Total GULP energy -312447.000390 kJ/mol
# GULP energy per Si atom -5579.410721 kJ/mol
# Density = 2.036759 g / cm^3
# Si number density = 20.414048 Si / 1000 Ang^3
#
#
#
# Elastic Constant Matrix: (Units=GPa)
#
#
# Indices 1 2 3 4 5 6 
#
# 1 131.2440 18.9483 2.5560 0.0000 0.0000 0.0000
# 2 18.9483 59.2946 7.2874 0.0000 0.0000 0.0000
# 3 2.5560 7.2874 56.8909 0.0000 0.0000 0.0000
# 4 0.0000 0.0000 0.0000 5.2126 0.0000 0.0000
# 5 0.0000 0.0000 0.0000 0.0000 40.7961 0.0000
# 6 0.0000 0.0000 0.0000 0.0000 0.0000 17.3582
#
#
#
# Elastic Compliance Matrix: (Units=1/GPa)
#
#
# Indices 1 2 3 4 5 6 
#
# 1 0.007988 -0.002549 -0.000032 0.000000 0.000000 0.000000
# 2 -0.002549 0.017948 -0.002185 0.000000 0.000000 0.000000
# 3 -0.000032 -0.002185 0.017859 0.000000 0.000000 0.000000
# 4 0.000000 0.000000 0.000000 0.191844 0.000000 0.000000
# 5 0.000000 0.000000 0.000000 0.000000 0.024512 0.000000
# 6 0.000000 0.000000 0.000000 0.000000 0.000000 0.057610
#
#
# Mechanical properties :
#
#
# Convention : Reuss Voigt Hill
#
# Bulk Modulus (GPa) = 29.18561 33.89031 31.53796
# Shear Modulus (GPa) = 14.76175 27.24921 21.00548
#
# Velocity S-wave (km/s) = 2.69200 3.65749 3.21124
# Velocity P-wave (km/s) = 4.89800 5.87144 5.40667
#
# Compressibility (1/GPa) = 0.03426346
#
# Stress axis : x y z
#
# Youngs Moduli (GPa) = 125.18790 55.71685 55.99483
#
# Poissons Ratio (x) = 0.14200 0.00182
# Poissons Ratio (y) = 0.31906 0.12232
# Poissons Ratio (z) = 0.00406 0.12171
#
# Static dielectric constant tensor:
#      x y z
#    x 1.805430 0.000000 0.000000 
#    y 0.000000 1.697630 0.000000 
#    z 0.000000 0.000000 1.824160 
# 
# From -- ./inp_files/20273.got.cif
#   From: 2010.05.17/outbox.cif.g08.bks.cpg/sg48_11_cif.got.tgz:20273.got - 2010.06.03 20:39:00.
