data_PCOD9389109
_publ_section_title
;
Structure prediction by ZEFSAII (Michael W. Deem and Ramdas Pophale) SiO2 
 PCOD9389109
Probable space group: P M M M
;
_chemical_formula_sum "Si O2"
_cell_formula_units_Z 44
_cell_length_a 7.567216
_cell_length_b 15.931478
_cell_length_c 17.931305
_cell_angle_alpha 90.000000
_cell_angle_beta 90.000000
_cell_angle_gamma 90.000000
_cell_volume 2161.743175
_symmetry_space_group_name_H-M "P M M M"
_symmetry_group_IT_number 47
_symmetry_cell_setting 'orthorhombic'
loop_
_space_group_symop_operation_xyz
x,y,z
-x,-y,z
x,-y,-z
-x,y,-z
-x,-y,-z
x,y,-z
-x,y,z
x,-y,z
loop_
_atom_site_type_symbol
_atom_site_label
_atom_site_fract_x
_atom_site_fract_y
_atom_site_fract_z
Si Si1 0.716960 0.403118 0.500000
Si Si2 0.708438 0.273646 0.205899
Si Si3 0.212680 0.910035 0.792186
Si Si4 0.709909 0.724326 0.375233
Si Si5 0.212388 0.090551 0.382677
Si Si6 0.715952 0.596371 0.084248
O O1 0.772475 0.500000 0.500000
O O2 0.500000 0.402971 0.500000
O O3 0.776655 0.349499 0.571756
O O4 0.500000 0.290675 0.212477
O O5 0.727006 0.178533 0.176262
O O6 0.782885 0.277392 0.290440
O O7 0.781228 0.340493 0.147479
O O8 0.265750 0.909123 0.704767
O O9 0.000000 0.909757 0.793740
O O10 0.272961 0.000000 0.823843
O O11 0.500000 0.712873 0.369731
O O12 0.734901 0.817424 0.409862
O O13 0.000000 0.088782 0.386881
O O14 0.274891 0.000000 0.413386
O O15 0.500000 0.598510 0.084451
O O16 0.767054 0.500000 0.098826
O O17 0.771198 0.618749 0.000000
#
# Coordination Sequence:
#
# PCOD9389109 Si02
#       6
#     4   8   8   8   8   8
#     4   9  18  32  46  59  82 116 145 171 210 253
#     4   9  16  25  42  68  88 104 137 180 209 236
#     4   8  14  25  41  61  86 116 144 167 200 249
#     4   9  17  28  43  64  86 109 141 177 208 240
#     4   8  14  26  44  64  86 112 139 168 207 253
#     4   8  14  25  41  62  88 113 134 164 212 260
#
# _framework density 20.353945
#
# number of rings (size 3 to 8) (size 9 to 14) (size 15 to 20)
#    0.000    3.545    0.000    1.636    0.000    1.455 
#    0.000    8.182    0.000    5.455    0.000   10.182 
#    0.000    0.000    0.000    0.000    0.000    0.000 
#
# Total GULP energy -245001.952733 kJ/mol
# GULP energy per Si atom -5568.226198 kJ/mol
# Density = 2.030762 g / cm^3
# Si number density = 20.353945 Si / 1000 Ang^3
#
#
#
# Elastic Constant Matrix: (Units=GPa)
#
#
# Indices 1 2 3 4 5 6 
#
# 1 41.5434 2.2899 5.5718 0.0000 0.0000 0.0000
# 2 2.2899 212.4000 101.1443 0.0000 0.0000 0.0000
# 3 5.5718 101.1443 98.5305 0.0000 0.0000 0.0000
# 4 0.0000 0.0000 0.0000 334.8487 0.0000 0.0000
# 5 0.0000 0.0000 0.0000 0.0000 -3.8516 0.0000
# 6 0.0000 0.0000 0.0000 0.0000 0.0000 35.1656
#
#
#
# Elastic Compliance Matrix: (Units=1/GPa)
#
#
# Indices 1 2 3 4 5 6 
#
# 1 0.024319 0.000768 -0.002164 0.000000 0.000000 0.000000
# 2 0.000768 0.009235 -0.009523 0.000000 0.000000 0.000000
# 3 -0.002164 -0.009523 0.020047 0.000000 0.000000 0.000000
# 4 0.000000 0.000000 0.000000 0.002986 0.000000 0.000000
# 5 0.000000 0.000000 0.000000 0.000000 -0.259632 0.000000
# 6 0.000000 0.000000 0.000000 0.000000 0.000000 0.028437
#
#
# Mechanical properties :
#
#
# Convention : Reuss Voigt Hill
#
# Bulk Modulus (GPa) = 31.48260 63.38732 47.43496
# Shear Modulus (GPa) = -35.16615 89.46373 27.14879
#
# Velocity S-wave (km/s) = -4.16111 6.63697 3.65613
# Velocity P-wave (km/s) = 2.75414 9.48381 6.41706
#
# Compressibility (1/GPa) = 0.03176358
#
# Stress axis : x y z
#
# Youngs Moduli (GPa) = 41.11998 108.28731 49.88219
#
# Poissons Ratio (x) = -0.08319 0.10794
# Poissons Ratio (y) = -0.03159 0.47503
# Poissons Ratio (z) = 0.08898 1.03123
#
# Static dielectric constant tensor:
#      x y z
#    x 1.760600 0.000000 0.000000 
#    y 0.000000 1.743150 0.000000 
#    z 0.000000 0.000000 1.729270 
# 
# From -- ./inp_files/26356.got.cif
#   From: 2010.05.17/outbox.cif.g08.bks.cpg/sg47_14_cif.got.tgz:26356.got - 2010.06.03 20:15:42.
