data_PCOD9389332
_publ_section_title
;
Structure prediction by ZEFSAII (Michael W. Deem and Ramdas Pophale) SiO2 
 PCOD9389332
Probable space group: P M M M
;
_chemical_formula_sum "Si O2"
_cell_formula_units_Z 52
_cell_length_a 9.000000
_cell_length_b 21.000000
_cell_length_c 15.000000
_cell_angle_alpha 90.000000
_cell_angle_beta 90.000000
_cell_angle_gamma 90.000000
_cell_volume 2835.000000
_symmetry_space_group_name_H-M "P M M M"
_symmetry_group_IT_number 47
_symmetry_cell_setting 'orthorhombic'
loop_
_space_group_symop_operation_xyz
x,y,z
-x,-y,z
x,-y,-z
-x,y,-z
-x,-y,-z
x,y,-z
-x,y,z
x,-y,z
loop_
_atom_site_type_symbol
_atom_site_label
_atom_site_fract_x
_atom_site_fract_y
_atom_site_fract_z
Si Si1 0.180477 0.569751 0.781408
Si Si2 0.675182 0.769111 0.394795
Si Si3 0.179919 0.688691 0.103304
Si Si4 0.178494 0.882640 0.289241
Si Si5 0.678724 0.000000 0.605320
Si Si6 0.819074 0.833714 0.101597
Si Si7 0.822769 0.632133 0.600756
O O1 0.233930 0.500000 0.810407
O O2 0.235624 0.631082 0.835952
O O3 0.213408 0.582363 0.677781
O O4 0.000000 0.569274 0.790444
O O5 0.693451 0.785161 0.500000
O O6 0.500000 0.773461 0.373923
O O7 0.769664 0.817280 0.335519
O O8 0.735089 0.697578 0.383245
O O9 0.230246 0.760921 0.122530
O O10 0.000000 0.690152 0.112414
O O11 0.213146 0.675538 0.000000
O O12 0.223108 0.878202 0.184579
O O13 0.000000 0.889074 0.294016
O O14 0.255831 0.938902 0.343853
O O15 0.500000 0.000000 0.610349
O O16 0.719264 0.000000 0.500000
O O17 0.000000 0.832960 0.099964
O O18 0.771496 0.849815 0.000000
O O19 0.792352 0.610153 0.500000
O O20 0.000000 0.645845 0.606979
#
# Coordination Sequence:
#
# PCOD9389332 Si02
#       7
#     8   8   8   8   4   8   8
#     4   9  16  24  36  59  91 124 159 202 252 301
#     4  10  20  33  50  73 101 132 165 206 260 314
#     4   8  13  22  37  59  91 128 159 191 239 298
#     4  11  21  34  57  84 107 135 172 212 250 290
#     4  11  25  43  58  75 108 150 181 205 242 293
#     4   8  15  29  50  77 106 133 164 206 256 304
#     4   9  17  29  45  65  89 120 162 209 253 301
#
# _framework density 18.342151999999999
#
# number of rings (size 3 to 8) (size 9 to 14) (size 15 to 20)
#    0.000    2.692    0.000    3.462    0.000    6.462 
#    0.000    3.462    0.000    4.615    0.000    2.154 
#    0.000    0.000    0.000    5.538    0.000    4.923 
#
# Total GULP energy -289855.619321 kJ/mol
# GULP energy per Si atom -5574.146525 kJ/mol
# Density = 1.830040 g / cm^3
# Si number density = 18.342152 Si / 1000 Ang^3
#
#
#
# Elastic Constant Matrix: (Units=GPa)
#
#
# Indices 1 2 3 4 5 6 
#
# 1 25.9245 14.2264 26.9475 0.0000 0.0000 0.0000
# 2 14.2264 59.6609 67.2458 0.0000 0.0000 0.0000
# 3 26.9475 67.2458 117.4885 0.0000 0.0000 0.0000
# 4 0.0000 0.0000 0.0000 22.0098 0.0000 0.0000
# 5 0.0000 0.0000 0.0000 0.0000 6.7939 0.0000
# 6 0.0000 0.0000 0.0000 0.0000 0.0000 -0.2714
#
#
#
# Elastic Compliance Matrix: (Units=1/GPa)
#
#
# Indices 1 2 3 4 5 6 
#
# 1 0.050823 0.002874 -0.013302 0.000000 0.000000 0.000000
# 2 0.002874 0.047395 -0.027786 0.000000 0.000000 0.000000
# 3 -0.013302 -0.027786 0.027466 0.000000 0.000000 0.000000
# 4 0.000000 0.000000 0.000000 0.045434 0.000000 0.000000
# 5 0.000000 0.000000 0.000000 0.000000 0.147191 0.000000
# 6 0.000000 0.000000 0.000000 0.000000 0.000000 -3.684379
#
#
# Mechanical properties :
#
#
# Convention : Reuss Voigt Hill
#
# Bulk Modulus (GPa) = 20.30204 46.65703 33.47953
# Shear Modulus (GPa) = -1.52755 12.01674 5.24460
#
# Velocity S-wave (km/s) = -0.91357 2.56235 1.69278
# Velocity P-wave (km/s) = 3.15907 5.85205 4.70246
#
# Compressibility (1/GPa) = 0.04925614
#
# Stress axis : x y z
#
# Youngs Moduli (GPa) = 19.67604 21.09947 36.40852
#
# Poissons Ratio (x) = -0.06064 0.48431
# Poissons Ratio (y) = -0.05655 1.01165
# Poissons Ratio (z) = 0.26173 0.58627
#
# Static dielectric constant tensor:
#      x y z
#    x 1.603520 0.000000 0.000000 
#    y 0.000000 1.636830 0.000000 
#    z 0.000000 0.000000 1.655520 
# 
# From -- ./inp_files/21490.got.cif
#   From: 2010.05.17/outbox.ucp.g08.bks.cvg/sg47_11_cif.got.tgz:21490.got - 2010.06.11 16:36:43.
