data_PCOD9389189
_publ_section_title
;
Structure prediction by ZEFSAII (Michael W. Deem and Ramdas Pophale) SiO2 
 PCOD9389189
Probable space group: P M M M
;
_chemical_formula_sum "Si O2"
_cell_formula_units_Z 44
_cell_length_a 17.969745
_cell_length_b 15.334502
_cell_length_c 7.471472
_cell_angle_alpha 90.000000
_cell_angle_beta 90.000000
_cell_angle_gamma 90.000000
_cell_volume 2058.817087
_symmetry_space_group_name_H-M "P M M M"
_symmetry_group_IT_number 47
_symmetry_cell_setting 'orthorhombic'
loop_
_space_group_symop_operation_xyz
x,y,z
-x,-y,z
x,-y,-z
-x,y,-z
-x,-y,-z
x,y,-z
-x,y,z
x,-y,z
loop_
_atom_site_type_symbol
_atom_site_label
_atom_site_fract_x
_atom_site_fract_y
_atom_site_fract_z
Si Si1 0.805325 0.153968 0.785722
Si Si2 0.913333 0.000000 0.780502
Si Si3 0.000000 0.602509 0.799307
Si Si4 0.677715 0.595344 0.291488
Si Si5 0.356894 0.209206 0.712789
Si Si6 0.500000 0.101300 0.280554
Si Si7 0.159825 0.349718 0.217531
O O1 0.718031 0.152464 0.739939
O O2 0.829569 0.249853 0.729351
O O3 0.863707 0.082400 0.720760
O O4 0.808933 0.150194 0.000000
O O5 0.000000 0.000000 0.723739
O O6 0.915124 0.000000 0.000000
O O7 0.078937 0.624002 0.715116
O O8 0.000000 0.500000 0.820506
O O9 0.000000 0.644561 0.000000
O O10 0.655563 0.594650 0.500000
O O11 0.654553 0.500000 0.215674
O O12 0.652316 0.690601 0.216127
O O13 0.767505 0.599953 0.281941
O O14 0.365558 0.219120 0.500000
O O15 0.427434 0.155110 0.779209
O O16 0.500000 0.100424 0.500000
O O17 0.500000 0.000000 0.224534
O O18 0.160365 0.358332 0.000000
#
# Coordination Sequence:
#
# PCOD9389189 Si02
#       7
#     8   4   4   8   8   4   8
#     4   9  18  31  48  70  95 125 160 197 236 282
#     4   9  18  30  47  70  97 128 162 199 241 285
#     4   9  16  24  37  60  86 110 145 195 237 265
#     4   9  17  30  47  67  93 123 152 186 232 281
#     4   9  18  33  52  73  97 125 158 194 234 282
#     4   9  18  32  52  76  98 123 157 195 234 282
#     4   9  17  28  44  64  88 119 157 196 232 272
#
# _framework density 21.371497000000002
#
# number of rings (size 3 to 8) (size 9 to 14) (size 15 to 20)
#    0.000    3.000    0.000    0.545    2.545    1.091 
#    0.000    1.364    0.000    6.000    0.000    0.000 
#    0.000    5.818    0.000    0.000    0.000    0.000 
#
# Total GULP energy -245143.281200 kJ/mol
# GULP energy per Si atom -5571.438209 kJ/mol
# Density = 2.132285 g / cm^3
# Si number density = 21.371497 Si / 1000 Ang^3
#
#
#
# Elastic Constant Matrix: (Units=GPa)
#
#
# Indices 1 2 3 4 5 6 
#
# 1 170.6063 97.7103 -2.6405 0.0000 0.0000 0.0000
# 2 97.7103 162.7082 5.8352 0.0000 0.0000 0.0000
# 3 -2.6405 5.8352 55.6694 0.0000 0.0000 0.0000
# 4 0.0000 0.0000 0.0000 4.0784 0.0000 0.0000
# 5 0.0000 0.0000 0.0000 0.0000 15.2742 0.0000
# 6 0.0000 0.0000 0.0000 0.0000 0.0000 -8.7085
#
#
#
# Elastic Compliance Matrix: (Units=1/GPa)
#
#
# Indices 1 2 3 4 5 6 
#
# 1 0.008989 -0.005434 0.000996 0.000000 0.000000 0.000000
# 2 -0.005434 0.009454 -0.001249 0.000000 0.000000 0.000000
# 3 0.000996 -0.001249 0.018141 0.000000 0.000000 0.000000
# 4 0.000000 0.000000 0.000000 0.245191 0.000000 0.000000
# 5 0.000000 0.000000 0.000000 0.000000 0.065470 0.000000
# 6 0.000000 0.000000 0.000000 0.000000 0.000000 -0.114831
#
#
# Mechanical properties :
#
#
# Convention : Reuss Voigt Hill
#
# Bulk Modulus (GPa) = 39.66522 65.64379 52.65450
# Shear Modulus (GPa) = 19.82621 21.33409 20.58015
#
# Velocity S-wave (km/s) = 3.04911 3.16294 3.10655
# Velocity P-wave (km/s) = 5.56743 6.64238 6.12852
#
# Compressibility (1/GPa) = 0.02521101
#
# Stress axis : x y z
#
# Youngs Moduli (GPa) = 111.24812 105.77679 55.12285
#
# Poissons Ratio (x) = 0.57477 -0.05490
# Poissons Ratio (y) = 0.60450 0.06883
# Poissons Ratio (z) = -0.11079 0.13208
#
# Static dielectric constant tensor:
#      x y z
#    x 1.333700 0.000000 0.000000 
#    y 0.000000 1.794750 0.000000 
#    z 0.000000 0.000000 1.871500 
# 
# From -- ./inp_files/9040.got.cif
#   From: 2010.05.17/outbox.cif.g08.bks.cpg/sg47_5_cif.got.tgz:9040.got - 2010.06.03 20:15:42.
