data_PCOD9389685
_publ_section_title
;
Structure prediction by ZEFSAII (Michael W. Deem and Ramdas Pophale) SiO2 
 PCOD9389685
Probable space group: P N N N
;
_chemical_formula_sum "Si O2"
_cell_formula_units_Z 48
_cell_length_a 14.920351
_cell_length_b 19.315321
_cell_length_c 7.171227
_cell_angle_alpha 90.000000
_cell_angle_beta 90.000000
_cell_angle_gamma 90.000000
_cell_volume 2066.685727
_symmetry_space_group_name_H-M "P N N N"
_symmetry_group_IT_number 48
_space_group.IT_coordinate_system_code '2'
_symmetry_cell_setting 'orthorhombic'
loop_
_space_group_symop_operation_xyz
x,y,z
1/2-x,1/2-y,z
x,1/2-y,1/2-z
1/2-x,y,1/2-z
-x,-y,-z
1/2+x,1/2+y,-z
-x,1/2+y,1/2+z
1/2+x,-y,1/2+z
loop_
_atom_site_type_symbol
_atom_site_label
_atom_site_fract_x
_atom_site_fract_y
_atom_site_fract_z
Si Si1 0.359815 0.460613 0.508657
Si Si2 0.958375 0.363353 0.572671
Si Si3 0.506140 0.034470 0.295775
Si Si4 0.940658 0.218207 0.452913
Si Si5 0.672395 0.103002 0.880784
Si Si6 0.615404 0.825082 0.187480
O O1 0.416703 0.448023 0.319660
O O2 0.429173 0.492391 0.659467
O O3 0.299537 0.528296 0.465193
O O4 0.327719 0.387205 0.593035
O O5 0.949797 0.394497 0.368128
O O6 0.917719 0.286859 0.572478
O O7 0.910009 0.407004 0.734911
O O8 0.062129 0.354668 0.632406
O O9 0.500000 0.000000 0.500000
O O10 0.954263 0.250000 0.250000
O O11 0.865436 0.159705 0.478207
O O12 0.033883 0.189958 0.541062
O O13 0.750000 0.130144 0.750000
O O14 0.652088 0.750000 0.250000
#
# Coordination Sequence:
#
# PCOD9389685 Si02
#       6
#     8   8   8   8   8   8
#     4  11  20  33  54  80 113 149 186 241 296 354
#     4  10  18  32  53  78 111 148 182 239 293 344
#     4  11  17  31  58  84 111 142 186 239 310 352
#     4  10  19  33  52  78 112 148 194 241 294 357
#     4  11  23  37  51  75 115 164 208 238 273 340
#     4   9  18  31  52  83 112 135 174 242 317 367
#
# _framework density 23.225594000000001
#
# number of rings (size 3 to 8) (size 9 to 14) (size 15 to 20)
#    0.000    1.667    3.333    6.500    0.000    1.333 
#    0.000    4.167    0.000    0.000    0.000    0.000 
#    0.000   70.000    0.000    0.000    0.000    0.000 
#
# Total GULP energy -267577.869594 kJ/mol
# GULP energy per Si atom -5574.538950 kJ/mol
# Density = 2.317273 g / cm^3
# Si number density = 23.225594 Si / 1000 Ang^3
#
#
#
# Elastic Constant Matrix: (Units=GPa)
#
#
# Indices 1 2 3 4 5 6 
#
# 1 31.8176 4.0495 13.1722 0.0000 0.0000 0.0000
# 2 4.0495 165.3980 37.1359 0.0000 0.0000 0.0000
# 3 13.1722 37.1359 128.3962 0.0000 0.0000 0.0000
# 4 0.0000 0.0000 0.0000 57.3609 0.0000 0.0000
# 5 0.0000 0.0000 0.0000 0.0000 14.4402 0.0000
# 6 0.0000 0.0000 0.0000 0.0000 0.0000 1.5009
#
#
#
# Elastic Compliance Matrix: (Units=1/GPa)
#
#
# Indices 1 2 3 4 5 6 
#
# 1 0.032824 -0.000051 -0.003353 0.000000 0.000000 0.000000
# 2 -0.000051 0.006466 -0.001865 0.000000 0.000000 0.000000
# 3 -0.003353 -0.001865 0.008672 0.000000 0.000000 0.000000
# 4 0.000000 0.000000 0.000000 0.017433 0.000000 0.000000
# 5 0.000000 0.000000 0.000000 0.000000 0.069251 0.000000
# 6 0.000000 0.000000 0.000000 0.000000 0.000000 0.666255
#
#
# Mechanical properties :
#
#
# Convention : Reuss Voigt Hill
#
# Bulk Modulus (GPa) = 26.72054 48.25855 37.48954
# Shear Modulus (GPa) = 6.06860 32.74402 19.40631
#
# Velocity S-wave (km/s) = 1.61820 3.75884 2.89374
# Velocity P-wave (km/s) = 3.87572 6.29776 5.22891
#
# Compressibility (1/GPa) = 0.03742439
#
# Stress axis : x y z
#
# Youngs Moduli (GPa) = 30.46585 154.65531 115.31714
#
# Poissons Ratio (x) = 0.00787 0.38662
# Poissons Ratio (y) = 0.00155 0.21506
# Poissons Ratio (z) = 0.10214 0.28842
#
# Static dielectric constant tensor:
#      x y z
#    x 1.888830 0.000000 0.000000 
#    y 0.000000 2.146710 0.000000 
#    z 0.000000 0.000000 1.895700 
# 
# From -- ./inp_files/5214.got.cif
#   From: 2010.05.17/outbox.cif.g08.bks.cpg/sg48_3_cif.got.tgz:5214.got - 2010.06.03 20:39:00.
