data_PCOD9389493
_publ_section_title
;
Structure prediction by ZEFSAII (Michael W. Deem and Ramdas Pophale) SiO2 
 PCOD9389493
Probable space group: P N N N
;
_chemical_formula_sum "Si O2"
_cell_formula_units_Z 56
_cell_length_a 12.011159
_cell_length_b 25.190730
_cell_length_c 10.788875
_cell_angle_alpha 90.000000
_cell_angle_beta 90.000000
_cell_angle_gamma 90.000000
_cell_volume 3264.388435
_symmetry_space_group_name_H-M "P N N N"
_symmetry_group_IT_number 48
_space_group.IT_coordinate_system_code '2'
_symmetry_cell_setting 'orthorhombic'
loop_
_space_group_symop_operation_xyz
x,y,z
1/2-x,1/2-y,z
x,1/2-y,1/2-z
1/2-x,y,1/2-z
-x,-y,-z
1/2+x,1/2+y,-z
-x,1/2+y,1/2+z
1/2+x,-y,1/2+z
loop_
_atom_site_type_symbol
_atom_site_label
_atom_site_fract_x
_atom_site_fract_y
_atom_site_fract_z
Si Si1 0.401974 0.887007 0.958784
Si Si2 0.881447 0.029401 0.244051
Si Si3 0.116886 0.812722 0.746437
Si Si4 0.693187 0.076857 0.617958
Si Si5 0.713231 0.949848 0.608797
Si Si6 0.429190 0.047523 0.934698
Si Si7 0.983053 0.396724 0.443504
O O1 0.421430 0.926888 0.843082
O O2 0.414313 0.831523 0.891833
O O3 0.284124 0.902702 0.017304
O O4 0.497161 0.900431 0.055881
O O5 0.750000 0.031374 0.250000
O O6 0.927895 0.050120 0.116703
O O7 0.915577 0.972516 0.295009
O O8 0.099030 0.750000 0.750000
O O9 0.250000 0.824550 0.750000
O O10 0.055718 0.847242 0.854852
O O11 0.750000 0.089839 0.750000
O O12 0.578018 0.104730 0.576562
O O13 0.681709 0.012600 0.615484
O O14 0.750000 0.935654 0.750000
O O15 0.815672 0.947298 0.511907
O O16 0.613094 0.911439 0.565319
O O17 0.500000 0.000000 0.000000
#
# Coordination Sequence:
#
# PCOD9389493 Si02
#       7
#     8   8   8   8   8   8   8
#     4  10  17  33  49  71 105 132 174 222 266 312
#     4  10  16  28  49  68  98 137 180 206 249 304
#     4  10  19  34  61  81  95 132 181 233 285 326
#     4  11  21  31  47  74 111 147 175 207 273 331
#     4  11  20  30  47  75 110 150 174 208 267 329
#     4  10  18  30  46  68 100 147 177 206 257 321
#     4  11  20  34  50  77 112 136 180 233 267 323
#
# _framework density 17.154821999999999
#
# number of rings (size 3 to 8) (size 9 to 14) (size 15 to 20)
#    0.000    1.571    5.714    3.857    2.000    0.000 
#    0.000    0.000    0.000    5.571    0.000    0.000 
#    0.000    0.000    0.000    0.000    0.000    0.000 
#
# Total GULP energy -311792.101093 kJ/mol
# GULP energy per Si atom -5567.716091 kJ/mol
# Density = 1.711578 g / cm^3
# Si number density = 17.154822 Si / 1000 Ang^3
#
#
#
# Elastic Constant Matrix: (Units=GPa)
#
#
# Indices 1 2 3 4 5 6 
#
# 1 96.7383 34.8588 16.2464 0.0000 0.0000 0.0000
# 2 34.8588 77.2586 26.6792 0.0000 0.0000 0.0000
# 3 16.2464 26.6792 59.6072 0.0000 0.0000 0.0000
# 4 0.0000 0.0000 0.0000 -11.5168 0.0000 0.0000
# 5 0.0000 0.0000 0.0000 0.0000 15.0460 0.0000
# 6 0.0000 0.0000 0.0000 0.0000 0.0000 21.9674
#
#
#
# Elastic Compliance Matrix: (Units=1/GPa)
#
#
# Indices 1 2 3 4 5 6 
#
# 1 0.012398 -0.005236 -0.001035 0.000000 0.000000 0.000000
# 2 -0.005236 0.017521 -0.006415 0.000000 0.000000 0.000000
# 3 -0.001035 -0.006415 0.019930 0.000000 0.000000 0.000000
# 4 0.000000 0.000000 0.000000 -0.086830 0.000000 0.000000
# 5 0.000000 0.000000 0.000000 0.000000 0.066463 0.000000
# 6 0.000000 0.000000 0.000000 0.000000 0.000000 0.045522
#
#
# Mechanical properties :
#
#
# Convention : Reuss Voigt Hill
#
# Bulk Modulus (GPa) = 40.85701 43.24143 42.04922
# Shear Modulus (GPa) = 46.06724 15.48729 30.77727
#
# Velocity S-wave (km/s) = 5.18769 3.00791 4.24026
# Velocity P-wave (km/s) = 7.72989 6.10939 6.96692
#
# Compressibility (1/GPa) = 0.02447560
#
# Stress axis : x y z
#
# Youngs Moduli (GPa) = 80.65862 57.07297 50.17556
#
# Poissons Ratio (x) = 0.29885 0.05196
# Poissons Ratio (y) = 0.42236 0.32188
# Poissons Ratio (z) = 0.08352 0.36613
#
# Static dielectric constant tensor:
#      x y z
#    x 1.637110 0.000000 0.000000 
#    y 0.000000 1.597050 0.000000 
#    z 0.000000 0.000000 1.700610 
# 
# From -- ./inp_files/20411.got.cif
#   From: 2010.05.17/outbox.cif.g08.bks.cpg/sg48_11_cif.got.tgz:20411.got - 2010.06.03 20:39:00.
