data_PCOD9389527
_publ_section_title
;
Structure prediction by ZEFSAII (Michael W. Deem and Ramdas Pophale) SiO2 
 PCOD9389527
Probable space group: P N N N
;
_chemical_formula_sum "Si O2"
_cell_formula_units_Z 44
_cell_length_a 8.504809
_cell_length_b 30.511733
_cell_length_c 8.719606
_cell_angle_alpha 90.000000
_cell_angle_beta 90.000000
_cell_angle_gamma 90.000000
_cell_volume 2262.706902
_symmetry_space_group_name_H-M "P N N N"
_symmetry_group_IT_number 48
_space_group.IT_coordinate_system_code '2'
_symmetry_cell_setting 'orthorhombic'
loop_
_space_group_symop_operation_xyz
x,y,z
1/2-x,1/2-y,z
x,1/2-y,1/2-z
1/2-x,y,1/2-z
-x,-y,-z
1/2+x,1/2+y,-z
-x,1/2+y,1/2+z
1/2+x,-y,1/2+z
loop_
_atom_site_type_symbol
_atom_site_label
_atom_site_fract_x
_atom_site_fract_y
_atom_site_fract_z
Si Si1 0.917702 0.545181 0.451511
Si Si2 0.502163 0.687235 0.608465
Si Si3 0.950422 0.545059 0.082739
Si Si4 0.250000 0.750000 0.750000
Si Si5 0.839897 0.129633 0.589902
Si Si6 0.104110 0.886093 0.842283
Si Si7 0.750000 0.750000 0.750000
O O1 0.947756 0.546324 0.268447
O O2 0.730169 0.550814 0.470485
O O3 0.000000 0.500000 0.500000
O O4 0.998816 0.581225 0.559868
O O5 0.360194 0.719667 0.648120
O O6 0.473681 0.665923 0.441853
O O7 0.488996 0.646437 0.729355
O O8 0.651200 0.717114 0.642765
O O9 0.075081 0.583645 0.048941
O O10 0.000000 0.500000 0.000000
O O11 0.750000 0.127278 0.750000
O O12 0.703138 0.140557 0.468289
O O13 0.250000 0.908603 0.750000
#
# Coordination Sequence:
#
# PCOD9389527 Si02
#       7
#     8   8   8   2   8   8   2
#     4  11  25  41  61  87 128 171 221 277 318 387
#     4  10  22  39  69  96 128 167 207 265 325 398
#     4  11  26  41  60  89 128 174 223 271 324 380
#     4  10  16  42  62  94 120 158 210 250 312 382
#     4  11  21  41  65  93 124 170 217 271 324 388
#     4  10  21  40  63  91 125 169 213 262 327 389
#     4  10  24  42  72 100 136 162 216 272 332 410
#
# _framework density 19.445734999999999
#
# number of rings (size 3 to 8) (size 9 to 14) (size 15 to 20)
#    0.000    1.455    4.545    1.091   10.182    0.000 
#    0.000    0.455    0.000    1.091    0.000    0.000 
#    0.000    0.000    0.000    0.000    0.000    0.000 
#
# Total GULP energy -245064.776001 kJ/mol
# GULP energy per Si atom -5569.654000 kJ/mol
# Density = 1.940148 g / cm^3
# Si number density = 19.445735 Si / 1000 Ang^3
#
#
#
# Elastic Constant Matrix: (Units=GPa)
#
#
# Indices 1 2 3 4 5 6 
#
# 1 116.7693 65.8552 58.5323 0.0000 0.0000 0.0000
# 2 65.8552 130.9526 50.6743 0.0000 0.0000 0.0000
# 3 58.5323 50.6743 86.3584 0.0000 0.0000 0.0000
# 4 0.0000 0.0000 0.0000 19.6322 0.0000 0.0000
# 5 0.0000 0.0000 0.0000 0.0000 22.3486 0.0000
# 6 0.0000 0.0000 0.0000 0.0000 0.0000 41.5656
#
#
#
# Elastic Compliance Matrix: (Units=1/GPa)
#
#
# Indices 1 2 3 4 5 6 
#
# 1 0.014861 -0.004626 -0.007358 0.000000 0.000000 0.000000
# 2 -0.004626 0.011320 -0.003507 0.000000 0.000000 0.000000
# 3 -0.007358 -0.003507 0.018625 0.000000 0.000000 0.000000
# 4 0.000000 0.000000 0.000000 0.050937 0.000000 0.000000
# 5 0.000000 0.000000 0.000000 0.000000 0.044745 0.000000
# 6 0.000000 0.000000 0.000000 0.000000 0.000000 0.024058
#
#
# Mechanical properties :
#
#
# Convention : Reuss Voigt Hill
#
# Bulk Modulus (GPa) = 72.34079 76.02267 74.18173
# Shear Modulus (GPa) = 24.98292 27.31052 26.14672
#
# Velocity S-wave (km/s) = 3.58823 3.75166 3.67086
# Velocity P-wave (km/s) = 7.37898 7.61225 7.49652
#
# Compressibility (1/GPa) = 0.01382346
#
# Stress axis : x y z
#
# Youngs Moduli (GPa) = 67.28828 88.33987 53.69247
#
# Poissons Ratio (x) = 0.40869 0.39508
# Poissons Ratio (y) = 0.31130 0.18829
# Poissons Ratio (z) = 0.49512 0.30979
#
# Static dielectric constant tensor:
#      x y z
#    x 1.723670 0.000000 0.000000 
#    y 0.000000 1.702360 0.000000 
#    z 0.000000 0.000000 1.321120 
# 
# From -- ./inp_files/9384.got.cif
#   From: 2010.05.17/outbox.cif.g08.bks.cpg/sg48_5_cif.got.tgz:9384.got - 2010.06.03 20:39:00.
