data_PCOD9389869
_publ_section_title
;
Structure prediction by ZEFSAII (Michael W. Deem and Ramdas Pophale) SiO2 
 PCOD9389869
Probable space group: P N N N
;
_chemical_formula_sum "Si O2"
_cell_formula_units_Z 64
_cell_length_a 28.167130
_cell_length_b 5.449342
_cell_length_c 20.469637
_cell_angle_alpha 90.000000
_cell_angle_beta 90.000000
_cell_angle_gamma 90.000000
_cell_volume 3141.932165
_symmetry_space_group_name_H-M "P N N N"
_symmetry_group_IT_number 48
_space_group.IT_coordinate_system_code '2'
_symmetry_cell_setting 'orthorhombic'
loop_
_space_group_symop_operation_xyz
x,y,z
1/2-x,1/2-y,z
x,1/2-y,1/2-z
1/2-x,y,1/2-z
-x,-y,-z
1/2+x,1/2+y,-z
-x,1/2+y,1/2+z
1/2+x,-y,1/2+z
loop_
_atom_site_type_symbol
_atom_site_label
_atom_site_fract_x
_atom_site_fract_y
_atom_site_fract_z
Si Si1 0.053120 0.372423 0.585476
Si Si2 0.349863 0.251042 0.327010
Si Si3 0.558803 0.684927 0.600098
Si Si4 0.047550 0.795066 0.028652
Si Si5 0.528100 0.244119 0.320735
Si Si6 0.770926 0.999818 0.324399
Si Si7 0.194514 0.752266 0.329227
Si Si8 0.383061 0.095292 0.818888
O O1 0.062765 0.622275 0.544031
O O2 0.030989 0.467487 0.653384
O O3 0.098848 0.232834 0.614154
O O4 0.009895 0.264522 0.540845
O O5 0.339916 0.250000 0.250000
O O6 0.404529 0.294577 0.341248
O O7 0.324807 0.491318 0.355388
O O8 0.331362 0.992243 0.354035
O O9 0.570747 0.456240 0.553167
O O10 0.507256 0.627168 0.629293
O O11 0.559686 0.956728 0.568805
O O12 0.505946 0.250000 0.250000
O O13 0.579108 0.373307 0.315592
O O14 0.750000 0.750000 0.354746
O O15 0.750000 0.999791 0.250000
O O16 0.828157 0.987792 0.323320
O O17 0.750000 0.250000 0.354316
O O18 0.250000 0.750000 0.342001
O O19 0.188139 0.750000 0.250000
O O20 0.386757 0.250000 0.750000
#
# Coordination Sequence:
#
# PCOD9389869 Si02
#       8
#     8   8   8   8   8   8   8   8
#     4  10  23  38  58  84 116 162 202 259 299 357
#     4  10  19  32  52  81 116 153 185 235 304 369
#     4  11  22  39  56  81 120 165 202 247 294 363
#     4  10  23  40  58  80 116 161 216 249 291 346
#     4  11  23  34  56  88 125 158 198 250 304 376
#     4  10  22  37  56  83 122 161 187 245 311 385
#     4   9  17  30  50  79 115 146 183 234 290 358
#     4  12  22  37  60  91 125 160 205 253 323 392
#
# _framework density 20.369630000000001
#
# number of rings (size 3 to 8) (size 9 to 14) (size 15 to 20)
#    0.000    1.625    3.750    1.500    5.250    3.000 
#    0.000    1.875    0.000    0.000    0.000    4.375 
#    3.750    0.000    0.000    0.000    0.000    0.000 
#
# Total GULP energy -356361.100421 kJ/mol
# GULP energy per Si atom -5568.142194 kJ/mol
# Density = 2.032327 g / cm^3
# Si number density = 20.369630 Si / 1000 Ang^3
#
#
#
# Elastic Constant Matrix: (Units=GPa)
#
#
# Indices 1 2 3 4 5 6 
#
# 1 102.4179 53.1572 7.6549 0.0000 0.0000 0.0000
# 2 53.1572 139.8997 26.8753 0.0000 0.0000 0.0000
# 3 7.6549 26.8753 44.4709 0.0000 0.0000 0.0000
# 4 0.0000 0.0000 0.0000 16.7535 0.0000 0.0000
# 5 0.0000 0.0000 0.0000 0.0000 9.5173 0.0000
# 6 0.0000 0.0000 0.0000 0.0000 0.0000 26.4565
#
#
#
# Elastic Compliance Matrix: (Units=1/GPa)
#
#
# Indices 1 2 3 4 5 6 
#
# 1 0.012187 -0.004783 0.000793 0.000000 0.000000 0.000000
# 2 -0.004783 0.009964 -0.005198 0.000000 0.000000 0.000000
# 3 0.000793 -0.005198 0.025492 0.000000 0.000000 0.000000
# 4 0.000000 0.000000 0.000000 0.059689 0.000000 0.000000
# 5 0.000000 0.000000 0.000000 0.000000 0.105072 0.000000
# 6 0.000000 0.000000 0.000000 0.000000 0.000000 0.037798
#
#
# Mechanical properties :
#
#
# Convention : Reuss Voigt Hill
#
# Bulk Modulus (GPa) = 34.16967 51.35149 42.76058
# Shear Modulus (GPa) = 17.96401 23.81885 20.89143
#
# Velocity S-wave (km/s) = 2.97290 3.42326 3.20600
# Velocity P-wave (km/s) = 5.34747 6.39449 5.89427
#
# Compressibility (1/GPa) = 0.02926572
#
# Stress axis : x y z
#
# Youngs Moduli (GPa) = 82.05360 100.36160 39.22847
#
# Poissons Ratio (x) = 0.48003 -0.03110
# Poissons Ratio (y) = 0.39246 0.20392
# Poissons Ratio (z) = -0.06505 0.52171
#
# Static dielectric constant tensor:
#      x y z
#    x 1.723110 0.000000 0.000000 
#    y 0.000000 1.821980 0.000000 
#    z 0.000000 0.000000 2.184440 
# 
# From -- ./inp_files/35030.got.cif
#   From: 2010.05.17/outbox.cif.g08.bks.cpg/sg48_18_cif.got.tgz:35030.got - 2010.06.03 20:39:00.
