data_PCOD9389299
_publ_section_title
;
Structure prediction by ZEFSAII (Michael W. Deem and Ramdas Pophale) SiO2 
 PCOD9389299
Probable space group: P M M M
;
_chemical_formula_sum "Si O2"
_cell_formula_units_Z 64
_cell_length_a 21.000000
_cell_length_b 18.000000
_cell_length_c 9.000000
_cell_angle_alpha 90.000000
_cell_angle_beta 90.000000
_cell_angle_gamma 90.000000
_cell_volume 3402.000000
_symmetry_space_group_name_H-M "P M M M"
_symmetry_group_IT_number 47
_symmetry_cell_setting 'orthorhombic'
loop_
_space_group_symop_operation_xyz
x,y,z
-x,-y,z
x,-y,-z
-x,y,-z
-x,-y,-z
x,y,-z
-x,y,z
x,-y,z
loop_
_atom_site_type_symbol
_atom_site_label
_atom_site_fract_x
_atom_site_fract_y
_atom_site_fract_z
Si Si1 0.068091 0.628241 0.678904
Si Si2 0.197862 0.199764 0.321840
Si Si3 0.206150 0.623980 0.322920
Si Si4 0.571181 0.123168 0.821082
Si Si5 0.930693 0.207984 0.822647
Si Si6 0.299945 0.919201 0.677739
Si Si7 0.429566 0.703861 0.819444
Si Si8 0.334349 0.580395 0.821398
O O1 0.070361 0.639557 0.500000
O O2 0.136036 0.593904 0.718384
O O3 0.067483 0.708484 0.756801
O O4 0.000000 0.591361 0.712917
O O5 0.192483 0.193854 0.500000
O O6 0.207598 0.287246 0.288928
O O7 0.131907 0.173444 0.249248
O O8 0.256017 0.148650 0.269827
O O9 0.214582 0.615045 0.500000
O O10 0.263361 0.586747 0.238032
O O11 0.500000 0.098463 0.776999
O O12 0.630552 0.083689 0.748461
O O13 0.577877 0.210204 0.778952
O O14 0.574602 0.117385 0.000000
O O15 0.000000 0.173973 0.786923
O O16 0.924291 0.211252 0.000000
O O17 0.306246 0.912505 0.500000
O O18 0.270566 0.000000 0.710339
O O19 0.500000 0.678945 0.773423
O O20 0.375780 0.648887 0.762900
O O21 0.428142 0.702279 0.000000
O O22 0.361867 0.500000 0.780097
O O23 0.333348 0.584674 0.000000
#
# Coordination Sequence:
#
# PCOD9389299 Si02
#       8
#     8   8   8   8   8   8   8   8
#     4   8  14  26  44  66  92 120 152 192 235 276
#     4   9  18  32  49  69  93 123 160 198 235 278
#     4   9  17  29  47  69  91 119 153 188 229 275
#     4   9  18  33  53  75  97 123 156 192 232 282
#     4   9  16  25  41  69  99 122 150 191 237 283
#     4  10  21  35  50  70  97 127 159 197 238 278
#     4   8  15  30  51  72  93 118 151 191 230 268
#     4  10  20  31  45  68  95 122 153 189 229 274
#
# _framework density 18.812463000000001
#
# number of rings (size 3 to 8) (size 9 to 14) (size 15 to 20)
#    0.000    3.000    0.000    2.625    0.000    4.500 
#    0.000    2.500    0.000    1.875    0.000    6.125 
#    0.000    0.000    0.000    0.000    0.000    0.000 
#
# Total GULP energy -356370.035203 kJ/mol
# GULP energy per Si atom -5568.281800 kJ/mol
# Density = 1.876965 g / cm^3
# Si number density = 18.812463 Si / 1000 Ang^3
#
#
#
# Elastic Constant Matrix: (Units=GPa)
#
#
# Indices 1 2 3 4 5 6 
#
# 1 106.6736 44.5202 13.4599 0.0000 0.0000 0.0000
# 2 44.5202 55.3222 15.9112 0.0000 0.0000 0.0000
# 3 13.4599 15.9112 -8.3834 0.0000 0.0000 0.0000
# 4 0.0000 0.0000 0.0000 8.0349 0.0000 0.0000
# 5 0.0000 0.0000 0.0000 0.0000 24.5057 0.0000
# 6 0.0000 0.0000 0.0000 0.0000 0.0000 -40.7808
#
#
#
# Elastic Compliance Matrix: (Units=1/GPa)
#
#
# Indices 1 2 3 4 5 6 
#
# 1 0.014108 -0.011559 0.000714 0.000000 0.000000 0.000000
# 2 -0.011559 0.021163 0.021608 0.000000 0.000000 0.000000
# 3 0.000714 0.021608 -0.077127 0.000000 0.000000 0.000000
# 4 0.000000 0.000000 0.000000 0.124457 0.000000 0.000000
# 5 0.000000 0.000000 0.000000 0.000000 0.040807 0.000000
# 6 0.000000 0.000000 0.000000 0.000000 0.000000 -0.024521
#
#
# Mechanical properties :
#
#
# Convention : Reuss Voigt Hill
#
# Bulk Modulus (GPa) = -49.19004 33.48834 -7.85085
# Shear Modulus (GPa) = 70.83559 3.66669 37.25114
#
# Velocity S-wave (km/s) = 6.14291 1.39761 4.45469
# Velocity P-wave (km/s) = 4.91013 4.52153 4.71983
#
# Compressibility (1/GPa) = -0.02032932
#
# Stress axis : x y z
#
# Youngs Moduli (GPa) = 70.87931 47.25186 -12.96571
#
# Poissons Ratio (x) = 0.54618 0.00925
# Poissons Ratio (y) = 0.81929 0.28017
# Poissons Ratio (z) = -0.05057 -1.02103
#
# Static dielectric constant tensor:
#      x y z
#    x 1.689990 0.000000 0.000000 
#    y 0.000000 1.661980 0.000000 
#    z 0.000000 0.000000 1.626690 
# 
# From -- ./inp_files/9964.got.cif
#   From: 2010.05.17/outbox.ucp.g08.bks.cvg/sg47_5_cif.got.tgz:9964.got - 2010.06.11 16:36:43.
