data_PCOD9389713
_publ_section_title
;
Structure prediction by ZEFSAII (Michael W. Deem and Ramdas Pophale) SiO2 
 PCOD9389713
Probable space group: P N N N
;
_chemical_formula_sum "Si O2"
_cell_formula_units_Z 56
_cell_length_a 25.072981
_cell_length_b 6.079353
_cell_length_c 17.434729
_cell_angle_alpha 90.000000
_cell_angle_beta 90.000000
_cell_angle_gamma 90.000000
_cell_volume 2657.532194
_symmetry_space_group_name_H-M "P N N N"
_symmetry_group_IT_number 48
_space_group.IT_coordinate_system_code '2'
_symmetry_cell_setting 'orthorhombic'
loop_
_space_group_symop_operation_xyz
x,y,z
1/2-x,1/2-y,z
x,1/2-y,1/2-z
1/2-x,y,1/2-z
-x,-y,-z
1/2+x,1/2+y,-z
-x,1/2+y,1/2+z
1/2+x,-y,1/2+z
loop_
_atom_site_type_symbol
_atom_site_label
_atom_site_fract_x
_atom_site_fract_y
_atom_site_fract_z
Si Si1 0.557690 0.380132 0.172639
Si Si2 0.919812 0.977597 0.423903
Si Si3 0.732025 0.502697 0.627437
Si Si4 0.287755 0.567630 0.965431
Si Si5 0.372062 0.648342 0.438665
Si Si6 0.841160 0.698350 0.332626
Si Si7 0.484976 0.639449 0.076742
O O1 0.550344 0.250000 0.250000
O O2 0.610467 0.526515 0.180440
O O3 0.504789 0.510771 0.151529
O O4 0.567062 0.222908 0.100264
O O5 0.874121 0.903536 0.365338
O O6 0.974285 0.844221 0.422890
O O7 0.894903 0.956865 0.507471
O O8 0.750000 0.750000 0.658678
O O9 0.754731 0.511021 0.539975
O O10 0.668391 0.463377 0.621216
O O11 0.750000 0.250000 0.655718
O O12 0.250000 0.750000 0.926531
O O13 0.305162 0.395078 0.901334
O O14 0.337526 0.691456 0.005619
O O15 0.424203 0.784308 0.414904
O O16 0.816107 0.750000 0.250000
O O17 0.500000 0.500000 0.000000
#
# Coordination Sequence:
#
# PCOD9389713 Si02
#       7
#     8   8   8   8   8   8   8
#     4  11  22  37  52  75 114 151 194 243 304 362
#     4  11  20  33  55  76 107 144 190 242 299 347
#     4   9  19  34  54  78 109 149 186 235 312 356
#     4   9  19  35  55  77 105 142 190 251 307 343
#     4  10  18  34  55  78 107 145 187 250 302 366
#     4  11  20  32  56  75  97 147 206 241 291 362
#     4  11  22  33  52  86 110 142 204 244 293 371
#
# _framework density 21.072182999999999
#
# number of rings (size 3 to 8) (size 9 to 14) (size 15 to 20)
#    0.000    2.000    4.286    2.143    0.000    1.143 
#    0.000    0.000    0.000   30.857    0.000    0.000 
#    0.000    0.000    0.000   61.714    0.000    1.143 
#
# Total GULP energy -311921.097967 kJ/mol
# GULP energy per Si atom -5570.019607 kJ/mol
# Density = 2.102422 g / cm^3
# Si number density = 21.072183 Si / 1000 Ang^3
#
#
#
# Elastic Constant Matrix: (Units=GPa)
#
#
# Indices 1 2 3 4 5 6 
#
# 1 108.6366 15.3720 9.6720 0.0000 0.0000 0.0000
# 2 15.3720 67.0257 3.2558 0.0000 0.0000 0.0000
# 3 9.6720 3.2558 43.8982 0.0000 0.0000 0.0000
# 4 0.0000 0.0000 0.0000 -50.5969 0.0000 0.0000
# 5 0.0000 0.0000 0.0000 0.0000 13.4968 0.0000
# 6 0.0000 0.0000 0.0000 0.0000 0.0000 -1.3432
#
#
#
# Elastic Compliance Matrix: (Units=1/GPa)
#
#
# Indices 1 2 3 4 5 6 
#
# 1 0.009681 -0.002124 -0.001976 0.000000 0.000000 0.000000
# 2 -0.002124 0.015440 -0.000677 0.000000 0.000000 0.000000
# 3 -0.001976 -0.000677 0.023265 0.000000 0.000000 0.000000
# 4 0.000000 0.000000 0.000000 -0.019764 0.000000 0.000000
# 5 0.000000 0.000000 0.000000 0.000000 0.074092 0.000000
# 6 0.000000 0.000000 0.000000 0.000000 0.000000 -0.744500
#
#
# Mechanical properties :
#
#
# Convention : Reuss Voigt Hill
#
# Bulk Modulus (GPa) = 25.75150 30.68444 28.21797
# Shear Modulus (GPa) = -8.07380 5.06206 -1.50587
#
# Velocity S-wave (km/s) = -1.95954 1.55160 -0.84627
# Velocity P-wave (km/s) = 2.66972 4.21938 3.53062
#
# Compressibility (1/GPa) = 0.03883268
#
# Stress axis : x y z
#
# Youngs Moduli (GPa) = 103.28987 64.76782 42.98214
#
# Poissons Ratio (x) = 0.13759 0.08491
# Poissons Ratio (y) = 0.21943 0.02910
# Poissons Ratio (z) = 0.20405 0.04385
#
# Static dielectric constant tensor:
#      x y z
#    x 1.766790 0.000000 0.000000 
#    y 0.000000 1.856430 0.000000 
#    z 0.000000 0.000000 1.738710 
# 
# From -- ./inp_files/5359.got.cif
#   From: 2010.05.17/outbox.cif.g08.bks.cpg/sg48_3_cif.got.tgz:5359.got - 2010.06.03 20:39:00.
