data_PCOD9389014
_publ_section_title
;
Structure prediction by ZEFSAII (Michael W. Deem and Ramdas Pophale) SiO2 
 PCOD9389014
Probable space group: P M M M
;
_chemical_formula_sum "Si O2"
_cell_formula_units_Z 44
_cell_length_a 7.377681
_cell_length_b 33.541521
_cell_length_c 9.461360
_cell_angle_alpha 90.000000
_cell_angle_beta 90.000000
_cell_angle_gamma 90.000000
_cell_volume 2341.295299
_symmetry_space_group_name_H-M "P M M M"
_symmetry_group_IT_number 47
_symmetry_cell_setting 'orthorhombic'
loop_
_space_group_symop_operation_xyz
x,y,z
-x,-y,z
x,-y,-z
-x,y,-z
-x,-y,-z
x,y,-z
-x,y,z
x,-y,z
loop_
_atom_site_type_symbol
_atom_site_label
_atom_site_fract_x
_atom_site_fract_y
_atom_site_fract_z
Si Si1 0.720655 0.000000 0.162506
Si Si2 0.278862 0.621128 0.162172
Si Si3 0.000000 0.855690 0.671436
Si Si4 0.284919 0.078583 0.332466
Si Si5 0.720780 0.544556 0.663468
Si Si6 0.714636 0.300241 0.332352
Si Si7 0.000000 0.234674 0.328422
O O1 0.775096 0.960098 0.245030
O O2 0.500000 0.000000 0.163705
O O3 0.779579 0.000000 0.000000
O O4 0.500000 0.620562 0.163938
O O5 0.217986 0.580854 0.239745
O O6 0.225857 0.660662 0.247278
O O7 0.221082 0.622526 0.000000
O O8 0.173835 0.882279 0.710550
O O9 0.000000 0.810516 0.725564
O O10 0.000000 0.853340 0.500000
O O11 0.253768 0.071445 0.500000
O O12 0.500000 0.084247 0.312754
O O13 0.773965 0.550545 0.500000
O O14 0.500000 0.544760 0.665573
O O15 0.777421 0.500000 0.707670
O O16 0.744571 0.307034 0.500000
O O17 0.500000 0.294451 0.311241
O O18 0.826408 0.261264 0.288815
O O19 0.000000 0.232418 0.500000
#
# Coordination Sequence:
#
# PCOD9389014 Si02
#       7
#     4   8   4   8   8   8   4
#     4   9  17  30  49  72  99 131 166 203 237 272
#     4   9  16  25  39  61  89 120 155 194 233 277
#     4   9  18  31  48  73 100 123 155 200 242 283
#     4   9  17  30  49  72  99 131 163 196 237 282
#     4   8  13  21  34  55  86 122 156 190 229 275
#     4   9  17  30  49  70  92 120 153 192 237 281
#     4   9  18  32  50  74  98 119 154 200 240 284
#
# _framework density 18.793016000000001
#
# number of rings (size 3 to 8) (size 9 to 14) (size 15 to 20)
#    0.000    3.182    0.000    1.364    0.000    4.727 
#    0.000    8.182    0.000    2.182    0.000    5.727 
#    0.000    5.091    0.000    0.545    0.000    0.000 
#
# Total GULP energy -245414.708691 kJ/mol
# GULP energy per Si atom -5577.607016 kJ/mol
# Density = 1.875024 g / cm^3
# Si number density = 18.793016 Si / 1000 Ang^3
#
#
#
# Elastic Constant Matrix: (Units=GPa)
#
#
# Indices 1 2 3 4 5 6 
#
# 1 76.4368 60.4091 35.6076 0.0000 0.0000 0.0000
# 2 60.4091 232.4952 92.0819 0.0000 0.0000 0.0000
# 3 35.6076 92.0819 71.5080 0.0000 0.0000 0.0000
# 4 0.0000 0.0000 0.0000 -2.5100 0.0000 0.0000
# 5 0.0000 0.0000 0.0000 0.0000 0.3594 0.0000
# 6 0.0000 0.0000 0.0000 0.0000 0.0000 53.8886
#
#
#
# Elastic Compliance Matrix: (Units=1/GPa)
#
#
# Indices 1 2 3 4 5 6 
#
# 1 0.017591 -0.002248 -0.005865 0.000000 0.000000 0.000000
# 2 -0.002248 0.009065 -0.010554 0.000000 0.000000 0.000000
# 3 -0.005865 -0.010554 0.030496 0.000000 0.000000 0.000000
# 4 0.000000 0.000000 0.000000 -0.398403 0.000000 0.000000
# 5 0.000000 0.000000 0.000000 0.000000 2.782556 0.000000
# 6 0.000000 0.000000 0.000000 0.000000 0.000000 0.018557
#
#
# Mechanical properties :
#
#
# Convention : Reuss Voigt Hill
#
# Bulk Modulus (GPa) = 50.45867 84.07080 67.26474
# Shear Modulus (GPa) = 1.99696 23.17036 12.58366
#
# Velocity S-wave (km/s) = 1.03195 3.51511 2.59046
# Velocity P-wave (km/s) = 5.32239 7.82987 6.69458
#
# Compressibility (1/GPa) = 0.01981820
#
# Stress axis : x y z
#
# Youngs Moduli (GPa) = 56.84589 110.31060 32.79137
#
# Poissons Ratio (x) = 0.24796 0.19233
# Poissons Ratio (y) = 0.12778 0.34609
# Poissons Ratio (z) = 0.33341 1.16424
#
# Static dielectric constant tensor:
#      x y z
#    x 1.708310 0.000000 0.000000 
#    y 0.000000 1.621850 0.000000 
#    z 0.000000 0.000000 1.616770 
# 
# From -- ./inp_files/2364.got.cif
#   From: 2010.05.17/outbox.cif.g08.bks.cpg/sg47_2_cif.got.tgz:2364.got - 2010.06.03 20:15:42.
