data_PCOD9389090
_publ_section_title
;
Structure prediction by ZEFSAII (Michael W. Deem and Ramdas Pophale) SiO2 
 PCOD9389090
Probable space group: P M M M
;
_chemical_formula_sum "Si O2"
_cell_formula_units_Z 36
_cell_length_a 7.395288
_cell_length_b 26.323821
_cell_length_c 8.234756
_cell_angle_alpha 90.000000
_cell_angle_beta 90.000000
_cell_angle_gamma 90.000000
_cell_volume 1603.078376
_symmetry_space_group_name_H-M "P M M M"
_symmetry_group_IT_number 47
_symmetry_cell_setting 'orthorhombic'
loop_
_space_group_symop_operation_xyz
x,y,z
-x,-y,z
x,-y,-z
-x,y,-z
-x,-y,-z
x,y,-z
-x,y,z
x,-y,z
loop_
_atom_site_type_symbol
_atom_site_label
_atom_site_fract_x
_atom_site_fract_y
_atom_site_fract_z
Si Si1 0.218300 0.945546 0.808173
Si Si2 0.279111 0.620451 0.819479
Si Si3 0.783267 0.837582 0.316334
Si Si4 0.720582 0.441423 0.500000
Si Si5 0.715107 0.727315 0.686479
O O1 0.286870 0.891296 0.747947
O O2 0.000000 0.945437 0.784652
O O3 0.283080 0.000000 0.739197
O O4 0.251401 0.946608 0.000000
O O5 0.500000 0.619327 0.819859
O O6 0.221636 0.587033 0.664911
O O7 0.220688 0.678508 0.784962
O O8 0.221537 0.604061 0.000000
O O9 0.715821 0.832546 0.500000
O O10 0.746091 0.782963 0.237332
O O11 0.000000 0.841875 0.317973
O O12 0.775935 0.500000 0.500000
O O13 0.500000 0.440006 0.500000
O O14 0.787068 0.726054 0.500000
O O15 0.500000 0.721605 0.674342
#
# Coordination Sequence:
#
# PCOD9389090 Si02
#       5
#     8   8   8   4   8
#     4   8  14  25  40  57  79 108 138 169 213 267
#     4   9  16  26  41  61  85 116 153 186 219 265
#     4   9  17  27  41  64  88 107 136 182 224 257
#     4   9  16  26  40  60  89 121 150 185 226 262
#     4   9  16  28  44  59  83 119 149 174 214 267
#
# _framework density 22.456793999999999
#
# number of rings (size 3 to 8) (size 9 to 14) (size 15 to 20)
#    0.000    3.222    1.111    0.667    0.000    1.778 
#    0.000    4.444    0.000    0.667    0.000    4.667 
#    0.000    1.778    0.000    2.000    0.000    2.222 
#
# Total GULP energy -200651.499715 kJ/mol
# GULP energy per Si atom -5573.652770 kJ/mol
# Density = 2.240568 g / cm^3
# Si number density = 22.456794 Si / 1000 Ang^3
#
#
#
# Elastic Constant Matrix: (Units=GPa)
#
#
# Indices 1 2 3 4 5 6 
#
# 1 72.5700 1.0917 6.1534 0.0000 0.0000 0.0000
# 2 1.0917 227.0780 99.1477 0.0000 0.0000 0.0000
# 3 6.1534 99.1477 115.4609 0.0000 0.0000 0.0000
# 4 0.0000 0.0000 0.0000********** 0.0000 0.0000
# 5 0.0000 0.0000 0.0000 0.0000 -10.0204 0.0000
# 6 0.0000 0.0000 0.0000 0.0000 0.0000 13.8420
#
#
#
# Elastic Compliance Matrix: (Units=1/GPa)
#
#
# Indices 1 2 3 4 5 6 
#
# 1 0.013866 0.000410 -0.001091 0.000000 0.000000 0.000000
# 2 0.000410 0.007057 -0.006082 0.000000 0.000000 0.000000
# 3 -0.001091 -0.006082 0.013942 0.000000 0.000000 0.000000
# 4 0.000000 0.000000 0.000000 -0.000035 0.000000 0.000000
# 5 0.000000 0.000000 0.000000 0.000000 -0.099796 0.000000
# 6 0.000000 0.000000 0.000000 0.000000 0.000000 0.072244
#
#
# Mechanical properties :
#
#
# Convention : Reuss Voigt Hill
#
# Bulk Modulus (GPa) = 46.86273 69.76606 58.31440
# Shear Modulus (GPa) = 179.10177 -5654.59198 -2737.74510
#
# Velocity S-wave (km/s) = 8.94019 -50.23399 -34.95373
# Velocity P-wave (km/s) = 11.29082 57.73621 40.03741
#
# Compressibility (1/GPa) = 0.02133892
#
# Stress axis : x y z
#
# Youngs Moduli (GPa) = 72.11818 141.69539 71.72657
#
# Poissons Ratio (x) = -0.05803 0.07823
# Poissons Ratio (y) = -0.02954 0.43625
# Poissons Ratio (z) = 0.07866 0.86180
#
# Static dielectric constant tensor:
#      x y z
#    x 1.896810 0.000000 0.000000 
#    y 0.000000 1.867630 0.000000 
#    z 0.000000 0.000000 1.809900 
# 
# From -- ./inp_files/3932.got.cif
#   From: 2010.05.17/outbox.cif.g08.bks.cpg/sg47_2_cif.got.tgz:3932.got - 2010.06.03 20:15:42.
