data_PCOD9389788
_publ_section_title
;
Structure prediction by ZEFSAII (Michael W. Deem and Ramdas Pophale) SiO2 
 PCOD9389788
Probable space group: P N N N
;
_chemical_formula_sum "Si O2"
_cell_formula_units_Z 56
_cell_length_a 19.255921
_cell_length_b 9.681038
_cell_length_c 16.342066
_cell_angle_alpha 90.000000
_cell_angle_beta 90.000000
_cell_angle_gamma 90.000000
_cell_volume 3046.443868
_symmetry_space_group_name_H-M "P N N N"
_symmetry_group_IT_number 48
_space_group.IT_coordinate_system_code '2'
_symmetry_cell_setting 'orthorhombic'
loop_
_space_group_symop_operation_xyz
x,y,z
1/2-x,1/2-y,z
x,1/2-y,1/2-z
1/2-x,y,1/2-z
-x,-y,-z
1/2+x,1/2+y,-z
-x,1/2+y,1/2+z
1/2+x,-y,1/2+z
loop_
_atom_site_type_symbol
_atom_site_label
_atom_site_fract_x
_atom_site_fract_y
_atom_site_fract_z
Si Si1 0.838142 0.514537 0.414738
Si Si2 0.925442 0.768315 0.163952
Si Si3 0.818795 0.561488 0.107530
Si Si4 0.171982 0.243863 0.050766
Si Si5 0.394436 0.714145 0.565560
Si Si6 0.039333 0.311897 0.158576
Si Si7 0.967690 0.090463 0.573552
O O1 0.898122 0.581970 0.359325
O O2 0.762407 0.543420 0.377142
O O3 0.838318 0.603671 0.498535
O O4 0.852016 0.354563 0.427932
O O5 0.961976 0.750000 0.250000
O O6 0.858423 0.667449 0.165974
O O7 0.976380 0.705034 0.097189
O O8 0.856298 0.414474 0.108262
O O9 0.828461 0.634452 0.018237
O O10 0.250000 0.250000 0.086772
O O11 0.109104 0.261091 0.113110
O O12 0.469592 0.732141 0.609128
O O13 0.404671 0.667725 0.470941
O O14 0.036092 0.250000 0.250000
O O15 0.042701 0.479820 0.146299
O O16 0.000000 0.000000 0.500000
#
# Coordination Sequence:
#
# PCOD9389788 Si02
#       7
#     8   8   8   8   8   8   8
#     4  10  22  33  57  89 110 148 199 246 273 346
#     4  11  22  36  56  83 119 154 193 239 295 349
#     4  10  18  38  58  78 115 157 195 228 294 346
#     4   9  19  38  60  83 108 142 195 239 285 352
#     4  11  20  36  60  84 115 150 198 240 285 349
#     4  11  22  35  59  82 114 152 189 236 298 353
#     4  10  19  39  61  77 111 160 188 234 298 349
#
# _framework density 18.382089000000001
#
# number of rings (size 3 to 8) (size 9 to 14) (size 15 to 20)
#    0.000    1.714    4.286    4.286    2.000    3.714 
#    0.000    0.000    0.000    2.571    0.000    0.000 
#    0.000    0.000    0.000    0.000    0.000    0.000 
#
# Total GULP energy -312214.936420 kJ/mol
# GULP energy per Si atom -5575.266722 kJ/mol
# Density = 1.834025 g / cm^3
# Si number density = 18.382089 Si / 1000 Ang^3
#
#
#
# Elastic Constant Matrix: (Units=GPa)
#
#
# Indices 1 2 3 4 5 6 
#
# 1 30.7801 -4.8073 -3.8153 0.0000 0.0000 0.0000
# 2 -4.8073 100.1503 3.9955 0.0000 0.0000 0.0000
# 3 -3.8153 3.9955 51.0273 0.0000 0.0000 0.0000
# 4 0.0000 0.0000 0.0000 21.1024 0.0000 0.0000
# 5 0.0000 0.0000 0.0000 0.0000 10.0570 0.0000
# 6 0.0000 0.0000 0.0000 0.0000 0.0000 25.4505
#
#
#
# Elastic Compliance Matrix: (Units=1/GPa)
#
#
# Indices 1 2 3 4 5 6 
#
# 1 0.033013 0.001491 0.002352 0.000000 0.000000 0.000000
# 2 0.001491 0.010084 -0.000678 0.000000 0.000000 0.000000
# 3 0.002352 -0.000678 0.019826 0.000000 0.000000 0.000000
# 4 0.000000 0.000000 0.000000 0.047388 0.000000 0.000000
# 5 0.000000 0.000000 0.000000 0.000000 0.099433 0.000000
# 6 0.000000 0.000000 0.000000 0.000000 0.000000 0.039292
#
#
# Mechanical properties :
#
#
# Convention : Reuss Voigt Hill
#
# Bulk Modulus (GPa) = 14.44014 19.18928 16.81471
# Shear Modulus (GPa) = 18.81179 23.76097 21.28638
#
# Velocity S-wave (km/s) = 3.20250 3.59920 3.40663
# Velocity P-wave (km/s) = 4.64190 5.26631 4.96394
#
# Compressibility (1/GPa) = 0.06925141
#
# Stress axis : x y z
#
# Youngs Moduli (GPa) = 30.29127 99.17085 50.43807
#
# Poissons Ratio (x) = -0.14785 -0.11861
# Poissons Ratio (y) = -0.04516 0.03420
# Poissons Ratio (z) = -0.07123 0.06725
#
# Static dielectric constant tensor:
#      x y z
#    x 1.654750 0.000000 0.000000 
#    y 0.000000 1.639180 0.000000 
#    z 0.000000 0.000000 1.665450 
# 
# From -- ./inp_files/32204.got.cif
#   From: 2010.05.17/outbox.cif.g08.bks.cpg/sg48_17_cif.got.tgz:32204.got - 2010.06.03 20:39:00.
