data_PCOD9389613
_publ_section_title
;
Structure prediction by ZEFSAII (Michael W. Deem and Ramdas Pophale) SiO2 
 PCOD9389613
Probable space group: P N N N
;
_chemical_formula_sum "Si O2"
_cell_formula_units_Z 40
_cell_length_a 16.010473
_cell_length_b 13.461986
_cell_length_c 7.898592
_cell_angle_alpha 90.000000
_cell_angle_beta 90.000000
_cell_angle_gamma 90.000000
_cell_volume 1702.405361
_symmetry_space_group_name_H-M "P N N N"
_symmetry_group_IT_number 48
_space_group.IT_coordinate_system_code '2'
_symmetry_cell_setting 'orthorhombic'
loop_
_space_group_symop_operation_xyz
x,y,z
1/2-x,1/2-y,z
x,1/2-y,1/2-z
1/2-x,y,1/2-z
-x,-y,-z
1/2+x,1/2+y,-z
-x,1/2+y,1/2+z
1/2+x,-y,1/2+z
loop_
_atom_site_type_symbol
_atom_site_label
_atom_site_fract_x
_atom_site_fract_y
_atom_site_fract_z
Si Si1 0.553178 0.899121 0.004943
Si Si2 0.468618 0.629094 0.833567
Si Si3 0.708958 0.152942 0.436560
Si Si4 0.247556 0.062077 0.444386
Si Si5 0.591185 0.898554 0.361919
O O1 0.555630 0.850955 0.190072
O O2 0.511976 0.844343 0.844627
O O3 0.650733 0.926128 0.987078
O O4 0.500000 0.000000 0.000000
O O5 0.386292 0.682068 0.900960
O O6 0.430666 0.515545 0.829030
O O7 0.539069 0.630257 0.974650
O O8 0.750000 0.250000 0.515449
O O9 0.750000 0.135066 0.250000
O O10 0.724373 0.053563 0.543220
O O11 0.250000 0.097576 0.250000
O O12 0.312400 0.112357 0.577436
#
# Coordination Sequence:
#
# PCOD9389613 Si02
#       5
#     8   8   8   8   8
#     4  10  18  28  49  74 100 138 176 220 283 333
#     4   9  17  31  48  71  95 135 184 222 267 323
#     4  10  21  36  50  68 105 152 188 221 264 331
#     4  11  19  31  50  76 112 141 182 231 286 337
#     4   9  17  29  47  73 101 133 171 230 280 327
#
# _framework density 23.496167
#
# number of rings (size 3 to 8) (size 9 to 14) (size 15 to 20)
#    0.000    2.200    2.000    4.200    2.800    0.400 
#    0.000    0.000    0.000    0.000    0.000    0.000 
#    0.000   27.200    0.000   62.400    0.000    0.600 
#
# Total GULP energy -223231.323382 kJ/mol
# GULP energy per Si atom -5580.783085 kJ/mol
# Density = 2.344269 g / cm^3
# Si number density = 23.496167 Si / 1000 Ang^3
#
#
#
# Elastic Constant Matrix: (Units=GPa)
#
#
# Indices 1 2 3 4 5 6 
#
# 1 197.7669 16.0008 44.6076 0.0000 0.0000 0.0000
# 2 16.0008 42.2492 14.1000 0.0000 0.0000 0.0000
# 3 44.6076 14.1000 135.2849 0.0000 0.0000 0.0000
# 4 0.0000 0.0000 0.0000 20.2841 0.0000 0.0000
# 5 0.0000 0.0000 0.0000 0.0000 34.8830 0.0000
# 6 0.0000 0.0000 0.0000 0.0000 0.0000 119.1278
#
#
#
# Elastic Compliance Matrix: (Units=1/GPa)
#
#
# Indices 1 2 3 4 5 6 
#
# 1 0.005559 -0.001547 -0.001672 0.000000 0.000000 0.000000
# 2 -0.001547 0.024953 -0.002090 0.000000 0.000000 0.000000
# 3 -0.001672 -0.002090 0.008161 0.000000 0.000000 0.000000
# 4 0.000000 0.000000 0.000000 0.049300 0.000000 0.000000
# 5 0.000000 0.000000 0.000000 0.000000 0.028667 0.000000
# 6 0.000000 0.000000 0.000000 0.000000 0.000000 0.008394
#
#
# Mechanical properties :
#
#
# Convention : Reuss Voigt Hill
#
# Bulk Modulus (GPa) = 35.64619 58.30195 46.97407
# Shear Modulus (GPa) = 34.48190 54.89848 44.69019
#
# Velocity S-wave (km/s) = 3.83502 4.83897 4.36595
# Velocity P-wave (km/s) = 5.90033 7.48920 6.74173
#
# Compressibility (1/GPa) = 0.02805349
#
# Stress axis : x y z
#
# Youngs Moduli (GPa) = 179.89850 40.07572 122.53598
#
# Poissons Ratio (x) = 0.06201 0.20483
# Poissons Ratio (y) = 0.27836 0.25616
# Poissons Ratio (z) = 0.30072 0.08378
#
# Static dielectric constant tensor:
#      x y z
#    x 1.824170 0.000000 0.000000 
#    y 0.000000 1.981590 0.000000 
#    z 0.000000 0.000000 1.914320 
# 
# From -- ./inp_files/12520.got.cif
#   From: 2010.05.17/outbox.cif.g08.bks.cpg/sg48_7_cif.got.tgz:12520.got - 2010.06.03 20:39:00.
