data_PCOD9389726
_publ_section_title
;
Structure prediction by ZEFSAII (Michael W. Deem and Ramdas Pophale) SiO2 
 PCOD9389726
Probable space group: P N N N
;
_chemical_formula_sum "Si O2"
_cell_formula_units_Z 32
_cell_length_a 15.795842
_cell_length_b 11.022488
_cell_length_c 8.525027
_cell_angle_alpha 90.000000
_cell_angle_beta 90.000000
_cell_angle_gamma 90.000000
_cell_volume 1484.288009
_symmetry_space_group_name_H-M "P N N N"
_symmetry_group_IT_number 48
_space_group.IT_coordinate_system_code '2'
_symmetry_cell_setting 'orthorhombic'
loop_
_space_group_symop_operation_xyz
x,y,z
1/2-x,1/2-y,z
x,1/2-y,1/2-z
1/2-x,y,1/2-z
-x,-y,-z
1/2+x,1/2+y,-z
-x,1/2+y,1/2+z
1/2+x,-y,1/2+z
loop_
_atom_site_type_symbol
_atom_site_label
_atom_site_fract_x
_atom_site_fract_y
_atom_site_fract_z
Si Si1 0.250000 0.750000 0.250000
Si Si2 0.750000 0.959688 0.250000
Si Si3 0.250000 0.250000 0.250000
Si Si4 0.953679 0.250000 0.250000
Si Si5 0.113651 0.250000 0.750000
Si Si6 0.909431 0.631050 0.575258
Si Si7 0.653300 0.381406 0.011624
O O1 0.308192 0.667802 0.144422
O O2 0.827405 0.867931 0.283911
O O3 0.724960 0.050506 0.387755
O O4 0.183808 0.326791 0.358998
O O5 0.890829 0.272327 0.394151
O O6 0.022707 0.354418 0.284571
O O7 0.071204 0.287677 0.582223
O O8 0.907795 0.492398 0.525678
#
# Coordination Sequence:
#
# PCOD9389726 Si02
#       7
#     2   4   2   4   4   8   8
#     4  12  26  40  64  88 108 156 214 244 280 346
#     4   9  18  37  64  88 114 149 190 249 298 332
#     4  10  18  34  60  88 116 152 202 246 288 344
#     4  11  24  40  58  85 126 160 188 237 304 358
#     4   9  18  35  64  93 110 141 202 247 286 351
#     4  10  21  38  60  87 119 156 195 243 295 347
#     4  11  22  40  58  84 118 153 196 245 290 346
#
# _framework density 21.559156999999999
#
# number of rings (size 3 to 8) (size 9 to 14) (size 15 to 20)
#    0.000    1.750    0.000    6.000    0.000    3.000 
#    0.000    6.250    0.000    0.000    0.000    0.000 
#    0.000    0.000    0.000    0.000    0.000    0.000 
#
# Total GULP energy -178211.389928 kJ/mol
# GULP energy per Si atom -5569.105935 kJ/mol
# Density = 2.151009 g / cm^3
# Si number density = 21.559157 Si / 1000 Ang^3
#
#
#
# Elastic Constant Matrix: (Units=GPa)
#
#
# Indices 1 2 3 4 5 6 
#
# 1 72.6813 33.0325 50.4952 0.0000 0.0000 0.0000
# 2 33.0325 83.9507 74.6706 0.0000 0.0000 0.0000
# 3 50.4952 74.6706 131.6286 0.0000 0.0000 0.0000
# 4 0.0000 0.0000 0.0000 70.7439 0.0000 0.0000
# 5 0.0000 0.0000 0.0000 0.0000 -107.8225 0.0000
# 6 0.0000 0.0000 0.0000 0.0000 0.0000 -6.7608
#
#
#
# Elastic Compliance Matrix: (Units=1/GPa)
#
#
# Indices 1 2 3 4 5 6 
#
# 1 0.018922 -0.001996 -0.006127 0.000000 0.000000 0.000000
# 2 -0.001996 0.024254 -0.012993 0.000000 0.000000 0.000000
# 3 -0.006127 -0.012993 0.017318 0.000000 0.000000 0.000000
# 4 0.000000 0.000000 0.000000 0.014135 0.000000 0.000000
# 5 0.000000 0.000000 0.000000 0.000000 -0.009275 0.000000
# 6 0.000000 0.000000 0.000000 0.000000 0.000000 -0.147912
#
#
# Mechanical properties :
#
#
# Convention : Reuss Voigt Hill
#
# Bulk Modulus (GPa) = 54.75598 67.18413 60.97006
# Shear Modulus (GPa) = -146.04114 -0.09705 -73.06909
#
# Velocity S-wave (km/s) = -8.23934 -0.21240 -5.82803
# Velocity P-wave (km/s) = 8.06614 5.58303 4.11657
#
# Compressibility (1/GPa) = 0.01826284
#
# Stress axis : x y z
#
# Youngs Moduli (GPa) = 52.84760 41.23034 57.74285
#
# Poissons Ratio (x) = 0.08230 0.35377
# Poissons Ratio (y) = 0.10549 0.75026
# Poissons Ratio (z) = 0.32378 0.53571
#
# Static dielectric constant tensor:
#      x y z
#    x 1.858710 0.000000 0.000000 
#    y 0.000000 1.814550 0.000000 
#    z 0.000000 0.000000 1.720240 
# 
# From -- ./inp_files/10381.got.cif
#   From: 2010.05.17/outbox.cif.g08.bks.cpg/sg48_6_cif.got.tgz:10381.got - 2010.06.03 20:39:00.
