data_PCOD9389641
_publ_section_title
;
Structure prediction by ZEFSAII (Michael W. Deem and Ramdas Pophale) SiO2 
 PCOD9389641
Probable space group: P N N N
;
_chemical_formula_sum "Si O2"
_cell_formula_units_Z 64
_cell_length_a 9.208970
_cell_length_b 17.624460
_cell_length_c 19.394666
_cell_angle_alpha 90.000000
_cell_angle_beta 90.000000
_cell_angle_gamma 90.000000
_cell_volume 3147.814869
_symmetry_space_group_name_H-M "P N N N"
_symmetry_group_IT_number 48
_space_group.IT_coordinate_system_code '2'
_symmetry_cell_setting 'orthorhombic'
loop_
_space_group_symop_operation_xyz
x,y,z
1/2-x,1/2-y,z
x,1/2-y,1/2-z
1/2-x,y,1/2-z
-x,-y,-z
1/2+x,1/2+y,-z
-x,1/2+y,1/2+z
1/2+x,-y,1/2+z
loop_
_atom_site_type_symbol
_atom_site_label
_atom_site_fract_x
_atom_site_fract_y
_atom_site_fract_z
Si Si1 0.870228 0.026487 0.695905
Si Si2 0.958136 0.779298 0.524306
Si Si3 0.873342 0.305303 0.364361
Si Si4 0.851034 0.504948 0.582976
Si Si5 0.799455 0.399740 0.020623
Si Si6 0.917053 0.037253 0.191304
Si Si7 0.320057 0.138551 0.519780
Si Si8 0.347088 0.038026 0.878170
O O1 0.750000 0.061828 0.750000
O O2 0.996912 0.066453 0.649928
O O3 0.773758 0.980438 0.640512
O O4 0.978694 0.981176 0.745377
O O5 0.809469 0.825197 0.525358
O O6 0.933621 0.707024 0.474232
O O7 0.004364 0.744762 0.598196
O O8 0.078006 0.839544 0.500658
O O9 0.750000 0.250000 0.336016
O O10 0.800135 0.353119 0.426638
O O11 0.917705 0.371765 0.313683
O O12 0.793717 0.431863 0.542318
O O13 0.875002 0.569088 0.525869
O O14 0.998119 0.501056 0.625647
O O15 0.864433 0.472624 0.062494
O O16 0.756148 0.003053 0.178783
O O17 0.244265 0.106167 0.587859
#
# Coordination Sequence:
#
# PCOD9389641 Si02
#       8
#     8   8   8   8   8   8   8   8
#     4  10  21  35  53  78 106 140 188 235 286 332
#     4  10  18  31  46  82 117 145 175 215 287 357
#     4   9  18  32  52  80 114 149 182 225 278 340
#     4  10  19  34  55  83 111 143 184 240 288 344
#     4   9  19  31  56  81 113 143 179 234 299 344
#     4  10  20  34  56  80 110 148 191 241 275 332
#     4  10  20  30  55  80 115 146 178 232 296 347
#     4  10  20  35  56  81 109 143 191 242 291 335
#
# _framework density 20.331564
#
# number of rings (size 3 to 8) (size 9 to 14) (size 15 to 20)
#    0.000    2.250    1.250    1.875    1.750    3.500 
#    0.000    0.000    0.000   21.000    0.000   14.875 
#    0.000    0.000    0.000    0.000    0.000    0.000 
#
# Total GULP energy -356557.347799 kJ/mol
# GULP energy per Si atom -5571.208559 kJ/mol
# Density = 2.028529 g / cm^3
# Si number density = 20.331564 Si / 1000 Ang^3
#
#
#
# Elastic Constant Matrix: (Units=GPa)
#
#
# Indices 1 2 3 4 5 6 
#
# 1 100.4410 26.6329 22.5172 0.0000 0.0000 0.0000
# 2 26.6329 69.9129 12.6362 0.0000 0.0000 0.0000
# 3 22.5172 12.6362 60.1071 0.0000 0.0000 0.0000
# 4 0.0000 0.0000 0.0000 1.2591 0.0000 0.0000
# 5 0.0000 0.0000 0.0000 0.0000 25.2778 0.0000
# 6 0.0000 0.0000 0.0000 0.0000 0.0000 36.3221
#
#
#
# Elastic Compliance Matrix: (Units=1/GPa)
#
#
# Indices 1 2 3 4 5 6 
#
# 1 0.011782 -0.003836 -0.003607 0.000000 0.000000 0.000000
# 2 -0.003836 0.016118 -0.001951 0.000000 0.000000 0.000000
# 3 -0.003607 -0.001951 0.018399 0.000000 0.000000 0.000000
# 4 0.000000 0.000000 0.000000 0.794247 0.000000 0.000000
# 5 0.000000 0.000000 0.000000 0.000000 0.039560 0.000000
# 6 0.000000 0.000000 0.000000 0.000000 0.000000 0.027531
#
#
# Mechanical properties :
#
#
# Convention : Reuss Voigt Hill
#
# Bulk Modulus (GPa) = 36.35234 39.33707 37.84470
# Shear Modulus (GPa) = 5.34418 23.81676 14.58047
#
# Velocity S-wave (km/s) = 1.62303 3.42631 2.68084
# Velocity P-wave (km/s) = 4.62935 5.91968 5.31382
#
# Compressibility (1/GPa) = 0.02750855
#
# Stress axis : x y z
#
# Youngs Moduli (GPa) = 84.87512 62.04403 54.35222
#
# Poissons Ratio (x) = 0.23802 0.19606
# Poissons Ratio (y) = 0.32561 0.10605
# Poissons Ratio (z) = 0.30617 0.12106
#
# Static dielectric constant tensor:
#      x y z
#    x 1.805110 0.000000 0.000000 
#    y 0.000000 1.733920 0.000000 
#    z 0.000000 0.000000 1.771050 
# 
# From -- ./inp_files/33712.got.cif
#   From: 2010.05.17/outbox.cif.g08.bks.cpg/sg48_17_cif.got.tgz:33712.got - 2010.06.03 20:39:00.
