data_PCOD9389536
_publ_section_title
;
Structure prediction by ZEFSAII (Michael W. Deem and Ramdas Pophale) SiO2 
 PCOD9389536
Probable space group: P N N N
;
_chemical_formula_sum "Si O2"
_cell_formula_units_Z 64
_cell_length_a 22.996068
_cell_length_b 16.358995
_cell_length_c 9.151034
_cell_angle_alpha 90.000000
_cell_angle_beta 90.000000
_cell_angle_gamma 90.000000
_cell_volume 3442.550920
_symmetry_space_group_name_H-M "P N N N"
_symmetry_group_IT_number 48
_space_group.IT_coordinate_system_code '2'
_symmetry_cell_setting 'orthorhombic'
loop_
_space_group_symop_operation_xyz
x,y,z
1/2-x,1/2-y,z
x,1/2-y,1/2-z
1/2-x,y,1/2-z
-x,-y,-z
1/2+x,1/2+y,-z
-x,1/2+y,1/2+z
1/2+x,-y,1/2+z
loop_
_atom_site_type_symbol
_atom_site_label
_atom_site_fract_x
_atom_site_fract_y
_atom_site_fract_z
Si Si1 0.187426 0.432245 0.263947
Si Si2 0.904159 0.958196 0.184002
Si Si3 0.922872 0.019449 0.853670
Si Si4 0.452177 0.282747 0.409957
Si Si5 0.672358 0.823094 0.017307
Si Si6 0.501905 0.171921 0.649445
Si Si7 0.016755 0.945522 0.640333
Si Si8 0.297893 0.136797 0.585598
O O1 0.250000 0.474443 0.250000
O O2 0.133854 0.494475 0.260898
O O3 0.184677 0.359263 0.145763
O O4 0.186306 0.392964 0.422744
O O5 0.950005 0.885153 0.208130
O O6 0.841051 0.917217 0.184092
O O7 0.919696 0.027239 0.302967
O O8 0.915458 0.992472 0.021222
O O9 0.942318 0.113462 0.854411
O O10 0.974556 0.970167 0.774708
O O11 0.432552 0.250000 0.250000
O O12 0.398340 0.321558 0.502580
O O13 0.479323 0.206508 0.495701
O O14 0.501426 0.352122 0.393067
O O15 0.683800 0.731562 0.076034
O O16 0.727931 0.866976 0.097932
O O17 0.511170 0.250000 0.750000
O O18 0.000000 0.000000 0.500000
#
# Coordination Sequence:
#
# PCOD9389536 Si02
#       8
#     8   8   8   8   8   8   8   8
#     4   9  16  27  48  78 104 134 170 227 273 318
#     4  10  19  36  55  74 102 144 188 218 265 330
#     4  10  19  35  54  76 101 141 178 224 267 330
#     4  12  20  31  53  80 105 140 187 230 270 326
#     4  10  17  26  45  79 109 137 177 223 268 315
#     4  11  22  34  49  71 107 143 176 218 279 332
#     4  11  22  34  50  74 107 145 181 226 277 325
#     4   9  17  28  47  74 108 142 176 221 266 319
#
# _framework density 18.590864
#
# number of rings (size 3 to 8) (size 9 to 14) (size 15 to 20)
#    0.000    1.750    2.500    5.625    0.000    2.500 
#    0.000    0.000    0.000    4.125    0.000    0.000 
#    0.000    0.000    0.000    2.500    0.000    0.000 
#
# Total GULP energy -356499.944290 kJ/mol
# GULP energy per Si atom -5570.311630 kJ/mol
# Density = 1.854855 g / cm^3
# Si number density = 18.590864 Si / 1000 Ang^3
#
#
#
# Elastic Constant Matrix: (Units=GPa)
#
#
# Indices 1 2 3 4 5 6 
#
# 1 90.7643 37.2646 41.7644 0.0000 0.0000 0.0000
# 2 37.2646 71.4879 22.1152 0.0000 0.0000 0.0000
# 3 41.7644 22.1152 65.8922 0.0000 0.0000 0.0000
# 4 0.0000 0.0000 0.0000 35.1870 0.0000 0.0000
# 5 0.0000 0.0000 0.0000 0.0000 31.4893 0.0000
# 6 0.0000 0.0000 0.0000 0.0000 0.0000 198.3946
#
#
#
# Elastic Compliance Matrix: (Units=1/GPa)
#
#
# Indices 1 2 3 4 5 6 
#
# 1 0.017903 -0.006496 -0.009167 0.000000 0.000000 0.000000
# 2 -0.006496 0.017966 -0.001912 0.000000 0.000000 0.000000
# 3 -0.009167 -0.001912 0.021628 0.000000 0.000000 0.000000
# 4 0.000000 0.000000 0.000000 0.028420 0.000000 0.000000
# 5 0.000000 0.000000 0.000000 0.000000 0.031757 0.000000
# 6 0.000000 0.000000 0.000000 0.000000 0.000000 0.005040
#
#
# Mechanical properties :
#
#
# Convention : Reuss Voigt Hill
#
# Bulk Modulus (GPa) = 44.75046 47.82587 46.28817
# Shear Modulus (GPa) = 30.24531 61.48085 45.86308
#
# Velocity S-wave (km/s) = 4.03785 5.75693 4.97225
# Velocity P-wave (km/s) = 6.77218 8.36487 7.61030
#
# Compressibility (1/GPa) = 0.02234614
#
# Stress axis : x y z
#
# Youngs Moduli (GPa) = 55.85699 55.65948 46.23540
#
# Poissons Ratio (x) = 0.36159 0.42384
# Poissons Ratio (y) = 0.36287 0.08842
# Poissons Ratio (z) = 0.51204 0.10644
#
# Static dielectric constant tensor:
#      x y z
#    x 1.697530 0.000000 0.000000 
#    y 0.000000 1.635580 0.000000 
#    z 0.000000 0.000000 1.710650 
# 
# From -- ./inp_files/16045.got.cif
#   From: 2010.05.17/outbox.cif.g08.bks.cpg/sg48_9_cif.got.tgz:16045.got - 2010.06.03 20:39:00.
