data_PCOD9389837
_publ_section_title
;
Structure prediction by ZEFSAII (Michael W. Deem and Ramdas Pophale) SiO2 
 PCOD9389837
Probable space group: P N N N
;
_chemical_formula_sum "Si O2"
_cell_formula_units_Z 64
_cell_length_a 24.398293
_cell_length_b 5.545721
_cell_length_c 27.484614
_cell_angle_alpha 90.000000
_cell_angle_beta 90.000000
_cell_angle_gamma 90.000000
_cell_volume 3718.836641
_symmetry_space_group_name_H-M "P N N N"
_symmetry_group_IT_number 48
_space_group.IT_coordinate_system_code '2'
_symmetry_cell_setting 'orthorhombic'
loop_
_space_group_symop_operation_xyz
x,y,z
1/2-x,1/2-y,z
x,1/2-y,1/2-z
1/2-x,y,1/2-z
-x,-y,-z
1/2+x,1/2+y,-z
-x,1/2+y,1/2+z
1/2+x,-y,1/2+z
loop_
_atom_site_type_symbol
_atom_site_label
_atom_site_fract_x
_atom_site_fract_y
_atom_site_fract_z
Si Si1 0.024901 0.507985 0.873139
Si Si2 0.811689 0.735310 0.924928
Si Si3 0.687983 0.263449 0.986572
Si Si4 0.420849 0.167293 0.376351
Si Si5 0.442436 0.997493 0.273831
Si Si6 0.512101 0.143600 0.555149
Si Si7 0.427667 0.738339 0.968947
Si Si8 0.432721 0.999843 0.764584
O O1 0.966132 0.631216 0.865137
O O2 0.011664 0.250312 0.895169
O O3 0.055166 0.504212 0.822029
O O4 0.055236 0.639090 0.918390
O O5 0.750000 0.750000 0.904583
O O6 0.860229 0.741078 0.886094
O O7 0.817256 0.482894 0.954584
O O8 0.816448 0.982546 0.957114
O O9 0.750000 0.250000 0.007242
O O10 0.636821 0.263011 0.023249
O O11 0.424926 0.997007 0.329712
O O12 0.442283 0.041550 0.425687
O O13 0.423161 0.250000 0.250000
O O14 0.422662 0.750000 0.250000
O O15 0.508776 0.999114 0.265030
O O16 0.542896 0.330458 0.519127
O O17 0.458524 0.020244 0.531910
O O18 0.404762 0.250000 0.750000
O O19 0.404637 0.750000 0.750000
#
# Coordination Sequence:
#
# PCOD9389837 Si02
#       8
#     8   8   8   8   8   8   8   8
#     4  11  21  31  52  78 108 149 173 218 270 328
#     4  10  22  37  56  78 101 138 190 232 266 313
#     4  10  21  39  57  75 107 149 185 223 261 313
#     4  11  20  32  54  76 104 144 181 226 275 323
#     4  10  19  31  48  73  98 131 177 217 265 322
#     4  10  20  32  48  76 115 144 173 213 272 329
#     4  10  21  32  49  80 112 144 178 215 267 325
#     4  10  19  34  49  70 103 137 178 213 255 317
#
# _framework density 17.209682000000001
#
# number of rings (size 3 to 8) (size 9 to 14) (size 15 to 20)
#    0.000    1.750    3.750    2.625    3.500    0.000 
#    0.000    0.000    0.000    0.375    0.000    1.750 
#    0.000    0.500    0.750    0.000    0.000    0.000 
#
# Total GULP energy -356317.609098 kJ/mol
# GULP energy per Si atom -5567.462642 kJ/mol
# Density = 1.717051 g / cm^3
# Si number density = 17.209682 Si / 1000 Ang^3
#
#
#
# Elastic Constant Matrix: (Units=GPa)
#
#
# Indices 1 2 3 4 5 6 
#
# 1 89.1096 17.1037 28.8442 0.0000 0.0000 0.0000
# 2 17.1037 91.7397 17.8509 0.0000 0.0000 0.0000
# 3 28.8442 17.8509 77.6660 0.0000 0.0000 0.0000
# 4 0.0000 0.0000 0.0000 27.3956 0.0000 0.0000
# 5 0.0000 0.0000 0.0000 0.0000 -1.0824 0.0000
# 6 0.0000 0.0000 0.0000 0.0000 0.0000 6.6423
#
#
#
# Elastic Compliance Matrix: (Units=1/GPa)
#
#
# Indices 1 2 3 4 5 6 
#
# 1 0.012963 -0.001549 -0.004458 0.000000 0.000000 0.000000
# 2 -0.001549 0.011596 -0.002090 0.000000 0.000000 0.000000
# 3 -0.004458 -0.002090 0.015012 0.000000 0.000000 0.000000
# 4 0.000000 0.000000 0.000000 0.036502 0.000000 0.000000
# 5 0.000000 0.000000 0.000000 0.000000 -0.923848 0.000000
# 6 0.000000 0.000000 0.000000 0.000000 0.000000 0.150551
#
#
# Mechanical properties :
#
#
# Convention : Reuss Voigt Hill
#
# Bulk Modulus (GPa) = 42.77930 42.90144 42.84037
# Shear Modulus (GPa) = -7.42679 19.57219 6.07270
#
# Velocity S-wave (km/s) = -2.07963 3.37601 1.88051
# Velocity P-wave (km/s) = 4.37552 6.33872 5.44631
#
# Compressibility (1/GPa) = 0.02337579
#
# Stress axis : x y z
#
# Youngs Moduli (GPa) = 77.14539 86.23744 66.61499
#
# Poissons Ratio (x) = 0.13360 0.29697
# Poissons Ratio (y) = 0.11952 0.13921
# Poissons Ratio (z) = 0.34392 0.18022
#
# Static dielectric constant tensor:
#      x y z
#    x 1.561030 0.000000 0.000000 
#    y 0.000000 1.720640 0.000000 
#    z 0.000000 0.000000 1.697870 
# 
# From -- ./inp_files/36830.got.cif
#   From: 2010.05.17/outbox.cif.g08.bks.cpg/sg48_19_cif.got.tgz:36830.got - 2010.06.03 20:39:00.
