data_PCOD9389816
_publ_section_title
;
Structure prediction by ZEFSAII (Michael W. Deem and Ramdas Pophale) SiO2 
 PCOD9389816
Probable space group: P N N N
;
_chemical_formula_sum "Si O2"
_cell_formula_units_Z 58
_cell_length_a 7.397049
_cell_length_b 29.525187
_cell_length_c 15.034633
_cell_angle_alpha 90.000000
_cell_angle_beta 90.000000
_cell_angle_gamma 90.000000
_cell_volume 3283.552646
_symmetry_space_group_name_H-M "P N N N"
_symmetry_group_IT_number 48
_space_group.IT_coordinate_system_code '2'
_symmetry_cell_setting 'orthorhombic'
loop_
_space_group_symop_operation_xyz
x,y,z
1/2-x,1/2-y,z
x,1/2-y,1/2-z
1/2-x,y,1/2-z
-x,-y,-z
1/2+x,1/2+y,-z
-x,1/2+y,1/2+z
1/2+x,-y,1/2+z
loop_
_atom_site_type_symbol
_atom_site_label
_atom_site_fract_x
_atom_site_fract_y
_atom_site_fract_z
Si Si1 0.986908 0.376928 0.569145
Si Si2 0.957787 0.975778 0.741694
Si Si3 0.250000 0.750000 0.250000
Si Si4 0.023633 0.043858 0.061522
Si Si5 0.578573 0.869386 0.066335
Si Si6 0.465921 0.079184 0.756444
Si Si7 0.193310 0.702292 0.076579
Si Si8 0.955720 0.953772 0.552744
O O1 0.947130 0.412241 0.489343
O O2 0.203288 0.366530 0.564636
O O3 0.961342 0.402696 0.663013
O O4 0.859424 0.333015 0.570371
O O5 0.750000 0.960569 0.750000
O O6 0.042185 0.965416 0.838026
O O7 0.036859 0.954673 0.651702
O O8 0.956387 0.029731 0.724602
O O9 0.151451 0.717434 0.179253
O O10 0.239813 0.048641 0.063908
O O11 0.000000 0.000000 0.000000
O O12 0.513471 0.884937 0.164525
O O13 0.482380 0.822889 0.041160
O O14 0.504194 0.909540 0.004277
O O15 0.250000 0.072085 0.750000
O O16 0.250000 0.750000 0.033301
O O17 0.000000 0.000000 0.500000
#
# Coordination Sequence:
#
# PCOD9389816 Si02
#       8
#     8   8   2   8   8   8   8   8
#     4  10  21  35  53  76 108 146 184 221 270 327
#     4  10  20  31  47  73 107 149 188 226 260 315
#     4   8  20  40  54  88 112 128 192 228 274 352
#     4  10  20  32  48  75 107 145 187 225 266 323
#     4  10  21  35  53  76 108 146 184 221 270 327
#     4  10  19  29  44  74 107 143 185 217 261 320
#     4  10  22  38  56  79 104 142 183 228 279 328
#     4  10  20  32  48  75 107 145 187 225 266 323
#
# _framework density 17.663795
#
# number of rings (size 3 to 8) (size 9 to 14) (size 15 to 20)
#    0.414    1.655    2.759    0.828    3.862    0.552 
#    0.000    0.690    0.000    0.000    0.000    1.931 
#    0.000    5.517    0.000    0.000    0.000    0.000 
#
# Total GULP energy -323189.444243 kJ/mol
# GULP energy per Si atom -5572.231797 kJ/mol
# Density = 1.762359 g / cm^3
# Si number density = 17.663795 Si / 1000 Ang^3
#
#
#
# Elastic Constant Matrix: (Units=GPa)
#
#
# Indices 1 2 3 4 5 6 
#
# 1 52.0883 14.2278 5.8536 0.0000 0.0000 0.0000
# 2 14.2278 87.3269 26.1619 0.0000 0.0000 0.0000
# 3 5.8536 26.1619 100.1992 0.0000 0.0000 0.0000
# 4 0.0000 0.0000 0.0000 27.4854 0.0000 0.0000
# 5 0.0000 0.0000 0.0000 0.0000 5.7077 0.0000
# 6 0.0000 0.0000 0.0000 0.0000 0.0000 19.5307
#
#
#
# Elastic Compliance Matrix: (Units=1/GPa)
#
#
# Indices 1 2 3 4 5 6 
#
# 1 0.020103 -0.003172 -0.000346 0.000000 0.000000 0.000000
# 2 -0.003172 0.012923 -0.003189 0.000000 0.000000 0.000000
# 3 -0.000346 -0.003189 0.010833 0.000000 0.000000 0.000000
# 4 0.000000 0.000000 0.000000 0.036383 0.000000 0.000000
# 5 0.000000 0.000000 0.000000 0.000000 0.175202 0.000000
# 6 0.000000 0.000000 0.000000 0.000000 0.000000 0.051201
#
#
# Mechanical properties :
#
#
# Convention : Reuss Voigt Hill
#
# Bulk Modulus (GPa) = 32.84516 36.90012 34.87264
# Shear Modulus (GPa) = 15.14192 23.43617 19.28905
#
# Velocity S-wave (km/s) = 2.93102 3.64647 3.30814
# Velocity P-wave (km/s) = 5.48539 6.21808 5.86319
#
# Compressibility (1/GPa) = 0.03044589
#
# Stress axis : x y z
#
# Youngs Moduli (GPa) = 49.74276 77.37942 92.31064
#
# Poissons Ratio (x) = 0.24542 0.03197
# Poissons Ratio (y) = 0.15776 0.29438
# Poissons Ratio (z) = 0.01723 0.24676
#
# Static dielectric constant tensor:
#      x y z
#    x 1.490130 0.000000 0.000000 
#    y 0.000000 1.579700 0.000000 
#    z 0.000000 0.000000 1.638770 
# 
# From -- ./inp_files/25727.got.cif
#   From: 2010.05.17/outbox.cif.g08.bks.cpg/sg48_13_cif.got.tgz:25727.got - 2010.06.03 20:39:00.
