data_PCOD9389398
_publ_section_title
;
Structure prediction by ZEFSAII (Michael W. Deem and Ramdas Pophale) SiO2 
 PCOD9389398
Probable space group: P M M M
;
_chemical_formula_sum "Si O2"
_cell_formula_units_Z 56
_cell_length_a 15.000000
_cell_length_b 9.000000
_cell_length_c 21.000000
_cell_angle_alpha 90.000000
_cell_angle_beta 90.000000
_cell_angle_gamma 90.000000
_cell_volume 2835.000000
_symmetry_space_group_name_H-M "P M M M"
_symmetry_group_IT_number 47
_symmetry_cell_setting 'orthorhombic'
loop_
_space_group_symop_operation_xyz
x,y,z
-x,-y,z
x,-y,-z
-x,y,-z
-x,-y,-z
x,y,-z
-x,y,z
x,-y,z
loop_
_atom_site_type_symbol
_atom_site_label
_atom_site_fract_x
_atom_site_fract_y
_atom_site_fract_z
Si Si1 0.602388 0.178599 0.383372
Si Si2 0.897416 0.318765 0.681365
Si Si3 0.772614 0.678076 0.431255
Si Si4 0.392334 0.167461 0.760325
Si Si5 0.223644 0.823938 0.930906
Si Si6 0.895019 0.321882 0.823490
Si Si7 0.603486 0.324779 0.888482
O O1 0.500000 0.226342 0.393385
O O2 0.674622 0.254076 0.427147
O O3 0.631747 0.213941 0.310755
O O4 0.604106 0.000000 0.389406
O O5 0.896735 0.500000 0.680789
O O6 0.833275 0.264831 0.626072
O O7 0.869049 0.272992 0.752171
O O8 0.000000 0.274070 0.671394
O O9 0.813304 0.712075 0.500000
O O10 0.765652 0.500000 0.425511
O O11 0.500000 0.156664 0.758456
O O12 0.372243 0.282763 0.815599
O O13 0.358714 0.000000 0.774537
O O14 0.165795 0.752035 0.875847
O O15 0.324215 0.763545 0.928095
O O16 0.225144 0.000000 0.923681
O O17 0.184788 0.785836 0.000000
O O18 0.885588 0.500000 0.827035
O O19 0.000000 0.287891 0.832044
O O20 0.500000 0.282107 0.899562
O O21 0.611245 0.500000 0.899083
#
# Coordination Sequence:
#
# PCOD9389398 Si02
#       7
#     8   8   8   8   8   8   8
#     4   9  19  35  53  74 105 148 193 233 276 331
#     4   8  16  34  59  85 112 142 179 225 278 336
#     4  10  21  34  51  81 116 148 186 233 282 329
#     4   8  15  30  51  75 103 136 179 230 281 331
#     4  11  25  41  57  82 117 156 194 233 280 335
#     4   9  19  38  64  90 114 143 184 237 291 341
#     4  10  21  36  56  83 114 149 190 236 284 335
#
# _framework density 19.753086
#
# number of rings (size 3 to 8) (size 9 to 14) (size 15 to 20)
#    0.000    2.714    0.000    2.571    2.000    4.571 
#    0.000    7.143    0.000    1.286    0.000    1.000 
#    0.000    0.000    0.000    0.000    0.000    0.000 
#
# Total GULP energy -312304.912362 kJ/mol
# GULP energy per Si atom -5576.873435 kJ/mol
# Density = 1.970813 g / cm^3
# Si number density = 19.753086 Si / 1000 Ang^3
#
#
#
# Elastic Constant Matrix: (Units=GPa)
#
#
# Indices 1 2 3 4 5 6 
#
# 1 85.1499 29.7854 93.1206 0.0000 0.0000 0.0000
# 2 29.7854 3.1990 37.2694 0.0000 0.0000 0.0000
# 3 93.1206 37.2694 141.8674 0.0000 0.0000 0.0000
# 4 0.0000 0.0000 0.0000 22.4179 0.0000 0.0000
# 5 0.0000 0.0000 0.0000 0.0000********** 0.0000
# 6 0.0000 0.0000 0.0000 0.0000 0.0000 3.5909
#
#
#
# Elastic Compliance Matrix: (Units=1/GPa)
#
#
# Indices 1 2 3 4 5 6 
#
# 1 0.035307 0.028505 -0.030664 0.000000 0.000000 0.000000
# 2 0.028505 -0.128686 0.015096 0.000000 0.000000 0.000000
# 3 -0.030664 0.015096 0.023210 0.000000 0.000000 0.000000
# 4 0.000000 0.000000 0.000000 0.044607 0.000000 0.000000
# 5 0.000000 0.000000 0.000000 0.000000 -0.000017 0.000000
# 6 0.000000 0.000000 0.000000 0.000000 0.000000 0.278482
#
#
# Mechanical properties :
#
#
# Convention : Reuss Voigt Hill
#
# Bulk Modulus (GPa) = -22.57657 61.17415 19.29879
# Shear Modulus (GPa) = 23.55576 -11560.13224 -5768.28824
#
# Velocity S-wave (km/s) = 3.45702 -76.58343 -54.09746
# Velocity P-wave (km/s) = 2.11671 88.25527 62.38795
#
# Compressibility (1/GPa) = -0.04429371
#
# Stress axis : x y z
#
# Youngs Moduli (GPa) = 28.32317 -7.77083 43.08409
#
# Poissons Ratio (x) = 0.22151 1.32112
# Poissons Ratio (y) = -0.80737 -0.65039
# Poissons Ratio (z) = 0.86849 0.11731
#
# Static dielectric constant tensor:
#      x y z
#    x 1.679790 0.000000 0.000000 
#    y 0.000000 1.657850 0.000000 
#    z 0.000000 0.000000 1.742020 
# 
# From -- ./inp_files/29711.got.cif
#   From: 2010.05.17/outbox.ucp.g08.bks.cvg/sg47_15_cif.got.tgz:29711.got - 2010.06.11 16:36:43.
