data_PCOD9389891
_publ_section_title
;
Structure prediction by ZEFSAII (Michael W. Deem and Ramdas Pophale) SiO2 
 PCOD9389891
Probable space group: P N N N
;
_chemical_formula_sum "Si O2"
_cell_formula_units_Z 64
_cell_length_a 8.600714
_cell_length_b 20.970457
_cell_length_c 18.309936
_cell_angle_alpha 90.000000
_cell_angle_beta 90.000000
_cell_angle_gamma 90.000000
_cell_volume 3302.396593
_symmetry_space_group_name_H-M "P N N N"
_symmetry_group_IT_number 48
_space_group.IT_coordinate_system_code '2'
_symmetry_cell_setting 'orthorhombic'
loop_
_space_group_symop_operation_xyz
x,y,z
1/2-x,1/2-y,z
x,1/2-y,1/2-z
1/2-x,y,1/2-z
-x,-y,-z
1/2+x,1/2+y,-z
-x,1/2+y,1/2+z
1/2+x,-y,1/2+z
loop_
_atom_site_type_symbol
_atom_site_label
_atom_site_fract_x
_atom_site_fract_y
_atom_site_fract_z
Si Si1 0.080379 0.904282 0.962907
Si Si2 0.128466 0.189581 0.416025
Si Si3 0.040204 0.016821 0.615090
Si Si4 0.090590 0.527889 0.274680
Si Si5 0.078444 0.601932 0.992942
Si Si6 0.615072 0.551621 0.090614
Si Si7 0.118298 0.112011 0.168247
Si Si8 0.415626 0.679709 0.719008
O O1 0.244842 0.875757 0.984968
O O2 0.018346 0.873805 0.889380
O O3 0.098720 0.978974 0.940444
O O4 0.954401 0.903735 0.027538
O O5 0.250000 0.250000 0.424003
O O6 0.235131 0.139581 0.372916
O O7 0.053711 0.156044 0.487224
O O8 0.972651 0.192405 0.364276
O O9 0.203644 0.053417 0.607182
O O10 0.925339 0.059544 0.566371
O O11 0.049374 0.948581 0.573922
O O12 0.998820 0.011428 0.699842
O O13 0.250000 0.561516 0.250000
O O14 0.139404 0.462241 0.315055
O O15 0.982586 0.560325 0.335173
O O16 0.057508 0.143377 0.241898
O O17 0.414180 0.750000 0.750000
O O18 0.250000 0.650790 0.750000
#
# Coordination Sequence:
#
# PCOD9389891 Si02
#       8
#     8   8   8   8   8   8   8   8
#     4   9  18  33  50  73 100 137 178 219 269 318
#     4  12  23  37  53  74 105 146 189 231 272 322
#     4  10  19  33  51  75 102 137 179 222 271 326
#     4  11  20  30  48  75 105 138 174 216 271 329
#     4  10  20  34  53  73 101 138 181 227 269 321
#     4   9  18  31  49  72 104 135 173 221 267 323
#     4  11  21  33  51  71 101 140 180 220 263 321
#     4  11  22  35  49  68  97 136 179 226 264 303
#
# _framework density 19.379866
#
# number of rings (size 3 to 8) (size 9 to 14) (size 15 to 20)
#    0.000    1.625    1.250    5.250    0.000    6.000 
#    0.000    0.000    0.000    0.000    0.000    0.000 
#    0.000    8.000    0.000   12.125    0.000    0.500 
#
# Total GULP energy -356467.685560 kJ/mol
# GULP energy per Si atom -5569.807587 kJ/mol
# Density = 1.933576 g / cm^3
# Si number density = 19.379866 Si / 1000 Ang^3
#
#
#
# Elastic Constant Matrix: (Units=GPa)
#
#
# Indices 1 2 3 4 5 6 
#
# 1 88.8802 8.9514 6.8580 0.0000 0.0000 0.0000
# 2 8.9514 26.5256 11.4413 0.0000 0.0000 0.0000
# 3 6.8580 11.4413 71.2060 0.0000 0.0000 0.0000
# 4 0.0000 0.0000 0.0000 15.9527 0.0000 0.0000
# 5 0.0000 0.0000 0.0000 0.0000 30.1237 0.0000
# 6 0.0000 0.0000 0.0000 0.0000 0.0000 15.0060
#
#
#
# Elastic Compliance Matrix: (Units=1/GPa)
#
#
# Indices 1 2 3 4 5 6 
#
# 1 0.011665 -0.003709 -0.000528 0.000000 0.000000 0.000000
# 2 -0.003709 0.041686 -0.006341 0.000000 0.000000 0.000000
# 3 -0.000528 -0.006341 0.015113 0.000000 0.000000 0.000000
# 4 0.000000 0.000000 0.000000 0.062685 0.000000 0.000000
# 5 0.000000 0.000000 0.000000 0.000000 0.033196 0.000000
# 6 0.000000 0.000000 0.000000 0.000000 0.000000 0.066640
#
#
# Mechanical properties :
#
#
# Convention : Reuss Voigt Hill
#
# Bulk Modulus (GPa) = 21.13719 26.79034 23.96377
# Shear Modulus (GPa) = 18.66289 22.84057 20.75173
#
# Velocity S-wave (km/s) = 3.10660 3.43676 3.27584
# Velocity P-wave (km/s) = 4.87836 5.44079 5.16723
#
# Compressibility (1/GPa) = 0.04730998
#
# Stress axis : x y z
#
# Youngs Moduli (GPa) = 85.72397 23.98879 66.16644
#
# Poissons Ratio (x) = 0.08898 0.03491
# Poissons Ratio (y) = 0.31796 0.41955
# Poissons Ratio (z) = 0.04522 0.15211
#
# Static dielectric constant tensor:
#      x y z
#    x 1.799690 0.000000 0.000000 
#    y 0.000000 1.672450 0.000000 
#    z 0.000000 0.000000 1.778110 
# 
# From -- ./inp_files/30644.got.cif
#   From: 2010.05.17/outbox.cif.g08.bks.cpg/sg48_16_cif.got.tgz:30644.got - 2010.06.03 20:39:00.
