data_PCOD9389801
_publ_section_title
;
Structure prediction by ZEFSAII (Michael W. Deem and Ramdas Pophale) SiO2 
 PCOD9389801
Probable space group: P N N N
;
_chemical_formula_sum "Si O2"
_cell_formula_units_Z 32
_cell_length_a 16.504473
_cell_length_b 14.678509
_cell_length_c 5.343092
_cell_angle_alpha 90.000000
_cell_angle_beta 90.000000
_cell_angle_gamma 90.000000
_cell_volume 1294.423107
_symmetry_space_group_name_H-M "P N N N"
_symmetry_group_IT_number 48
_space_group.IT_coordinate_system_code '2'
_symmetry_cell_setting 'orthorhombic'
loop_
_space_group_symop_operation_xyz
x,y,z
1/2-x,1/2-y,z
x,1/2-y,1/2-z
1/2-x,y,1/2-z
-x,-y,-z
1/2+x,1/2+y,-z
-x,1/2+y,1/2+z
1/2+x,-y,1/2+z
loop_
_atom_site_type_symbol
_atom_site_label
_atom_site_fract_x
_atom_site_fract_y
_atom_site_fract_z
Si Si1 0.025215 0.649744 0.645421
Si Si2 0.655906 0.148291 0.687464
Si Si3 0.615948 0.950603 0.847896
Si Si4 0.126368 0.148008 0.841766
O O1 0.011572 0.750000 0.750000
O O2 0.119132 0.634014 0.590485
O O3 0.978226 0.577792 0.814164
O O4 0.971174 0.645981 0.391523
O O5 0.624708 0.250000 0.750000
O O6 0.750000 0.151391 0.750000
O O7 0.626954 0.057143 0.820795
O O8 0.654617 0.893475 0.610254
O O9 0.647855 0.915494 0.110834
O O10 0.148206 0.250000 0.750000
#
# Coordination Sequence:
#
# PCOD9389801 Si02
#       4
#     8   8   8   8
#     4  10  21  40  74 105 136 172 237 297 354 407
#     4  11  26  46  65  97 150 198 235 278 354 436
#     4  10  22  40  72 103 136 179 237 294 348 407
#     4  10  18  38  71 111 134 164 219 309 359 403
#
# _framework density 24.721437999999999
#
# number of rings (size 3 to 8) (size 9 to 14) (size 15 to 20)
#    1.500    0.250    2.500    2.250    0.000    3.000 
#    0.000    8.750    0.000    8.250    0.000    0.000 
#    0.000    0.000    0.000    0.000    0.000    0.000 
#
# Total GULP energy -178491.913970 kJ/mol
# GULP energy per Si atom -5577.872312 kJ/mol
# Density = 2.466517 g / cm^3
# Si number density = 24.721438 Si / 1000 Ang^3
#
#
#
# Elastic Constant Matrix: (Units=GPa)
#
#
# Indices 1 2 3 4 5 6 
#
# 1 78.2272 24.5042 13.1876 0.0000 0.0000 0.0000
# 2 24.5042 207.7647 63.2629 0.0000 0.0000 0.0000
# 3 13.1876 63.2629 152.2440 0.0000 0.0000 0.0000
# 4 0.0000 0.0000 0.0000 29.6621 0.0000 0.0000
# 5 0.0000 0.0000 0.0000 0.0000 -24.5703 0.0000
# 6 0.0000 0.0000 0.0000 0.0000 0.0000 20.4741
#
#
#
# Elastic Compliance Matrix: (Units=1/GPa)
#
#
# Indices 1 2 3 4 5 6 
#
# 1 0.013317 -0.001396 -0.000573 0.000000 0.000000 0.000000
# 2 -0.001396 0.005657 -0.002230 0.000000 0.000000 0.000000
# 3 -0.000573 -0.002230 0.007545 0.000000 0.000000 0.000000
# 4 0.000000 0.000000 0.000000 0.033713 0.000000 0.000000
# 5 0.000000 0.000000 0.000000 0.000000 -0.040700 0.000000
# 6 0.000000 0.000000 0.000000 0.000000 0.000000 0.048842
#
#
# Mechanical properties :
#
#
# Convention : Reuss Voigt Hill
#
# Bulk Modulus (GPa) = 55.18688 71.12726 63.15707
# Shear Modulus (GPa) = 60.37738 27.59861 43.98800
#
# Velocity S-wave (km/s) = 4.94733 3.34486 4.22281
# Velocity P-wave (km/s) = 7.41665 6.61448 7.02702
#
# Compressibility (1/GPa) = 0.01812025
#
# Stress axis : x y z
#
# Youngs Moduli (GPa) = 75.09052 176.78158 132.54570
#
# Poissons Ratio (x) = 0.24680 0.07601
# Poissons Ratio (y) = 0.10483 0.29553
# Poissons Ratio (z) = 0.04306 0.39416
#
# Static dielectric constant tensor:
#      x y z
#    x 2.057050 0.000000 0.000000 
#    y 0.000000 1.936500 0.000000 
#    z 0.000000 0.000000 2.007560 
# 
# From -- ./inp_files/4938.got.cif
#   From: 2010.05.17/outbox.cif.g08.bks.cpg/sg48_3_cif.got.tgz:4938.got - 2010.06.03 20:39:00.
