data_PCOD9389791
_publ_section_title
;
Structure prediction by ZEFSAII (Michael W. Deem and Ramdas Pophale) SiO2 
 PCOD9389791
Probable space group: P N N N
;
_chemical_formula_sum "Si O2"
_cell_formula_units_Z 64
_cell_length_a 14.308257
_cell_length_b 19.499135
_cell_length_c 11.987296
_cell_angle_alpha 90.000000
_cell_angle_beta 90.000000
_cell_angle_gamma 90.000000
_cell_volume 3344.439220
_symmetry_space_group_name_H-M "P N N N"
_symmetry_group_IT_number 48
_space_group.IT_coordinate_system_code '2'
_symmetry_cell_setting 'orthorhombic'
loop_
_space_group_symop_operation_xyz
x,y,z
1/2-x,1/2-y,z
x,1/2-y,1/2-z
1/2-x,y,1/2-z
-x,-y,-z
1/2+x,1/2+y,-z
-x,1/2+y,1/2+z
1/2+x,-y,1/2+z
loop_
_atom_site_type_symbol
_atom_site_label
_atom_site_fract_x
_atom_site_fract_y
_atom_site_fract_z
Si Si1 0.846703 0.718228 0.507768
Si Si2 0.504921 0.963141 0.616347
Si Si3 0.658220 0.616173 0.188059
Si Si4 0.299085 0.543195 0.866249
Si Si5 0.842339 0.624933 0.704898
Si Si6 0.388035 0.920534 0.959872
Si Si7 0.987462 0.548198 0.166507
Si Si8 0.490491 0.302349 0.354080
O O1 0.750000 0.750000 0.463457
O O2 0.874007 0.664181 0.412024
O O3 0.812648 0.687673 0.627417
O O4 0.936378 0.762982 0.545872
O O5 0.403868 0.927375 0.630573
O O6 0.593055 0.915258 0.620248
O O7 0.500000 0.000000 0.500000
O O8 0.523026 0.013270 0.720268
O O9 0.750000 0.642451 0.250000
O O10 0.683982 0.539568 0.139578
O O11 0.582700 0.604989 0.285826
O O12 0.250000 0.561643 0.750000
O O13 0.223894 0.568739 0.956331
O O14 0.750000 0.589298 0.750000
O O15 0.910947 0.647478 0.803343
O O16 0.426826 0.851644 0.899074
O O17 0.428869 0.987605 0.894744
O O18 0.434996 0.925094 0.081647
O O19 0.513450 0.250000 0.250000
#
# Coordination Sequence:
#
# PCOD9389791 Si02
#       8
#     8   8   8   8   8   8   8   8
#     4  11  23  35  55  83 125 173 208 250 312 396
#     4  11  22  37  57  93 129 164 201 260 335 388
#     4  10  20  36  53  85 125 162 203 255 330 384
#     4  10  18  38  62  90 122 164 206 270 328 368
#     4  11  20  35  57  80 120 162 206 253 305 383
#     4  11  20  38  65  87 124 163 217 271 313 385
#     4  10  21  35  59  91 120 161 205 263 328 372
#     4  10  22  38  57  86 121 168 213 258 316 383
#
# _framework density 19.136243
#
# number of rings (size 3 to 8) (size 9 to 14) (size 15 to 20)
#    0.000    1.500    6.250    1.500    1.750    2.250 
#    0.000    0.000    0.000    8.625    0.000    0.000 
#    0.000    0.750    0.000    0.000    0.000    0.000 
#
# Total GULP energy -356618.059132 kJ/mol
# GULP energy per Si atom -5572.157174 kJ/mol
# Density = 1.909269 g / cm^3
# Si number density = 19.136243 Si / 1000 Ang^3
#
#
#
# Elastic Constant Matrix: (Units=GPa)
#
#
# Indices 1 2 3 4 5 6 
#
# 1 111.9197 33.1047 43.5334 0.0000 0.0000 0.0000
# 2 33.1047 40.6194 29.2052 0.0000 0.0000 0.0000
# 3 43.5334 29.2052 109.3098 0.0000 0.0000 0.0000
# 4 0.0000 0.0000 0.0000 37.3759 0.0000 0.0000
# 5 0.0000 0.0000 0.0000 0.0000 27.3514 0.0000
# 6 0.0000 0.0000 0.0000 0.0000 0.0000 16.0763
#
#
#
# Elastic Compliance Matrix: (Units=1/GPa)
#
#
# Indices 1 2 3 4 5 6 
#
# 1 0.012418 -0.008125 -0.002774 0.000000 0.000000 0.000000
# 2 -0.008125 0.035789 -0.006326 0.000000 0.000000 0.000000
# 3 -0.002774 -0.006326 0.011943 0.000000 0.000000 0.000000
# 4 0.000000 0.000000 0.000000 0.026755 0.000000 0.000000
# 5 0.000000 0.000000 0.000000 0.000000 0.036561 0.000000
# 6 0.000000 0.000000 0.000000 0.000000 0.000000 0.062203
#
#
# Mechanical properties :
#
#
# Convention : Reuss Voigt Hill
#
# Bulk Modulus (GPa) = 38.91293 52.61505 45.76399
# Shear Modulus (GPa) = 21.86380 26.56108 24.21244
#
# Velocity S-wave (km/s) = 3.38381 3.72963 3.56092
# Velocity P-wave (km/s) = 5.97040 6.78981 6.39324
#
# Compressibility (1/GPa) = 0.02569840
#
# Stress axis : x y z
#
# Youngs Moduli (GPa) = 80.53096 27.94121 83.72785
#
# Poissons Ratio (x) = 0.22704 0.23230
# Poissons Ratio (y) = 0.65435 0.52967
# Poissons Ratio (z) = 0.22343 0.17676
#
# Static dielectric constant tensor:
#      x y z
#    x 1.347440 0.000000 0.000000 
#    y 0.000000 1.832980 0.000000 
#    z 0.000000 0.000000 1.249280 
# 
# From -- ./inp_files/21587.got.cif
#   From: 2010.05.17/outbox.cif.g08.bks.cpg/sg48_11_cif.got.tgz:21587.got - 2010.06.03 20:39:00.
