data_PCOD9389247
_publ_section_title
;
Structure prediction by ZEFSAII (Michael W. Deem and Ramdas Pophale) SiO2 
 PCOD9389247
Probable space group: P M M M
;
_chemical_formula_sum "Si O2"
_cell_formula_units_Z 52
_cell_length_a 12.000000
_cell_length_b 9.000000
_cell_length_c 27.000000
_cell_angle_alpha 90.000000
_cell_angle_beta 90.000000
_cell_angle_gamma 90.000000
_cell_volume 2916.000000
_symmetry_space_group_name_H-M "P M M M"
_symmetry_group_IT_number 47
_symmetry_cell_setting 'orthorhombic'
loop_
_space_group_symop_operation_xyz
x,y,z
-x,-y,z
x,-y,-z
-x,y,-z
-x,-y,-z
x,y,-z
-x,y,z
x,-y,z
loop_
_atom_site_type_symbol
_atom_site_label
_atom_site_fract_x
_atom_site_fract_y
_atom_site_fract_z
Si Si1 0.000000 0.674921 0.705952
Si Si2 0.000000 0.326606 0.412532
Si Si3 0.367761 0.670729 0.500000
Si Si4 0.373430 0.821463 0.320602
Si Si5 0.135005 0.668941 0.055189
Si Si6 0.867533 0.826613 0.152628
Si Si7 0.232985 0.822153 0.584708
Si Si8 0.226499 0.677018 0.244200
O O1 0.885876 0.736409 0.728258
O O2 0.000000 0.500000 0.719038
O O3 0.000000 0.686132 0.647168
O O4 0.113573 0.247363 0.428242
O O5 0.000000 0.500000 0.426378
O O6 0.327398 0.500000 0.500000
O O7 0.500000 0.669250 0.500000
O O8 0.321613 0.758443 0.546673
O O9 0.500000 0.777027 0.333734
O O10 0.282470 0.776838 0.361896
O O11 0.332412 0.750556 0.269776
O O12 0.371315 0.000000 0.317560
O O13 0.168078 0.500000 0.068638
O O14 0.164505 0.786574 0.096724
O O15 0.000000 0.668137 0.053143
O O16 0.175741 0.702314 0.000000
O O17 0.794624 0.726179 0.188526
O O18 0.000000 0.790894 0.159025
O O19 0.853274 0.000000 0.163542
O O20 0.225888 0.000000 0.582727
O O21 0.232898 0.500000 0.249612
#
# Coordination Sequence:
#
# PCOD9389247 Si02
#       8
#     4   4   4   8   8   8   8   8
#     4   9  18  31  50  76 106 138 171 212 259 305
#     4  11  21  38  60  87 119 146 179 220 267 316
#     4  11  25  44  65  88 113 145 185 227 270 315
#     4  10  22  39  57  79 108 140 174 214 262 314
#     4   8  14  25  40  58  85 126 172 214 257 307
#     4  10  19  28  41  66  98 133 172 214 262 313
#     4  11  23  40  63  89 115 145 180 219 267 321
#     4  11  20  33  52  75 103 137 177 218 260 310
#
# _framework density 17.832647000000001
#
# number of rings (size 3 to 8) (size 9 to 14) (size 15 to 20)
#    0.000    1.923    2.308    2.769    0.000    3.385 
#    0.000    3.077    0.000    0.000    0.000    0.000 
#    0.000    0.615    0.000    6.462    0.000    3.077 
#
# Total GULP energy -289934.139959 kJ/mol
# GULP energy per Si atom -5575.656538 kJ/mol
# Density = 1.779206 g / cm^3
# Si number density = 17.832647 Si / 1000 Ang^3
#
#
#
# Elastic Constant Matrix: (Units=GPa)
#
#
# Indices 1 2 3 4 5 6 
#
# 1 66.4298 25.9750 19.6809 0.0000 0.0000 0.0000
# 2 25.9750 27.1106 16.1178 0.0000 0.0000 0.0000
# 3 19.6809 16.1178 49.2613 0.0000 0.0000 0.0000
# 4 0.0000 0.0000 0.0000 24.9268 0.0000 0.0000
# 5 0.0000 0.0000 0.0000 0.0000 -3.7544 0.0000
# 6 0.0000 0.0000 0.0000 0.0000 0.0000 22.7541
#
#
#
# Elastic Compliance Matrix: (Units=1/GPa)
#
#
# Indices 1 2 3 4 5 6 
#
# 1 0.024337 -0.021772 -0.002599 0.000000 0.000000 0.000000
# 2 -0.021772 0.065271 -0.012658 0.000000 0.000000 0.000000
# 3 -0.002599 -0.012658 0.025480 0.000000 0.000000 0.000000
# 4 0.000000 0.000000 0.000000 0.040117 0.000000 0.000000
# 5 0.000000 0.000000 0.000000 0.000000 -0.266354 0.000000
# 6 0.000000 0.000000 0.000000 0.000000 0.000000 0.043948
#
#
# Mechanical properties :
#
#
# Convention : Reuss Voigt Hill
#
# Bulk Modulus (GPa) = 24.37264 29.59434 26.98349
# Shear Modulus (GPa) = 243.50189 14.18718 128.84453
#
# Velocity S-wave (km/s) = 11.69807 2.82365 8.50934
# Velocity P-wave (km/s) = 14.00560 5.22133 10.56927
#
# Compressibility (1/GPa) = 0.04102962
#
# Stress axis : x y z
#
# Youngs Moduli (GPa) = 41.09015 15.32070 39.24660
#
# Poissons Ratio (x) = 0.33356 0.10202
# Poissons Ratio (y) = 0.89461 0.49677
# Poissons Ratio (z) = 0.10681 0.19393
#
# Static dielectric constant tensor:
#      x y z
#    x 1.599420 0.000000 0.000000 
#    y 0.000000 1.595860 0.000000 
#    z 0.000000 0.000000 1.649420 
# 
# From -- ./inp_files/33608.got.cif
#   From: 2010.05.17/outbox.ucp.g08.bks.cvg/sg47_17_cif.got.tgz:33608.got - 2010.06.11 16:36:43.
