data_PCOD9389871
_publ_section_title
;
Structure prediction by ZEFSAII (Michael W. Deem and Ramdas Pophale) SiO2 
 PCOD9389871
Probable space group: P N N N
;
_chemical_formula_sum "Si O2"
_cell_formula_units_Z 36
_cell_length_a 19.602574
_cell_length_b 9.687741
_cell_length_c 8.640055
_cell_angle_alpha 90.000000
_cell_angle_beta 90.000000
_cell_angle_gamma 90.000000
_cell_volume 1640.786706
_symmetry_space_group_name_H-M "P N N N"
_symmetry_group_IT_number 48
_space_group.IT_coordinate_system_code '2'
_symmetry_cell_setting 'orthorhombic'
loop_
_space_group_symop_operation_xyz
x,y,z
1/2-x,1/2-y,z
x,1/2-y,1/2-z
1/2-x,y,1/2-z
-x,-y,-z
1/2+x,1/2+y,-z
-x,1/2+y,1/2+z
1/2+x,-y,1/2+z
loop_
_atom_site_type_symbol
_atom_site_label
_atom_site_fract_x
_atom_site_fract_y
_atom_site_fract_z
Si Si1 0.915289 0.885454 0.345329
Si Si2 0.551902 0.045460 0.671758
Si Si3 0.997327 0.276464 0.423500
Si Si4 0.750000 0.250000 0.750000
Si Si5 0.171782 0.994211 0.410089
Si Si6 0.250000 0.250000 0.250000
O O1 0.890755 0.750000 0.250000
O O2 0.856357 0.980400 0.416123
O O3 0.975050 0.945923 0.238256
O O4 0.960105 0.842958 0.496098
O O5 0.557456 0.167779 0.546806
O O6 0.553000 0.898559 0.589995
O O7 0.607858 0.043925 0.801053
O O8 0.972923 0.250000 0.250000
O O9 0.718582 0.362977 0.628806
O O10 0.205053 0.140655 0.351910
#
# Coordination Sequence:
#
# PCOD9389871 Si02
#       6
#     8   8   8   2   8   2
#     4  10  21  36  64  99 126 167 206 281 343 384
#     4  10  21  33  60  93 132 161 199 277 339 391
#     4  10  19  32  52  97 130 160 203 246 343 395
#     4  10  28  34  60  98 130 190 212 282 328 382
#     4  11  21  42  61  93 130 170 236 266 321 404
#     4  10  24  42  70  86 112 190 234 272 292 362
#
# _framework density 21.940695000000002
#
# number of rings (size 3 to 8) (size 9 to 14) (size 15 to 20)
#    0.000    1.778    2.222    2.000    4.667    0.000 
#    0.000    0.556    0.000    0.000    5.778   17.889 
#    0.000    0.000    0.000    0.000    0.000    0.000 
#
# Total GULP energy -200543.974232 kJ/mol
# GULP energy per Si atom -5570.665951 kJ/mol
# Density = 2.189076 g / cm^3
# Si number density = 21.940695 Si / 1000 Ang^3
#
#
#
# Elastic Constant Matrix: (Units=GPa)
#
#
# Indices 1 2 3 4 5 6 
#
# 1 43.5851 39.8346 31.5154 0.0000 0.0000 0.0000
# 2 39.8346 137.5356 47.3292 0.0000 0.0000 0.0000
# 3 31.5154 47.3292 130.6062 0.0000 0.0000 0.0000
# 4 0.0000 0.0000 0.0000 38.6879 0.0000 0.0000
# 5 0.0000 0.0000 0.0000 0.0000 14.0141 0.0000
# 6 0.0000 0.0000 0.0000 0.0000 0.0000 21.8869
#
#
#
# Elastic Compliance Matrix: (Units=1/GPa)
#
#
# Indices 1 2 3 4 5 6 
#
# 1 0.034160 -0.008063 -0.005321 0.000000 0.000000 0.000000
# 2 -0.008063 0.010210 -0.001754 0.000000 0.000000 0.000000
# 3 -0.005321 -0.001754 0.009576 0.000000 0.000000 0.000000
# 4 0.000000 0.000000 0.000000 0.025848 0.000000 0.000000
# 5 0.000000 0.000000 0.000000 0.000000 0.071357 0.000000
# 6 0.000000 0.000000 0.000000 0.000000 0.000000 0.045690
#
#
# Mechanical properties :
#
#
# Convention : Reuss Voigt Hill
#
# Bulk Modulus (GPa) = 42.24760 61.00948 51.62854
# Shear Modulus (GPa) = 21.27602 27.78762 24.53182
#
# Velocity S-wave (km/s) = 3.11739 3.56264 3.34742
# Velocity P-wave (km/s) = 5.67932 6.69254 6.20664
#
# Compressibility (1/GPa) = 0.02366998
#
# Stress axis : x y z
#
# Youngs Moduli (GPa) = 29.27393 97.94568 104.42445
#
# Poissons Ratio (x) = 0.78971 0.55565
# Poissons Ratio (y) = 0.23603 0.18319
# Poissons Ratio (z) = 0.15577 0.17182
#
# Static dielectric constant tensor:
#      x y z
#    x 1.840290 0.000000 0.000000 
#    y 0.000000 1.923890 0.000000 
#    z 0.000000 0.000000 1.865370 
# 
# From -- ./inp_files/8814.got.cif
#   From: 2010.05.17/outbox.cif.g08.bks.cpg/sg48_5_cif.got.tgz:8814.got - 2010.06.03 20:39:00.
