data_PCOD9389025
_publ_section_title
;
Structure prediction by ZEFSAII (Michael W. Deem and Ramdas Pophale) SiO2 
 PCOD9389025
Probable space group: P M M M
;
_chemical_formula_sum "Si O2"
_cell_formula_units_Z 56
_cell_length_a 7.464119
_cell_length_b 13.965042
_cell_length_c 25.042687
_cell_angle_alpha 90.000000
_cell_angle_beta 90.000000
_cell_angle_gamma 90.000000
_cell_volume 2610.367937
_symmetry_space_group_name_H-M "P M M M"
_symmetry_group_IT_number 47
_symmetry_cell_setting 'orthorhombic'
loop_
_space_group_symop_operation_xyz
x,y,z
-x,-y,z
x,-y,-z
-x,y,-z
-x,-y,-z
x,y,-z
-x,y,z
x,-y,z
loop_
_atom_site_type_symbol
_atom_site_label
_atom_site_fract_x
_atom_site_fract_y
_atom_site_fract_z
Si Si1 0.782617 0.697145 0.669765
Si Si2 0.211980 0.895990 0.714863
Si Si3 0.711083 0.605808 0.217863
Si Si4 0.218106 0.388358 0.558416
Si Si5 0.703003 0.817194 0.940300
Si Si6 0.206928 0.602261 0.064153
Si Si7 0.717437 0.808570 0.827732
O O1 0.716149 0.803284 0.684298
O O2 0.730503 0.629216 0.719200
O O3 0.720000 0.663581 0.611866
O O4 0.000000 0.697469 0.669500
O O5 0.234307 0.873247 0.777420
O O6 0.000000 0.898623 0.703766
O O7 0.287776 0.000000 0.701750
O O8 0.500000 0.602532 0.205642
O O9 0.787151 0.500000 0.206686
O O10 0.781940 0.700067 0.186948
O O11 0.275922 0.351632 0.500000
O O12 0.267695 0.500000 0.561778
O O13 0.000000 0.384753 0.558801
O O14 0.500000 0.853978 0.943522
O O15 0.696606 0.702595 0.928329
O O16 0.785458 0.849900 0.884317
O O17 0.783076 0.830228 0.000000
O O18 0.280408 0.500000 0.084348
O O19 0.000000 0.610649 0.081474
O O20 0.203986 0.594705 0.000000
O O21 0.500000 0.805660 0.830546
#
# Coordination Sequence:
#
# PCOD9389025 Si02
#       7
#     8   8   8   8   8   8   8
#     4   9  16  27  45  66  87 114 150 187 218 253
#     4   9  18  32  49  68  88 109 137 180 230 268
#     4   9  17  28  41  59  87 119 145 175 217 257
#     4   8  13  21  36  62  94 124 153 183 211 241
#     4   9  17  28  42  60  81 105 134 170 212 259
#     4   8  14  24  36  51  74 105 140 173 201 234
#     4   9  18  31  46  65  87 111 141 174 211 262
#
# _framework density 21.452915000000001
#
# number of rings (size 3 to 8) (size 9 to 14) (size 15 to 20)
#    0.000    3.286    0.000    1.286    0.000    2.571 
#    0.000    2.857    0.000    1.286    0.000    8.000 
#    0.000    0.000    0.000    7.143    0.000    7.714 
#
# Total GULP energy -312075.052638 kJ/mol
# GULP energy per Si atom -5572.768797 kJ/mol
# Density = 2.140409 g / cm^3
# Si number density = 21.452915 Si / 1000 Ang^3
#
#
#
# Elastic Constant Matrix: (Units=GPa)
#
#
# Indices 1 2 3 4 5 6 
#
# 1 65.0109 -1.6751 -7.8488 0.0000 0.0000 0.0000
# 2 -1.6751 60.0445 29.1146 0.0000 0.0000 0.0000
# 3 -7.8488 29.1146 171.8905 0.0000 0.0000 0.0000
# 4 0.0000 0.0000 0.0000 -1.2879 0.0000 0.0000
# 5 0.0000 0.0000 0.0000 0.0000 14.7389 0.0000
# 6 0.0000 0.0000 0.0000 0.0000 0.0000 5.5930
#
#
#
# Elastic Compliance Matrix: (Units=1/GPa)
#
#
# Indices 1 2 3 4 5 6 
#
# 1 0.015468 0.000097 0.000690 0.000000 0.000000 0.000000
# 2 0.000097 0.018145 -0.003069 0.000000 0.000000 0.000000
# 3 0.000690 -0.003069 0.006369 0.000000 0.000000 0.000000
# 4 0.000000 0.000000 0.000000 -0.776472 0.000000 0.000000
# 5 0.000000 0.000000 0.000000 0.000000 0.067848 0.000000
# 6 0.000000 0.000000 0.000000 0.000000 0.000000 0.178794
#
#
# Mechanical properties :
#
#
# Convention : Reuss Voigt Hill
#
# Bulk Modulus (GPa) = 28.23447 37.34748 32.79098
# Shear Modulus (GPa) = -10.56014 22.29916 5.86951
#
# Velocity S-wave (km/s) = -2.22107 3.22754 1.65588
# Velocity P-wave (km/s) = 2.57141 5.59788 4.35594
#
# Compressibility (1/GPa) = 0.03541770
#
# Stress axis : x y z
#
# Youngs Moduli (GPa) = 64.65033 55.11130 157.01119
#
# Poissons Ratio (x) = -0.00535 -0.10832
# Poissons Ratio (y) = -0.00627 0.48186
# Poissons Ratio (z) = -0.04460 0.16913
#
# Static dielectric constant tensor:
#      x y z
#    x 1.837850 0.000000 0.000000 
#    y 0.000000 1.834360 0.000000 
#    z 0.000000 0.000000 1.796410 
# 
# From -- ./inp_files/32477.got.cif
#   From: 2010.05.17/outbox.cif.g08.bks.cpg/sg47_17_cif.got.tgz:32477.got - 2010.06.03 20:15:42.
