data_PCOD9389728
_publ_section_title
;
Structure prediction by ZEFSAII (Michael W. Deem and Ramdas Pophale) SiO2 
 PCOD9389728
Probable space group: P N N N
;
_chemical_formula_sum "Si O2"
_cell_formula_units_Z 64
_cell_length_a 28.725479
_cell_length_b 12.156003
_cell_length_c 8.841316
_cell_angle_alpha 90.000000
_cell_angle_beta 90.000000
_cell_angle_gamma 90.000000
_cell_volume 3087.272689
_symmetry_space_group_name_H-M "P N N N"
_symmetry_group_IT_number 48
_space_group.IT_coordinate_system_code '2'
_symmetry_cell_setting 'orthorhombic'
loop_
_space_group_symop_operation_xyz
x,y,z
1/2-x,1/2-y,z
x,1/2-y,1/2-z
1/2-x,y,1/2-z
-x,-y,-z
1/2+x,1/2+y,-z
-x,1/2+y,1/2+z
1/2+x,-y,1/2+z
loop_
_atom_site_type_symbol
_atom_site_label
_atom_site_fract_x
_atom_site_fract_y
_atom_site_fract_z
Si Si1 0.747344 0.057046 0.085153
Si Si2 0.844590 0.150417 0.447306
Si Si3 0.793620 0.814068 0.410366
Si Si4 0.933277 0.033196 0.513055
Si Si5 0.389868 0.296631 0.422692
Si Si6 0.648483 0.408484 0.093876
Si Si7 0.067526 0.423034 0.500466
Si Si8 0.501406 0.003671 0.250823
O O1 0.750000 0.114289 0.250000
O O2 0.707741 0.124594 0.997763
O O3 0.800887 0.049529 0.035628
O O4 0.724879 0.937470 0.110788
O O5 0.850606 0.094869 0.278716
O O6 0.853949 0.279653 0.443929
O O7 0.885192 0.093918 0.540378
O O8 0.750000 0.750000 0.481483
O O9 0.803104 0.750000 0.250000
O O10 0.838192 0.819244 0.516323
O O11 0.921132 0.903804 0.538772
O O12 0.958328 0.058970 0.352711
O O13 0.971733 0.066585 0.633962
O O14 0.389246 0.250000 0.250000
O O15 0.408075 0.192883 0.515451
O O16 0.606564 0.481684 0.026160
O O17 0.037450 0.429471 0.345562
O O18 0.029264 0.435267 0.628360
#
# Coordination Sequence:
#
# PCOD9389728 Si02
#       8
#     8   8   8   8   8   8   8   8
#     4  10  18  34  60  97 133 161 213 260 320 388
#     4  10  20  38  64  94 131 167 213 261 328 387
#     4  11  22  36  64 102 132 174 217 268 320 396
#     4  11  22  46  65  95 128 169 220 271 333 399
#     4  12  26  43  68  94 138 176 214 275 338 389
#     4  10  21  38  63  97 130 170 207 270 322 385
#     4  11  23  45  63  98 130 165 222 272 327 396
#     4  10  24  44  65  90 125 168 221 266 336 388
#
# _framework density 20.730270999999998
#
# number of rings (size 3 to 8) (size 9 to 14) (size 15 to 20)
#    0.000    1.375    5.000    1.125    3.500    1.750 
#   13.500    0.000    0.000    0.750    0.000    1.750 
#    0.000    0.000    0.000    0.000    0.000    0.000 
#
# Total GULP energy -356708.879356 kJ/mol
# GULP energy per Si atom -5573.576240 kJ/mol
# Density = 2.068309 g / cm^3
# Si number density = 20.730271 Si / 1000 Ang^3
#
#
#
# Elastic Constant Matrix: (Units=GPa)
#
#
# Indices 1 2 3 4 5 6 
#
# 1 156.1832 48.6378 29.5086 0.0000 0.0000 0.0000
# 2 48.6378 109.9278 7.4580 0.0000 0.0000 0.0000
# 3 29.5086 7.4580 38.5558 0.0000 0.0000 0.0000
# 4 0.0000 0.0000 0.0000 5.6474 0.0000 0.0000
# 5 0.0000 0.0000 0.0000 0.0000 -483.5450 0.0000
# 6 0.0000 0.0000 0.0000 0.0000 0.0000 -6.2520
#
#
#
# Elastic Compliance Matrix: (Units=1/GPa)
#
#
# Indices 1 2 3 4 5 6 
#
# 1 0.008576 -0.003394 -0.005907 0.000000 0.000000 0.000000
# 2 -0.003394 0.010561 0.000554 0.000000 0.000000 0.000000
# 3 -0.005907 0.000554 0.030350 0.000000 0.000000 0.000000
# 4 0.000000 0.000000 0.000000 0.177074 0.000000 0.000000
# 5 0.000000 0.000000 0.000000 0.000000 -0.002068 0.000000
# 6 0.000000 0.000000 0.000000 0.000000 0.000000 -0.159948
#
#
# Mechanical properties :
#
#
# Convention : Reuss Voigt Hill
#
# Bulk Modulus (GPa) = 31.25549 52.87505 42.06527
# Shear Modulus (GPa) = 53.93741 -82.22577 -14.14418
#
# Velocity S-wave (km/s) = 5.10638 -6.30482 -2.61491
# Velocity P-wave (km/s) = 7.06235 5.23826 3.34944
#
# Compressibility (1/GPa) = 0.03199438
#
# Stress axis : x y z
#
# Youngs Moduli (GPa) = 116.61071 94.69040 32.94894
#
# Poissons Ratio (x) = 0.32133 0.19462
# Poissons Ratio (y) = 0.39572 -0.01827
# Poissons Ratio (z) = 0.68880 -0.05250
#
# Static dielectric constant tensor:
#      x y z
#    x 1.782880 0.000000 0.000000 
#    y 0.000000 1.741170 0.000000 
#    z 0.000000 0.000000 1.823660 
# 
# From -- ./inp_files/16928.got.cif
#   From: 2010.05.17/outbox.cif.g08.bks.cpg/sg48_9_cif.got.tgz:16928.got - 2010.06.03 20:39:00.
