data_PCOD9389295
_publ_section_title
;
Structure prediction by ZEFSAII (Michael W. Deem and Ramdas Pophale) SiO2 
 PCOD9389295
Probable space group: P M M M
;
_chemical_formula_sum "Si O2"
_cell_formula_units_Z 48
_cell_length_a 15.000000
_cell_length_b 12.000000
_cell_length_c 15.000000
_cell_angle_alpha 90.000000
_cell_angle_beta 90.000000
_cell_angle_gamma 90.000000
_cell_volume 2700.000000
_symmetry_space_group_name_H-M "P M M M"
_symmetry_group_IT_number 47
_symmetry_cell_setting 'orthorhombic'
loop_
_space_group_symop_operation_xyz
x,y,z
-x,-y,z
x,-y,-z
-x,y,-z
-x,-y,-z
x,y,-z
-x,y,z
x,-y,z
loop_
_atom_site_type_symbol
_atom_site_label
_atom_site_fract_x
_atom_site_fract_y
_atom_site_fract_z
Si Si1 0.343956 0.781375 0.678598
Si Si2 0.163550 0.134367 0.397517
Si Si3 0.394113 0.365393 0.000000
Si Si4 0.602275 0.000000 0.210492
Si Si5 0.260895 0.365446 0.164534
Si Si6 0.894000 0.792959 0.200453
Si Si7 0.209892 0.000000 0.108094
Si Si8 0.500000 0.627792 0.605302
O O1 0.266435 0.828339 0.614605
O O2 0.299604 0.699079 0.750537
O O3 0.416219 0.703194 0.632530
O O4 0.384751 0.888819 0.729398
O O5 0.134085 0.162732 0.500000
O O6 0.117469 0.187778 0.308608
O O7 0.156043 0.000000 0.388675
O O8 0.331081 0.335556 0.084812
O O9 0.400438 0.500000 0.000000
O O10 0.500000 0.326197 0.000000
O O11 0.686616 0.000000 0.141954
O O12 0.500000 0.000000 0.174635
O O13 0.259299 0.500000 0.171379
O O14 0.160454 0.314594 0.162855
O O15 0.000000 0.791644 0.181356
O O16 0.841765 0.894493 0.151435
O O17 0.206003 0.000000 0.000000
O O18 0.500000 0.500000 0.643586
O O19 0.500000 0.616146 0.500000
#
# Coordination Sequence:
#
# PCOD9389295 Si02
#       8
#     8   8   4   4   8   8   4   4
#     4  11  20  38  58  85 121 164 202 248 312 368
#     4  10  19  35  61  90 121 153 195 253 313 367
#     4   9  20  38  61  90 119 156 207 256 305 362
#     4  12  22  40  64  91 123 161 203 256 309 377
#     4  10  22  39  61  89 123 162 207 259 308 367
#     4  11  23  41  64  90 124 162 206 256 310 376
#     4  12  25  45  64  89 127 163 205 255 313 379
#     4  11  24  37  53  84 121 163 216 255 293 367
#
# _framework density 17.777778000000001
#
# number of rings (size 3 to 8) (size 9 to 14) (size 15 to 20)
#    0.000    1.333    5.833    1.250    2.333    1.500 
#    0.000    1.250    0.000    6.000    0.000    4.667 
#    0.000    0.000    0.000    0.000    0.000    0.000 
#
# Total GULP energy -267528.131939 kJ/mol
# GULP energy per Si atom -5573.502749 kJ/mol
# Density = 1.773731 g / cm^3
# Si number density = 17.777778 Si / 1000 Ang^3
#
#
#
# Elastic Constant Matrix: (Units=GPa)
#
#
# Indices 1 2 3 4 5 6 
#
# 1 151.2840 35.4914 38.9156 0.0000 0.0000 0.0000
# 2 35.4914 107.2218 25.9649 0.0000 0.0000 0.0000
# 3 38.9156 25.9649 105.7930 0.0000 0.0000 0.0000
# 4 0.0000 0.0000 0.0000 23.3663 0.0000 0.0000
# 5 0.0000 0.0000 0.0000 0.0000 17.2135 0.0000
# 6 0.0000 0.0000 0.0000 0.0000 0.0000 -24.4939
#
#
#
# Elastic Compliance Matrix: (Units=1/GPa)
#
#
# Indices 1 2 3 4 5 6 
#
# 1 0.007675 -0.001974 -0.002339 0.000000 0.000000 0.000000
# 2 -0.001974 0.010424 -0.001832 0.000000 0.000000 0.000000
# 3 -0.002339 -0.001832 0.010762 0.000000 0.000000 0.000000
# 4 0.000000 0.000000 0.000000 0.042797 0.000000 0.000000
# 5 0.000000 0.000000 0.000000 0.000000 0.058094 0.000000
# 6 0.000000 0.000000 0.000000 0.000000 0.000000 -0.040826
#
#
# Mechanical properties :
#
#
# Convention : Reuss Voigt Hill
#
# Bulk Modulus (GPa) = 60.34636 62.78253 61.56445
# Shear Modulus (GPa) = 46.84357 20.81230 33.82794
#
# Velocity S-wave (km/s) = 5.13875 3.42525 4.36687
# Velocity P-wave (km/s) = 8.32030 7.14387 7.75443
#
# Compressibility (1/GPa) = 0.01657101
#
# Stress axis : x y z
#
# Youngs Moduli (GPa) = 130.29666 95.93639 92.91664
#
# Poissons Ratio (x) = 0.18939 0.21730
# Poissons Ratio (y) = 0.25722 0.17023
# Poissons Ratio (z) = 0.30472 0.17577
#
# Static dielectric constant tensor:
#      x y z
#    x 1.641850 0.000000 0.000000 
#    y 0.000000 1.605410 0.000000 
#    z 0.000000 0.000000 1.626360 
# 
# From -- ./inp_files/23642.got.cif
#   From: 2010.05.17/outbox.ucp.g08.bks.cvg/sg47_12_cif.got.tgz:23642.got - 2010.06.11 16:36:43.
