data_PCOD9389522
_publ_section_title
;
Structure prediction by ZEFSAII (Michael W. Deem and Ramdas Pophale) SiO2 
 PCOD9389522
Probable space group: P N N N
;
_chemical_formula_sum "Si O2"
_cell_formula_units_Z 44
_cell_length_a 14.834801
_cell_length_b 8.000653
_cell_length_c 18.002674
_cell_angle_alpha 90.000000
_cell_angle_beta 90.000000
_cell_angle_gamma 90.000000
_cell_volume 2136.703084
_symmetry_space_group_name_H-M "P N N N"
_symmetry_group_IT_number 48
_space_group.IT_coordinate_system_code '2'
_symmetry_cell_setting 'orthorhombic'
loop_
_space_group_symop_operation_xyz
x,y,z
1/2-x,1/2-y,z
x,1/2-y,1/2-z
1/2-x,y,1/2-z
-x,-y,-z
1/2+x,1/2+y,-z
-x,1/2+y,1/2+z
1/2+x,-y,1/2+z
loop_
_atom_site_type_symbol
_atom_site_label
_atom_site_fract_x
_atom_site_fract_y
_atom_site_fract_z
Si Si1 0.475832 0.937095 0.916297
Si Si2 0.750000 0.750000 0.550504
Si Si3 0.665236 0.044066 0.876672
Si Si4 0.647789 0.756854 0.095744
Si Si5 0.250000 0.750000 0.001936
Si Si6 0.750000 0.250000 0.750000
Si Si7 0.750000 0.250000 0.250000
Si Si8 0.633729 0.103453 0.381536
O O1 0.569671 0.955736 0.873734
O O2 0.404372 0.074218 0.886468
O O3 0.433688 0.753394 0.904269
O O4 0.500000 0.000000 0.000000
O O5 0.741836 0.588992 0.601447
O O6 0.665875 0.745824 0.493551
O O7 0.688950 0.137287 0.802324
O O8 0.673449 0.176169 0.944715
O O9 0.750000 0.750000 0.127626
O O10 0.598358 0.585710 0.118262
O O11 0.290039 0.611173 0.946837
O O12 0.684891 0.146502 0.305189
#
# Coordination Sequence:
#
# PCOD9389522 Si02
#       8
#     8   4   8   8   4   2   2   8
#     4  12  22  40  69 105 133 159 226 305 333 391
#     4  10  18  37  70  97 124 162 224 280 326 395
#     4  11  22  43  65  96 129 175 232 275 337 409
#     4  10  20  38  66 103 127 170 214 271 354 396
#     4  10  16  36  68  84 124 168 218 272 324 400
#     4  10  28  48  68  82 134 208 212 266 360 420
#     4  10  24  42  62  94 132 190 228 262 338 446
#     4  11  21  40  64  95 134 175 219 278 344 399
#
# _framework density 20.592472999999998
#
# number of rings (size 3 to 8) (size 9 to 14) (size 15 to 20)
#    0.545    0.727    5.455    2.182    0.000    1.091 
#    9.818    3.182    0.000    0.000    0.000    0.000 
#    0.000    0.000    0.000    0.000    0.000    0.000 
#
# Total GULP energy -245497.367468 kJ/mol
# GULP energy per Si atom -5579.485624 kJ/mol
# Density = 2.054560 g / cm^3
# Si number density = 20.592473 Si / 1000 Ang^3
#
#
#
# Elastic Constant Matrix: (Units=GPa)
#
#
# Indices 1 2 3 4 5 6 
#
# 1 76.0273 24.0331 14.3772 0.0000 0.0000 0.0000
# 2 24.0331 121.5561 19.1987 0.0000 0.0000 0.0000
# 3 14.3772 19.1987 93.3991 0.0000 0.0000 0.0000
# 4 0.0000 0.0000 0.0000 22.2264 0.0000 0.0000
# 5 0.0000 0.0000 0.0000 0.0000 7.8160 0.0000
# 6 0.0000 0.0000 0.0000 0.0000 0.0000 28.7622
#
#
#
# Elastic Compliance Matrix: (Units=1/GPa)
#
#
# Indices 1 2 3 4 5 6 
#
# 1 0.014278 -0.002559 -0.001672 0.000000 0.000000 0.000000
# 2 -0.002559 0.008961 -0.001448 0.000000 0.000000 0.000000
# 3 -0.001672 -0.001448 0.011262 0.000000 0.000000 0.000000
# 4 0.000000 0.000000 0.000000 0.044992 0.000000 0.000000
# 5 0.000000 0.000000 0.000000 0.000000 0.127942 0.000000
# 6 0.000000 0.000000 0.000000 0.000000 0.000000 0.034768
#
#
# Mechanical properties :
#
#
# Convention : Reuss Voigt Hill
#
# Bulk Modulus (GPa) = 43.20885 45.13339 44.17112
# Shear Modulus (GPa) = 19.13691 27.31916 23.22803
#
# Velocity S-wave (km/s) = 3.05178 3.64628 3.36219
# Velocity P-wave (km/s) = 5.78327 6.30017 6.04724
#
# Compressibility (1/GPa) = 0.02314341
#
# Stress axis : x y z
#
# Youngs Moduli (GPa) = 70.03669 111.59092 88.79598
#
# Poissons Ratio (x) = 0.28555 0.14846
# Poissons Ratio (y) = 0.17922 0.12859
# Poissons Ratio (z) = 0.11709 0.16160
#
# Static dielectric constant tensor:
#      x y z
#    x 1.765910 0.000000 0.000000 
#    y 0.000000 1.794090 0.000000 
#    z 0.000000 0.000000 1.732090 
# 
# From -- ./inp_files/31540.got.cif
#   From: 2010.05.17/outbox.cif.g08.bks.cpg/sg48_16_cif.got.tgz:31540.got - 2010.06.03 20:39:00.
