data_PCOD9389551
_publ_section_title
;
Structure prediction by ZEFSAII (Michael W. Deem and Ramdas Pophale) SiO2 
 PCOD9389551
Probable space group: P N N N
;
_chemical_formula_sum "Si O2"
_cell_formula_units_Z 64
_cell_length_a 31.687341
_cell_length_b 7.685840
_cell_length_c 12.452119
_cell_angle_alpha 90.000000
_cell_angle_beta 90.000000
_cell_angle_gamma 90.000000
_cell_volume 3032.636790
_symmetry_space_group_name_H-M "P N N N"
_symmetry_group_IT_number 48
_space_group.IT_coordinate_system_code '2'
_symmetry_cell_setting 'orthorhombic'
loop_
_space_group_symop_operation_xyz
x,y,z
1/2-x,1/2-y,z
x,1/2-y,1/2-z
1/2-x,y,1/2-z
-x,-y,-z
1/2+x,1/2+y,-z
-x,1/2+y,1/2+z
1/2+x,-y,1/2+z
loop_
_atom_site_type_symbol
_atom_site_label
_atom_site_fract_x
_atom_site_fract_y
_atom_site_fract_z
Si Si1 0.585004 0.461999 0.750000
Si Si2 0.951768 0.043391 0.524312
Si Si3 0.624937 0.957176 0.128707
Si Si4 0.683145 0.953842 0.750000
Si Si5 0.296512 0.463066 0.486858
Si Si6 0.951768 0.043391 0.975688
Si Si7 0.296512 0.036934 0.486858
Si Si8 0.875063 0.542824 0.371293
O O1 0.585727 0.250000 0.750000
O O2 0.562286 0.523042 0.641467
O O3 0.632786 0.527108 0.750000
O O4 0.562286 0.523042 0.858533
O O5 0.948021 0.250000 0.527810
O O6 0.918655 0.982532 0.434787
O O7 0.000000 0.000000 0.500000
O O8 0.623542 0.027527 0.250000
O O9 0.631322 0.750000 0.136511
O O10 0.664259 0.025352 0.058287
O O11 0.694867 0.750000 0.750000
O O12 0.698975 0.025222 0.863684
O O13 0.698975 0.025222 0.636316
O O14 0.298658 0.250000 0.484251
O O15 0.250000 0.509874 0.528244
O O16 0.918655 0.982532 0.065213
O O17 0.000000 0.000000 0.000000
O O18 0.335741 0.974648 0.558287
#
# Coordination Sequence:
#
# PCOD9389551 Si02
#       8
#     8   8   8   8   8   8   8   8
#     4  10  22  39  59  83 114 146 179 231 284 331
#     4  11  24  41  61  85 113 147 187 232 285 339
#     4  10  21  37  57  83 116 152 191 235 279 329
#     4  10  17  30  56  84 112 146 188 233 277 331
#     4   9  17  30  52  84 116 146 185 234 282 327
#     4  11  24  41  61  85 113 147 187 232 285 339
#     4   9  17  30  52  84 116 146 185 234 282 327
#     4  10  21  37  57  83 116 152 191 235 279 329
#
# _framework density 21.103748
#
# number of rings (size 3 to 8) (size 9 to 14) (size 15 to 20)
#    0.000    2.000    2.500    1.125    1.750    3.500 
#    0.000    2.500    0.000    3.750    0.000    1.750 
#    0.000    0.000    0.000    0.000    0.000    0.000 
#
# Total GULP energy -357481.981872 kJ/mol
# GULP energy per Si atom -5585.655967 kJ/mol
# Density = 2.105571 g / cm^3
# Si number density = 21.103748 Si / 1000 Ang^3
#
#
#
# Elastic Constant Matrix: (Units=GPa)
#
#
# Indices 1 2 3 4 5 6 
#
# 1 189.4073 -8.8394 98.6079 0.0000 0.0000 0.0000
# 2 -8.8394 36.6267 8.3356 0.0000 0.0000 0.0000
# 3 98.6079 8.3356 184.2784 0.0000 0.0000 0.0000
# 4 0.0000 0.0000 0.0000 13.9787 0.0000 0.0000
# 5 0.0000 0.0000 0.0000 0.0000 55.5274 0.0000
# 6 0.0000 0.0000 0.0000 0.0000 0.0000 15.1178
#
#
#
# Elastic Compliance Matrix: (Units=1/GPa)
#
#
# Indices 1 2 3 4 5 6 
#
# 1 0.007589 0.002785 -0.004187 0.000000 0.000000 0.000000
# 2 0.002785 0.028608 -0.002784 0.000000 0.000000 0.000000
# 3 -0.004187 -0.002784 0.007793 0.000000 0.000000 0.000000
# 4 0.000000 0.000000 0.000000 0.071537 0.000000 0.000000
# 5 0.000000 0.000000 0.000000 0.000000 0.018009 0.000000
# 6 0.000000 0.000000 0.000000 0.000000 0.000000 0.066147
#
#
# Mechanical properties :
#
#
# Convention : Reuss Voigt Hill
#
# Bulk Modulus (GPa) = 28.07623 67.39116 47.73370
# Shear Modulus (GPa) = 22.73453 37.73867 30.23660
#
# Velocity S-wave (km/s) = 3.28575 4.23335 3.78929
# Velocity P-wave (km/s) = 5.26570 7.47647 6.46627
#
# Compressibility (1/GPa) = 0.03561732
#
# Stress axis : x y z
#
# Youngs Moduli (GPa) = 131.76231 34.95516 128.31999
#
# Poissons Ratio (x) = -0.09733 0.53729
# Poissons Ratio (y) = -0.36689 0.35725
# Poissons Ratio (z) = 0.55170 0.09732
#
# Static dielectric constant tensor:
#      x y z
#    x 1.645890 0.000000 0.000000 
#    y 0.000000 1.810240 0.000000 
#    z 0.000000 0.000000 1.766770 
# 
# From -- ./inp_files/23839.got.cif
#   From: 2010.05.17/outbox.cif.g08.bks.cpg/sg48_12_cif.got.tgz:23839.got - 2010.06.03 20:39:00.
