data_PCOD9389035
_publ_section_title
;
Structure prediction by ZEFSAII (Michael W. Deem and Ramdas Pophale) SiO2 
 PCOD9389035
Probable space group: P M M M
;
_chemical_formula_sum "Si O2"
_cell_formula_units_Z 56
_cell_length_a 7.395047
_cell_length_b 16.430218
_cell_length_c 21.123460
_cell_angle_alpha 90.000000
_cell_angle_beta 90.000000
_cell_angle_gamma 90.000000
_cell_volume 2566.547587
_symmetry_space_group_name_H-M "P M M M"
_symmetry_group_IT_number 47
_symmetry_cell_setting 'orthorhombic'
loop_
_space_group_symop_operation_xyz
x,y,z
-x,-y,z
x,-y,-z
-x,y,-z
-x,-y,-z
x,y,-z
-x,y,z
x,-y,z
loop_
_atom_site_type_symbol
_atom_site_label
_atom_site_fract_x
_atom_site_fract_y
_atom_site_fract_z
Si Si1 0.282441 0.669518 0.131769
Si Si2 0.214723 0.142218 0.163620
Si Si3 0.780852 0.185806 0.703755
Si Si4 0.279128 0.594199 0.000000
Si Si5 0.779014 0.769226 0.430536
Si Si6 0.206805 0.586854 0.402910
Si Si7 0.709083 0.626279 0.735491
Si Si8 0.221769 0.000000 0.072645
O O1 0.500000 0.661493 0.133171
O O2 0.242414 0.764843 0.141603
O O3 0.216640 0.619023 0.193349
O O4 0.217757 0.637408 0.064406
O O5 0.282761 0.133150 0.236190
O O6 0.283335 0.078659 0.112232
O O7 0.000000 0.128833 0.166997
O O8 0.721623 0.178577 0.630747
O O9 0.723720 0.277179 0.722303
O O10 0.000000 0.182636 0.703639
O O11 0.227259 0.500000 0.000000
O O12 0.500000 0.597351 0.000000
O O13 0.725242 0.798677 0.500000
O O14 0.716736 0.674775 0.422682
O O15 0.000000 0.766950 0.428591
O O16 0.288886 0.500000 0.422528
O O17 0.203739 0.588251 0.326351
O O18 0.000000 0.587087 0.425412
O O19 0.500000 0.601016 0.734960
O O20 0.000000 0.000000 0.071058
O O21 0.281264 0.000000 0.000000
#
# Coordination Sequence:
#
# PCOD9389035 Si02
#       8
#     8   8   8   4   8   8   8   4
#     4   9  18  31  48  67  86 112 148 186 224 267
#     4   9  17  30  49  69  92 122 150 181 217 259
#     4   8  14  26  43  62  82 106 139 173 210 251
#     4   9  18  32  47  62  83 112 146 185 227 269
#     4   8  13  22  38  59  80 102 136 182 220 255
#     4   9  17  27  38  54  78 107 138 174 219 267
#     4   9  16  26  41  60  78 100 136 179 215 255
#     4   9  18  30  45  71 102 126 154 181 209 261
#
# _framework density 21.819195000000001
#
# number of rings (size 3 to 8) (size 9 to 14) (size 15 to 20)
#    0.000    3.286    0.000    1.286    1.000    1.714 
#    0.000    3.214    0.000    8.143    0.000    4.500 
#    0.000    4.000    0.000    0.000    0.000   38.857 
#
# Total GULP energy -312014.846768 kJ/mol
# GULP energy per Si atom -5571.693692 kJ/mol
# Density = 2.176953 g / cm^3
# Si number density = 21.819195 Si / 1000 Ang^3
#
#
#
# Elastic Constant Matrix: (Units=GPa)
#
#
# Indices 1 2 3 4 5 6 
#
# 1 77.0143 -2.5383 9.1792 0.0000 0.0000 0.0000
# 2 -2.5383 55.2614 64.8225 0.0000 0.0000 0.0000
# 3 9.1792 64.8225 253.5004 0.0000 0.0000 0.0000
# 4 0.0000 0.0000 0.0000 -14.2722 0.0000 0.0000
# 5 0.0000 0.0000 0.0000 0.0000 8.3754 0.0000
# 6 0.0000 0.0000 0.0000 0.0000 0.0000 -19.1027
#
#
#
# Elastic Compliance Matrix: (Units=1/GPa)
#
#
# Indices 1 2 3 4 5 6 
#
# 1 0.013147 0.001660 -0.000901 0.000000 0.000000 0.000000
# 2 0.001660 0.026059 -0.006724 0.000000 0.000000 0.000000
# 3 -0.000901 -0.006724 0.005697 0.000000 0.000000 0.000000
# 4 0.000000 0.000000 0.000000 -0.070066 0.000000 0.000000
# 5 0.000000 0.000000 0.000000 0.000000 0.119398 0.000000
# 6 0.000000 0.000000 0.000000 0.000000 0.000000 -0.052349
#
#
# Mechanical properties :
#
#
# Convention : Reuss Voigt Hill
#
# Bulk Modulus (GPa) = 30.32656 58.74477 44.53566
# Shear Modulus (GPa) = 77.15515 15.95428 46.55472
#
# Velocity S-wave (km/s) = 5.95297 2.70701 4.62417
# Velocity P-wave (km/s) = 7.82175 6.06238 6.99758
#
# Compressibility (1/GPa) = 0.03297440
#
# Stress axis : x y z
#
# Youngs Moduli (GPa) = 76.06492 38.37438 175.54068
#
# Poissons Ratio (x) = -0.06371 0.15809
# Poissons Ratio (y) = -0.12629 1.18028
# Poissons Ratio (z) = 0.06850 0.25802
#
# Static dielectric constant tensor:
#      x y z
#    x 1.821670 0.000000 0.000000 
#    y 0.000000 1.700450 0.000000 
#    z 0.000000 0.000000 1.846780 
# 
# From -- ./inp_files/29730.got.cif
#   From: 2010.05.17/outbox.cif.g08.bks.cpg/sg47_15_cif.got.tgz:29730.got - 2010.06.03 20:15:42.
