data_PCOD9389421
_publ_section_title
;
Structure prediction by ZEFSAII (Michael W. Deem and Ramdas Pophale) SiO2 
 PCOD9389421
Probable space group: P M M M
;
_chemical_formula_sum "Si O2"
_cell_formula_units_Z 40
_cell_length_a 15.000000
_cell_length_b 15.000000
_cell_length_c 9.000000
_cell_angle_alpha 90.000000
_cell_angle_beta 90.000000
_cell_angle_gamma 90.000000
_cell_volume 2025.000000
_symmetry_space_group_name_H-M "P M M M"
_symmetry_group_IT_number 47
_symmetry_cell_setting 'orthorhombic'
loop_
_space_group_symop_operation_xyz
x,y,z
-x,-y,z
x,-y,-z
-x,y,-z
-x,-y,-z
x,y,-z
-x,y,z
x,-y,z
loop_
_atom_site_type_symbol
_atom_site_label
_atom_site_fract_x
_atom_site_fract_y
_atom_site_fract_z
Si Si1 0.740689 0.599655 0.821421
Si Si2 0.101785 0.276913 0.821539
Si Si3 0.606811 0.274823 0.670055
Si Si4 0.108579 0.097045 0.672323
Si Si5 0.608613 0.098991 0.170106
O O1 0.735978 0.500000 0.763865
O O2 0.829865 0.648875 0.768114
O O3 0.655571 0.655044 0.772617
O O4 0.744362 0.597653 0.000000
O O5 0.135933 0.181036 0.767995
O O6 0.000000 0.290297 0.769140
O O7 0.100017 0.277781 0.000000
O O8 0.630557 0.290936 0.500000
O O9 0.500000 0.280006 0.685131
O O10 0.636341 0.176574 0.720600
O O11 0.134089 0.107535 0.500000
O O12 0.000000 0.095953 0.676284
O O13 0.138868 0.000000 0.726223
O O14 0.500000 0.097981 0.169831
O O15 0.638088 0.000000 0.212412
O O16 0.636074 0.117630 0.000000
#
# Coordination Sequence:
#
# PCOD9389421 Si02
#       5
#     8   8   8   8   8
#     4  10  22  39  57  77 102 135 176 220 267 320
#     4   9  18  33  54  80 107 134 168 213 262 309
#     4  10  21  36  55  80 109 140 174 216 265 312
#     4   8  14  26  46  73 105 140 174 206 245 298
#     4   8  14  27  50  79 109 141 175 210 251 303
#
# _framework density 19.753086
#
# number of rings (size 3 to 8) (size 9 to 14) (size 15 to 20)
#    0.000    3.000    0.000    1.800    0.000    4.000 
#    0.000    9.000    0.000    1.200    0.000    4.200 
#    0.000    0.000    0.000    0.000    0.000    0.000 
#
# Total GULP energy -223003.626933 kJ/mol
# GULP energy per Si atom -5575.090673 kJ/mol
# Density = 1.970813 g / cm^3
# Si number density = 19.753086 Si / 1000 Ang^3
#
#
#
# Elastic Constant Matrix: (Units=GPa)
#
#
# Indices 1 2 3 4 5 6 
#
# 1 20.1645 13.5194 17.1692 0.0000 0.0000 0.0000
# 2 13.5194 97.7454 28.0265 0.0000 0.0000 0.0000
# 3 17.1692 28.0265 1.2521 0.0000 0.0000 0.0000
# 4 0.0000 0.0000 0.0000 77.7138 0.0000 0.0000
# 5 0.0000 0.0000 0.0000 0.0000 9.9362 0.0000
# 6 0.0000 0.0000 0.0000 0.0000 0.0000 22.0626
#
#
#
# Elastic Compliance Matrix: (Units=1/GPa)
#
#
# Indices 1 2 3 4 5 6 
#
# 1 0.022552 -0.015790 0.044190 0.000000 0.000000 0.000000
# 2 -0.015790 0.009167 0.011326 0.000000 0.000000 0.000000
# 3 0.044190 0.011326 -0.060818 0.000000 0.000000 0.000000
# 4 0.000000 0.000000 0.000000 0.012868 0.000000 0.000000
# 5 0.000000 0.000000 0.000000 0.000000 0.100642 0.000000
# 6 0.000000 0.000000 0.000000 0.000000 0.000000 0.045326
#
#
# Mechanical properties :
#
#
# Convention : Reuss Voigt Hill
#
# Bulk Modulus (GPa) = 19.85922 26.28803 23.07363
# Shear Modulus (GPa) = 74.55171 25.97232 50.26201
#
# Velocity S-wave (km/s) = 6.15010 3.63002 5.04979
# Velocity P-wave (km/s) = 7.77864 5.55937 6.76069
#
# Compressibility (1/GPa) = 0.05035444
#
# Stress axis : x y z
#
# Youngs Moduli (GPa) = 44.34103 109.08705 -16.44237
#
# Poissons Ratio (x) = 1.72248 0.72659
# Poissons Ratio (y) = 0.70014 0.18623
# Poissons Ratio (z) = -1.95944 -1.23556
#
# Static dielectric constant tensor:
#      x y z
#    x 1.726330 0.000000 0.000000 
#    y 0.000000 1.696630 0.000000 
#    z 0.000000 0.000000 1.663800 
# 
# From -- ./inp_files/3701.got.cif
#   From: 2010.05.17/outbox.ucp.g08.bks.cvg/sg47_2_cif.got.tgz:3701.got - 2010.06.11 16:36:43.
