data_PCOD9389719
_publ_section_title
;
Structure prediction by ZEFSAII (Michael W. Deem and Ramdas Pophale) SiO2 
 PCOD9389719
Probable space group: P N N N
;
_chemical_formula_sum "Si O2"
_cell_formula_units_Z 56
_cell_length_a 25.423834
_cell_length_b 9.753978
_cell_length_c 10.753503
_cell_angle_alpha 90.000000
_cell_angle_beta 90.000000
_cell_angle_gamma 90.000000
_cell_volume 2666.691500
_symmetry_space_group_name_H-M "P N N N"
_symmetry_group_IT_number 48
_space_group.IT_coordinate_system_code '2'
_symmetry_cell_setting 'orthorhombic'
loop_
_space_group_symop_operation_xyz
x,y,z
1/2-x,1/2-y,z
x,1/2-y,1/2-z
1/2-x,y,1/2-z
-x,-y,-z
1/2+x,1/2+y,-z
-x,1/2+y,1/2+z
1/2+x,-y,1/2+z
loop_
_atom_site_type_symbol
_atom_site_label
_atom_site_fract_x
_atom_site_fract_y
_atom_site_fract_z
Si Si1 0.837327 0.897136 0.187433
Si Si2 0.499770 0.370257 0.164573
Si Si3 0.017474 0.085906 0.621805
Si Si4 0.805786 0.721609 0.552165
Si Si5 0.076539 0.758153 0.466778
Si Si6 0.605317 0.530510 0.949792
Si Si7 0.632535 0.530671 0.437465
O O1 0.845493 0.750000 0.250000
O O2 0.794401 0.861459 0.079977
O O3 0.835992 0.994265 0.307747
O O4 0.985656 0.007471 0.256858
O O5 0.476529 0.250000 0.250000
O O6 0.547725 0.300989 0.090716
O O7 0.453292 0.420066 0.076350
O O8 0.117217 0.448404 0.595758
O O9 0.973108 0.201652 0.619077
O O10 0.078624 0.113470 0.597364
O O11 0.000000 0.000000 0.500000
O O12 0.750000 0.750000 0.611613
O O13 0.849861 0.624389 0.614072
O O14 0.833819 0.865476 0.520391
O O15 0.108541 0.628946 0.415121
O O16 0.112123 0.890081 0.499931
#
# Coordination Sequence:
#
# PCOD9389719 Si02
#       7
#     8   8   8   8   8   8   8
#     4   8  18  32  57  80 115 148 202 240 306 346
#     4  12  22  36  59  85 127 164 205 242 295 383
#     4  10  21  34  56  86 122 166 195 237 312 364
#     4   9  20  38  60  84 116 158 209 259 311 366
#     4  11  23  37  55  89 129 162 204 241 307 368
#     4  10  23  37  54  88 118 157 203 256 294 367
#     4  10  18  34  57  85 115 162 199 244 299 364
#
# _framework density 20.999806
#
# number of rings (size 3 to 8) (size 9 to 14) (size 15 to 20)
#    0.857    1.143    2.857    2.143    2.000    3.143 
#    2.571    0.714    0.000    0.429   11.143    0.000 
#    4.286    0.000    0.000    0.000    0.000    0.000 
#
# Total GULP energy -311872.180882 kJ/mol
# GULP energy per Si atom -5569.146087 kJ/mol
# Density = 2.095201 g / cm^3
# Si number density = 20.999806 Si / 1000 Ang^3
#
#
#
# Elastic Constant Matrix: (Units=GPa)
#
#
# Indices 1 2 3 4 5 6 
#
# 1 98.9247 48.3012 19.0287 0.0000 0.0000 0.0000
# 2 48.3012 109.4159 19.1198 0.0000 0.0000 0.0000
# 3 19.0287 19.1198 49.9450 0.0000 0.0000 0.0000
# 4 0.0000 0.0000 0.0000 22.2855 0.0000 0.0000
# 5 0.0000 0.0000 0.0000 0.0000 6.5362 0.0000
# 6 0.0000 0.0000 0.0000 0.0000 0.0000 26.2653
#
#
#
# Elastic Compliance Matrix: (Units=1/GPa)
#
#
# Indices 1 2 3 4 5 6 
#
# 1 0.013298 -0.005343 -0.003021 0.000000 0.000000 0.000000
# 2 -0.005343 0.011941 -0.002536 0.000000 0.000000 0.000000
# 3 -0.003021 -0.002536 0.022144 0.000000 0.000000 0.000000
# 4 0.000000 0.000000 0.000000 0.044872 0.000000 0.000000
# 5 0.000000 0.000000 0.000000 0.000000 0.152994 0.000000
# 6 0.000000 0.000000 0.000000 0.000000 0.000000 0.038073
#
#
# Mechanical properties :
#
#
# Convention : Reuss Voigt Hill
#
# Bulk Modulus (GPa) = 39.08705 47.90946 43.49826
# Shear Modulus (GPa) = 15.94135 22.47314 19.20725
#
# Velocity S-wave (km/s) = 2.75820 3.27488 3.02758
# Velocity P-wave (km/s) = 5.36629 6.09619 5.74285
#
# Compressibility (1/GPa) = 0.02558392
#
# Stress axis : x y z
#
# Youngs Moduli (GPa) = 75.19675 83.74510 45.15921
#
# Poissons Ratio (x) = 0.44741 0.13644
# Poissons Ratio (y) = 0.40174 0.11451
# Poissons Ratio (z) = 0.22720 0.21236
#
# Static dielectric constant tensor:
#      x y z
#    x 1.773410 0.000000 0.000000 
#    y 0.000000 1.811530 0.000000 
#    z 0.000000 0.000000 1.845820 
# 
# From -- ./inp_files/32345.got.cif
#   From: 2010.05.17/outbox.cif.g08.bks.cpg/sg48_17_cif.got.tgz:32345.got - 2010.06.03 20:39:00.
