data_PCOD9389528
_publ_section_title
;
Structure prediction by ZEFSAII (Michael W. Deem and Ramdas Pophale) SiO2 
 PCOD9389528
Probable space group: P N N N
;
_chemical_formula_sum "Si O2"
_cell_formula_units_Z 48
_cell_length_a 34.305425
_cell_length_b 8.113484
_cell_length_c 8.801018
_cell_angle_alpha 90.000000
_cell_angle_beta 90.000000
_cell_angle_gamma 90.000000
_cell_volume 2449.644695
_symmetry_space_group_name_H-M "P N N N"
_symmetry_group_IT_number 48
_space_group.IT_coordinate_system_code '2'
_symmetry_cell_setting 'orthorhombic'
loop_
_space_group_symop_operation_xyz
x,y,z
1/2-x,1/2-y,z
x,1/2-y,1/2-z
1/2-x,y,1/2-z
-x,-y,-z
1/2+x,1/2+y,-z
-x,1/2+y,1/2+z
1/2+x,-y,1/2+z
loop_
_atom_site_type_symbol
_atom_site_label
_atom_site_fract_x
_atom_site_fract_y
_atom_site_fract_z
Si Si1 0.621849 0.094402 0.154105
Si Si2 0.435938 0.005284 0.329849
Si Si3 0.750000 0.750000 0.250000
Si Si4 0.498258 0.750000 0.250000
Si Si5 0.308749 0.003035 0.620817
Si Si6 0.250000 0.750000 0.750000
Si Si7 0.853748 0.337161 0.611425
Si Si8 0.439033 0.341694 0.507134
O O1 0.603243 0.250000 0.250000
O O2 0.656524 0.016762 0.255437
O O3 0.639407 0.195019 0.012978
O O4 0.594140 0.948300 0.094435
O O5 0.433383 0.149421 0.457052
O O6 0.442626 0.075900 0.159493
O O7 0.470901 0.874973 0.344830
O O8 0.395269 0.908671 0.337061
O O9 0.719755 0.846723 0.354713
O O10 0.525152 0.659011 0.374690
O O11 0.278985 0.853754 0.646829
O O12 0.329664 0.984542 0.461477
O O13 0.832941 0.250000 0.750000
#
# Coordination Sequence:
#
# PCOD9389528 Si02
#       8
#     8   8   2   4   8   2   8   8
#     4  10  21  40  64  96 126 167 223 259 314 399
#     4  11  24  43  61  91 133 165 215 278 338 377
#     4  10  24  40  68 100 144 154 208 276 320 380
#     4  12  24  43  64  90 124 178 224 268 334 391
#     4  10  22  38  67  98 127 171 207 259 315 388
#     4  10  16  42  62  94 128 158 214 254 300 374
#     4  11  20  40  68  91 127 174 208 264 320 389
#     4  11  25  41  64  94 125 169 219 279 326 391
#
# _framework density 19.594678999999999
#
# number of rings (size 3 to 8) (size 9 to 14) (size 15 to 20)
#    0.000    1.333    5.000    1.000    7.000    0.000 
#    6.000    0.417    0.000    1.000    0.000    0.000 
#    0.000    0.000    0.000    0.000    0.000    0.000 
#
# Total GULP energy -267492.999339 kJ/mol
# GULP energy per Si atom -5572.770820 kJ/mol
# Density = 1.955008 g / cm^3
# Si number density = 19.594679 Si / 1000 Ang^3
#
#
#
# Elastic Constant Matrix: (Units=GPa)
#
#
# Indices 1 2 3 4 5 6 
#
# 1 115.5597 59.2817 38.3825 0.0000 0.0000 0.0000
# 2 59.2817 98.7868 34.6107 0.0000 0.0000 0.0000
# 3 38.3825 34.6107 93.3741 0.0000 0.0000 0.0000
# 4 0.0000 0.0000 0.0000 36.6482 0.0000 0.0000
# 5 0.0000 0.0000 0.0000 0.0000 -50.1445 0.0000
# 6 0.0000 0.0000 0.0000 0.0000 0.0000 32.1469
#
#
#
# Elastic Compliance Matrix: (Units=1/GPa)
#
#
# Indices 1 2 3 4 5 6 
#
# 1 0.013129 -0.006882 -0.002846 0.000000 0.000000 0.000000
# 2 -0.006882 0.015241 -0.002820 0.000000 0.000000 0.000000
# 3 -0.002846 -0.002820 0.012925 0.000000 0.000000 0.000000
# 4 0.000000 0.000000 0.000000 0.027286 0.000000 0.000000
# 5 0.000000 0.000000 0.000000 0.000000 -0.019942 0.000000
# 6 0.000000 0.000000 0.000000 0.000000 0.000000 0.031107
#
#
# Mechanical properties :
#
#
# Convention : Reuss Voigt Hill
#
# Bulk Modulus (GPa) = 61.73433 63.58559 62.65996
# Shear Modulus (GPa) = 45.35496 15.42651 30.39073
#
# Velocity S-wave (km/s) = 4.81631 2.80890 3.94251
# Velocity P-wave (km/s) = 7.90589 6.56054 7.26443
#
# Compressibility (1/GPa) = 0.01619844
#
# Stress axis : x y z
#
# Youngs Moduli (GPa) = 76.16689 65.61430 77.36962
#
# Poissons Ratio (x) = 0.45153 0.22020
# Poissons Ratio (y) = 0.52415 0.21822
# Poissons Ratio (z) = 0.21678 0.18506
#
# Static dielectric constant tensor:
#      x y z
#    x 1.652990 0.000000 0.000000 
#    y 0.000000 1.765520 0.000000 
#    z 0.000000 0.000000 1.719730 
# 
# From -- ./inp_files/16851.got.cif
#   From: 2010.05.17/outbox.cif.g08.bks.cpg/sg48_9_cif.got.tgz:16851.got - 2010.06.03 20:39:00.
