data_PCOD9389464
_publ_section_title
;
Structure prediction by ZEFSAII (Michael W. Deem and Ramdas Pophale) SiO2 
 PCOD9389464
Probable space group: P M M M
;
_chemical_formula_sum "Si O2"
_cell_formula_units_Z 52
_cell_length_a 21.000000
_cell_length_b 9.000000
_cell_length_c 15.000000
_cell_angle_alpha 90.000000
_cell_angle_beta 90.000000
_cell_angle_gamma 90.000000
_cell_volume 2835.000000
_symmetry_space_group_name_H-M "P M M M"
_symmetry_group_IT_number 47
_symmetry_cell_setting 'orthorhombic'
loop_
_space_group_symop_operation_xyz
x,y,z
-x,-y,z
x,-y,-z
-x,y,-z
-x,-y,-z
x,y,-z
-x,y,z
x,-y,z
loop_
_atom_site_type_symbol
_atom_site_label
_atom_site_fract_x
_atom_site_fract_y
_atom_site_fract_z
Si Si1 0.575674 0.176866 0.898089
Si Si2 0.876220 0.170614 0.606410
Si Si3 0.680043 0.676418 0.778918
Si Si4 0.723326 0.826462 0.601888
Si Si5 0.932039 0.821806 0.892569
Si Si6 0.076097 0.500000 0.394999
Si Si7 0.792225 0.820975 0.106538
O O1 0.500000 0.200183 0.888826
O O2 0.616421 0.263792 0.826074
O O3 0.587770 0.000000 0.889405
O O4 0.593745 0.218823 0.000000
O O5 0.891260 0.166650 0.500000
O O6 0.799778 0.179180 0.616171
O O7 0.901978 0.333568 0.639535
O O8 0.895104 0.000000 0.640145
O O9 0.682176 0.500000 0.781042
O O10 0.688933 0.734824 0.678532
O O11 0.737778 0.743623 0.837351
O O12 0.711052 0.777193 0.500000
O O13 0.705234 0.000000 0.609202
O O14 0.862760 0.769587 0.861851
O O15 0.000000 0.762338 0.857788
O O16 0.932439 0.000000 0.878872
O O17 0.932073 0.800374 0.000000
O O18 0.096133 0.500000 0.500000
O O19 0.000000 0.500000 0.389893
O O20 0.788244 0.000000 0.117901
O O21 0.786141 0.792713 0.000000
#
# Coordination Sequence:
#
# PCOD9389464 Si02
#       7
#     8   8   8   8   8   4   8
#     4   9  19  38  63  87 114 153 195 228 261 310
#     4   8  15  28  46  68  94 127 169 220 279 340
#     4  12  24  33  50  83 117 148 180 221 276 335
#     4   9  19  37  59  79 100 133 181 237 287 329
#     4   7  10  19  39  67  94 123 167 221 272 317
#     4   9  16  24  40  68  98 130 166 213 278 346
#     4   9  17  30  49  73 105 144 183 227 273 319
#
# _framework density 18.342151999999999
#
# number of rings (size 3 to 8) (size 9 to 14) (size 15 to 20)
#    0.000    3.000    0.000    4.615    1.077    3.385 
#    0.000    2.308    0.000    1.846    0.000    7.538 
#    0.000    0.000    0.000    0.000    0.000    0.000 
#
# Total GULP energy -289736.631477 kJ/mol
# GULP energy per Si atom -5571.858298 kJ/mol
# Density = 1.830040 g / cm^3
# Si number density = 18.342152 Si / 1000 Ang^3
#
#
#
# Elastic Constant Matrix: (Units=GPa)
#
#
# Indices 1 2 3 4 5 6 
#
# 1 63.7623 44.9724 48.6731 0.0000 0.0000 0.0000
# 2 44.9724 105.1266 56.5200 0.0000 0.0000 0.0000
# 3 48.6731 56.5200 81.2937 0.0000 0.0000 0.0000
# 4 0.0000 0.0000 0.0000 7.2978 0.0000 0.0000
# 5 0.0000 0.0000 0.0000 0.0000 4.8253 0.0000
# 6 0.0000 0.0000 0.0000 0.0000 0.0000 3.5758
#
#
#
# Elastic Compliance Matrix: (Units=1/GPa)
#
#
# Indices 1 2 3 4 5 6 
#
# 1 0.030546 -0.005165 -0.014697 0.000000 0.000000 0.000000
# 2 -0.005165 0.016064 -0.008076 0.000000 0.000000 0.000000
# 3 -0.014697 -0.008076 0.026716 0.000000 0.000000 0.000000
# 4 0.000000 0.000000 0.000000 0.137027 0.000000 0.000000
# 5 0.000000 0.000000 0.000000 0.000000 0.207239 0.000000
# 6 0.000000 0.000000 0.000000 0.000000 0.000000 0.279660
#
#
# Mechanical properties :
#
#
# Convention : Reuss Voigt Hill
#
# Bulk Modulus (GPa) = 57.31314 61.16818 59.24066
# Shear Modulus (GPa) = 6.58809 9.80760 8.19784
#
# Velocity S-wave (km/s) = 1.89725 2.31487 2.11639
# Velocity P-wave (km/s) = 6.00949 6.36912 6.19191
#
# Compressibility (1/GPa) = 0.01744801
#
# Stress axis : x y z
#
# Youngs Moduli (GPa) = 32.73773 62.25112 37.43114
#
# Poissons Ratio (x) = 0.32155 0.55014
# Poissons Ratio (y) = 0.16910 0.30229
# Poissons Ratio (z) = 0.48116 0.50273
#
# Static dielectric constant tensor:
#      x y z
#    x 1.643110 0.000000 0.000000 
#    y 0.000000 1.636210 0.000000 
#    z 0.000000 0.000000 1.649250 
# 
# From -- ./inp_files/25047.got.cif
#   From: 2010.05.17/outbox.ucp.g08.bks.cvg/sg47_13_cif.got.tgz:25047.got - 2010.06.11 16:36:43.
