data_PCOD9389584
_publ_section_title
;
Structure prediction by ZEFSAII (Michael W. Deem and Ramdas Pophale) SiO2 
 PCOD9389584
Probable space group: P N N N
;
_chemical_formula_sum "Si O2"
_cell_formula_units_Z 64
_cell_length_a 16.585175
_cell_length_b 8.936010
_cell_length_c 21.137119
_cell_angle_alpha 90.000000
_cell_angle_beta 90.000000
_cell_angle_gamma 90.000000
_cell_volume 3132.632844
_symmetry_space_group_name_H-M "P N N N"
_symmetry_group_IT_number 48
_space_group.IT_coordinate_system_code '2'
_symmetry_cell_setting 'orthorhombic'
loop_
_space_group_symop_operation_xyz
x,y,z
1/2-x,1/2-y,z
x,1/2-y,1/2-z
1/2-x,y,1/2-z
-x,-y,-z
1/2+x,1/2+y,-z
-x,1/2+y,1/2+z
1/2+x,-y,1/2+z
loop_
_atom_site_type_symbol
_atom_site_label
_atom_site_fract_x
_atom_site_fract_y
_atom_site_fract_z
Si Si1 0.286497 0.409952 0.050629
Si Si2 0.523735 0.200905 0.443312
Si Si3 0.956927 0.721510 0.177497
Si Si4 0.133550 0.575035 0.002839
Si Si5 0.603200 0.742095 0.048115
Si Si6 0.161341 0.425870 0.240727
Si Si7 0.566717 0.477592 0.862010
Si Si8 0.946461 0.980592 0.625054
O O1 0.250000 0.250000 0.078408
O O2 0.355890 0.484285 0.093860
O O3 0.220958 0.534505 0.031387
O O4 0.327230 0.349475 0.986562
O O5 0.608981 0.279606 0.461421
O O6 0.475688 0.183563 0.509557
O O7 0.508604 0.060468 0.397152
O O8 0.472848 0.324891 0.404858
O O9 0.936803 0.750000 0.250000
O O10 0.895118 0.770152 0.123315
O O11 0.981131 0.550913 0.164875
O O12 0.037169 0.812260 0.155978
O O13 0.111097 0.419823 0.967027
O O14 0.076783 0.578323 0.064428
O O15 0.169420 0.250000 0.250000
O O16 0.250000 0.495726 0.250000
O O17 0.095809 0.467119 0.293449
O O18 0.128379 0.462541 0.171613
#
# Coordination Sequence:
#
# PCOD9389584 Si02
#       8
#     8   8   8   8   8   8   8   8
#     4   9  20  34  58  83 111 144 193 241 296 347
#     4  10  18  33  60  81 103 140 200 242 280 325
#     4  12  23  37  56  79 118 156 186 229 290 347
#     4  10  17  34  61  82 102 145 194 244 285 340
#     4   9  18  35  57  82 109 147 189 240 284 337
#     4  11  22  33  54  79 115 154 195 234 270 336
#     4  11  23  35  52  86 114 154 188 236 282 345
#     4  11  19  36  55  80 108 150 194 223 275 346
#
# _framework density 20.430101000000001
#
# number of rings (size 3 to 8) (size 9 to 14) (size 15 to 20)
#    0.000    1.625    5.000    2.250    1.750    2.000 
#    0.000    3.125    0.000    3.375    0.000    0.000 
#    0.000    0.000    8.000    0.000    0.000    0.000 
#
# Total GULP energy -356644.561270 kJ/mol
# GULP energy per Si atom -5572.571270 kJ/mol
# Density = 2.038360 g / cm^3
# Si number density = 20.430101 Si / 1000 Ang^3
#
#
#
# Elastic Constant Matrix: (Units=GPa)
#
#
# Indices 1 2 3 4 5 6 
#
# 1 40.5798 4.1210 11.5859 0.0000 0.0000 0.0000
# 2 4.1210 37.5989 19.5494 0.0000 0.0000 0.0000
# 3 11.5859 19.5494 143.8644 0.0000 0.0000 0.0000
# 4 0.0000 0.0000 0.0000 24.9811 0.0000 0.0000
# 5 0.0000 0.0000 0.0000 0.0000 50.5913 0.0000
# 6 0.0000 0.0000 0.0000 0.0000 0.0000 8.6284
#
#
#
# Elastic Compliance Matrix: (Units=1/GPa)
#
#
# Indices 1 2 3 4 5 6 
#
# 1 0.025341 -0.001847 -0.001790 0.000000 0.000000 0.000000
# 2 -0.001847 0.028753 -0.003758 0.000000 0.000000 0.000000
# 3 -0.001790 -0.003758 0.007606 0.000000 0.000000 0.000000
# 4 0.000000 0.000000 0.000000 0.040030 0.000000 0.000000
# 5 0.000000 0.000000 0.000000 0.000000 0.019766 0.000000
# 6 0.000000 0.000000 0.000000 0.000000 0.000000 0.115896
#
#
# Mechanical properties :
#
#
# Convention : Reuss Voigt Hill
#
# Bulk Modulus (GPa) = 21.31746 32.50621 26.91184
# Shear Modulus (GPa) = 18.66925 29.29261 23.98093
#
# Velocity S-wave (km/s) = 3.02621 3.79066 3.42980
# Velocity P-wave (km/s) = 4.76105 5.92489 5.37456
#
# Compressibility (1/GPa) = 0.04690989
#
# Stress axis : x y z
#
# Youngs Moduli (GPa) = 39.46118 34.77878 131.47747
#
# Poissons Ratio (x) = 0.06423 0.23533
# Poissons Ratio (y) = 0.07288 0.49415
# Poissons Ratio (z) = 0.07063 0.13071
#
# Static dielectric constant tensor:
#      x y z
#    x 1.803760 0.000000 0.000000 
#    y 0.000000 1.734360 0.000000 
#    z 0.000000 0.000000 1.741710 
# 
# From -- ./inp_files/34710.got.cif
#   From: 2010.05.17/outbox.cif.g08.bks.cpg/sg48_18_cif.got.tgz:34710.got - 2010.06.03 20:39:00.
