data_PCOD9389220
_publ_section_title
;
Structure prediction by ZEFSAII (Michael W. Deem and Ramdas Pophale) SiO2 
 PCOD9389220
Probable space group: P M M M
;
_chemical_formula_sum "Si O2"
_cell_formula_units_Z 64
_cell_length_a 15.000000
_cell_length_b 24.000000
_cell_length_c 9.000000
_cell_angle_alpha 90.000000
_cell_angle_beta 90.000000
_cell_angle_gamma 90.000000
_cell_volume 3240.000000
_symmetry_space_group_name_H-M "P M M M"
_symmetry_group_IT_number 47
_symmetry_cell_setting 'orthorhombic'
loop_
_space_group_symop_operation_xyz
x,y,z
-x,-y,z
x,-y,-z
-x,y,-z
-x,-y,-z
x,y,-z
-x,y,z
x,-y,z
loop_
_atom_site_type_symbol
_atom_site_label
_atom_site_fract_x
_atom_site_fract_y
_atom_site_fract_z
Si Si1 0.397988 0.105066 0.177084
Si Si2 0.768112 0.940193 0.678357
Si Si3 0.597116 0.653589 0.820462
Si Si4 0.099141 0.617667 0.180915
Si Si5 0.904743 0.851242 0.677869
Si Si6 0.357706 0.228291 0.172416
Si Si7 0.149055 0.742280 0.828888
Si Si8 0.728373 0.560209 0.181722
O O1 0.500000 0.090118 0.200122
O O2 0.329911 0.065424 0.258247
O O3 0.381082 0.168207 0.235394
O O4 0.379797 0.104383 0.000000
O O5 0.765398 0.936619 0.500000
O O6 0.825722 0.889058 0.738640
O O7 0.808035 0.000000 0.717881
O O8 0.500000 0.629053 0.797822
O O9 0.600977 0.716079 0.759552
O O10 0.670771 0.611814 0.763482
O O11 0.611160 0.658909 0.000000
O O12 0.132397 0.679457 0.222424
O O13 0.170429 0.571906 0.225815
O O14 0.000000 0.608131 0.235518
O O15 0.097649 0.617312 0.000000
O O16 0.898916 0.851124 0.500000
O O17 0.898644 0.788655 0.733453
O O18 0.000000 0.875786 0.720716
O O19 0.252915 0.241424 0.173963
O O20 0.388006 0.225020 0.000000
O O21 0.118669 0.745652 0.000000
O O22 0.696256 0.500000 0.230706
O O23 0.724343 0.560998 0.000000
#
# Coordination Sequence:
#
# PCOD9389220 Si02
#       8
#     8   8   8   8   8   8   8   8
#     4  10  20  34  54  79 103 128 162 205 249 292
#     4  10  22  39  56  74  99 133 169 201 237 286
#     4   9  15  23  36  54  80 116 155 193 234 282
#     4   9  16  25  38  58  83 113 151 192 235 285
#     4  10  21  36  54  77 103 129 160 201 247 292
#     4   9  15  26  45  68  93 120 152 194 243 290
#     4  10  17  29  51  74  97 126 159 198 244 294
#     4   9  16  24  32  47  77 117 159 197 231 273
#
# _framework density 19.753086
#
# number of rings (size 3 to 8) (size 9 to 14) (size 15 to 20)
#    0.000    2.500    2.500    0.750    0.000    3.750 
#    0.000    5.000    0.000    0.000    0.000    1.750 
#    0.000    0.500    0.000    2.625    0.000    4.375 
#
# Total GULP energy -356332.745246 kJ/mol
# GULP energy per Si atom -5567.699144 kJ/mol
# Density = 1.970813 g / cm^3
# Si number density = 19.753086 Si / 1000 Ang^3
#
#
#
# Elastic Constant Matrix: (Units=GPa)
#
#
# Indices 1 2 3 4 5 6 
#
# 1 53.6082 34.0676 14.1322 0.0000 0.0000 0.0000
# 2 34.0676 69.6306 5.5568 0.0000 0.0000 0.0000
# 3 14.1322 5.5568 -9.5612 0.0000 0.0000 0.0000
# 4 0.0000 0.0000 0.0000 -53.2452 0.0000 0.0000
# 5 0.0000 0.0000 0.0000 0.0000 7.6684 0.0000
# 6 0.0000 0.0000 0.0000 0.0000 0.0000 -19.9869
#
#
#
# Elastic Compliance Matrix: (Units=1/GPa)
#
#
# Indices 1 2 3 4 5 6 
#
# 1 0.020016 -0.011615 0.022834 0.000000 0.000000 0.000000
# 2 -0.011615 0.020465 -0.005274 0.000000 0.000000 0.000000
# 3 0.022834 -0.005274 -0.073904 0.000000 0.000000 0.000000
# 4 0.000000 0.000000 0.000000 -0.018781 0.000000 0.000000
# 5 0.000000 0.000000 0.000000 0.000000 0.130405 0.000000
# 6 0.000000 0.000000 0.000000 0.000000 0.000000 -0.050033
#
#
# Mechanical properties :
#
#
# Convention : Reuss Voigt Hill
#
# Bulk Modulus (GPa) = -46.44015 24.57675 -10.93170
# Shear Modulus (GPa) = 549.41196 -9.11799 270.14698
#
# Velocity S-wave (km/s) = 16.69562 -2.15082 11.70721
# Velocity P-wave (km/s) = 18.65735 2.51018 13.31161
#
# Compressibility (1/GPa) = -0.02153309
#
# Stress axis : x y z
#
# Youngs Moduli (GPa) = 49.96103 48.86334 -13.53106
#
# Poissons Ratio (x) = 0.56755 0.30897
# Poissons Ratio (y) = 0.58030 -0.07136
# Poissons Ratio (z) = -1.14082 0.25771
#
# Static dielectric constant tensor:
#      x y z
#    x 1.746590 0.000000 0.000000 
#    y 0.000000 1.699230 0.000000 
#    z 0.000000 0.000000 1.663540 
# 
# From -- ./inp_files/7793.got.cif
#   From: 2010.05.17/outbox.ucp.g08.bks.cvg/sg47_4_cif.got.tgz:7793.got - 2010.06.11 16:36:43.
