data_PCOD9389930
_publ_section_title
;
Structure prediction by ZEFSAII (Michael W. Deem and Ramdas Pophale) SiO2 
 PCOD9389930
Probable space group: P N N N
;
_chemical_formula_sum "Si O2"
_cell_formula_units_Z 60
_cell_length_a 20.536711
_cell_length_b 11.498445
_cell_length_c 11.688576
_cell_angle_alpha 90.000000
_cell_angle_beta 90.000000
_cell_angle_gamma 90.000000
_cell_volume 2760.143164
_symmetry_space_group_name_H-M "P N N N"
_symmetry_group_IT_number 48
_space_group.IT_coordinate_system_code '2'
_symmetry_cell_setting 'orthorhombic'
loop_
_space_group_symop_operation_xyz
x,y,z
1/2-x,1/2-y,z
x,1/2-y,1/2-z
1/2-x,y,1/2-z
-x,-y,-z
1/2+x,1/2+y,-z
-x,1/2+y,1/2+z
1/2+x,-y,1/2+z
loop_
_atom_site_type_symbol
_atom_site_label
_atom_site_fract_x
_atom_site_fract_y
_atom_site_fract_z
Si Si1 0.866623 0.797324 0.538488
Si Si2 0.389885 0.035497 0.515289
Si Si3 0.297898 0.842806 0.533196
Si Si4 0.788092 0.994333 0.630927
Si Si5 0.457848 0.250000 0.250000
Si Si6 0.890343 0.309530 0.874515
Si Si7 0.529928 0.660186 0.353247
Si Si8 0.489721 0.011115 0.331384
O O1 0.858122 0.661205 0.506311
O O2 0.804070 0.873741 0.568151
O O3 0.910835 0.801006 0.652385
O O4 0.908975 0.851391 0.435252
O O5 0.419351 0.993772 0.392203
O O6 0.344696 0.943537 0.582122
O O7 0.455940 0.045633 0.587636
O O8 0.250000 0.750000 0.595445
O O9 0.345347 0.762131 0.459547
O O10 0.255562 0.920661 0.446078
O O11 0.750000 0.977376 0.750000
O O12 0.856155 0.065100 0.641158
O O13 0.497258 0.148401 0.312186
O O14 0.890909 0.250000 0.750000
O O15 0.964385 0.301957 0.919073
O O16 0.544424 0.750000 0.250000
O O17 0.503082 0.546516 0.289972
#
# Coordination Sequence:
#
# PCOD9389930 Si02
#       8
#     8   8   8   8   4   8   8   8
#     4  11  25  41  61 100 141 170 223 266 343 414
#     4  10  21  41  62  92 134 176 220 268 336 411
#     4  10  22  37  60  90 121 169 226 265 319 389
#     4  11  23  38  58  92 132 179 215 274 325 396
#     4  10  24  38  57  98 133 174 208 272 340 406
#     4  10  19  33  62  94 132 169 215 268 326 402
#     4  11  21  39  68 100 129 176 219 276 333 402
#     4  10  21  38  65  95 133 174 214 272 344 400
#
# _framework density 21.738004
#
# number of rings (size 3 to 8) (size 9 to 14) (size 15 to 20)
#    0.000    1.600    2.667    2.400    7.467    2.667 
#    2.400    0.000    0.000    0.800    0.000    0.000 
#    0.000    0.000    0.000    0.000    0.000    0.000 
#
# Total GULP energy -334771.894938 kJ/mol
# GULP energy per Si atom -5579.531582 kJ/mol
# Density = 2.168853 g / cm^3
# Si number density = 21.738004 Si / 1000 Ang^3
#
#
#
# Elastic Constant Matrix: (Units=GPa)
#
#
# Indices 1 2 3 4 5 6 
#
# 1 68.4298 31.5146 15.7195 0.0000 0.0000 0.0000
# 2 31.5146 114.6125 11.2901 0.0000 0.0000 0.0000
# 3 15.7195 11.2901 40.3555 0.0000 0.0000 0.0000
# 4 0.0000 0.0000 0.0000 25.0979 0.0000 0.0000
# 5 0.0000 0.0000 0.0000 0.0000 20.5052 0.0000
# 6 0.0000 0.0000 0.0000 0.0000 0.0000 -5.7641
#
#
#
# Elastic Compliance Matrix: (Units=1/GPa)
#
#
# Indices 1 2 3 4 5 6 
#
# 1 0.017950 -0.004367 -0.005770 0.000000 0.000000 0.000000
# 2 -0.004367 0.010035 -0.001106 0.000000 0.000000 0.000000
# 3 -0.005770 -0.001106 0.027337 0.000000 0.000000 0.000000
# 4 0.000000 0.000000 0.000000 0.039844 0.000000 0.000000
# 5 0.000000 0.000000 0.000000 0.000000 0.048768 0.000000
# 6 0.000000 0.000000 0.000000 0.000000 0.000000 -0.173488
#
#
# Mechanical properties :
#
#
# Convention : Reuss Voigt Hill
#
# Bulk Modulus (GPa) = 30.45581 37.82736 34.14158
# Shear Modulus (GPa) = 1289.04466 18.95937 654.00201
#
# Velocity S-wave (km/s) = 24.37783 2.95647 17.36403
# Velocity P-wave (km/s) = 28.39740 5.39384 20.43900
#
# Compressibility (1/GPa) = 0.03283446
#
# Stress axis : x y z
#
# Youngs Moduli (GPa) = 55.70910 99.65232 36.58052
#
# Poissons Ratio (x) = 0.43521 0.21108
# Poissons Ratio (y) = 0.24330 0.04047
# Poissons Ratio (z) = 0.32146 0.11024
#
# Static dielectric constant tensor:
#      x y z
#    x 1.835410 0.000000 0.000000 
#    y 0.000000 1.889300 0.000000 
#    z 0.000000 0.000000 1.787950 
# 
# From -- ./inp_files/22943.got.cif
#   From: 2010.05.17/outbox.cif.g08.bks.cpg/sg48_12_cif.got.tgz:22943.got - 2010.06.03 20:39:00.
