data_PCOD9389985
_publ_section_title
;
Structure prediction by ZEFSAII (Michael W. Deem and Ramdas Pophale) SiO2 
 PCOD9389985
Probable space group: P N N N
;
_chemical_formula_sum "Si O2"
_cell_formula_units_Z 48
_cell_length_a 21.301915
_cell_length_b 5.986640
_cell_length_c 16.222314
_cell_angle_alpha 90.000000
_cell_angle_beta 90.000000
_cell_angle_gamma 90.000000
_cell_volume 2068.781357
_symmetry_space_group_name_H-M "P N N N"
_symmetry_group_IT_number 48
_space_group.IT_coordinate_system_code '2'
_symmetry_cell_setting 'orthorhombic'
loop_
_space_group_symop_operation_xyz
x,y,z
1/2-x,1/2-y,z
x,1/2-y,1/2-z
1/2-x,y,1/2-z
-x,-y,-z
1/2+x,1/2+y,-z
-x,1/2+y,1/2+z
1/2+x,-y,1/2+z
loop_
_atom_site_type_symbol
_atom_site_label
_atom_site_fract_x
_atom_site_fract_y
_atom_site_fract_z
Si Si1 0.630329 0.774359 0.157607
Si Si2 0.316117 0.499947 0.506042
Si Si3 0.906787 0.387818 0.465348
Si Si4 0.098920 0.184349 0.108763
Si Si5 0.977360 0.118747 0.332885
Si Si6 0.225217 0.498885 0.363597
O O1 0.654821 0.750000 0.250000
O O2 0.618602 0.552546 0.105328
O O3 0.676810 0.919770 0.100032
O O4 0.561031 0.888711 0.167222
O O5 0.349819 0.737197 0.503091
O O6 0.360621 0.342991 0.450604
O O7 0.250500 0.493568 0.458771
O O8 0.933984 0.516351 0.544112
O O9 0.953356 0.226153 0.417777
O O10 0.051939 0.339527 0.160090
O O11 0.151183 0.031551 0.153563
O O12 0.957286 0.250000 0.250000
O O13 0.250000 0.750000 0.337294
O O14 0.250000 0.250000 0.334429
#
# Coordination Sequence:
#
# PCOD9389985 Si02
#       6
#     8   8   8   8   8   8
#     4  10  20  36  55  85 123 167 201 252 322 391
#     4   9  20  34  59  87 114 153 212 266 319 374
#     4  10  19  35  57  83 117 159 203 254 315 387
#     4  10  21  35  58  87 118 158 209 264 316 382
#     4  11  22  36  54  86 126 166 204 251 320 398
#     4  10  19  38  61  91 119 154 204 275 320 365
#
# _framework density 23.202065999999999
#
# number of rings (size 3 to 8) (size 9 to 14) (size 15 to 20)
#    0.000    2.000    3.333    0.500    0.000    7.333 
#    0.000    0.000    0.000   17.000    4.333    4.667 
#    0.000    0.000    0.000    0.000    0.000    0.000 
#
# Total GULP energy -267279.824274 kJ/mol
# GULP energy per Si atom -5568.329672 kJ/mol
# Density = 2.314926 g / cm^3
# Si number density = 23.202066 Si / 1000 Ang^3
#
#
#
# Elastic Constant Matrix: (Units=GPa)
#
#
# Indices 1 2 3 4 5 6 
#
# 1 88.3889 22.2432 25.5422 0.0000 0.0000 0.0000
# 2 22.2432 117.0792 9.4115 0.0000 0.0000 0.0000
# 3 25.5422 9.4115 80.3599 0.0000 0.0000 0.0000
# 4 0.0000 0.0000 0.0000********** 0.0000 0.0000
# 5 0.0000 0.0000 0.0000 0.0000 22.2571 0.0000
# 6 0.0000 0.0000 0.0000 0.0000 0.0000 14.1574
#
#
#
# Elastic Compliance Matrix: (Units=1/GPa)
#
#
# Indices 1 2 3 4 5 6 
#
# 1 0.012974 -0.002154 -0.003872 0.000000 0.000000 0.000000
# 2 -0.002154 0.008980 -0.000367 0.000000 0.000000 0.000000
# 3 -0.003872 -0.000367 0.013718 0.000000 0.000000 0.000000
# 4 0.000000 0.000000 0.000000 -0.000048 0.000000 0.000000
# 5 0.000000 0.000000 0.000000 0.000000 0.044930 0.000000
# 6 0.000000 0.000000 0.000000 0.000000 0.000000 0.070634
#
#
# Mechanical properties :
#
#
# Convention : Reuss Voigt Hill
#
# Bulk Modulus (GPa) = 43.69308 44.46910 44.08109
# Shear Modulus (GPa) = 29.13715 -4177.80760 -2074.33522
#
# Velocity S-wave (km/s) = 3.54757 -42.47973 -29.93278
# Velocity P-wave (km/s) = 5.97099 48.85519 34.28685
#
# Compressibility (1/GPa) = 0.02288692
#
# Stress axis : x y z
#
# Youngs Moduli (GPa) = 77.07467 111.35961 72.89901
#
# Poissons Ratio (x) = 0.23984 0.28224
# Poissons Ratio (y) = 0.16600 0.02676
# Poissons Ratio (z) = 0.29841 0.04089
#
# Static dielectric constant tensor:
#      x y z
#    x 1.934060 0.000000 0.000000 
#    y 0.000000 1.928300 0.000000 
#    z 0.000000 0.000000 1.874730 
# 
# From -- ./inp_files/4519.got.cif
#   From: 2010.05.17/outbox.cif.g08.bks.cpg/sg48_3_cif.got.tgz:4519.got - 2010.06.03 20:39:00.
