data_PCOD9389401
_publ_section_title
;
Structure prediction by ZEFSAII (Michael W. Deem and Ramdas Pophale) SiO2 
 PCOD9389401
Probable space group: P M M M
;
_chemical_formula_sum "Si O2"
_cell_formula_units_Z 56
_cell_length_a 21.000000
_cell_length_b 15.000000
_cell_length_c 9.000000
_cell_angle_alpha 90.000000
_cell_angle_beta 90.000000
_cell_angle_gamma 90.000000
_cell_volume 2835.000000
_symmetry_space_group_name_H-M "P M M M"
_symmetry_group_IT_number 47
_symmetry_cell_setting 'orthorhombic'
loop_
_space_group_symop_operation_xyz
x,y,z
-x,-y,z
x,-y,-z
-x,y,-z
-x,-y,-z
x,y,-z
-x,y,z
x,-y,z
loop_
_atom_site_type_symbol
_atom_site_label
_atom_site_fract_x
_atom_site_fract_y
_atom_site_fract_z
Si Si1 0.306842 0.104904 0.665281
Si Si2 0.072952 0.245445 0.821159
Si Si3 0.568461 0.353138 0.678815
Si Si4 0.820152 0.894752 0.177145
Si Si5 0.844488 0.396076 0.680128
Si Si6 0.707137 0.394306 0.668240
Si Si7 0.431200 0.838350 0.175160
O O1 0.318548 0.141967 0.500000
O O2 0.242522 0.140583 0.738804
O O3 0.368208 0.114486 0.768513
O O4 0.295968 0.000000 0.651389
O O5 0.118517 0.162815 0.781468
O O6 0.102212 0.332941 0.746487
O O7 0.000000 0.230948 0.777216
O O8 0.075167 0.255089 0.000000
O O9 0.569492 0.365702 0.500000
O O10 0.500000 0.392333 0.730125
O O11 0.637428 0.382931 0.738270
O O12 0.566322 0.250758 0.726949
O O13 0.829587 0.000000 0.208530
O O14 0.809385 0.886911 0.000000
O O15 0.843439 0.390774 0.500000
O O16 0.854249 0.500000 0.719571
O O17 0.774197 0.364224 0.736108
O O18 0.703512 0.356845 0.500000
O O19 0.715865 0.500000 0.654940
O O20 0.500000 0.885000 0.196134
O O21 0.425998 0.817591 0.000000
#
# Coordination Sequence:
#
# PCOD9389401 Si02
#       7
#     8   8   8   8   8   8   8
#     4  10  21  36  55  79 105 135 174 221 270 316
#     4  10  22  38  57  85 115 143 180 225 275 328
#     4   9  17  29  47  73 103 135 174 220 268 315
#     4   9  19  37  59  83 113 147 182 220 266 328
#     4   9  19  36  56  79 110 148 189 231 274 325
#     4   8  15  29  49  74 102 133 173 220 268 315
#     4  10  21  35  50  71 103 142 180 219 265 317
#
# _framework density 19.753086
#
# number of rings (size 3 to 8) (size 9 to 14) (size 15 to 20)
#    0.000    2.714    0.000    1.714    2.000    4.000 
#    0.000    5.714    0.000    1.286    0.000    5.000 
#    0.000    0.000    0.000    0.000    0.000    0.000 
#
# Total GULP energy -311754.900342 kJ/mol
# GULP energy per Si atom -5567.051792 kJ/mol
# Density = 1.970813 g / cm^3
# Si number density = 19.753086 Si / 1000 Ang^3
#
#
#
# Elastic Constant Matrix: (Units=GPa)
#
#
# Indices 1 2 3 4 5 6 
#
# 1 187.8385 37.5214 36.8805 0.0000 0.0000 0.0000
# 2 37.5214 59.1706 11.6912 0.0000 0.0000 0.0000
# 3 36.8805 11.6912 7.2120 0.0000 0.0000 0.0000
# 4 0.0000 0.0000 0.0000 15.2270 0.0000 0.0000
# 5 0.0000 0.0000 0.0000 0.0000 13.5830 0.0000
# 6 0.0000 0.0000 0.0000 0.0000 0.0000 -11.0968
#
#
#
# Elastic Compliance Matrix: (Units=1/GPa)
#
#
# Indices 1 2 3 4 5 6 
#
# 1 -0.076428 -0.042310 0.459423 0.000000 0.000000 0.000000
# 2 -0.042310 0.001442 0.214024 0.000000 0.000000 0.000000
# 3 0.459423 0.214024 -2.557665 0.000000 0.000000 0.000000
# 4 0.000000 0.000000 0.000000 0.065673 0.000000 0.000000
# 5 0.000000 0.000000 0.000000 0.000000 0.073622 0.000000
# 6 0.000000 0.000000 0.000000 0.000000 0.000000 -0.090116
#
#
# Mechanical properties :
#
#
# Convention : Reuss Voigt Hill
#
# Bulk Modulus (GPa) = -0.72973 47.37858 23.32443
# Shear Modulus (GPa) = -1.16210 14.75116 6.79453
#
# Velocity S-wave (km/s) = -0.76785 2.73569 1.85666
# Velocity P-wave (km/s) = 1.07534 5.83233 4.05338
#
# Compressibility (1/GPa) = -1.37037611
#
# Stress axis : x y z
#
# Youngs Moduli (GPa) = -13.08413 693.45701 -0.39098
#
# Poissons Ratio (x) = 29.34008 0.17963
# Poissons Ratio (y) = -0.55359 0.08368
# Poissons Ratio (z) = 6.01115 -148.41668
#
# Static dielectric constant tensor:
#      x y z
#    x 1.749630 0.000000 0.000000 
#    y 0.000000 1.713240 0.000000 
#    z 0.000000 0.000000 1.695610 
# 
# From -- ./inp_files/7330.got.cif
#   From: 2010.05.17/outbox.ucp.g08.bks.cvg/sg47_4_cif.got.tgz:7330.got - 2010.06.11 16:36:43.
