data_PCOD9389935
_publ_section_title
;
Structure prediction by ZEFSAII (Michael W. Deem and Ramdas Pophale) SiO2 
 PCOD9389935
Probable space group: P N N N
;
_chemical_formula_sum "Si O2"
_cell_formula_units_Z 48
_cell_length_a 13.852993
_cell_length_b 29.555630
_cell_length_c 5.996055
_cell_angle_alpha 90.000000
_cell_angle_beta 90.000000
_cell_angle_gamma 90.000000
_cell_volume 2454.988396
_symmetry_space_group_name_H-M "P N N N"
_symmetry_group_IT_number 48
_space_group.IT_coordinate_system_code '2'
_symmetry_cell_setting 'orthorhombic'
loop_
_space_group_symop_operation_xyz
x,y,z
1/2-x,1/2-y,z
x,1/2-y,1/2-z
1/2-x,y,1/2-z
-x,-y,-z
1/2+x,1/2+y,-z
-x,1/2+y,1/2+z
1/2+x,-y,1/2+z
loop_
_atom_site_type_symbol
_atom_site_label
_atom_site_fract_x
_atom_site_fract_y
_atom_site_fract_z
Si Si1 0.035604 0.852126 0.549283
Si Si2 0.145500 0.118582 0.695168
Si Si3 0.716455 0.301823 0.498823
Si Si4 0.149026 0.466844 0.116105
Si Si5 0.994997 0.585246 0.571405
Si Si6 0.862037 0.434938 0.798677
O O1 0.101009 0.808631 0.510734
O O2 0.090167 0.892243 0.416012
O O3 0.926104 0.851961 0.459711
O O4 0.037090 0.871728 0.797725
O O5 0.250000 0.138323 0.750000
O O6 0.159792 0.069973 0.576101
O O7 0.086524 0.106422 0.914334
O O8 0.750000 0.250000 0.496098
O O9 0.750000 0.321025 0.250000
O O10 0.750000 0.319018 0.750000
O O11 0.250000 0.466878 0.250000
O O12 0.060684 0.448281 0.263611
O O13 0.129144 0.519017 0.059012
O O14 0.076873 0.560340 0.428768
O O15 0.750000 0.427556 0.750000
#
# Coordination Sequence:
#
# PCOD9389935 Si02
#       6
#     8   8   8   8   8   8
#     4  10  23  35  57  85 118 151 201 253 314 377
#     4  10  20  36  55  77 112 155 209 263 305 360
#     4  10  23  43  70  98 131 162 194 238 305 390
#     4  10  19  34  51  72 105 158 216 258 310 360
#     4  10  21  34  52  74 109 155 201 264 306 363
#     4  10  22  34  48  77 110 157 205 258 316 363
#
# _framework density 19.552028
#
# number of rings (size 3 to 8) (size 9 to 14) (size 15 to 20)
#    0.000    2.000    1.667    1.000    7.000    7.333 
#    0.000    0.000    0.000    0.000    0.000    2.333 
#    0.000    0.000    0.000    0.000    0.000    0.000 
#
# Total GULP energy -267527.634567 kJ/mol
# GULP energy per Si atom -5573.492387 kJ/mol
# Density = 1.950753 g / cm^3
# Si number density = 19.552028 Si / 1000 Ang^3
#
#
#
# Elastic Constant Matrix: (Units=GPa)
#
#
# Indices 1 2 3 4 5 6 
#
# 1 140.3975 29.2542 26.4349 0.0000 0.0000 0.0000
# 2 29.2542 59.1148 3.6341 0.0000 0.0000 0.0000
# 3 26.4349 3.6341 76.3672 0.0000 0.0000 0.0000
# 4 0.0000 0.0000 0.0000 1.0419 0.0000 0.0000
# 5 0.0000 0.0000 0.0000 0.0000 11.7942 0.0000
# 6 0.0000 0.0000 0.0000 0.0000 0.0000 14.9545
#
#
#
# Elastic Compliance Matrix: (Units=1/GPa)
#
#
# Indices 1 2 3 4 5 6 
#
# 1 0.008478 -0.004027 -0.002743 0.000000 0.000000 0.000000
# 2 -0.004027 0.018879 0.000496 0.000000 0.000000 0.000000
# 3 -0.002743 0.000496 0.014021 0.000000 0.000000 0.000000
# 4 0.000000 0.000000 0.000000 0.959766 0.000000 0.000000
# 5 0.000000 0.000000 0.000000 0.000000 0.084787 0.000000
# 6 0.000000 0.000000 0.000000 0.000000 0.000000 0.066869
#
#
# Mechanical properties :
#
#
# Convention : Reuss Voigt Hill
#
# Bulk Modulus (GPa) = 34.68811 43.83622 39.26216
# Shear Modulus (GPa) = 4.25547 19.99521 12.12534
#
# Velocity S-wave (km/s) = 1.47689 3.20139 2.49300
# Velocity P-wave (km/s) = 4.54843 6.01117 5.33021
#
# Compressibility (1/GPa) = 0.02882832
#
# Stress axis : x y z
#
# Youngs Moduli (GPa) = 117.94927 52.97000 71.32362
#
# Poissons Ratio (x) = 0.21331 0.19565
# Poissons Ratio (y) = 0.47498 -0.03535
# Poissons Ratio (z) = 0.32355 -0.02625
#
# Static dielectric constant tensor:
#      x y z
#    x 1.711150 0.000000 0.000000 
#    y 0.000000 1.675660 0.000000 
#    z 0.000000 0.000000 1.778090 
# 
# From -- ./inp_files/3533.got.cif
#   From: 2010.05.17/outbox.cif.g08.bks.cpg/sg48_2_cif.got.tgz:3533.got - 2010.06.03 20:39:00.
