data_PCOD9389376
_publ_section_title
;
Structure prediction by ZEFSAII (Michael W. Deem and Ramdas Pophale) SiO2 
 PCOD9389376
Probable space group: P M M M
;
_chemical_formula_sum "Si O2"
_cell_formula_units_Z 64
_cell_length_a 9.000000
_cell_length_b 24.000000
_cell_length_c 15.000000
_cell_angle_alpha 90.000000
_cell_angle_beta 90.000000
_cell_angle_gamma 90.000000
_cell_volume 3240.000000
_symmetry_space_group_name_H-M "P M M M"
_symmetry_group_IT_number 47
_symmetry_cell_setting 'orthorhombic'
loop_
_space_group_symop_operation_xyz
x,y,z
-x,-y,z
x,-y,-z
-x,y,-z
-x,-y,-z
x,y,-z
-x,y,z
x,-y,z
loop_
_atom_site_type_symbol
_atom_site_label
_atom_site_fract_x
_atom_site_fract_y
_atom_site_fract_z
Si Si1 0.164317 0.433840 0.772124
Si Si2 0.822886 0.770570 0.598949
Si Si3 0.677819 0.364206 0.099206
Si Si4 0.328139 0.431977 0.402140
Si Si5 0.173313 0.935608 0.222970
Si Si6 0.321220 0.263488 0.224413
Si Si7 0.677763 0.893266 0.399973
Si Si8 0.321212 0.843651 0.896562
O O1 0.155761 0.500000 0.762128
O O2 0.267698 0.419942 0.854748
O O3 0.233338 0.411582 0.680444
O O4 0.000000 0.411389 0.787312
O O5 0.790524 0.747727 0.500000
O O6 0.756016 0.736722 0.680419
O O7 0.747160 0.831479 0.604149
O O8 0.000000 0.776467 0.607852
O O9 0.500000 0.362700 0.096001
O O10 0.726176 0.315186 0.164450
O O11 0.735907 0.356987 0.000000
O O12 0.274966 0.414509 0.500000
O O13 0.500000 0.415407 0.391289
O O14 0.326530 0.500000 0.401484
O O15 0.253188 0.926451 0.317941
O O16 0.247118 0.896912 0.148624
O O17 0.000000 0.920820 0.232989
O O18 0.185015 0.000000 0.197544
O O19 0.500000 0.264640 0.235978
O O20 0.284112 0.208374 0.167260
O O21 0.709038 0.915615 0.500000
O O22 0.500000 0.889758 0.389567
O O23 0.500000 0.849422 0.894817
O O24 0.277750 0.835127 0.000000
#
# Coordination Sequence:
#
# PCOD9389376 Si02
#       8
#     8   8   8   8   8   8   8   8
#     4  10  21  36  55  82 117 155 193 235 285 341
#     4  10  20  34  56  87 121 154 186 223 273 336
#     4  10  22  40  61  85 113 147 190 240 290 339
#     4   8  14  27  50  79 109 143 185 230 274 325
#     4  11  24  39  55  80 116 154 192 237 287 341
#     4  10  20  37  62  89 115 144 183 234 285 335
#     4  10  20  35  57  84 113 148 191 236 282 336
#     4  10  21  38  61  86 110 142 186 235 289 346
#
# _framework density 19.753086
#
# number of rings (size 3 to 8) (size 9 to 14) (size 15 to 20)
#    0.000    2.125    1.250    2.250    0.000    6.750 
#    0.000    5.625    0.000    3.000    0.000    0.000 
#    0.000    0.000    0.000    0.000    0.000    0.000 
#
# Total GULP energy -357166.209660 kJ/mol
# GULP energy per Si atom -5580.722026 kJ/mol
# Density = 1.970813 g / cm^3
# Si number density = 19.753086 Si / 1000 Ang^3
#
#
#
# Elastic Constant Matrix: (Units=GPa)
#
#
# Indices 1 2 3 4 5 6 
#
# 1 28.7765 25.4873 50.9188 0.0000 0.0000 0.0000
# 2 25.4873 30.9973 42.8387 0.0000 0.0000 0.0000
# 3 50.9188 42.8387 143.4107 0.0000 0.0000 0.0000
# 4 0.0000 0.0000 0.0000 274.7299 0.0000 0.0000
# 5 0.0000 0.0000 0.0000 0.0000 -100.3288 0.0000
# 6 0.0000 0.0000 0.0000 0.0000 0.0000 -87.8890
#
#
#
# Elastic Compliance Matrix: (Units=1/GPa)
#
#
# Indices 1 2 3 4 5 6 
#
# 1 0.204315 -0.115367 -0.038081 0.000000 0.000000 0.000000
# 2 -0.115367 0.120085 0.005091 0.000000 0.000000 0.000000
# 3 -0.038081 0.005091 0.018973 0.000000 0.000000 0.000000
# 4 0.000000 0.000000 0.000000 0.003640 0.000000 0.000000
# 5 0.000000 0.000000 0.000000 0.000000 -0.009967 0.000000
# 6 0.000000 0.000000 0.000000 0.000000 0.000000 -0.011378
#
#
# Mechanical properties :
#
#
# Convention : Reuss Voigt Hill
#
# Bulk Modulus (GPa) = 21.43277 49.07490 35.25383
# Shear Modulus (GPa) = 7.83777 22.89840 15.36809
#
# Velocity S-wave (km/s) = 1.99411 3.40844 2.79231
# Velocity P-wave (km/s) = 4.02192 6.35516 5.31808
#
# Compressibility (1/GPa) = 0.04665753
#
# Stress axis : x y z
#
# Youngs Moduli (GPa) = 4.89441 8.32741 52.70559
#
# Poissons Ratio (x) = 0.96071 2.00710
# Poissons Ratio (y) = 0.56465 -0.26831
# Poissons Ratio (z) = 0.18639 -0.04239
#
# Static dielectric constant tensor:
#      x y z
#    x 1.678840 0.000000 0.000000 
#    y 0.000000 1.712500 0.000000 
#    z 0.000000 0.000000 1.686510 
# 
# From -- ./inp_files/12728.got.cif
#   From: 2010.05.17/outbox.ucp.g08.bks.cvg/sg47_7_cif.got.tgz:12728.got - 2010.06.11 16:36:43.
