data_PCOD9389848
_publ_section_title
;
Structure prediction by ZEFSAII (Michael W. Deem and Ramdas Pophale) SiO2 
 PCOD9389848
Probable space group: P N N N
;
_chemical_formula_sum "Si O2"
_cell_formula_units_Z 48
_cell_length_a 20.430783
_cell_length_b 18.413694
_cell_length_c 5.585479
_cell_angle_alpha 90.000000
_cell_angle_beta 90.000000
_cell_angle_gamma 90.000000
_cell_volume 2101.291753
_symmetry_space_group_name_H-M "P N N N"
_symmetry_group_IT_number 48
_space_group.IT_coordinate_system_code '2'
_symmetry_cell_setting 'orthorhombic'
loop_
_space_group_symop_operation_xyz
x,y,z
1/2-x,1/2-y,z
x,1/2-y,1/2-z
1/2-x,y,1/2-z
-x,-y,-z
1/2+x,1/2+y,-z
-x,1/2+y,1/2+z
1/2+x,-y,1/2+z
loop_
_atom_site_type_symbol
_atom_site_label
_atom_site_fract_x
_atom_site_fract_y
_atom_site_fract_z
Si Si1 0.983362 0.924034 0.732841
Si Si2 0.713049 0.151874 0.496898
Si Si3 0.740788 0.992269 0.999241
Si Si4 0.097195 0.954732 0.402128
Si Si5 0.567287 0.325099 0.930878
Si Si6 0.047828 0.280194 0.998621
O O1 0.047392 0.960985 0.621902
O O2 0.954736 0.866335 0.538630
O O3 0.012557 0.876922 0.946948
O O4 0.929050 0.984250 0.782572
O O5 0.750000 0.169292 0.250000
O O6 0.640324 0.183502 0.468438
O O7 0.711510 0.063081 0.504117
O O8 0.750000 0.171083 0.750000
O O9 0.750000 0.952727 0.250000
O O10 0.750000 0.950920 0.750000
O O11 0.668934 0.027021 0.988313
O O12 0.088460 0.874560 0.297445
O O13 0.527476 0.249897 0.973737
O O14 0.074971 0.250000 0.250000
O O15 0.077813 0.250000 0.750000
#
# Coordination Sequence:
#
# PCOD9389848 Si02
#       6
#     8   8   8   8   8   8
#     4  10  22  35  53  85 113 151 195 239 298 350
#     4  10  19  31  53  77 108 145 194 236 280 328
#     4  10  19  33  51  77 113 147 181 231 284 330
#     4  11  20  34  57  83 115 151 191 245 291 352
#     4  11  20  35  58  78 116 156 195 239 296 351
#     4  10  21  37  56  75 110 152 189 231 290 345
#
# _framework density 22.84309
#
# number of rings (size 3 to 8) (size 9 to 14) (size 15 to 20)
#    0.000    1.667    5.000    2.500    0.000    0.000 
#    0.000    0.000    0.000   22.000    0.000    0.000 
#    0.000   14.667    0.000    0.000    0.000    0.000 
#
# Total GULP energy -267342.317444 kJ/mol
# GULP energy per Si atom -5569.631613 kJ/mol
# Density = 2.279110 g / cm^3
# Si number density = 22.843090 Si / 1000 Ang^3
#
#
#
# Elastic Constant Matrix: (Units=GPa)
#
#
# Indices 1 2 3 4 5 6 
#
# 1 30.8503 14.7449 7.9878 0.0000 0.0000 0.0000
# 2 14.7449 83.6188 7.5337 0.0000 0.0000 0.0000
# 3 7.9878 7.5337 155.5804 0.0000 0.0000 0.0000
# 4 0.0000 0.0000 0.0000 28.7653 0.0000 0.0000
# 5 0.0000 0.0000 0.0000 0.0000 15.8144 0.0000
# 6 0.0000 0.0000 0.0000 0.0000 0.0000 12.1663
#
#
#
# Elastic Compliance Matrix: (Units=1/GPa)
#
#
# Indices 1 2 3 4 5 6 
#
# 1 0.035760 -0.006167 -0.001537 0.000000 0.000000 0.000000
# 2 -0.006167 0.013075 -0.000316 0.000000 0.000000 0.000000
# 3 -0.001537 -0.000316 0.006522 0.000000 0.000000 0.000000
# 4 0.000000 0.000000 0.000000 0.034764 0.000000 0.000000
# 5 0.000000 0.000000 0.000000 0.000000 0.063234 0.000000
# 6 0.000000 0.000000 0.000000 0.000000 0.000000 0.082194
#
#
# Mechanical properties :
#
#
# Convention : Reuss Voigt Hill
#
# Bulk Modulus (GPa) = 25.43563 36.73136 31.08350
# Shear Modulus (GPa) = 18.88955 27.33473 23.11214
#
# Velocity S-wave (km/s) = 2.87875 3.46299 3.18430
# Velocity P-wave (km/s) = 4.71261 5.66608 5.21120
#
# Compressibility (1/GPa) = 0.03931492
#
# Stress axis : x y z
#
# Youngs Moduli (GPa) = 27.96394 76.48151 153.33188
#
# Poissons Ratio (x) = 0.47168 0.23573
# Poissons Ratio (y) = 0.17246 0.04853
# Poissons Ratio (z) = 0.04299 0.02421
#
# Static dielectric constant tensor:
#      x y z
#    x 1.877860 0.000000 0.000000 
#    y 0.000000 1.971350 0.000000 
#    z 0.000000 0.000000 2.444790 
# 
# From -- ./inp_files/5190.got.cif
#   From: 2010.05.17/outbox.cif.g08.bks.cpg/sg48_3_cif.got.tgz:5190.got - 2010.06.03 20:39:00.
