data_PCOD9389535
_publ_section_title
;
Structure prediction by ZEFSAII (Michael W. Deem and Ramdas Pophale) SiO2 
 PCOD9389535
Probable space group: P N N N
;
_chemical_formula_sum "Si O2"
_cell_formula_units_Z 48
_cell_length_a 30.450409
_cell_length_b 8.859773
_cell_length_c 7.753378
_cell_angle_alpha 90.000000
_cell_angle_beta 90.000000
_cell_angle_gamma 90.000000
_cell_volume 2091.735093
_symmetry_space_group_name_H-M "P N N N"
_symmetry_group_IT_number 48
_space_group.IT_coordinate_system_code '2'
_symmetry_cell_setting 'orthorhombic'
loop_
_space_group_symop_operation_xyz
x,y,z
1/2-x,1/2-y,z
x,1/2-y,1/2-z
1/2-x,y,1/2-z
-x,-y,-z
1/2+x,1/2+y,-z
-x,1/2+y,1/2+z
1/2+x,-y,1/2+z
loop_
_atom_site_type_symbol
_atom_site_label
_atom_site_fract_x
_atom_site_fract_y
_atom_site_fract_z
Si Si1 0.517705 0.430614 0.752379
Si Si2 0.159424 0.937237 0.441484
Si Si3 0.067951 0.042277 0.907997
Si Si4 0.657825 0.087211 0.521225
Si Si5 0.748359 0.576159 0.960427
Si Si6 0.418005 0.348178 0.425523
O O1 0.519839 0.250000 0.750000
O O2 0.544033 0.468867 0.927293
O O3 0.544781 0.530395 0.618009
O O4 0.467553 0.488800 0.760900
O O5 0.154063 0.766445 0.503546
O O6 0.154519 0.935964 0.230541
O O7 0.206958 0.990762 0.503586
O O8 0.123492 0.059625 0.493403
O O9 0.067974 0.220272 0.943193
O O10 0.117852 0.987263 0.917225
O O11 0.704824 0.011758 0.479765
O O12 0.750000 0.750000 0.017844
O O13 0.750000 0.577715 0.750000
O O14 0.407522 0.250000 0.250000
#
# Coordination Sequence:
#
# PCOD9389535 Si02
#       6
#     8   8   8   8   8   8
#     4  10  20  34  49  68  94 125 169 213 250 291
#     4  10  17  26  44  64  94 132 159 192 240 286
#     4  10  20  32  50  69  92 134 167 205 253 294
#     4  10  17  28  42  63  96 126 167 193 231 292
#     4   9  17  24  39  63  93 129 162 188 229 290
#     4  10  18  30  49  67  94 126 164 203 244 292
#
# _framework density 22.947455999999999
#
# number of rings (size 3 to 8) (size 9 to 14) (size 15 to 20)
#    0.000    2.167    3.333    2.500    2.333    2.667 
#    0.000    3.333    0.000    0.000    0.000    0.000 
#    0.000    6.000    0.000   13.500    0.667    0.167 
#
# Total GULP energy -268245.372523 kJ/mol
# GULP energy per Si atom -5588.445261 kJ/mol
# Density = 2.289523 g / cm^3
# Si number density = 22.947456 Si / 1000 Ang^3
#
#
#
# Elastic Constant Matrix: (Units=GPa)
#
#
# Indices 1 2 3 4 5 6 
#
# 1 220.4014 93.6083 28.5232 0.0000 0.0000 0.0000
# 2 93.6083 168.8650 27.2175 0.0000 0.0000 0.0000
# 3 28.5232 27.2175 59.5513 0.0000 0.0000 0.0000
# 4 0.0000 0.0000 0.0000 3.4372 0.0000 0.0000
# 5 0.0000 0.0000 0.0000 0.0000 15.6493 0.0000
# 6 0.0000 0.0000 0.0000 0.0000 0.0000 35.7492
#
#
#
# Elastic Compliance Matrix: (Units=1/GPa)
#
#
# Indices 1 2 3 4 5 6 
#
# 1 0.006052 -0.003117 -0.001474 0.000000 0.000000 0.000000
# 2 -0.003117 0.007998 -0.002163 0.000000 0.000000 0.000000
# 3 -0.001474 -0.002163 0.018487 0.000000 0.000000 0.000000
# 4 0.000000 0.000000 0.000000 0.290935 0.000000 0.000000
# 5 0.000000 0.000000 0.000000 0.000000 0.063901 0.000000
# 6 0.000000 0.000000 0.000000 0.000000 0.000000 0.027973
#
#
# Mechanical properties :
#
#
# Convention : Reuss Voigt Hill
#
# Bulk Modulus (GPa) = 52.55021 83.05729 67.80375
# Shear Modulus (GPa) = 11.48908 30.93172 21.21040
#
# Velocity S-wave (km/s) = 2.23999 3.67541 3.04353
# Velocity P-wave (km/s) = 5.44427 7.36781 6.47783
#
# Compressibility (1/GPa) = 0.01902942
#
# Stress axis : x y z
#
# Youngs Moduli (GPa) = 165.23848 125.02444 54.09323
#
# Poissons Ratio (x) = 0.38973 0.07973
# Poissons Ratio (y) = 0.51508 0.11698
# Poissons Ratio (z) = 0.24355 0.27038
#
# Static dielectric constant tensor:
#      x y z
#    x 1.830810 0.000000 0.000000 
#    y 0.000000 1.826000 0.000000 
#    z 0.000000 0.000000 1.999360 
# 
# From -- ./inp_files/11374.got.cif
#   From: 2010.05.17/outbox.cif.g08.bks.cpg/sg48_6_cif.got.tgz:11374.got - 2010.06.03 20:39:00.
