data_PCOD9389826
_publ_section_title
;
Structure prediction by ZEFSAII (Michael W. Deem and Ramdas Pophale) SiO2 
 PCOD9389826
Probable space group: P N N N
;
_chemical_formula_sum "Si O2"
_cell_formula_units_Z 48
_cell_length_a 4.931841
_cell_length_b 23.743799
_cell_length_c 24.953851
_cell_angle_alpha 90.000000
_cell_angle_beta 90.000000
_cell_angle_gamma 90.000000
_cell_volume 2922.111958
_symmetry_space_group_name_H-M "P N N N"
_symmetry_group_IT_number 48
_space_group.IT_coordinate_system_code '2'
_symmetry_cell_setting 'orthorhombic'
loop_
_space_group_symop_operation_xyz
x,y,z
1/2-x,1/2-y,z
x,1/2-y,1/2-z
1/2-x,y,1/2-z
-x,-y,-z
1/2+x,1/2+y,-z
-x,1/2+y,1/2+z
1/2+x,-y,1/2+z
loop_
_atom_site_type_symbol
_atom_site_label
_atom_site_fract_x
_atom_site_fract_y
_atom_site_fract_z
Si Si1 0.250000 0.950136 0.750000
Si Si2 0.852950 0.030592 0.924375
Si Si3 0.002716 0.788822 0.661643
Si Si4 0.750000 0.872117 0.750000
Si Si5 0.364440 0.621009 0.575625
Si Si6 0.154270 0.416070 0.485025
Si Si7 0.873814 0.493299 0.137789
O O1 0.500468 0.911087 0.729710
O O2 0.366175 0.986809 0.798722
O O3 0.581961 0.036859 0.889677
O O4 0.077618 0.007491 0.883865
O O5 0.788169 0.980948 0.967456
O O6 0.999584 0.079287 0.958450
O O7 0.750000 0.750000 0.646774
O O8 0.887271 0.832429 0.705473
O O9 0.250000 0.750000 0.682025
O O10 0.104359 0.823509 0.610426
O O11 0.565908 0.616276 0.524709
O O12 0.444882 0.568571 0.614180
O O13 0.061051 0.610269 0.556077
#
# Coordination Sequence:
#
# PCOD9389826 Si02
#       7
#     4   8   8   4   8   8   8
#     4  12  22  34  51  68  86 126 156 194 231 288
#     4   9  17  29  45  70  87 110 132 180 222 278
#     4  12  25  39  50  65  85 113 158 210 251 287
#     4  12  25  38  52  60  82 118 166 204 250 280
#     4  10  19  33  48  64  84 112 140 191 238 284
#     4   9  17  29  49  67  87 105 137 171 236 286
#     4  10  19  30  47  63  92 112 148 181 227 267
#
# _framework density 16.426473999999999
#
# number of rings (size 3 to 8) (size 9 to 14) (size 15 to 20)
#    0.000    1.667    1.667    4.250    4.667    4.667 
#    0.000    0.000    0.000    0.000    0.000    0.000 
#    0.000    0.000    0.000    0.000    0.000    0.000 
#
# Total GULP energy -267765.022640 kJ/mol
# GULP energy per Si atom -5578.437972 kJ/mol
# Density = 1.638909 g / cm^3
# Si number density = 16.426474 Si / 1000 Ang^3
#
#
#
# Elastic Constant Matrix: (Units=GPa)
#
#
# Indices 1 2 3 4 5 6 
#
# 1 79.7472 -0.0374 0.3602 0.0000 0.0000 0.0000
# 2 -0.0374 12.8212 10.3612 0.0000 0.0000 0.0000
# 3 0.3602 10.3612 50.8364 0.0000 0.0000 0.0000
# 4 0.0000 0.0000 0.0000 5.1458 0.0000 0.0000
# 5 0.0000 0.0000 0.0000 0.0000 23.1631 0.0000
# 6 0.0000 0.0000 0.0000 0.0000 0.0000 20.6471
#
#
#
# Elastic Compliance Matrix: (Units=1/GPa)
#
#
# Indices 1 2 3 4 5 6 
#
# 1 0.012540 0.000130 -0.000115 0.000000 0.000000 0.000000
# 2 0.000130 0.093377 -0.019032 0.000000 0.000000 0.000000
# 3 -0.000115 -0.019032 0.023551 0.000000 0.000000 0.000000
# 4 0.000000 0.000000 0.000000 0.194332 0.000000 0.000000
# 5 0.000000 0.000000 0.000000 0.000000 0.043172 0.000000
# 6 0.000000 0.000000 0.000000 0.000000 0.000000 0.048433
#
#
# Mechanical properties :
#
#
# Convention : Reuss Voigt Hill
#
# Bulk Modulus (GPa) = 10.93713 18.30811 14.62262
# Shear Modulus (GPa) = 10.33234 18.63927 14.48580
#
# Velocity S-wave (km/s) = 2.51072 3.37220 2.97283
# Velocity P-wave (km/s) = 3.88299 5.13147 4.55025
#
# Compressibility (1/GPa) = 0.09143169
#
# Stress axis : x y z
#
# Youngs Moduli (GPa) = 79.74354 10.70932 42.46136
#
# Poissons Ratio (x) = -0.00139 0.00490
# Poissons Ratio (y) = -0.01034 0.80814
# Poissons Ratio (z) = 0.00919 0.20382
#
# Static dielectric constant tensor:
#      x y z
#    x 1.595860 0.000000 0.000000 
#    y 0.000000 1.540620 0.000000 
#    z 0.000000 0.000000 1.585770 
# 
# From -- ./inp_files/32963.got.cif
#   From: 2010.05.17/outbox.cif.g08.bks.cpg/sg48_17_cif.got.tgz:32963.got - 2010.06.03 20:39:00.
