data_PCOD9389558
_publ_section_title
;
Structure prediction by ZEFSAII (Michael W. Deem and Ramdas Pophale) SiO2 
 PCOD9389558
Probable space group: P N N N
;
_chemical_formula_sum "Si O2"
_cell_formula_units_Z 48
_cell_length_a 10.176106
_cell_length_b 24.833557
_cell_length_c 9.143220
_cell_angle_alpha 90.000000
_cell_angle_beta 90.000000
_cell_angle_gamma 90.000000
_cell_volume 2310.573145
_symmetry_space_group_name_H-M "P N N N"
_symmetry_group_IT_number 48
_space_group.IT_coordinate_system_code '2'
_symmetry_cell_setting 'orthorhombic'
loop_
_space_group_symop_operation_xyz
x,y,z
1/2-x,1/2-y,z
x,1/2-y,1/2-z
1/2-x,y,1/2-z
-x,-y,-z
1/2+x,1/2+y,-z
-x,1/2+y,1/2+z
1/2+x,-y,1/2+z
loop_
_atom_site_type_symbol
_atom_site_label
_atom_site_fract_x
_atom_site_fract_y
_atom_site_fract_z
Si Si1 0.364643 0.171619 0.637433
Si Si2 0.169730 0.127457 0.401859
Si Si3 0.204115 0.531608 0.587605
Si Si4 0.522689 0.563822 0.129475
Si Si5 0.376598 0.491717 0.354975
Si Si6 0.908654 0.740524 0.914273
O O1 0.250000 0.189709 0.750000
O O2 0.283848 0.136789 0.518897
O O3 0.457787 0.123626 0.693201
O O4 0.439120 0.219343 0.549433
O O5 0.250000 0.135785 0.250000
O O6 0.073015 0.177111 0.436357
O O7 0.100627 0.070028 0.397759
O O8 0.250000 0.547420 0.750000
O O9 0.085784 0.563133 0.502542
O O10 0.333175 0.528654 0.488739
O O11 0.151135 0.469722 0.580415
O O12 0.479089 0.523248 0.257461
O O13 0.250000 0.488254 0.250000
O O14 0.750000 0.750000 0.907158
O O15 0.961161 0.750000 0.750000
#
# Coordination Sequence:
#
# PCOD9389558 Si02
#       6
#     8   8   8   8   8   8
#     4  11  21  34  51  81 116 152 189 231 282 356
#     4  10  17  31  51  74 110 155 183 227 289 347
#     4  10  20  35  51  75 105 151 199 236 272 337
#     4  10  21  35  53  76 114 160 190 232 290 346
#     4   9  19  33  52  76 113 157 189 235 287 334
#     4   9  16  29  50  73 104 152 177 217 292 347
#
# _framework density 20.774066000000001
#
# number of rings (size 3 to 8) (size 9 to 14) (size 15 to 20)
#    0.000    2.167    5.000    0.500    2.333    3.667 
#    0.000    0.000    0.000    0.000    0.000    0.000 
#    0.000    7.333   21.333    0.667    0.000    0.000 
#
# Total GULP energy -267209.173729 kJ/mol
# GULP energy per Si atom -5566.857786 kJ/mol
# Density = 2.072678 g / cm^3
# Si number density = 20.774066 Si / 1000 Ang^3
#
#
#
# Elastic Constant Matrix: (Units=GPa)
#
#
# Indices 1 2 3 4 5 6 
#
# 1 28.9398 25.4534 19.5201 0.0000 0.0000 0.0000
# 2 25.4534 85.9331 12.3423 0.0000 0.0000 0.0000
# 3 19.5201 12.3423 98.0534 0.0000 0.0000 0.0000
# 4 0.0000 0.0000 0.0000 -172.5626 0.0000 0.0000
# 5 0.0000 0.0000 0.0000 0.0000 24.6097 0.0000
# 6 0.0000 0.0000 0.0000 0.0000 0.0000 5.0876
#
#
#
# Elastic Compliance Matrix: (Units=1/GPa)
#
#
# Indices 1 2 3 4 5 6 
#
# 1 0.053230 -0.014507 -0.008771 0.000000 0.000000 0.000000
# 2 -0.014507 0.015805 0.000899 0.000000 0.000000 0.000000
# 3 -0.008771 0.000899 0.011831 0.000000 0.000000 0.000000
# 4 0.000000 0.000000 0.000000 -0.005795 0.000000 0.000000
# 5 0.000000 0.000000 0.000000 0.000000 0.040634 0.000000
# 6 0.000000 0.000000 0.000000 0.000000 0.000000 0.196556
#
#
# Mechanical properties :
#
#
# Convention : Reuss Voigt Hill
#
# Bulk Modulus (GPa) = 27.69484 36.39532 32.04508
# Shear Modulus (GPa) = 13.54809 -18.19901 -2.32546
#
# Velocity S-wave (km/s) = 2.55652 -2.96302 -1.05917
# Velocity P-wave (km/s) = 4.69838 2.41902 3.73674
#
# Compressibility (1/GPa) = 0.03610780
#
# Stress axis : x y z
#
# Youngs Moduli (GPa) = 18.78654 63.27173 84.52040
#
# Poissons Ratio (x) = 0.91788 0.74131
# Poissons Ratio (y) = 0.27253 -0.07595
# Poissons Ratio (z) = 0.16477 -0.05685
#
# Static dielectric constant tensor:
#      x y z
#    x 1.537840 0.000000 0.000000 
#    y 0.000000 1.827700 0.000000 
#    z 0.000000 0.000000 2.195380 
# 
# From -- ./inp_files/11234.got.cif
#   From: 2010.05.17/outbox.cif.g08.bks.cpg/sg48_6_cif.got.tgz:11234.got - 2010.06.03 20:39:00.
