data_PCOD9389218
_publ_section_title
;
Structure prediction by ZEFSAII (Michael W. Deem and Ramdas Pophale) SiO2 
 PCOD9389218
Probable space group: P M M M
;
_chemical_formula_sum "Si O2"
_cell_formula_units_Z 52
_cell_length_a 9.000000
_cell_length_b 15.000000
_cell_length_c 24.000000
_cell_angle_alpha 90.000000
_cell_angle_beta 90.000000
_cell_angle_gamma 90.000000
_cell_volume 3240.000000
_symmetry_space_group_name_H-M "P M M M"
_symmetry_group_IT_number 47
_symmetry_cell_setting 'orthorhombic'
loop_
_space_group_symop_operation_xyz
x,y,z
-x,-y,z
x,-y,-z
-x,y,-z
-x,-y,-z
x,y,-z
-x,y,z
x,-y,z
loop_
_atom_site_type_symbol
_atom_site_label
_atom_site_fract_x
_atom_site_fract_y
_atom_site_fract_z
Si Si1 0.180737 0.205267 0.385890
Si Si2 0.180508 0.896077 0.500000
Si Si3 0.180906 0.208982 0.826034
Si Si4 0.180552 0.103340 0.063297
Si Si5 0.678474 0.893689 0.279096
Si Si6 0.819729 0.399904 0.651430
Si Si7 0.180292 0.599781 0.781857
O O1 0.224148 0.157067 0.443806
O O2 0.251091 0.153229 0.333544
O O3 0.224785 0.310262 0.381452
O O4 0.000000 0.201269 0.381344
O O5 0.000000 0.897955 0.500000
O O6 0.230348 0.000000 0.500000
O O7 0.226163 0.167148 0.885752
O O8 0.250219 0.151490 0.775732
O O9 0.225502 0.312653 0.816388
O O10 0.000000 0.204260 0.822158
O O11 0.000000 0.104448 0.062854
O O12 0.224918 0.000000 0.073629
O O13 0.228378 0.127681 0.000000
O O14 0.500000 0.881433 0.278848
O O15 0.709127 0.000000 0.279818
O O16 0.769814 0.500000 0.633597
O O17 0.777653 0.388392 0.716675
O O18 0.000000 0.401725 0.649698
O O19 0.230160 0.500000 0.799593
O O20 0.000000 0.598454 0.783131
#
# Coordination Sequence:
#
# PCOD9389218 Si02
#       7
#     8   4   8   8   8   8   8
#     4  10  18  32  52  70  89 120 157 187 221 272
#     4   9  18  30  46  70  94 115 149 199 234 253
#     4  10  17  28  49  71  88 118 160 189 220 272
#     4   8  14  24  39  63  93 119 148 191 231 260
#     4  11  23  34  44  65  97 123 145 187 240 274
#     4   8  13  23  42  68  94 116 142 182 228 269
#     4   8  13  22  39  66  94 115 142 184 230 269
#
# _framework density 16.049382999999999
#
# number of rings (size 3 to 8) (size 9 to 14) (size 15 to 20)
#    0.000    2.846    1.538    2.769    0.000    2.462 
#    0.000    0.769    0.000    6.462    0.000    5.385 
#    0.000    1.231    0.000    1.385    0.000    1.692 
#
# Total GULP energy -289560.428025 kJ/mol
# GULP energy per Si atom -5568.469770 kJ/mol
# Density = 1.601285 g / cm^3
# Si number density = 16.049383 Si / 1000 Ang^3
#
#
#
# Elastic Constant Matrix: (Units=GPa)
#
#
# Indices 1 2 3 4 5 6 
#
# 1 12.8366 17.3944 14.4451 0.0000 0.0000 0.0000
# 2 17.3944 184.4258 95.9406 0.0000 0.0000 0.0000
# 3 14.4451 95.9406 139.8703 0.0000 0.0000 0.0000
# 4 0.0000 0.0000 0.0000 33.1664 0.0000 0.0000
# 5 0.0000 0.0000 0.0000 0.0000 7.0865 0.0000
# 6 0.0000 0.0000 0.0000 0.0000 0.0000 11.8760
#
#
#
# Elastic Compliance Matrix: (Units=1/GPa)
#
#
# Indices 1 2 3 4 5 6 
#
# 1 0.091976 -0.005805 -0.005517 0.000000 0.000000 0.000000
# 2 -0.005805 0.008797 -0.005434 0.000000 0.000000 0.000000
# 3 -0.005517 -0.005434 0.011447 0.000000 0.000000 0.000000
# 4 0.000000 0.000000 0.000000 0.030151 0.000000 0.000000
# 5 0.000000 0.000000 0.000000 0.000000 0.141112 0.000000
# 6 0.000000 0.000000 0.000000 0.000000 0.000000 0.084203
#
#
# Mechanical properties :
#
#
# Convention : Reuss Voigt Hill
#
# Bulk Modulus (GPa) = 12.70531 65.85477 39.28004
# Shear Modulus (GPa) = 11.69767 24.38263 18.04015
#
# Velocity S-wave (km/s) = 2.70266 3.90195 3.35631
# Velocity P-wave (km/s) = 4.20389 7.83722 6.28867
#
# Compressibility (1/GPa) = 0.07870724
#
# Stress axis : x y z
#
# Youngs Moduli (GPa) = 10.87234 113.67779 87.35988
#
# Poissons Ratio (x) = 0.65988 0.48198
# Poissons Ratio (y) = 0.06311 0.47475
# Poissons Ratio (z) = 0.05999 0.61778
#
# Static dielectric constant tensor:
#      x y z
#    x 1.520290 0.000000 0.000000 
#    y 0.000000 1.563260 0.000000 
#    z 0.000000 0.000000 1.525620 
# 
# From -- ./inp_files/31986.got.cif
#   From: 2010.05.17/outbox.ucp.g08.bks.cvg/sg47_16_cif.got.tgz:31986.got - 2010.06.11 16:36:43.
