data_PCOD9389385
_publ_section_title
;
Structure prediction by ZEFSAII (Michael W. Deem and Ramdas Pophale) SiO2 
 PCOD9389385
Probable space group: P M M M
;
_chemical_formula_sum "Si O2"
_cell_formula_units_Z 48
_cell_length_a 9.000000
_cell_length_b 30.000000
_cell_length_c 9.000000
_cell_angle_alpha 90.000000
_cell_angle_beta 90.000000
_cell_angle_gamma 90.000000
_cell_volume 2430.000000
_symmetry_space_group_name_H-M "P M M M"
_symmetry_group_IT_number 47
_symmetry_cell_setting 'orthorhombic'
loop_
_space_group_symop_operation_xyz
x,y,z
-x,-y,z
x,-y,-z
-x,y,-z
-x,-y,-z
x,y,-z
-x,y,z
x,-y,z
loop_
_atom_site_type_symbol
_atom_site_label
_atom_site_fract_x
_atom_site_fract_y
_atom_site_fract_z
Si Si1 0.682115 0.500000 0.168137
Si Si2 0.674580 0.000000 0.824069
Si Si3 0.677655 0.412977 0.669159
Si Si4 0.662713 0.838619 0.324269
Si Si5 0.170013 0.672846 0.671893
Si Si6 0.827259 0.913595 0.170931
Si Si7 0.833231 0.234119 0.175329
O O1 0.500000 0.500000 0.173779
O O2 0.735111 0.544328 0.246873
O O3 0.727641 0.500000 0.000000
O O4 0.741627 0.044754 0.761017
O O5 0.500000 0.000000 0.813685
O O6 0.717418 0.000000 0.000000
O O7 0.731546 0.414070 0.500000
O O8 0.500000 0.415055 0.667442
O O9 0.728045 0.366170 0.731891
O O10 0.664327 0.837249 0.500000
O O11 0.500000 0.854243 0.273296
O O12 0.788001 0.870776 0.263182
O O13 0.703330 0.791317 0.258008
O O14 0.210202 0.684656 0.500000
O O15 0.176621 0.715145 0.776292
O O16 0.000000 0.656954 0.668701
O O17 0.000000 0.923681 0.168998
O O18 0.778649 0.905904 0.000000
O O19 0.000000 0.218568 0.221004
O O20 0.821510 0.227681 0.000000
#
# Coordination Sequence:
#
# PCOD9389385 Si02
#       7
#     4   4   8   8   8   8   8
#     4   9  17  29  46  69  96 126 162 205 252 300
#     4   9  17  31  54  83 114 147 180 218 266 315
#     4   9  17  30  49  71  95 126 165 206 247 296
#     4  11  24  39  55  78 108 141 178 221 267 313
#     4   9  18  33  52  74 102 135 168 205 253 307
#     4  10  20  35  57  84 112 143 181 222 264 315
#     4  10  21  37  57  80 105 136 174 214 259 314
#
# _framework density 19.753086
#
# number of rings (size 3 to 8) (size 9 to 14) (size 15 to 20)
#    0.000    2.333    0.000    2.500    0.000    8.667 
#    0.000    2.500    0.000    5.000    0.000    0.000 
#    0.000    0.000    0.000    0.000    0.000    0.000 
#
# Total GULP energy -267377.541886 kJ/mol
# GULP energy per Si atom -5570.365456 kJ/mol
# Density = 1.970813 g / cm^3
# Si number density = 19.753086 Si / 1000 Ang^3
#
#
#
# Elastic Constant Matrix: (Units=GPa)
#
#
# Indices 1 2 3 4 5 6 
#
# 1 -19.0277 23.4917 10.8881 0.0000 0.0000 0.0000
# 2 23.4917 64.2711 22.5127 0.0000 0.0000 0.0000
# 3 10.8881 22.5127 14.7599 0.0000 0.0000 0.0000
# 4 0.0000 0.0000 0.0000 -3.7452 0.0000 0.0000
# 5 0.0000 0.0000 0.0000 0.0000 12.9304 0.0000
# 6 0.0000 0.0000 0.0000 0.0000 0.0000 30.7117
#
#
#
# Elastic Compliance Matrix: (Units=1/GPa)
#
#
# Indices 1 2 3 4 5 6 
#
# 1 -0.034912 0.008030 0.013507 0.000000 0.000000 0.000000
# 2 0.008030 0.031561 -0.054062 0.000000 0.000000 0.000000
# 3 0.013507 -0.054062 0.140245 0.000000 0.000000 0.000000
# 4 0.000000 0.000000 0.000000 -0.267010 0.000000 0.000000
# 5 0.000000 0.000000 0.000000 0.000000 0.077337 0.000000
# 6 0.000000 0.000000 0.000000 0.000000 0.000000 0.032561
#
#
# Mechanical properties :
#
#
# Convention : Reuss Voigt Hill
#
# Bulk Modulus (GPa) = 13.91913 19.30981 16.61447
# Shear Modulus (GPa) = 72.69655 8.18677 40.44166
#
# Velocity S-wave (km/s) = 6.07310 2.03803 4.52968
# Velocity P-wave (km/s) = 7.49924 3.91598 5.98220
#
# Compressibility (1/GPa) = 0.07184359
#
# Stress axis : x y z
#
# Youngs Moduli (GPa) = -28.64309 31.68497 7.13036
#
# Poissons Ratio (x) = -0.25442 -0.09631
# Poissons Ratio (y) = 0.22999 0.38548
# Poissons Ratio (z) = 0.38688 1.71294
#
# Static dielectric constant tensor:
#      x y z
#    x 1.709980 0.000000 0.000000 
#    y 0.000000 1.882160 0.000000 
#    z 0.000000 0.000000 1.683990 
# 
# From -- ./inp_files/2568.got.cif
#   From: 2010.05.17/outbox.ucp.g08.bks.cvg/sg47_2_cif.got.tgz:2568.got - 2010.06.11 16:36:43.
