data_PCOD9389847
_publ_section_title
;
Structure prediction by ZEFSAII (Michael W. Deem and Ramdas Pophale) SiO2 
 PCOD9389847
Probable space group: P N N N
;
_chemical_formula_sum "Si O2"
_cell_formula_units_Z 48
_cell_length_a 26.691164
_cell_length_b 8.067882
_cell_length_c 11.892141
_cell_angle_alpha 90.000000
_cell_angle_beta 90.000000
_cell_angle_gamma 90.000000
_cell_volume 2560.867457
_symmetry_space_group_name_H-M "P N N N"
_symmetry_group_IT_number 48
_space_group.IT_coordinate_system_code '2'
_symmetry_cell_setting 'orthorhombic'
loop_
_space_group_symop_operation_xyz
x,y,z
1/2-x,1/2-y,z
x,1/2-y,1/2-z
1/2-x,y,1/2-z
-x,-y,-z
1/2+x,1/2+y,-z
-x,1/2+y,1/2+z
1/2+x,-y,1/2+z
loop_
_atom_site_type_symbol
_atom_site_label
_atom_site_fract_x
_atom_site_fract_y
_atom_site_fract_z
Si Si1 0.856458 0.050541 0.392421
Si Si2 0.935443 0.632652 0.948065
Si Si3 0.861544 0.058097 0.131184
Si Si4 0.747501 0.557617 0.114140
Si Si5 0.942863 0.512548 0.543422
Si Si6 0.478083 0.688495 0.365994
O O1 0.862677 0.999029 0.261053
O O2 0.869505 0.244932 0.384199
O O3 0.890356 0.943717 0.476936
O O4 0.798067 0.031617 0.425079
O O5 0.931157 0.815085 0.894111
O O6 0.951399 0.489319 0.861865
O O7 0.980525 0.662715 0.037744
O O8 0.806383 0.016129 0.083883
O O9 0.905633 0.976568 0.061608
O O10 0.750000 0.750000 0.082232
O O11 0.750000 0.546397 0.250000
O O12 0.938683 0.335133 0.604523
O O13 0.000000 0.500000 0.500000
O O14 0.501936 0.750000 0.250000
#
# Coordination Sequence:
#
# PCOD9389847 Si02
#       6
#     8   8   8   8   8   8
#     4  10  19  31  52  78 111 148 180 222 274 333
#     4  10  21  36  55  80 106 141 190 218 273 334
#     4  10  19  32  50  78 114 147 180 225 271 325
#     4   9  17  29  46  74 108 145 183 215 269 334
#     4  10  21  35  52  78 107 141 188 223 260 326
#     4  10  22  39  54  76 109 144 181 234 274 316
#
# _framework density 18.743649000000001
#
# number of rings (size 3 to 8) (size 9 to 14) (size 15 to 20)
#    0.000    2.167    1.667    1.500    4.667    4.000 
#    0.000    0.000    0.000    0.000    0.000    2.333 
#    0.000    4.000    0.000    0.000    0.000    0.000 
#
# Total GULP energy -267276.215555 kJ/mol
# GULP energy per Si atom -5568.254491 kJ/mol
# Density = 1.870099 g / cm^3
# Si number density = 18.743649 Si / 1000 Ang^3
#
#
#
# Elastic Constant Matrix: (Units=GPa)
#
#
# Indices 1 2 3 4 5 6 
#
# 1 75.3610 31.6416 10.1037 0.0000 0.0000 0.0000
# 2 31.6416 119.3417 16.2484 0.0000 0.0000 0.0000
# 3 10.1037 16.2484 31.9230 0.0000 0.0000 0.0000
# 4 0.0000 0.0000 0.0000 21.6334 0.0000 0.0000
# 5 0.0000 0.0000 0.0000 0.0000 21.8286 0.0000
# 6 0.0000 0.0000 0.0000 0.0000 0.0000 31.8828
#
#
#
# Elastic Compliance Matrix: (Units=1/GPa)
#
#
# Indices 1 2 3 4 5 6 
#
# 1 0.015188 -0.003623 -0.002963 0.000000 0.000000 0.000000
# 2 -0.003623 0.009868 -0.003876 0.000000 0.000000 0.000000
# 3 -0.002963 -0.003876 0.034236 0.000000 0.000000 0.000000
# 4 0.000000 0.000000 0.000000 0.046225 0.000000 0.000000
# 5 0.000000 0.000000 0.000000 0.000000 0.045811 0.000000
# 6 0.000000 0.000000 0.000000 0.000000 0.000000 0.031365
#
#
# Mechanical properties :
#
#
# Convention : Reuss Voigt Hill
#
# Bulk Modulus (GPa) = 26.06364 38.06812 32.06588
# Shear Modulus (GPa) = 23.10476 26.31110 24.70793
#
# Velocity S-wave (km/s) = 3.51475 3.75071 3.63464
# Velocity P-wave (km/s) = 5.51424 6.25388 5.89567
#
# Compressibility (1/GPa) = 0.03836763
#
# Stress axis : x y z
#
# Youngs Moduli (GPa) = 65.84113 101.34094 29.20926
#
# Poissons Ratio (x) = 0.36721 0.08654
# Poissons Ratio (y) = 0.23858 0.11321
# Poissons Ratio (z) = 0.19507 0.39276
#
# Static dielectric constant tensor:
#      x y z
#    x 1.648860 0.000000 0.000000 
#    y 0.000000 1.751530 0.000000 
#    z 0.000000 0.000000 1.645900 
# 
# From -- ./inp_files/23281.got.cif
#   From: 2010.05.17/outbox.cif.g08.bks.cpg/sg48_12_cif.got.tgz:23281.got - 2010.06.03 20:39:00.
