data_PCOD9389297
_publ_section_title
;
Structure prediction by ZEFSAII (Michael W. Deem and Ramdas Pophale) SiO2 
 PCOD9389297
Probable space group: P M M M
;
_chemical_formula_sum "Si O2"
_cell_formula_units_Z 64
_cell_length_a 9.000000
_cell_length_b 30.000000
_cell_length_c 15.000000
_cell_angle_alpha 90.000000
_cell_angle_beta 90.000000
_cell_angle_gamma 90.000000
_cell_volume 4050.000000
_symmetry_space_group_name_H-M "P M M M"
_symmetry_group_IT_number 47
_symmetry_cell_setting 'orthorhombic'
loop_
_space_group_symop_operation_xyz
x,y,z
-x,-y,z
x,-y,-z
-x,y,-z
-x,-y,-z
x,y,-z
-x,y,z
x,-y,z
loop_
_atom_site_type_symbol
_atom_site_label
_atom_site_fract_x
_atom_site_fract_y
_atom_site_fract_z
Si Si1 0.178459 0.724787 0.216865
Si Si2 0.674770 0.195921 0.106352
Si Si3 0.822424 0.899416 0.102176
Si Si4 0.178960 0.226402 0.396215
Si Si5 0.173610 0.450162 0.107859
Si Si6 0.321491 0.643828 0.894087
Si Si7 0.324328 0.130390 0.606391
Si Si8 0.178863 0.949018 0.280280
O O1 0.234687 0.767205 0.160131
O O2 0.218239 0.737150 0.320132
O O3 0.251214 0.681378 0.170276
O O4 0.000000 0.720762 0.211702
O O5 0.500000 0.198410 0.128654
O O6 0.737623 0.146487 0.123592
O O7 0.690174 0.203995 0.000000
O O8 0.788798 0.935784 0.177479
O O9 0.000000 0.890758 0.105631
O O10 0.786224 0.912399 0.000000
O O11 0.220071 0.236925 0.500000
O O12 0.250664 0.178413 0.372392
O O13 0.000000 0.221464 0.393720
O O14 0.223654 0.500000 0.138078
O O15 0.264476 0.405788 0.132428
O O16 0.000000 0.444973 0.133283
O O17 0.178616 0.451349 0.000000
O O18 0.500000 0.645833 0.888692
O O19 0.281531 0.651234 0.000000
O O20 0.304212 0.123658 0.500000
O O21 0.500000 0.132571 0.625374
O O22 0.252169 0.089193 0.659089
O O23 0.000000 0.946938 0.291859
O O24 0.226103 0.000000 0.299444
#
# Coordination Sequence:
#
# PCOD9389297 Si02
#       8
#     8   8   8   8   8   8   8   8
#     4  11  21  31  47  69  93 123 156 191 232 276
#     4  10  20  32  46  66  93 123 153 185 222 266
#     4   9  18  33  51  69  90 117 150 186 221 260
#     4   9  19  36  55  73  93 118 150 188 230 277
#     4   8  14  26  44  64  88 123 167 210 246 278
#     4  10  20  31  43  64  97 134 168 201 237 276
#     4  10  21  36  54  75  96 118 145 179 222 272
#     4  10  21  35  51  72  95 119 148 181 220 266
#
# _framework density 15.802469
#
# number of rings (size 3 to 8) (size 9 to 14) (size 15 to 20)
#    0.000    2.375    0.000    3.000    0.000    9.250 
#    0.000    3.750    0.000    0.000    0.000    2.625 
#    0.000    0.500    0.000    5.750    0.000    1.875 
#
# Total GULP energy -356908.808433 kJ/mol
# GULP energy per Si atom -5576.700132 kJ/mol
# Density = 1.576650 g / cm^3
# Si number density = 15.802469 Si / 1000 Ang^3
#
#
#
# Elastic Constant Matrix: (Units=GPa)
#
#
# Indices 1 2 3 4 5 6 
#
# 1 50.2823 44.8038 36.3990 0.0000 0.0000 0.0000
# 2 44.8038 121.3590 63.9907 0.0000 0.0000 0.0000
# 3 36.3990 63.9907 72.4090 0.0000 0.0000 0.0000
# 4 0.0000 0.0000 0.0000 23.8126 0.0000 0.0000
# 5 0.0000 0.0000 0.0000 0.0000 19.7711 0.0000
# 6 0.0000 0.0000 0.0000 0.0000 0.0000 12.6995
#
#
#
# Elastic Compliance Matrix: (Units=1/GPa)
#
#
# Indices 1 2 3 4 5 6 
#
# 1 0.033874 -0.006605 -0.011191 0.000000 0.000000 0.000000
# 2 -0.006605 0.016718 -0.011454 0.000000 0.000000 0.000000
# 3 -0.011191 -0.011454 0.029559 0.000000 0.000000 0.000000
# 4 0.000000 0.000000 0.000000 0.041995 0.000000 0.000000
# 5 0.000000 0.000000 0.000000 0.000000 0.050579 0.000000
# 6 0.000000 0.000000 0.000000 0.000000 0.000000 0.078743
#
#
# Mechanical properties :
#
#
# Convention : Reuss Voigt Hill
#
# Bulk Modulus (GPa) = 46.18851 59.38193 52.78522
# Shear Modulus (GPa) = 15.76370 17.84710 16.80540
#
# Velocity S-wave (km/s) = 3.16182 3.36428 3.26462
# Velocity P-wave (km/s) = 6.52852 7.26295 6.90551
#
# Compressibility (1/GPa) = 0.02165041
#
# Stress axis : x y z
#
# Youngs Moduli (GPa) = 29.52109 59.81549 33.83118
#
# Poissons Ratio (x) = 0.39508 0.37860
# Poissons Ratio (y) = 0.19498 0.38751
# Poissons Ratio (z) = 0.33037 0.68514
#
# Static dielectric constant tensor:
#      x y z
#    x 1.529710 0.000000 0.000000 
#    y 0.000000 1.513380 0.000000 
#    z 0.000000 0.000000 1.540270 
# 
# From -- ./inp_files/22139.got.cif
#   From: 2010.05.17/outbox.ucp.g08.bks.cvg/sg47_12_cif.got.tgz:22139.got - 2010.06.11 16:36:43.
