data_PCOD9389821
_publ_section_title
;
Structure prediction by ZEFSAII (Michael W. Deem and Ramdas Pophale) SiO2 
 PCOD9389821
Probable space group: P N N N
;
_chemical_formula_sum "Si O2"
_cell_formula_units_Z 56
_cell_length_a 29.553265
_cell_length_b 13.545946
_cell_length_c 6.795513
_cell_angle_alpha 90.000000
_cell_angle_beta 90.000000
_cell_angle_gamma 90.000000
_cell_volume 2720.426869
_symmetry_space_group_name_H-M "P N N N"
_symmetry_group_IT_number 48
_space_group.IT_coordinate_system_code '2'
_symmetry_cell_setting 'orthorhombic'
loop_
_space_group_symop_operation_xyz
x,y,z
1/2-x,1/2-y,z
x,1/2-y,1/2-z
1/2-x,y,1/2-z
-x,-y,-z
1/2+x,1/2+y,-z
-x,1/2+y,1/2+z
1/2+x,-y,1/2+z
loop_
_atom_site_type_symbol
_atom_site_label
_atom_site_fract_x
_atom_site_fract_y
_atom_site_fract_z
Si Si1 0.499273 0.910845 0.748971
Si Si2 0.879184 0.372497 0.946780
Si Si3 0.134598 0.520401 0.439428
Si Si4 0.197565 0.630840 0.755121
Si Si5 0.541129 0.243111 0.522955
Si Si6 0.424230 0.455291 0.692774
Si Si7 0.399732 0.361755 0.318845
O O1 0.473572 0.861326 0.564446
O O2 0.552949 0.907885 0.738338
O O3 0.477056 0.017792 0.782394
O O4 0.487347 0.827815 0.912318
O O5 0.880338 0.394868 0.715657
O O6 0.906308 0.273932 0.007012
O O7 0.830051 0.386894 0.042352
O O8 0.908709 0.455394 0.052364
O O9 0.172628 0.573008 0.576349
O O10 0.101597 0.473262 0.604287
O O11 0.139358 0.429435 0.281297
O O12 0.195772 0.750000 0.750000
O O13 0.250000 0.601519 0.750000
O O14 0.531063 0.250000 0.750000
O O15 0.407116 0.365814 0.556626
O O16 0.395667 0.250000 0.250000
#
# Coordination Sequence:
#
# PCOD9389821 Si02
#       7
#     8   8   8   8   8   8   8
#     4  10  20  35  50  79 121 157 213 273 304 357
#     4   9  20  34  57  89 120 159 205 242 305 386
#     4  10  22  40  61  85 122 167 202 259 319 378
#     4  10  23  40  63  97 131 159 191 242 315 401
#     4  10  19  29  51  83 115 168 209 252 302 365
#     4   9  20  36  56  78 117 161 206 267 316 364
#     4  11  22  39  56  85 118 164 225 269 313 364
#
# _framework density 20.585004000000001
#
# number of rings (size 3 to 8) (size 9 to 14) (size 15 to 20)
#    0.000    2.143    1.429    1.286    8.000    2.857 
#    0.000    1.429    0.000    0.000    0.000   29.000 
#    0.000    0.000    0.000    0.000    0.000    0.000 
#
# Total GULP energy -311952.164668 kJ/mol
# GULP energy per Si atom -5570.574369 kJ/mol
# Density = 2.053815 g / cm^3
# Si number density = 20.585004 Si / 1000 Ang^3
#
#
#
# Elastic Constant Matrix: (Units=GPa)
#
#
# Indices 1 2 3 4 5 6 
#
# 1 79.3702 27.3237 41.5533 0.0000 0.0000 0.0000
# 2 27.3237 62.7165 24.1577 0.0000 0.0000 0.0000
# 3 41.5533 24.1577 148.6377 0.0000 0.0000 0.0000
# 4 0.0000 0.0000 0.0000 33.9606 0.0000 0.0000
# 5 0.0000 0.0000 0.0000 0.0000 18.9789 0.0000
# 6 0.0000 0.0000 0.0000 0.0000 0.0000 18.6989
#
#
#
# Elastic Compliance Matrix: (Units=1/GPa)
#
#
# Indices 1 2 3 4 5 6 
#
# 1 0.016514 -0.005778 -0.003677 0.000000 0.000000 0.000000
# 2 -0.005778 0.019031 -0.001478 0.000000 0.000000 0.000000
# 3 -0.003677 -0.001478 0.007996 0.000000 0.000000 0.000000
# 4 0.000000 0.000000 0.000000 0.029446 0.000000 0.000000
# 5 0.000000 0.000000 0.000000 0.000000 0.052690 0.000000
# 6 0.000000 0.000000 0.000000 0.000000 0.000000 0.053479
#
#
# Mechanical properties :
#
#
# Convention : Reuss Voigt Hill
#
# Bulk Modulus (GPa) = 46.13734 52.97710 49.55722
# Shear Modulus (GPa) = 24.00993 27.50700 25.75847
#
# Velocity S-wave (km/s) = 3.41894 3.65946 3.54124
# Velocity P-wave (km/s) = 6.16824 6.60660 6.39118
#
# Compressibility (1/GPa) = 0.02167442
#
# Stress axis : x y z
#
# Youngs Moduli (GPa) = 60.55625 52.54502 125.06199
#
# Poissons Ratio (x) = 0.30360 0.45991
# Poissons Ratio (y) = 0.34989 0.18482
# Poissons Ratio (z) = 0.22269 0.07765
#
# Static dielectric constant tensor:
#      x y z
#    x 1.751990 0.000000 0.000000 
#    y 0.000000 1.792000 0.000000 
#    z 0.000000 0.000000 1.855410 
# 
# From -- ./inp_files/7064.got.cif
#   From: 2010.05.17/outbox.cif.g08.bks.cpg/sg48_4_cif.got.tgz:7064.got - 2010.06.03 20:39:00.
