data_PCOD9389598
_publ_section_title
;
Structure prediction by ZEFSAII (Michael W. Deem and Ramdas Pophale) SiO2 
 PCOD9389598
Probable space group: P N N N
;
_chemical_formula_sum "Si O2"
_cell_formula_units_Z 44
_cell_length_a 14.280724
_cell_length_b 8.792494
_cell_length_c 17.564601
_cell_angle_alpha 90.000000
_cell_angle_beta 90.000000
_cell_angle_gamma 90.000000
_cell_volume 2205.467158
_symmetry_space_group_name_H-M "P N N N"
_symmetry_group_IT_number 48
_space_group.IT_coordinate_system_code '2'
_symmetry_cell_setting 'orthorhombic'
loop_
_space_group_symop_operation_xyz
x,y,z
1/2-x,1/2-y,z
x,1/2-y,1/2-z
1/2-x,y,1/2-z
-x,-y,-z
1/2+x,1/2+y,-z
-x,1/2+y,1/2+z
1/2+x,-y,1/2+z
loop_
_atom_site_type_symbol
_atom_site_label
_atom_site_fract_x
_atom_site_fract_y
_atom_site_fract_z
Si Si1 0.385810 0.339097 0.533229
Si Si2 0.156535 0.901641 0.294648
Si Si3 0.640777 0.282242 0.160954
Si Si4 0.250000 0.750000 0.437811
Si Si5 0.816706 0.512530 0.451589
Si Si6 0.014071 0.045787 0.383874
O O1 0.288339 0.419524 0.557537
O O2 0.373313 0.159980 0.521907
O O3 0.420111 0.407941 0.453759
O O4 0.462599 0.388319 0.595013
O O5 0.125445 0.750000 0.250000
O O6 0.250000 0.955528 0.250000
O O7 0.186627 0.845792 0.378965
O O8 0.075696 0.023310 0.308363
O O9 0.750000 0.250000 0.143834
O O10 0.628732 0.250000 0.250000
O O11 0.634733 0.449802 0.125165
O O12 0.566934 0.171306 0.121621
O O13 0.193576 0.629237 0.489941
#
# Coordination Sequence:
#
# PCOD9389598 Si02
#       6
#     8   8   8   4   8   8
#     4  10  23  36  67  97 126 159 222 277 327 385
#     4   9  21  39  65  94 130 177 212 256 338 395
#     4  11  24  42  62  84 130 174 215 267 334 389
#     4  10  17  38  67  86 128 168 206 262 323 386
#     4  11  20  41  63  96 123 172 212 269 337 385
#     4  11  21  44  61  96 131 167 218 279 318 403
#
# _framework density 19.950420000000001
#
# number of rings (size 3 to 8) (size 9 to 14) (size 15 to 20)
#    0.000    1.818    4.545    0.000    2.545    2.182 
#    6.545    0.000    0.000    0.000    0.000    0.000 
#    0.000    0.000    0.000    0.000    0.000    0.000 
#
# Total GULP energy -245222.736241 kJ/mol
# GULP energy per Si atom -5573.244005 kJ/mol
# Density = 1.990501 g / cm^3
# Si number density = 19.950420 Si / 1000 Ang^3
#
#
#
# Elastic Constant Matrix: (Units=GPa)
#
#
# Indices 1 2 3 4 5 6 
#
# 1 84.8724 51.3162 27.9270 0.0000 0.0000 0.0000
# 2 51.3162 101.0084 38.2071 0.0000 0.0000 0.0000
# 3 27.9270 38.2071 88.5619 0.0000 0.0000 0.0000
# 4 0.0000 0.0000 0.0000 10.1390 0.0000 0.0000
# 5 0.0000 0.0000 0.0000 0.0000 6.5139 0.0000
# 6 0.0000 0.0000 0.0000 0.0000 0.0000 32.9718
#
#
#
# Elastic Compliance Matrix: (Units=1/GPa)
#
#
# Indices 1 2 3 4 5 6 
#
# 1 0.017294 -0.008034 -0.001987 0.000000 0.000000 0.000000
# 2 -0.008034 0.015563 -0.004181 0.000000 0.000000 0.000000
# 3 -0.001987 -0.004181 0.013722 0.000000 0.000000 0.000000
# 4 0.000000 0.000000 0.000000 0.098629 0.000000 0.000000
# 5 0.000000 0.000000 0.000000 0.000000 0.153519 0.000000
# 6 0.000000 0.000000 0.000000 0.000000 0.000000 0.030329
#
#
# Mechanical properties :
#
#
# Convention : Reuss Voigt Hill
#
# Bulk Modulus (GPa) = 55.02241 56.59373 55.80807
# Shear Modulus (GPa) = 13.75444 20.39110 17.07277
#
# Velocity S-wave (km/s) = 2.62855 3.20048 2.92851
# Velocity P-wave (km/s) = 6.07057 6.48739 6.28244
#
# Compressibility (1/GPa) = 0.01817441
#
# Stress axis : x y z
#
# Youngs Moduli (GPa) = 57.82311 64.25357 72.87640
#
# Poissons Ratio (x) = 0.51624 0.14483
# Poissons Ratio (y) = 0.46457 0.30468
# Poissons Ratio (z) = 0.11491 0.26863
#
# Static dielectric constant tensor:
#      x y z
#    x 1.751610 0.000000 0.000000 
#    y 0.000000 1.726390 0.000000 
#    z 0.000000 0.000000 1.714480 
# 
# From -- ./inp_files/31502.got.cif
#   From: 2010.05.17/outbox.cif.g08.bks.cpg/sg48_16_cif.got.tgz:31502.got - 2010.06.03 20:39:00.
