data_PCOD9389099
_publ_section_title
;
Structure prediction by ZEFSAII (Michael W. Deem and Ramdas Pophale) SiO2 
 PCOD9389099
Probable space group: P M M M
;
_chemical_formula_sum "Si O2"
_cell_formula_units_Z 36
_cell_length_a 9.567679
_cell_length_b 7.380153
_cell_length_c 24.149829
_cell_angle_alpha 90.000000
_cell_angle_beta 90.000000
_cell_angle_gamma 90.000000
_cell_volume 1705.242003
_symmetry_space_group_name_H-M "P M M M"
_symmetry_group_IT_number 47
_symmetry_cell_setting 'orthorhombic'
loop_
_space_group_symop_operation_xyz
x,y,z
-x,-y,z
x,-y,-z
-x,y,-z
-x,-y,-z
x,y,-z
-x,y,z
x,-y,z
loop_
_atom_site_type_symbol
_atom_site_label
_atom_site_fract_x
_atom_site_fract_y
_atom_site_fract_z
Si Si1 0.841184 0.717041 0.835428
Si Si2 0.338187 0.279118 0.061213
Si Si3 0.838483 0.220920 0.500000
Si Si4 0.159806 0.215687 0.711197
Si Si5 0.338894 0.221501 0.392780
O O1 0.846926 0.500000 0.840819
O O2 0.750267 0.785219 0.886568
O O3 0.787184 0.753737 0.773584
O O4 0.000000 0.786649 0.837900
O O5 0.500000 0.225611 0.066337
O O6 0.335754 0.500000 0.061802
O O7 0.287054 0.223859 0.000000
O O8 0.753569 0.276865 0.554538
O O9 0.000000 0.279999 0.500000
O O10 0.840861 0.000000 0.500000
O O11 0.261844 0.282746 0.663264
O O12 0.000000 0.287091 0.707240
O O13 0.150358 0.000000 0.703523
O O14 0.500000 0.279749 0.396376
O O15 0.340837 0.000000 0.392732
#
# Coordination Sequence:
#
# PCOD9389099 Si02
#       5
#     8   8   4   8   8
#     4   9  17  28  43  64  86 107 136 174 209 241
#     4   8  14  25  41  61  84 108 134 167 208 250
#     4   9  15  23  37  57  82 111 140 171 210 252
#     4   9  17  29  43  59  83 114 142 167 202 249
#     4   9  16  25  38  58  83 109 139 175 210 243
#
# _framework density 21.111371999999999
#
# number of rings (size 3 to 8) (size 9 to 14) (size 15 to 20)
#    0.000    3.222    0.000    1.667    0.000    5.333 
#    0.000    2.222    0.000    0.667    0.000    5.444 
#    0.000    6.222    0.000    0.000    0.000    0.000 
#
# Total GULP energy -200893.669135 kJ/mol
# GULP energy per Si atom -5580.379698 kJ/mol
# Density = 2.106332 g / cm^3
# Si number density = 21.111372 Si / 1000 Ang^3
#
#
#
# Elastic Constant Matrix: (Units=GPa)
#
#
# Indices 1 2 3 4 5 6 
#
# 1 142.6851 4.9591 142.2745 0.0000 0.0000 0.0000
# 2 4.9591 74.2120 0.8043 0.0000 0.0000 0.0000
# 3 142.2745 0.8043 258.5963 0.0000 0.0000 0.0000
# 4 0.0000 0.0000 0.0000 15.2074 0.0000 0.0000
# 5 0.0000 0.0000 0.0000 0.0000 41.1539 0.0000
# 6 0.0000 0.0000 0.0000 0.0000 0.0000 -5.1782
#
#
#
# Elastic Compliance Matrix: (Units=1/GPa)
#
#
# Indices 1 2 3 4 5 6 
#
# 1 0.015592 -0.000949 -0.008576 0.000000 0.000000 0.000000
# 2 -0.000949 0.013533 0.000480 0.000000 0.000000 0.000000
# 3 -0.008576 0.000480 0.008584 0.000000 0.000000 0.000000
# 4 0.000000 0.000000 0.000000 0.065758 0.000000 0.000000
# 5 0.000000 0.000000 0.000000 0.000000 0.024299 0.000000
# 6 0.000000 0.000000 0.000000 0.000000 0.000000 -0.193116
#
#
# Mechanical properties :
#
#
# Convention : Reuss Voigt Hill
#
# Bulk Modulus (GPa) = 50.96855 85.72991 68.34923
# Shear Modulus (GPa) = -122.78852 32.06698 -45.36077
#
# Velocity S-wave (km/s) = -7.63469 3.90159 -4.64037
# Velocity P-wave (km/s) = 7.31594 7.80981 1.93264
#
# Compressibility (1/GPa) = 0.01961994
#
# Stress axis : x y z
#
# Youngs Moduli (GPa) = 64.13372 73.89281 116.49979
#
# Poissons Ratio (x) = 0.07012 0.99907
# Poissons Ratio (y) = 0.06086 -0.05592
# Poissons Ratio (z) = 0.54999 -0.03547
#
# Static dielectric constant tensor:
#      x y z
#    x 1.720740 0.000000 0.000000 
#    y 0.000000 1.841290 0.000000 
#    z 0.000000 0.000000 1.734370 
# 
# From -- ./inp_files/1387.got.cif
#   From: 2010.05.17/outbox.cif.g08.bks.cpg/sg47_1_cif.got.tgz:1387.got - 2010.06.03 20:15:42.
