data_PCOD9389108
_publ_section_title
;
Structure prediction by ZEFSAII (Michael W. Deem and Ramdas Pophale) SiO2 
 PCOD9389108
Probable space group: P M M M
;
_chemical_formula_sum "Si O2"
_cell_formula_units_Z 44
_cell_length_a 7.548310
_cell_length_b 29.575208
_cell_length_c 9.728484
_cell_angle_alpha 90.000000
_cell_angle_beta 90.000000
_cell_angle_gamma 90.000000
_cell_volume 2171.814381
_symmetry_space_group_name_H-M "P M M M"
_symmetry_group_IT_number 47
_symmetry_cell_setting 'orthorhombic'
loop_
_space_group_symop_operation_xyz
x,y,z
-x,-y,z
x,-y,-z
-x,y,-z
-x,-y,-z
x,y,-z
-x,y,z
x,-y,z
loop_
_atom_site_type_symbol
_atom_site_label
_atom_site_fract_x
_atom_site_fract_y
_atom_site_fract_z
Si Si1 0.211732 0.765613 0.342966
Si Si2 0.789944 0.401030 0.657267
Si Si3 0.712826 0.132816 0.656353
Si Si4 0.289362 0.500000 0.343482
Si Si5 0.283743 0.050288 0.841117
Si Si6 0.217390 0.317792 0.841696
O O1 0.281066 0.761190 0.500000
O O2 0.247285 0.816567 0.293506
O O3 0.276139 0.726796 0.240991
O O4 0.000000 0.760323 0.351144
O O5 0.717647 0.399195 0.500000
O O6 0.763946 0.451579 0.715815
O O7 0.722476 0.361738 0.756244
O O8 0.000000 0.393883 0.645908
O O9 0.780286 0.129493 0.500000
O O10 0.500000 0.128911 0.651550
O O11 0.779397 0.091908 0.749640
O O12 0.500000 0.500000 0.350049
O O13 0.215562 0.500000 0.500000
O O14 0.500000 0.050796 0.839004
O O15 0.229665 0.000000 0.793775
O O16 0.230851 0.055523 0.000000
O O17 0.000000 0.317919 0.843030
O O18 0.274357 0.318192 0.000000
#
# Coordination Sequence:
#
# PCOD9389108 Si02
#       6
#     8   8   8   4   8   8
#     4   9  17  30  47  65  87 116 146 175 213 261
#     4   9  16  28  48  70  89 112 145 182 216 251
#     4   9  17  28  43  65  89 110 138 179 220 255
#     4   9  17  29  46  69  94 118 146 179 214 254
#     4   8  14  25  41  61  85 113 144 177 214 256
#     4   9  17  29  46  68  90 112 144 184 218 250
#
# _framework density 20.25956
#
# number of rings (size 3 to 8) (size 9 to 14) (size 15 to 20)
#    0.000    3.182    0.000    1.364    0.000    4.364 
#    0.000    3.182    0.000    9.273    0.000    3.818 
#    0.000    0.000    0.000    0.000    0.000    0.000 
#
# Total GULP energy -245321.599782 kJ/mol
# GULP energy per Si atom -5575.490904 kJ/mol
# Density = 2.021345 g / cm^3
# Si number density = 20.259560 Si / 1000 Ang^3
#
#
#
# Elastic Constant Matrix: (Units=GPa)
#
#
# Indices 1 2 3 4 5 6 
#
# 1 48.0332 -0.6344 5.6876 0.0000 0.0000 0.0000
# 2 -0.6344 245.4292 123.9817 0.0000 0.0000 0.0000
# 3 5.6876 123.9817 103.3770 0.0000 0.0000 0.0000
# 4 0.0000 0.0000 0.0000 17.6606 0.0000 0.0000
# 5 0.0000 0.0000 0.0000 0.0000 1.1845 0.0000
# 6 0.0000 0.0000 0.0000 0.0000 0.0000 18.4709
#
#
#
# Elastic Compliance Matrix: (Units=1/GPa)
#
#
# Indices 1 2 3 4 5 6 
#
# 1 0.021211 0.001635 -0.003128 0.000000 0.000000 0.000000
# 2 0.001635 0.010463 -0.012639 0.000000 0.000000 0.000000
# 3 -0.003128 -0.012639 0.025003 0.000000 0.000000 0.000000
# 4 0.000000 0.000000 0.000000 0.056623 0.000000 0.000000
# 5 0.000000 0.000000 0.000000 0.000000 0.844231 0.000000
# 6 0.000000 0.000000 0.000000 0.000000 0.000000 0.054139
#
#
# Mechanical properties :
#
#
# Convention : Reuss Voigt Hill
#
# Bulk Modulus (GPa) = 35.19351 72.76769 53.98060
# Shear Modulus (GPa) = 4.76460 25.31682 15.04071
#
# Velocity S-wave (km/s) = 1.53521 3.53884 2.72766
# Velocity P-wave (km/s) = 4.53338 7.25903 6.05165
#
# Compressibility (1/GPa) = 0.02841433
#
# Stress axis : x y z
#
# Youngs Moduli (GPa) = 47.14564 95.57098 39.99447
#
# Poissons Ratio (x) = -0.15623 0.12508
# Poissons Ratio (y) = -0.07707 0.50549
# Poissons Ratio (z) = 0.14745 1.20791
#
# Static dielectric constant tensor:
#      x y z
#    x 1.771500 0.000000 0.000000 
#    y 0.000000 1.715020 0.000000 
#    z 0.000000 0.000000 1.695750 
# 
# From -- ./inp_files/2112.got.cif
#   From: 2010.05.17/outbox.cif.g08.bks.cpg/sg47_2_cif.got.tgz:2112.got - 2010.06.03 20:15:42.
