data_PCOD9389603
_publ_section_title
;
Structure prediction by ZEFSAII (Michael W. Deem and Ramdas Pophale) SiO2 
 PCOD9389603
Probable space group: P N N N
;
_chemical_formula_sum "Si O2"
_cell_formula_units_Z 60
_cell_length_a 9.384189
_cell_length_b 12.140389
_cell_length_c 24.599359
_cell_angle_alpha 90.000000
_cell_angle_beta 90.000000
_cell_angle_gamma 90.000000
_cell_volume 2802.548513
_symmetry_space_group_name_H-M "P N N N"
_symmetry_group_IT_number 48
_space_group.IT_coordinate_system_code '2'
_symmetry_cell_setting 'orthorhombic'
loop_
_space_group_symop_operation_xyz
x,y,z
1/2-x,1/2-y,z
x,1/2-y,1/2-z
1/2-x,y,1/2-z
-x,-y,-z
1/2+x,1/2+y,-z
-x,1/2+y,1/2+z
1/2+x,-y,1/2+z
loop_
_atom_site_type_symbol
_atom_site_label
_atom_site_fract_x
_atom_site_fract_y
_atom_site_fract_z
Si Si1 0.250000 0.509606 0.250000
Si Si2 0.433948 0.858279 0.119549
Si Si3 0.521376 0.971993 0.401106
Si Si4 0.102235 0.800009 0.017338
Si Si5 0.014808 0.821869 0.202017
Si Si6 0.666655 0.523672 0.438072
Si Si7 0.749999 0.570935 0.635942
Si Si8 0.078737 0.344283 0.042040
O O1 0.378090 0.590025 0.229792
O O2 0.284431 0.430512 0.300567
O O3 0.417400 0.787885 0.065807
O O4 0.411067 0.778136 0.169620
O O5 0.589783 0.912623 0.112188
O O6 0.315861 0.951657 0.119456
O O7 0.433407 0.912116 0.450341
O O8 0.552399 0.887938 0.349781
O O9 0.673211 0.009384 0.424115
O O10 0.416842 0.062968 0.376146
O O11 0.250000 0.750000 0.994039
O O12 0.977882 0.774394 0.974995
O O13 0.937709 0.750000 0.250000
O O14 0.558707 0.424206 0.450671
O O15 0.664700 0.601632 0.491508
O O16 0.665449 0.651735 0.597229
#
# Coordination Sequence:
#
# PCOD9389603 Si02
#       8
#     4   8   8   8   8   8   8   8
#     4  10  19  26  50  72 102 135 188 214 244 291
#     4   9  17  28  47  64 100 134 181 203 245 292
#     4  10  21  30  53  73 108 133 185 221 244 291
#     4  10  18  31  49  76  97 138 177 216 254 310
#     4  10  18  26  45  72 100 144 177 215 232 287
#     4   9  19  36  47  70  99 147 168 212 262 312
#     4  10  18  32  49  76  95 144 173 218 251 309
#     4   9  20  35  54  63 103 144 177 199 278 318
#
# _framework density 21.409085000000001
#
# number of rings (size 3 to 8) (size 9 to 14) (size 15 to 20)
#    0.000    2.400    2.667    1.000    1.867    5.333 
#    0.000    1.333    0.000    0.000    0.000    0.000 
#    0.000    2.133   12.267    0.000    0.000    0.000 
#
# Total GULP energy -334364.476304 kJ/mol
# GULP energy per Si atom -5572.741272 kJ/mol
# Density = 2.136036 g / cm^3
# Si number density = 21.409085 Si / 1000 Ang^3
#
#
#
# Elastic Constant Matrix: (Units=GPa)
#
#
# Indices 1 2 3 4 5 6 
#
# 1 110.9680 11.2533 38.6285 0.0000 0.0000 0.0000
# 2 11.2533 22.4993 26.4047 0.0000 0.0000 0.0000
# 3 38.6285 26.4047 129.1698 0.0000 0.0000 0.0000
# 4 0.0000 0.0000 0.0000 27.3122 0.0000 0.0000
# 5 0.0000 0.0000 0.0000 0.0000 16.8501 0.0000
# 6 0.0000 0.0000 0.0000 0.0000 0.0000 24.5044
#
#
#
# Elastic Compliance Matrix: (Units=1/GPa)
#
#
# Indices 1 2 3 4 5 6 
#
# 1 0.010126 -0.001988 -0.002622 0.000000 0.000000 0.000000
# 2 -0.001988 0.058864 -0.011439 0.000000 0.000000 0.000000
# 3 -0.002622 -0.011439 0.010864 0.000000 0.000000 0.000000
# 4 0.000000 0.000000 0.000000 0.036614 0.000000 0.000000
# 5 0.000000 0.000000 0.000000 0.000000 0.059347 0.000000
# 6 0.000000 0.000000 0.000000 0.000000 0.000000 0.040809
#
#
# Mechanical properties :
#
#
# Convention : Reuss Voigt Hill
#
# Bulk Modulus (GPa) = 20.93893 46.13446 33.53670
# Shear Modulus (GPa) = 18.89369 26.15671 22.52520
#
# Velocity S-wave (km/s) = 2.97393 3.49916 3.24718
# Velocity P-wave (km/s) = 4.64693 6.15802 5.45505
#
# Compressibility (1/GPa) = 0.04775793
#
# Stress axis : x y z
#
# Youngs Moduli (GPa) = 98.75716 16.98833 92.04655
#
# Poissons Ratio (x) = 0.03377 0.24133
# Poissons Ratio (y) = 0.19629 1.05288
# Poissons Ratio (z) = 0.25893 0.19432
#
# Static dielectric constant tensor:
#      x y z
#    x 1.873380 0.000000 0.000000 
#    y 0.000000 1.815700 0.000000 
#    z 0.000000 0.000000 1.830550 
# 
# From -- ./inp_files/35974.got.cif
#   From: 2010.05.17/outbox.cif.g08.bks.cpg/sg48_18_cif.got.tgz:35974.got - 2010.06.03 20:39:00.
