data_PCOD9389349
_publ_section_title
;
Structure prediction by ZEFSAII (Michael W. Deem and Ramdas Pophale) SiO2 
 PCOD9389349
Probable space group: P M M M
;
_chemical_formula_sum "Si O2"
_cell_formula_units_Z 64
_cell_length_a 21.000000
_cell_length_b 9.000000
_cell_length_c 21.000000
_cell_angle_alpha 90.000000
_cell_angle_beta 90.000000
_cell_angle_gamma 90.000000
_cell_volume 3969.000000
_symmetry_space_group_name_H-M "P M M M"
_symmetry_group_IT_number 47
_symmetry_cell_setting 'orthorhombic'
loop_
_space_group_symop_operation_xyz
x,y,z
-x,-y,z
x,-y,-z
-x,y,-z
-x,-y,-z
x,y,-z
-x,y,z
x,-y,z
loop_
_atom_site_type_symbol
_atom_site_label
_atom_site_fract_x
_atom_site_fract_y
_atom_site_fract_z
Si Si1 0.386771 0.322713 0.298212
Si Si2 0.429309 0.319239 0.158001
Si Si3 0.693275 0.320055 0.075311
Si Si4 0.233802 0.323393 0.289512
Si Si5 0.072934 0.180540 0.073048
Si Si6 0.192859 0.820748 0.157990
Si Si7 0.245882 0.678176 0.429864
Si Si8 0.613956 0.178043 0.570557
O O1 0.396128 0.500000 0.304734
O O2 0.417097 0.272672 0.231321
O O3 0.310469 0.297486 0.290143
O O4 0.411335 0.246977 0.363276
O O5 0.500000 0.271987 0.137652
O O6 0.428262 0.500000 0.158843
O O7 0.372352 0.274889 0.110843
O O8 0.698979 0.500000 0.080522
O O9 0.750883 0.245124 0.113858
O O10 0.693416 0.282946 0.000000
O O11 0.224085 0.500000 0.280045
O O12 0.202726 0.238703 0.230031
O O13 0.212637 0.284174 0.362295
O O14 0.126237 0.225504 0.124192
O O15 0.000000 0.227923 0.086889
O O16 0.072745 0.000000 0.072785
O O17 0.088715 0.226775 0.000000
O O18 0.196171 0.000000 0.158283
O O19 0.215445 0.705191 0.500000
O O20 0.259045 0.500000 0.426265
O O21 0.312891 0.764523 0.430567
O O22 0.587062 0.220101 0.500000
O O23 0.611569 0.000000 0.574798
#
# Coordination Sequence:
#
# PCOD9389349 Si02
#       8
#     8   8   8   8   8   8   8   8
#     4   9  16  28  45  62  84 114 147 184 224 268
#     4   9  17  31  50  69  87 110 148 194 232 269
#     4  10  20  34  51  70  93 119 146 183 234 281
#     4   9  16  27  43  64  93 123 150 184 228 272
#     4   8  15  29  47  66  90 121 157 194 226 257
#     4  11  20  29  47  73  98 123 153 187 223 269
#     4   8  14  25  40  58  83 118 155 186 219 261
#     4   9  16  24  37  60  87 112 141 180 223 267
#
# _framework density 16.124969
#
# number of rings (size 3 to 8) (size 9 to 14) (size 15 to 20)
#    0.000    2.875    1.250    2.250    0.000    3.750 
#    0.000    1.250    0.000    3.375    0.000    7.875 
#    0.000    0.500    0.000    6.250    0.000    0.125 
#
# Total GULP energy -356297.758783 kJ/mol
# GULP energy per Si atom -5567.152481 kJ/mol
# Density = 1.608827 g / cm^3
# Si number density = 16.124969 Si / 1000 Ang^3
#
#
#
# Elastic Constant Matrix: (Units=GPa)
#
#
# Indices 1 2 3 4 5 6 
#
# 1 74.7658 14.9857 56.1430 0.0000 0.0000 0.0000
# 2 14.9857 23.0473 30.9690 0.0000 0.0000 0.0000
# 3 56.1430 30.9690 164.0209 0.0000 0.0000 0.0000
# 4 0.0000 0.0000 0.0000 27.7125 0.0000 0.0000
# 5 0.0000 0.0000 0.0000 0.0000 15.6357 0.0000
# 6 0.0000 0.0000 0.0000 0.0000 0.0000 12.9183
#
#
#
# Elastic Compliance Matrix: (Units=1/GPa)
#
#
# Indices 1 2 3 4 5 6 
#
# 1 0.018372 -0.004684 -0.005404 0.000000 0.000000 0.000000
# 2 -0.004684 0.059334 -0.009600 0.000000 0.000000 0.000000
# 3 -0.005404 -0.009600 0.009759 0.000000 0.000000 0.000000
# 4 0.000000 0.000000 0.000000 0.036085 0.000000 0.000000
# 5 0.000000 0.000000 0.000000 0.000000 0.063956 0.000000
# 6 0.000000 0.000000 0.000000 0.000000 0.000000 0.077409
#
#
# Mechanical properties :
#
#
# Convention : Reuss Voigt Hill
#
# Bulk Modulus (GPa) = 20.79465 51.78103 36.28784
# Shear Modulus (GPa) = 15.60934 21.90239 18.75586
#
# Velocity S-wave (km/s) = 3.11468 3.68950 3.41421
# Velocity P-wave (km/s) = 5.08517 7.09450 6.17215
#
# Compressibility (1/GPa) = 0.04808929
#
# Stress axis : x y z
#
# Youngs Moduli (GPa) = 54.43044 16.85377 102.46859
#
# Poissons Ratio (x) = 0.07895 0.55376
# Poissons Ratio (y) = 0.25496 0.98365
# Poissons Ratio (z) = 0.29415 0.16179
#
# Static dielectric constant tensor:
#      x y z
#    x 1.530310 0.000000 0.000000 
#    y 0.000000 1.540120 0.000000 
#    z 0.000000 0.000000 1.579210 
# 
# From -- ./inp_files/9983.got.cif
#   From: 2010.05.17/outbox.ucp.g08.bks.cvg/sg47_5_cif.got.tgz:9983.got - 2010.06.11 16:36:43.
