data_PCOD9389011
_publ_section_title
;
Structure prediction by ZEFSAII (Michael W. Deem and Ramdas Pophale) SiO2 
 PCOD9389011
Probable space group: P M M M
;
_chemical_formula_sum "Si O2"
_cell_formula_units_Z 44
_cell_length_a 16.174703
_cell_length_b 7.362561
_cell_length_c 17.627776
_cell_angle_alpha 90.000000
_cell_angle_beta 90.000000
_cell_angle_gamma 90.000000
_cell_volume 2099.243147
_symmetry_space_group_name_H-M "P M M M"
_symmetry_group_IT_number 47
_symmetry_cell_setting 'orthorhombic'
loop_
_space_group_symop_operation_xyz
x,y,z
-x,-y,z
x,-y,-z
-x,y,-z
-x,-y,-z
x,y,-z
-x,y,z
x,-y,z
loop_
_atom_site_type_symbol
_atom_site_label
_atom_site_fract_x
_atom_site_fract_y
_atom_site_fract_z
Si Si1 0.906027 0.778498 0.913661
Si Si2 0.904819 0.278097 0.500000
Si Si3 0.767681 0.217441 0.798966
Si Si4 0.589610 0.287333 0.388822
Si Si5 0.770557 0.716718 0.619617
Si Si6 0.411698 0.780375 0.208575
O O1 0.840596 0.713239 0.852018
O O2 0.000000 0.721794 0.897150
O O3 0.905900 0.000000 0.912468
O O4 0.885432 0.725148 0.000000
O O5 0.907716 0.500000 0.500000
O O6 0.849486 0.219851 0.427904
O O7 0.000000 0.216863 0.500000
O O8 0.779626 0.252088 0.709470
O O9 0.676191 0.284070 0.822443
O O10 0.766737 0.000000 0.807396
O O11 0.500000 0.211360 0.413647
O O12 0.589110 0.500000 0.409724
O O13 0.680533 0.212114 0.408289
O O14 0.588866 0.273140 0.297237
O O15 0.766227 0.500000 0.608582
O O16 0.500000 0.718793 0.176025
O O17 0.411325 0.000000 0.205843
#
# Coordination Sequence:
#
# PCOD9389011 Si02
#       6
#     8   4   8   8   8   8
#     4   8  14  25  41  61  84 108 133 163 202 246
#     4   9  18  32  46  58  78 111 143 167 198 244
#     4   9  16  26  43  65  84 104 134 170 202 234
#     4   8  13  22  37  57  79 100 125 161 201 235
#     4   9  17  29  44  61  81 107 139 169 198 238
#     4   8  13  21  34  54  80 107 131 155 189 234
#
# _framework density 20.959937
#
# number of rings (size 3 to 8) (size 9 to 14) (size 15 to 20)
#    0.000    3.545    0.000    0.545    0.000    0.727 
#    0.000    0.909    0.000    4.364    0.000    5.091 
#    0.000   14.545    0.000   29.455    0.000   13.818 
#
# Total GULP energy -245091.517755 kJ/mol
# GULP energy per Si atom -5570.261767 kJ/mol
# Density = 2.091223 g / cm^3
# Si number density = 20.959937 Si / 1000 Ang^3
#
#
#
# Elastic Constant Matrix: (Units=GPa)
#
#
# Indices 1 2 3 4 5 6 
#
# 1 270.6627 11.2131 112.2367 0.0000 0.0000 0.0000
# 2 11.2131 80.5742 -0.6773 0.0000 0.0000 0.0000
# 3 112.2367 -0.6773 92.0472 0.0000 0.0000 0.0000
# 4 0.0000 0.0000 0.0000 -24.9899 0.0000 0.0000
# 5 0.0000 0.0000 0.0000 0.0000-2184.9572 0.0000
# 6 0.0000 0.0000 0.0000 0.0000 0.0000 -0.7958
#
#
#
# Elastic Compliance Matrix: (Units=1/GPa)
#
#
# Indices 1 2 3 4 5 6 
#
# 1 0.007575 -0.001132 -0.009245 0.000000 0.000000 0.000000
# 2 -0.001132 0.012581 0.001473 0.000000 0.000000 0.000000
# 3 -0.009245 0.001473 0.022148 0.000000 0.000000 0.000000
# 4 0.000000 0.000000 0.000000 -0.040016 0.000000 0.000000
# 5 0.000000 0.000000 0.000000 0.000000 -0.000458 0.000000
# 6 0.000000 0.000000 0.000000 0.000000 0.000000 -1.256581
#
#
# Mechanical properties :
#
#
# Convention : Reuss Voigt Hill
#
# Bulk Modulus (GPa) = 40.82421 76.53656 58.68039
# Shear Modulus (GPa) = -4.06908 -420.78115 -212.42511
#
# Velocity S-wave (km/s) = -1.39484 -14.18417 -10.07810
# Velocity P-wave (km/s) = 4.11405 15.22036 10.36181
#
# Compressibility (1/GPa) = 0.02449527
#
# Stress axis : x y z
#
# Youngs Moduli (GPa) = 132.00932 79.48605 45.15138
#
# Poissons Ratio (x) = 0.08997 0.41743
# Poissons Ratio (y) = 0.14942 -0.06650
# Poissons Ratio (z) = 1.22044 -0.11706
#
# Static dielectric constant tensor:
#      x y z
#    x 1.807130 0.000000 0.000000 
#    y 0.000000 1.791650 0.000000 
#    z 0.000000 0.000000 1.731650 
# 
# From -- ./inp_files/27898.got.cif
#   From: 2010.05.17/outbox.cif.g08.bks.cpg/sg47_14_cif.got.tgz:27898.got - 2010.06.03 20:15:42.
