data_PCOD9389708
_publ_section_title
;
Structure prediction by ZEFSAII (Michael W. Deem and Ramdas Pophale) SiO2 
 PCOD9389708
Probable space group: P N N N
;
_chemical_formula_sum "Si O2"
_cell_formula_units_Z 64
_cell_length_a 12.147279
_cell_length_b 9.146636
_cell_length_c 28.943410
_cell_angle_alpha 90.000000
_cell_angle_beta 90.000000
_cell_angle_gamma 90.000000
_cell_volume 3215.807912
_symmetry_space_group_name_H-M "P N N N"
_symmetry_group_IT_number 48
_space_group.IT_coordinate_system_code '2'
_symmetry_cell_setting 'orthorhombic'
loop_
_space_group_symop_operation_xyz
x,y,z
1/2-x,1/2-y,z
x,1/2-y,1/2-z
1/2-x,y,1/2-z
-x,-y,-z
1/2+x,1/2+y,-z
-x,1/2+y,1/2+z
1/2+x,-y,1/2+z
loop_
_atom_site_type_symbol
_atom_site_label
_atom_site_fract_x
_atom_site_fract_y
_atom_site_fract_z
Si Si1 0.392041 0.393889 0.085981
Si Si2 0.740264 0.413332 0.423243
Si Si3 0.141381 0.347605 0.515824
Si Si4 0.349416 0.062961 0.115647
Si Si5 0.473189 0.346594 0.294206
Si Si6 0.019511 0.070453 0.550801
Si Si7 0.090161 0.914061 0.847618
Si Si8 0.121465 0.079335 0.757555
O O1 0.380575 0.218654 0.092429
O O2 0.280168 0.458561 0.107582
O O3 0.497697 0.442569 0.114109
O O4 0.402225 0.415698 0.031549
O O5 0.750000 0.250000 0.442972
O O6 0.813715 0.525795 0.451858
O O7 0.617793 0.476354 0.425900
O O8 0.792881 0.405633 0.372570
O O9 0.250000 0.250000 0.503437
O O10 0.059565 0.235119 0.540933
O O11 0.385428 0.088761 0.168966
O O12 0.417932 0.945790 0.085844
O O13 0.430352 0.250000 0.250000
O O14 0.552199 0.234743 0.322187
O O15 0.545597 0.478524 0.274438
O O16 0.000000 0.000000 0.500000
O O17 0.092284 0.038816 0.809744
O O18 0.105072 0.250000 0.750000
O O19 0.250000 0.043352 0.750000
#
# Coordination Sequence:
#
# PCOD9389708 Si02
#       8
#     8   8   8   8   8   8   8   8
#     4  10  18  38  61  88 125 164 208 255 311 359
#     4  11  24  38  59  91 124 162 206 259 313 370
#     4  10  20  38  60  86 124 167 210 260 305 364
#     4  10  18  33  64  89 122 162 209 264 302 376
#     4   9  20  38  61  93 119 155 205 255 317 371
#     4  11  21  38  61  89 119 167 218 253 314 372
#     4  10  23  39  62  93 120 160 202 255 314 375
#     4  10  23  42  64  87 124 158 195 256 318 382
#
# _framework density 19.901686999999999
#
# number of rings (size 3 to 8) (size 9 to 14) (size 15 to 20)
#    0.000    1.875    2.500    2.250    3.500    3.250 
#    4.500   10.625    2.750    0.750    0.000    0.000 
#    0.000    0.000    0.000    0.000    0.000    0.000 
#
# Total GULP energy -357493.306112 kJ/mol
# GULP energy per Si atom -5585.832908 kJ/mol
# Density = 1.985639 g / cm^3
# Si number density = 19.901687 Si / 1000 Ang^3
#
#
#
# Elastic Constant Matrix: (Units=GPa)
#
#
# Indices 1 2 3 4 5 6 
#
# 1 83.8459 28.3022 37.7782 0.0000 0.0000 0.0000
# 2 28.3022 75.8456 28.4945 0.0000 0.0000 0.0000
# 3 37.7782 28.4945 104.7944 0.0000 0.0000 0.0000
# 4 0.0000 0.0000 0.0000 13.1526 0.0000 0.0000
# 5 0.0000 0.0000 0.0000 0.0000 14.4770 0.0000
# 6 0.0000 0.0000 0.0000 0.0000 0.0000 23.0931
#
#
#
# Elastic Compliance Matrix: (Units=1/GPa)
#
#
# Indices 1 2 3 4 5 6 
#
# 1 0.015278 -0.004045 -0.004408 0.000000 0.000000 0.000000
# 2 -0.004045 0.015756 -0.002826 0.000000 0.000000 0.000000
# 3 -0.004408 -0.002826 0.011900 0.000000 0.000000 0.000000
# 4 0.000000 0.000000 0.000000 0.076031 0.000000 0.000000
# 5 0.000000 0.000000 0.000000 0.000000 0.069075 0.000000
# 6 0.000000 0.000000 0.000000 0.000000 0.000000 0.043303
#
#
# Mechanical properties :
#
#
# Convention : Reuss Voigt Hill
#
# Bulk Modulus (GPa) = 49.07700 50.40394 49.74047
# Shear Modulus (GPa) = 19.17972 21.47194 20.32583
#
# Velocity S-wave (km/s) = 3.10776 3.28823 3.19926
# Velocity P-wave (km/s) = 6.13113 6.30857 6.22048
#
# Compressibility (1/GPa) = 0.02037614
#
# Stress axis : x y z
#
# Youngs Moduli (GPa) = 65.45316 63.46869 84.03443
#
# Poissons Ratio (x) = 0.25674 0.37041
# Poissons Ratio (y) = 0.26477 0.23747
# Poissons Ratio (z) = 0.28851 0.17935
#
# Static dielectric constant tensor:
#      x y z
#    x 1.720710 0.000000 0.000000 
#    y 0.000000 1.702720 0.000000 
#    z 0.000000 0.000000 1.717480 
# 
# From -- ./inp_files/38988.got.cif
#   From: 2010.05.17/outbox.cif.g08.bks.cpg/sg48_20_cif.got.tgz:38988.got - 2010.06.03 20:39:00.
