data_PCOD9389206
_publ_section_title
;
Structure prediction by ZEFSAII (Michael W. Deem and Ramdas Pophale) SiO2 
 PCOD9389206
Probable space group: P M M M
;
_chemical_formula_sum "Si O2"
_cell_formula_units_Z 40
_cell_length_a 7.831558
_cell_length_b 31.006146
_cell_length_c 7.670990
_cell_angle_alpha 90.000000
_cell_angle_beta 90.000000
_cell_angle_gamma 90.000000
_cell_volume 1862.719122
_symmetry_space_group_name_H-M "P M M M"
_symmetry_group_IT_number 47
_symmetry_cell_setting 'orthorhombic'
loop_
_space_group_symop_operation_xyz
x,y,z
-x,-y,z
x,-y,-z
-x,y,-z
-x,-y,-z
x,y,-z
-x,y,z
x,-y,z
loop_
_atom_site_type_symbol
_atom_site_label
_atom_site_fract_x
_atom_site_fract_y
_atom_site_fract_z
Si Si1 0.500000 0.754184 0.214379
Si Si2 0.500000 0.654602 0.214031
Si Si3 0.701749 0.000000 0.699046
Si Si4 0.196335 0.500000 0.291978
Si Si5 0.795425 0.091718 0.301247
Si Si6 0.193274 0.186864 0.794407
Si Si7 0.195247 0.594490 0.793002
O O1 0.500000 0.704393 0.266143
O O2 0.331998 0.779825 0.275595
O O3 0.500000 0.755404 0.000000
O O4 0.669363 0.629209 0.274004
O O5 0.500000 0.653424 0.000000
O O6 0.750107 0.954247 0.782089
O O7 0.500000 0.000000 0.685025
O O8 0.777976 0.000000 0.500000
O O9 0.195276 0.500000 0.500000
O O10 0.266850 0.453950 0.234350
O O11 0.000000 0.500000 0.225464
O O12 0.729290 0.090587 0.500000
O O13 0.742338 0.137536 0.224200
O O14 0.000000 0.093040 0.303708
O O15 0.000000 0.190167 0.720661
O O16 0.179383 0.195268 0.000000
O O17 0.000000 0.596884 0.721651
O O18 0.182064 0.601078 0.000000
#
# Coordination Sequence:
#
# PCOD9389206 Si02
#       7
#     4   4   4   4   8   8   8
#     4   9  18  32  50  71  96 122 153 197 240 281
#     4   9  18  31  48  73  97 121 158 199 240 281
#     4   9  17  27  42  67  94 120 151 186 226 273
#     4   9  17  30  49  72  99 133 166 193 229 278
#     4   9  17  30  48  68  91 120 153 189 229 275
#     4   9  18  32  50  71  94 122 155 191 234 281
#     4   9  17  30  49  72  98 126 158 198 237 273
#
# _framework density 21.473983
#
# number of rings (size 3 to 8) (size 9 to 14) (size 15 to 20)
#    0.000    3.000    0.000    0.600    1.400    3.600 
#    0.000    7.000    0.000    5.400    0.000    5.600 
#    0.000    0.000    0.000    0.000    0.000    0.000 
#
# Total GULP energy -222967.382858 kJ/mol
# GULP energy per Si atom -5574.184571 kJ/mol
# Density = 2.142511 g / cm^3
# Si number density = 21.473983 Si / 1000 Ang^3
#
#
#
# Elastic Constant Matrix: (Units=GPa)
#
#
# Indices 1 2 3 4 5 6 
#
# 1 109.9329 106.1443 8.4695 0.0000 0.0000 0.0000
# 2 106.1443 227.9642 0.4132 0.0000 0.0000 0.0000
# 3 8.4695 0.4132 35.4091 0.0000 0.0000 0.0000
# 4 0.0000 0.0000 0.0000 25.4396 0.0000 0.0000
# 5 0.0000 0.0000 0.0000 0.0000 0.9236 0.0000
# 6 0.0000 0.0000 0.0000 0.0000 0.0000 43.8219
#
#
#
# Elastic Compliance Matrix: (Units=1/GPa)
#
#
# Indices 1 2 3 4 5 6 
#
# 1 0.017072 -0.007942 -0.003991 0.000000 0.000000 0.000000
# 2 -0.007942 0.008081 0.001805 0.000000 0.000000 0.000000
# 3 -0.003991 0.001805 0.029175 0.000000 0.000000 0.000000
# 4 0.000000 0.000000 0.000000 0.039309 0.000000 0.000000
# 5 0.000000 0.000000 0.000000 0.000000 1.082710 0.000000
# 6 0.000000 0.000000 0.000000 0.000000 0.000000 0.022820
#
#
# Mechanical properties :
#
#
# Convention : Reuss Voigt Hill
#
# Bulk Modulus (GPa) = 29.34829 67.04001 48.19415
# Shear Modulus (GPa) = 4.06247 31.25563 17.65905
#
# Velocity S-wave (km/s) = 1.37692 3.81926 2.87077
# Velocity P-wave (km/s) = 4.02796 7.12291 5.78621
#
# Compressibility (1/GPa) = 0.03407353
#
# Stress axis : x y z
#
# Youngs Moduli (GPa) = 58.57527 123.74331 34.27609
#
# Poissons Ratio (x) = 0.98275 0.13679
# Poissons Ratio (y) = 0.46519 -0.06188
# Poissons Ratio (z) = 0.23376 -0.22339
#
# Static dielectric constant tensor:
#      x y z
#    x 1.789900 0.000000 0.000000 
#    y 0.000000 1.776000 0.000000 
#    z 0.000000 0.000000 1.815180 
# 
# From -- ./inp_files/1903.got.cif
#   From: 2010.05.17/outbox.cif.g08.bks.cpg/sg47_1_cif.got.tgz:1903.got - 2010.06.03 20:15:42.
