data_PCOD9389143
_publ_section_title
;
Structure prediction by ZEFSAII (Michael W. Deem and Ramdas Pophale) SiO2 
 PCOD9389143
Probable space group: P M M M
;
_chemical_formula_sum "Si O2"
_cell_formula_units_Z 44
_cell_length_a 17.349375
_cell_length_b 7.451881
_cell_length_c 16.658694
_cell_angle_alpha 90.000000
_cell_angle_beta 90.000000
_cell_angle_gamma 90.000000
_cell_volume 2153.727215
_symmetry_space_group_name_H-M "P M M M"
_symmetry_group_IT_number 47
_symmetry_cell_setting 'orthorhombic'
loop_
_space_group_symop_operation_xyz
x,y,z
-x,-y,z
x,-y,-z
-x,y,-z
-x,-y,-z
x,y,-z
-x,y,z
x,-y,z
loop_
_atom_site_type_symbol
_atom_site_label
_atom_site_fract_x
_atom_site_fract_y
_atom_site_fract_z
Si Si1 0.089565 0.718873 0.909622
Si Si2 0.242361 0.215692 0.587255
Si Si3 0.500000 0.280644 0.910600
Si Si4 0.628024 0.717656 0.790605
Si Si5 0.583738 0.208557 0.386180
Si Si6 0.199564 0.286093 0.233778
O O1 0.091471 0.500000 0.909431
O O2 0.137819 0.781255 0.831699
O O3 0.000000 0.771429 0.902113
O O4 0.116518 0.772999 0.000000
O O5 0.210227 0.272328 0.500000
O O6 0.331699 0.283669 0.590951
O O7 0.196534 0.258371 0.669378
O O8 0.247203 0.000000 0.587107
O O9 0.500000 0.500000 0.910430
O O10 0.423646 0.224536 0.864214
O O11 0.500000 0.216441 0.000000
O O12 0.629173 0.500000 0.788060
O O13 0.587760 0.780968 0.709643
O O14 0.715655 0.781710 0.790384
O O15 0.500000 0.285017 0.410806
O O16 0.583633 0.000000 0.410581
O O17 0.199208 0.500000 0.224249
#
# Coordination Sequence:
#
# PCOD9389143 Si02
#       6
#     8   8   4   8   8   8
#     4   8  14  26  46  73 101 122 142 177 226 274
#     4   9  18  31  45  63  89 121 154 187 227 273
#     4   9  16  24  35  53  78 109 142 176 213 251
#     4   9  16  26  39  56  81 112 144 178 215 257
#     4   9  16  26  42  60  78 105 143 187 226 260
#     4   9  17  28  46  70  91 116 150 187 224 264
#
# _framework density 20.429698999999999
#
# number of rings (size 3 to 8) (size 9 to 14) (size 15 to 20)
#    0.000    3.182    0.909    0.545    0.000    1.455 
#    0.000    5.455    0.000    2.727    0.000   15.273 
#    0.000    0.000    0.000    0.000    0.000    0.000 
#
# Total GULP energy -245021.851499 kJ/mol
# GULP energy per Si atom -5568.678443 kJ/mol
# Density = 2.038320 g / cm^3
# Si number density = 20.429699 Si / 1000 Ang^3
#
#
#
# Elastic Constant Matrix: (Units=GPa)
#
#
# Indices 1 2 3 4 5 6 
#
# 1 88.9339 5.6581 86.9097 0.0000 0.0000 0.0000
# 2 5.6581 61.9808 2.9512 0.0000 0.0000 0.0000
# 3 86.9097 2.9512 225.5186 0.0000 0.0000 0.0000
# 4 0.0000 0.0000 0.0000 -3.2772 0.0000 0.0000
# 5 0.0000 0.0000 0.0000 0.0000 26.1587 0.0000
# 6 0.0000 0.0000 0.0000 0.0000 0.0000 3.6500
#
#
#
# Elastic Compliance Matrix: (Units=1/GPa)
#
#
# Indices 1 2 3 4 5 6 
#
# 1 0.018145 -0.001324 -0.006975 0.000000 0.000000 0.000000
# 2 -0.001324 0.016241 0.000298 0.000000 0.000000 0.000000
# 3 -0.006975 0.000298 0.007118 0.000000 0.000000 0.000000
# 4 0.000000 0.000000 0.000000 -0.305138 0.000000 0.000000
# 5 0.000000 0.000000 0.000000 0.000000 0.038228 0.000000
# 6 0.000000 0.000000 0.000000 0.000000 0.000000 0.273972
#
#
# Mechanical properties :
#
#
# Convention : Reuss Voigt Hill
#
# Bulk Modulus (GPa) = 39.21469 63.05236 51.13353
# Shear Modulus (GPa) = 68.42603 24.03391 46.22997
#
# Velocity S-wave (km/s) = 5.79363 3.43362 4.76214
# Velocity P-wave (km/s) = 7.99947 6.83006 7.43778
#
# Compressibility (1/GPa) = 0.02550065
#
# Stress axis : x y z
#
# Youngs Moduli (GPa) = 55.11092 61.57355 140.47913
#
# Poissons Ratio (x) = 0.08154 0.97990
# Poissons Ratio (y) = 0.07298 -0.04184
# Poissons Ratio (z) = 0.38442 -0.01834
#
# Static dielectric constant tensor:
#      x y z
#    x 1.711790 0.000000 0.000000 
#    y 0.000000 1.781290 0.000000 
#    z 0.000000 0.000000 1.747500 
# 
# From -- ./inp_files/24567.got.cif
#   From: 2010.05.17/outbox.cif.g08.bks.cpg/sg47_13_cif.got.tgz:24567.got - 2010.06.03 20:15:42.
