data_PCOD9389587
_publ_section_title
;
Structure prediction by ZEFSAII (Michael W. Deem and Ramdas Pophale) SiO2 
 PCOD9389587
Probable space group: P N N N
;
_chemical_formula_sum "Si O2"
_cell_formula_units_Z 54
_cell_length_a 15.154063
_cell_length_b 13.915551
_cell_length_c 10.712477
_cell_angle_alpha 90.000000
_cell_angle_beta 90.000000
_cell_angle_gamma 90.000000
_cell_volume 2259.016475
_symmetry_space_group_name_H-M "P N N N"
_symmetry_group_IT_number 48
_space_group.IT_coordinate_system_code '2'
_symmetry_cell_setting 'orthorhombic'
loop_
_space_group_symop_operation_xyz
x,y,z
1/2-x,1/2-y,z
x,1/2-y,1/2-z
1/2-x,y,1/2-z
-x,-y,-z
1/2+x,1/2+y,-z
-x,1/2+y,1/2+z
1/2+x,-y,1/2+z
loop_
_atom_site_type_symbol
_atom_site_label
_atom_site_fract_x
_atom_site_fract_y
_atom_site_fract_z
Si Si1 0.621943 0.121972 0.906805
Si Si2 0.750000 0.750000 0.562559
Si Si3 0.704189 0.900515 0.139117
Si Si4 0.796674 0.047195 0.999453
Si Si5 0.464892 0.134019 0.730225
Si Si6 0.250000 0.750000 0.250000
Si Si7 0.904408 0.220246 0.111262
Si Si8 0.914527 0.879297 0.934294
O O1 0.552633 0.096837 0.799396
O O2 0.686709 0.192364 0.836502
O O3 0.696256 0.045248 0.945832
O O4 0.583487 0.184334 0.023634
O O5 0.704829 0.667448 0.479825
O O6 0.835382 0.691428 0.612788
O O7 0.750000 0.843243 0.250000
O O8 0.607254 0.918969 0.185106
O O9 0.773461 0.985957 0.120945
O O10 0.835786 0.149486 0.039650
O O11 0.869543 0.985167 0.924089
O O12 0.463769 0.250000 0.750000
O O13 0.442270 0.123721 0.583219
O O14 0.874266 0.250000 0.250000
O O15 0.994479 0.157379 0.126118
#
# Coordination Sequence:
#
# PCOD9389587 Si02
#       8
#     8   4   8   8   8   2   8   8
#     4  12  25  43  74 101 131 183 234 296 351 423
#     4  10  17  34  69  96 128 174 233 279 348 410
#     4  11  19  34  63 102 136 173 218 285 351 405
#     4  11  26  42  65 103 144 183 231 292 367 420
#     4  12  20  38  73 103 131 166 243 292 343 401
#     4  12  20  48  74  96 130 166 248 286 344 416
#     4  12  26  45  69  95 141 194 242 279 354 445
#     4  11  23  43  71 103 136 187 231 301 357 426
#
# _framework density 23.904208000000001
#
# number of rings (size 3 to 8) (size 9 to 14) (size 15 to 20)
#    0.000    0.593    8.148    0.667    2.074    1.185 
#    0.000    3.333    0.000    0.000    0.000    0.000 
#    0.000    0.000    0.000    0.000    0.000    0.000 
#
# Total GULP energy -300734.324613 kJ/mol
# GULP energy per Si atom -5569.154159 kJ/mol
# Density = 2.384980 g / cm^3
# Si number density = 23.904208 Si / 1000 Ang^3
#
#
#
# Elastic Constant Matrix: (Units=GPa)
#
#
# Indices 1 2 3 4 5 6 
#
# 1 154.4613 24.6160 16.0854 0.0000 0.0000 0.0000
# 2 24.6160 77.2266 21.1927 0.0000 0.0000 0.0000
# 3 16.0854 21.1927 51.8010 0.0000 0.0000 0.0000
# 4 0.0000 0.0000 0.0000 15.3256 0.0000 0.0000
# 5 0.0000 0.0000 0.0000 0.0000 24.0164 0.0000
# 6 0.0000 0.0000 0.0000 0.0000 0.0000 42.2620
#
#
#
# Elastic Compliance Matrix: (Units=1/GPa)
#
#
# Indices 1 2 3 4 5 6 
#
# 1 0.006910 -0.001818 -0.001402 0.000000 0.000000 0.000000
# 2 -0.001818 0.015065 -0.005599 0.000000 0.000000 0.000000
# 3 -0.001402 -0.005599 0.022031 0.000000 0.000000 0.000000
# 4 0.000000 0.000000 0.000000 0.065250 0.000000 0.000000
# 5 0.000000 0.000000 0.000000 0.000000 0.041638 0.000000
# 6 0.000000 0.000000 0.000000 0.000000 0.000000 0.023662
#
#
# Mechanical properties :
#
#
# Convention : Reuss Voigt Hill
#
# Bulk Modulus (GPa) = 37.92471 45.25302 41.58886
# Shear Modulus (GPa) = 24.87786 31.09379 27.98583
#
# Velocity S-wave (km/s) = 3.22954 3.61053 3.42533
# Velocity P-wave (km/s) = 5.45951 6.02937 5.75150
#
# Compressibility (1/GPa) = 0.02636803
#
# Stress axis : x y z
#
# Youngs Moduli (GPa) = 144.72191 66.38013 45.39148
#
# Poissons Ratio (x) = 0.12066 0.06364
# Poissons Ratio (y) = 0.26307 0.25414
# Poissons Ratio (z) = 0.20290 0.37165
#
# Static dielectric constant tensor:
#      x y z
#    x 2.153730 0.000000 0.000000 
#    y 0.000000 2.146440 0.000000 
#    z 0.000000 0.000000 1.976480 
# 
# From -- ./inp_files/21384.got.cif
#   From: 2010.05.17/outbox.cif.g08.bks.cpg/sg48_11_cif.got.tgz:21384.got - 2010.06.03 20:39:00.
