data_PCOD9389075
_publ_section_title
;
Structure prediction by ZEFSAII (Michael W. Deem and Ramdas Pophale) SiO2 
 PCOD9389075
Probable space group: P M M M
;
_chemical_formula_sum "Si O2"
_cell_formula_units_Z 40
_cell_length_a 7.444886
_cell_length_b 8.059408
_cell_length_c 29.707594
_cell_angle_alpha 90.000000
_cell_angle_beta 90.000000
_cell_angle_gamma 90.000000
_cell_volume 1782.496452
_symmetry_space_group_name_H-M "P M M M"
_symmetry_group_IT_number 47
_symmetry_cell_setting 'orthorhombic'
loop_
_space_group_symop_operation_xyz
x,y,z
-x,-y,z
x,-y,-z
-x,y,-z
-x,-y,-z
x,y,-z
-x,y,z
x,-y,z
loop_
_atom_site_type_symbol
_atom_site_label
_atom_site_fract_x
_atom_site_fract_y
_atom_site_fract_z
Si Si1 0.285656 0.810099 0.212715
Si Si2 0.794229 0.196554 0.500000
Si Si3 0.280375 0.500000 0.051860
Si Si4 0.280893 0.193932 0.886633
Si Si5 0.784995 0.811125 0.690640
Si Si6 0.794401 0.303581 0.594712
O O1 0.500000 0.817809 0.209744
O O2 0.224993 0.748585 0.163841
O O3 0.249538 0.727212 0.260953
O O4 0.215441 0.000000 0.215456
O O5 0.710180 0.247709 0.547600
O O6 0.000000 0.267945 0.500000
O O7 0.804741 0.000000 0.500000
O O8 0.500000 0.500000 0.052697
O O9 0.222733 0.667903 0.077640
O O10 0.224388 0.500000 0.000000
O O11 0.500000 0.191616 0.887820
O O12 0.226142 0.000000 0.893486
O O13 0.715373 0.742180 0.643292
O O14 0.000000 0.811959 0.687129
O O15 0.717865 0.000000 0.693708
O O16 0.804039 0.500000 0.593436
O O17 0.000000 0.233820 0.594029
#
# Coordination Sequence:
#
# PCOD9389075 Si02
#       6
#     8   4   4   8   8   8
#     4   8  14  26  43  60  81 112 144 171 205 250
#     4   9  15  23  37  55  74 101 138 171 200 244
#     4   9  16  24  36  58  85 111 141 176 215 258
#     4   8  14  25  39  55  79 111 143 175 213 256
#     4   9  16  26  41  61  84 108 136 173 211 245
#     4   9  16  25  36  53  80 109 133 163 207 253
#
# _framework density 22.440436999999999
#
# number of rings (size 3 to 8) (size 9 to 14) (size 15 to 20)
#    0.000    3.400    0.000    2.100    0.000    4.000 
#    1.800    2.000    0.000    0.000    0.000    0.700 
#    0.000    7.200    0.000    7.800    0.000    8.000 
#
# Total GULP energy -222734.814232 kJ/mol
# GULP energy per Si atom -5568.370356 kJ/mol
# Density = 2.238936 g / cm^3
# Si number density = 22.440437 Si / 1000 Ang^3
#
#
#
# Elastic Constant Matrix: (Units=GPa)
#
#
# Indices 1 2 3 4 5 6 
#
# 1 66.4351 2.5486 11.3390 0.0000 0.0000 0.0000
# 2 2.5486 81.1407 93.1369 0.0000 0.0000 0.0000
# 3 11.3390 93.1369 293.2638 0.0000 0.0000 0.0000
# 4 0.0000 0.0000 0.0000 79.5283 0.0000 0.0000
# 5 0.0000 0.0000 0.0000 0.0000 84.3974 0.0000
# 6 0.0000 0.0000 0.0000 0.0000 0.0000 -10.4473
#
#
#
# Elastic Compliance Matrix: (Units=1/GPa)
#
#
# Indices 1 2 3 4 5 6 
#
# 1 0.015157 0.000309 -0.000684 0.000000 0.000000 0.000000
# 2 0.000309 0.019401 -0.006173 0.000000 0.000000 0.000000
# 3 -0.000684 -0.006173 0.005397 0.000000 0.000000 0.000000
# 4 0.000000 0.000000 0.000000 0.012574 0.000000 0.000000
# 5 0.000000 0.000000 0.000000 0.000000 0.011849 0.000000
# 6 0.000000 0.000000 0.000000 0.000000 0.000000 -0.095719
#
#
# Mechanical properties :
#
#
# Convention : Reuss Voigt Hill
#
# Bulk Modulus (GPa) = 37.23253 72.76539 54.99896
# Shear Modulus (GPa) = -538.11458 52.95001 -242.58229
#
# Velocity S-wave (km/s) = -15.50217 4.86282 -10.40842
# Velocity P-wave (km/s) = 17.42973 8.00161 10.94919
#
# Compressibility (1/GPa) = 0.02685823
#
# Stress axis : x y z
#
# Youngs Moduli (GPa) = 65.97515 51.54473 185.29013
#
# Poissons Ratio (x) = -0.01595 0.12680
# Poissons Ratio (y) = -0.02041 1.14386
# Poissons Ratio (z) = 0.04515 0.31820
#
# Static dielectric constant tensor:
#      x y z
#    x 1.934640 0.000000 0.000000 
#    y 0.000000 1.788080 0.000000 
#    z 0.000000 0.000000 1.892740 
# 
# From -- ./inp_files/4415.got.cif
#   From: 2010.05.17/outbox.cif.g08.bks.cpg/sg47_3_cif.got.tgz:4415.got - 2010.06.03 20:15:42.
