data_PCOD9389400
_publ_section_title
;
Structure prediction by ZEFSAII (Michael W. Deem and Ramdas Pophale) SiO2 
 PCOD9389400
Probable space group: P M M M
;
_chemical_formula_sum "Si O2"
_cell_formula_units_Z 64
_cell_length_a 21.000000
_cell_length_b 9.000000
_cell_length_c 21.000000
_cell_angle_alpha 90.000000
_cell_angle_beta 90.000000
_cell_angle_gamma 90.000000
_cell_volume 3969.000000
_symmetry_space_group_name_H-M "P M M M"
_symmetry_group_IT_number 47
_symmetry_cell_setting 'orthorhombic'
loop_
_space_group_symop_operation_xyz
x,y,z
-x,-y,z
x,-y,-z
-x,y,-z
-x,-y,-z
x,y,-z
-x,y,z
x,-y,z
loop_
_atom_site_type_symbol
_atom_site_label
_atom_site_fract_x
_atom_site_fract_y
_atom_site_fract_z
Si Si1 0.158877 0.678928 0.928540
Si Si2 0.710214 0.177066 0.885309
Si Si3 0.430286 0.820539 0.118798
Si Si4 0.074604 0.678978 0.425099
Si Si5 0.296631 0.822547 0.732629
Si Si6 0.845461 0.179442 0.688677
Si Si7 0.571170 0.321613 0.259756
Si Si8 0.924609 0.679913 0.194282
O O1 0.161895 0.500000 0.926999
O O2 0.229503 0.741507 0.915282
O O3 0.110642 0.723332 0.871818
O O4 0.138471 0.723899 0.000000
O O5 0.639017 0.220152 0.909834
O O6 0.711258 0.205391 0.808796
O O7 0.717585 0.000000 0.894908
O O8 0.500000 0.785571 0.088714
O O9 0.430636 0.745275 0.188292
O O10 0.428204 0.000000 0.126451
O O11 0.086383 0.714283 0.500000
O O12 0.080359 0.500000 0.418104
O O13 0.122199 0.757987 0.375841
O O14 0.000000 0.716584 0.411371
O O15 0.229580 0.779457 0.699142
O O16 0.362890 0.744065 0.711670
O O17 0.304784 0.000000 0.724993
O O18 0.886544 0.245103 0.747505
O O19 0.848797 0.000000 0.689554
O O20 0.500000 0.285645 0.287466
O O21 0.576196 0.500000 0.257494
O O22 0.920193 0.500000 0.200749
O O23 0.000000 0.717731 0.194428
#
# Coordination Sequence:
#
# PCOD9389400 Si02
#       8
#     8   8   8   8   8   8   8   8
#     4  10  21  35  50  68  89 117 156 202 250 299
#     4   9  16  29  47  66  89 118 153 192 237 289
#     4   8  14  25  41  61  87 118 149 184 230 283
#     4   9  19  36  55  75 103 139 174 204 238 286
#     4   9  18  30  44  65  95 129 161 195 238 287
#     4  11  21  33  51  77 106 132 164 205 244 284
#     4   9  16  24  37  62  93 123 158 198 237 279
#     4  10  21  36  53  72  94 123 158 197 248 305
#
# _framework density 16.124969
#
# number of rings (size 3 to 8) (size 9 to 14) (size 15 to 20)
#    0.000    2.625    1.250    2.250    0.000    6.500 
#    0.000    1.875    0.000    0.375    0.000    4.375 
#    0.000    0.500    0.000    5.500    0.000    4.125 
#
# Total GULP energy -356465.126626 kJ/mol
# GULP energy per Si atom -5569.767604 kJ/mol
# Density = 1.608827 g / cm^3
# Si number density = 16.124969 Si / 1000 Ang^3
#
#
#
# Elastic Constant Matrix: (Units=GPa)
#
#
# Indices 1 2 3 4 5 6 
#
# 1 166.3314 37.6977 54.4955 0.0000 0.0000 0.0000
# 2 37.6977 26.3882 23.5117 0.0000 0.0000 0.0000
# 3 54.4955 23.5117 73.8269 0.0000 0.0000 0.0000
# 4 0.0000 0.0000 0.0000 15.2607 0.0000 0.0000
# 5 0.0000 0.0000 0.0000 0.0000 17.6211 0.0000
# 6 0.0000 0.0000 0.0000 0.0000 0.0000 33.2631
#
#
#
# Elastic Compliance Matrix: (Units=1/GPa)
#
#
# Indices 1 2 3 4 5 6 
#
# 1 0.009596 -0.010328 -0.003794 0.000000 0.000000 0.000000
# 2 -0.010328 0.064025 -0.012766 0.000000 0.000000 0.000000
# 3 -0.003794 -0.012766 0.020412 0.000000 0.000000 0.000000
# 4 0.000000 0.000000 0.000000 0.065528 0.000000 0.000000
# 5 0.000000 0.000000 0.000000 0.000000 0.056750 0.000000
# 6 0.000000 0.000000 0.000000 0.000000 0.000000 0.030063
#
#
# Mechanical properties :
#
#
# Convention : Reuss Voigt Hill
#
# Bulk Modulus (GPa) = 24.84144 55.32848 40.08496
# Shear Modulus (GPa) = 15.94543 23.28507 19.61525
#
# Velocity S-wave (km/s) = 3.14804 3.80417 3.49155
# Velocity P-wave (km/s) = 5.35280 7.32683 6.41619
#
# Compressibility (1/GPa) = 0.04025531
#
# Stress axis : x y z
#
# Youngs Moduli (GPa) = 104.21085 15.61892 48.99190
#
# Poissons Ratio (x) = 0.16131 0.18588
# Poissons Ratio (y) = 1.07630 0.62545
# Poissons Ratio (z) = 0.39538 0.19940
#
# Static dielectric constant tensor:
#      x y z
#    x 1.575120 0.000000 0.000000 
#    y 0.000000 1.539490 0.000000 
#    z 0.000000 0.000000 1.527880 
# 
# From -- ./inp_files/11611.got.cif
#   From: 2010.05.17/outbox.ucp.g08.bks.cvg/sg47_6_cif.got.tgz:11611.got - 2010.06.11 16:36:43.
