data_PCOD9389335
_publ_section_title
;
Structure prediction by ZEFSAII (Michael W. Deem and Ramdas Pophale) SiO2 
 PCOD9389335
Probable space group: P M M M
;
_chemical_formula_sum "Si O2"
_cell_formula_units_Z 48
_cell_length_a 9.000000
_cell_length_b 30.000000
_cell_length_c 9.000000
_cell_angle_alpha 90.000000
_cell_angle_beta 90.000000
_cell_angle_gamma 90.000000
_cell_volume 2430.000000
_symmetry_space_group_name_H-M "P M M M"
_symmetry_group_IT_number 47
_symmetry_cell_setting 'orthorhombic'
loop_
_space_group_symop_operation_xyz
x,y,z
-x,-y,z
x,-y,-z
-x,y,-z
-x,-y,-z
x,y,-z
-x,y,z
x,-y,z
loop_
_atom_site_type_symbol
_atom_site_label
_atom_site_fract_x
_atom_site_fract_y
_atom_site_fract_z
Si Si1 0.180935 0.500000 0.666695
Si Si2 0.332809 0.000000 0.181627
Si Si3 0.330539 0.337277 0.666125
Si Si4 0.833037 0.753970 0.671266
Si Si5 0.833994 0.913214 0.818309
Si Si6 0.830504 0.588863 0.826356
Si Si7 0.664316 0.171681 0.821907
O O1 0.234875 0.500000 0.500000
O O2 0.225177 0.455569 0.749017
O O3 0.000000 0.500000 0.666974
O O4 0.258978 0.954918 0.233021
O O5 0.500000 0.000000 0.227382
O O6 0.325544 0.000000 0.000000
O O7 0.318943 0.357361 0.500000
O O8 0.500000 0.321728 0.684532
O O9 0.216813 0.296773 0.672947
O O10 0.280476 0.372160 0.786581
O O11 0.826784 0.769095 0.500000
O O12 0.718470 0.781303 0.767070
O O13 0.000000 0.759829 0.727434
O O14 0.773689 0.866254 0.766423
O O15 0.000000 0.919936 0.771157
O O16 0.829433 0.912731 0.000000
O O17 0.000000 0.599220 0.773219
O O18 0.838681 0.581323 0.000000
O O19 0.500000 0.161223 0.769448
O O20 0.664461 0.170899 0.000000
#
# Coordination Sequence:
#
# PCOD9389335 Si02
#       7
#     4   4   8   8   8   8   8
#     4   9  17  31  54  81 108 141 180 220 260 303
#     4   9  15  23  37  59  90 127 166 209 258 311
#     4  10  21  37  56  77 102 134 172 213 257 306
#     4  10  21  37  57  79 102 132 172 215 258 307
#     4   9  16  26  41  63  93 129 168 210 256 306
#     4  10  20  34  54  81 111 141 174 214 260 309
#     4  10  20  33  50  74 104 136 169 208 257 310
#
# _framework density 19.753086
#
# number of rings (size 3 to 8) (size 9 to 14) (size 15 to 20)
#    0.000    2.333    0.000    3.000    0.000    8.667 
#    0.000    0.417    0.000    2.500    0.000    0.583 
#    0.000    4.667    0.000    0.000    0.000    0.000 
#
# Total GULP energy -267364.996716 kJ/mol
# GULP energy per Si atom -5570.104098 kJ/mol
# Density = 1.970813 g / cm^3
# Si number density = 19.753086 Si / 1000 Ang^3
#
#
#
# Elastic Constant Matrix: (Units=GPa)
#
#
# Indices 1 2 3 4 5 6 
#
# 1 33.5010 18.3629 21.0637 0.0000 0.0000 0.0000
# 2 18.3629 50.8645 28.0364 0.0000 0.0000 0.0000
# 3 21.0637 28.0364 15.9991 0.0000 0.0000 0.0000
# 4 0.0000 0.0000 0.0000 58.5316 0.0000 0.0000
# 5 0.0000 0.0000 0.0000 0.0000 11.6074 0.0000
# 6 0.0000 0.0000 0.0000 0.0000 0.0000 -131.0074
#
#
#
# Elastic Compliance Matrix: (Units=1/GPa)
#
#
# Indices 1 2 3 4 5 6 
#
# 1 -0.005192 -0.055528 0.104140 0.000000 0.000000 0.000000
# 2 -0.055528 -0.017272 0.103371 0.000000 0.000000 0.000000
# 3 0.104140 0.103371 -0.255748 0.000000 0.000000 0.000000
# 4 0.000000 0.000000 0.000000 0.017085 0.000000 0.000000
# 5 0.000000 0.000000 0.000000 0.000000 0.086152 0.000000
# 6 0.000000 0.000000 0.000000 0.000000 0.000000 -0.007633
#
#
# Mechanical properties :
#
#
# Convention : Reuss Voigt Hill
#
# Bulk Modulus (GPa) = 38.82490 26.14343 32.48416
# Shear Modulus (GPa) = -10.46044 -9.98024 -10.22034
#
# Velocity S-wave (km/s) = -2.30371 -2.25021 -2.27712
# Velocity P-wave (km/s) = 3.55270 2.55197 3.09307
#
# Compressibility (1/GPa) = 0.02575667
#
# Stress axis : x y z
#
# Youngs Moduli (GPa) = -192.60810 -57.89830 -3.91010
#
# Poissons Ratio (x) = -3.21495 0.40720
# Poissons Ratio (y) = -10.69506 0.40419
# Poissons Ratio (z) = 20.05827 5.98503
#
# Static dielectric constant tensor:
#      x y z
#    x 1.706390 0.000000 0.000000 
#    y 0.000000 1.471420 0.000000 
#    z 0.000000 0.000000 1.693290 
# 
# From -- ./inp_files/2625.got.cif
#   From: 2010.05.17/outbox.ucp.g08.bks.cvg/sg47_2_cif.got.tgz:2625.got - 2010.06.11 16:36:43.
