data_PCOD9389998
_publ_section_title
;
Structure prediction by ZEFSAII (Michael W. Deem and Ramdas Pophale) SiO2 
 PCOD9389998
Probable space group: P N N N
;
_chemical_formula_sum "Si O2"
_cell_formula_units_Z 34
_cell_length_a 12.427925
_cell_length_b 22.365182
_cell_length_c 4.997418
_cell_angle_alpha 90.000000
_cell_angle_beta 90.000000
_cell_angle_gamma 90.000000
_cell_volume 1389.046348
_symmetry_space_group_name_H-M "P N N N"
_symmetry_group_IT_number 48
_space_group.IT_coordinate_system_code '2'
_symmetry_cell_setting 'orthorhombic'
loop_
_space_group_symop_operation_xyz
x,y,z
1/2-x,1/2-y,z
x,1/2-y,1/2-z
1/2-x,y,1/2-z
-x,-y,-z
1/2+x,1/2+y,-z
-x,1/2+y,1/2+z
1/2+x,-y,1/2+z
loop_
_atom_site_type_symbol
_atom_site_label
_atom_site_fract_x
_atom_site_fract_y
_atom_site_fract_z
Si Si1 0.382278 0.433109 0.117662
Si Si2 0.100367 0.148287 0.599293
Si Si3 0.641164 0.133089 0.847896
Si Si4 0.250000 0.250000 0.750000
Si Si5 0.123317 0.949801 0.841873
O O1 0.351621 0.399127 0.388526
O O2 0.497018 0.461179 0.217357
O O3 0.389877 0.382289 0.890178
O O4 0.329262 0.489911 0.971471
O O5 0.171121 0.207269 0.584868
O O6 0.972158 0.161510 0.557530
O O7 0.750000 0.167475 0.750000
O O8 0.615616 0.097518 0.579803
O O9 0.666718 0.083516 0.076946
#
# Coordination Sequence:
#
# PCOD9389998 Si02
#       5
#     8   8   8   2   8
#     4   9  18  37  60  91 120 163 207 261 310 384
#     4  10  23  40  63  85 122 164 223 270 318 359
#     4  10  19  35  59  95 129 166 195 255 324 400
#     4  12  28  50  66  90 116 178 232 292 308 356
#     4   9  17  32  60  91 131 162 198 242 319 397
#
# _framework density 24.477224
#
# number of rings (size 3 to 8) (size 9 to 14) (size 15 to 20)
#    0.000    2.353    0.000    2.118    0.000    8.471 
#    8.471    0.588    0.000    0.000    0.000    9.882 
#    0.000    0.000    0.000    0.000    0.000    0.000 
#
# Total GULP energy -189602.589243 kJ/mol
# GULP energy per Si atom -5576.546742 kJ/mol
# Density = 2.442151 g / cm^3
# Si number density = 24.477224 Si / 1000 Ang^3
#
#
#
# Elastic Constant Matrix: (Units=GPa)
#
#
# Indices 1 2 3 4 5 6 
#
# 1 166.0200 55.7561 34.2349 0.0000 0.0000 0.0000
# 2 55.7561 92.6727 21.0883 0.0000 0.0000 0.0000
# 3 34.2349 21.0883 136.1689 0.0000 0.0000 0.0000
# 4 0.0000 0.0000 0.0000 12.3734 0.0000 0.0000
# 5 0.0000 0.0000 0.0000 0.0000 33.2023 0.0000
# 6 0.0000 0.0000 0.0000 0.0000 0.0000 45.5412
#
#
#
# Elastic Compliance Matrix: (Units=1/GPa)
#
#
# Indices 1 2 3 4 5 6 
#
# 1 0.007756 -0.004377 -0.001272 0.000000 0.000000 0.000000
# 2 -0.004377 0.013655 -0.001014 0.000000 0.000000 0.000000
# 3 -0.001272 -0.001014 0.007821 0.000000 0.000000 0.000000
# 4 0.000000 0.000000 0.000000 0.080818 0.000000 0.000000
# 5 0.000000 0.000000 0.000000 0.000000 0.030118 0.000000
# 6 0.000000 0.000000 0.000000 0.000000 0.000000 0.021958
#
#
# Mechanical properties :
#
#
# Convention : Reuss Voigt Hill
#
# Bulk Modulus (GPa) = 62.87369 68.55779 65.71574
# Shear Modulus (GPa) = 27.66198 37.14220 32.40209
#
# Velocity S-wave (km/s) = 3.36536 3.89963 3.64231
# Velocity P-wave (km/s) = 6.39087 6.95311 6.67791
#
# Compressibility (1/GPa) = 0.01590490
#
# Stress axis : x y z
#
# Youngs Moduli (GPa) = 128.94046 73.23519 127.86544
#
# Poissons Ratio (x) = 0.32052 0.16265
# Poissons Ratio (y) = 0.56432 0.12970
# Poissons Ratio (z) = 0.16402 0.07428
#
# Static dielectric constant tensor:
#      x y z
#    x 2.363160 0.000000 0.000000 
#    y 0.000000 1.887280 0.000000 
#    z 0.000000 0.000000 1.904710 
# 
# From -- ./inp_files/3233.got.cif
#   From: 2010.05.17/outbox.cif.g08.bks.cpg/sg48_2_cif.got.tgz:3233.got - 2010.06.03 20:39:00.
