data_PCOD9389987
_publ_section_title
;
Structure prediction by ZEFSAII (Michael W. Deem and Ramdas Pophale) SiO2 
 PCOD9389987
Probable space group: P N N N
;
_chemical_formula_sum "Si O2"
_cell_formula_units_Z 24
_cell_length_a 7.771647
_cell_length_b 16.804048
_cell_length_c 8.476330
_cell_angle_alpha 90.000000
_cell_angle_beta 90.000000
_cell_angle_gamma 90.000000
_cell_volume 1106.967412
_symmetry_space_group_name_H-M "P N N N"
_symmetry_group_IT_number 48
_space_group.IT_coordinate_system_code '2'
_symmetry_cell_setting 'orthorhombic'
loop_
_space_group_symop_operation_xyz
x,y,z
1/2-x,1/2-y,z
x,1/2-y,1/2-z
1/2-x,y,1/2-z
-x,-y,-z
1/2+x,1/2+y,-z
-x,1/2+y,1/2+z
1/2+x,-y,1/2+z
loop_
_atom_site_type_symbol
_atom_site_label
_atom_site_fract_x
_atom_site_fract_y
_atom_site_fract_z
Si Si1 0.056365 0.168538 0.813428
Si Si2 0.945875 0.502166 0.815244
Si Si3 0.051477 0.332610 0.311247
O O1 0.970096 0.250000 0.750000
O O2 0.250000 0.171343 0.750000
O O3 0.993901 0.083660 0.752638
O O4 0.052856 0.168978 0.001109
O O5 0.750000 0.509472 0.750000
O O6 0.027822 0.584206 0.748570
O O7 0.000000 0.500000 0.000000
O O8 0.971529 0.250000 0.250000
O O9 0.250000 0.331233 0.250000
#
# Coordination Sequence:
#
# PCOD9389987 Si02
#       3
#     8   8   8
#     4  11  21  37  62  90 120 164 212 260 319 391
#     4  11  23  40  62  91 126 166 212 271 332 393
#     4  10  19  35  57  85 118 157 203 257 313 382
#
# _framework density 21.680855000000001
#
# number of rings (size 3 to 8) (size 9 to 14) (size 15 to 20)
#    0.000    1.333    0.000   11.000    0.000    0.667 
#    0.000    0.000    0.000    7.000    0.000    0.000 
#    0.000    0.000    0.000    0.000    0.000    0.000 
#
# Total GULP energy -133783.963922 kJ/mol
# GULP energy per Si atom -5574.331830 kJ/mol
# Density = 2.163151 g / cm^3
# Si number density = 21.680855 Si / 1000 Ang^3
#
#
#
# Elastic Constant Matrix: (Units=GPa)
#
#
# Indices 1 2 3 4 5 6 
#
# 1 51.9206 35.1385 21.3375 0.0000 0.0000 0.0000
# 2 35.1385 311.4091 124.0905 0.0000 0.0000 0.0000
# 3 21.3375 124.0905 275.5556 0.0000 0.0000 0.0000
# 4 0.0000 0.0000 0.0000 55.0187 0.0000 0.0000
# 5 0.0000 0.0000 0.0000 0.0000 22.8644 0.0000
# 6 0.0000 0.0000 0.0000 0.0000 0.0000 37.4984
#
#
#
# Elastic Compliance Matrix: (Units=1/GPa)
#
#
# Indices 1 2 3 4 5 6 
#
# 1 0.020957 -0.002094 -0.000680 0.000000 0.000000 0.000000
# 2 -0.002094 0.004123 -0.001694 0.000000 0.000000 0.000000
# 3 -0.000680 -0.001694 0.004445 0.000000 0.000000 0.000000
# 4 0.000000 0.000000 0.000000 0.018176 0.000000 0.000000
# 5 0.000000 0.000000 0.000000 0.000000 0.043736 0.000000
# 6 0.000000 0.000000 0.000000 0.000000 0.000000 0.026668
#
#
# Mechanical properties :
#
#
# Convention : Reuss Voigt Hill
#
# Bulk Modulus (GPa) = 48.57236 111.11312 79.84274
# Shear Modulus (GPa) = 37.34069 53.63091 45.48580
#
# Velocity S-wave (km/s) = 4.15455 4.97898 4.58533
# Velocity P-wave (km/s) = 6.74282 9.18773 8.05854
#
# Compressibility (1/GPa) = 0.02058784
#
# Stress axis : x y z
#
# Youngs Moduli (GPa) = 47.71771 242.56204 224.98587
#
# Poissons Ratio (x) = 0.50787 0.15296
# Poissons Ratio (y) = 0.09991 0.38122
# Poissons Ratio (z) = 0.03244 0.41100
#
# Static dielectric constant tensor:
#      x y z
#    x 1.826140 0.000000 0.000000 
#    y 0.000000 1.939250 0.000000 
#    z 0.000000 0.000000 1.378310 
# 
# From -- ./inp_files/8113.got.cif
#   From: 2010.05.17/outbox.cif.g08.bks.cpg/sg48_5_cif.got.tgz:8113.got - 2010.06.03 20:39:00.
