data_PCOD9389239
_publ_section_title
;
Structure prediction by ZEFSAII (Michael W. Deem and Ramdas Pophale) SiO2 
 PCOD9389239
Probable space group: P M M M
;
_chemical_formula_sum "Si O2"
_cell_formula_units_Z 64
_cell_length_a 21.000000
_cell_length_b 21.000000
_cell_length_c 9.000000
_cell_angle_alpha 90.000000
_cell_angle_beta 90.000000
_cell_angle_gamma 90.000000
_cell_volume 3969.000000
_symmetry_space_group_name_H-M "P M M M"
_symmetry_group_IT_number 47
_symmetry_cell_setting 'orthorhombic'
loop_
_space_group_symop_operation_xyz
x,y,z
-x,-y,z
x,-y,-z
-x,y,-z
-x,-y,-z
x,y,-z
-x,y,z
x,-y,z
loop_
_atom_site_type_symbol
_atom_site_label
_atom_site_fract_x
_atom_site_fract_y
_atom_site_fract_z
Si Si1 0.071258 0.633133 0.679314
Si Si2 0.927987 0.773297 0.821122
Si Si3 0.571840 0.738699 0.677996
Si Si4 0.572415 0.878393 0.821754
Si Si5 0.213331 0.815234 0.820504
Si Si6 0.287579 0.694437 0.679691
Si Si7 0.204591 0.571963 0.319310
Si Si8 0.298511 0.073921 0.677424
O O1 0.073602 0.638427 0.500000
O O2 0.077395 0.703434 0.748494
O O3 0.132572 0.591939 0.725315
O O4 0.000000 0.608580 0.718142
O O5 0.862523 0.810641 0.781532
O O6 0.000000 0.797906 0.781206
O O7 0.927162 0.767126 0.000000
O O8 0.574081 0.750986 0.500000
O O9 0.500000 0.712087 0.708890
O O10 0.576369 0.805502 0.764620
O O11 0.636467 0.699503 0.713468
O O12 0.500000 0.901033 0.786232
O O13 0.630832 0.914356 0.744149
O O14 0.579880 0.880797 0.000000
O O15 0.249733 0.752864 0.756038
O O16 0.249572 0.876482 0.752913
O O17 0.218778 0.815879 0.000000
O O18 0.280895 0.700824 0.500000
O O19 0.253893 0.627873 0.724564
O O20 0.205398 0.570972 0.500000
O O21 0.219492 0.500000 0.268529
O O22 0.300146 0.085707 0.500000
O O23 0.280776 0.000000 0.702590
#
# Coordination Sequence:
#
# PCOD9389239 Si02
#       8
#     8   8   8   8   8   8   8   8
#     4   9  16  26  43  68  96 128 167 206 244 294
#     4   9  18  32  50  74 103 131 160 200 252 306
#     4   9  17  29  47  71  98 130 168 209 254 303
#     4  10  20  33  51  77 107 137 170 208 248 293
#     4  11  21  33  54  79 101 129 166 211 255 298
#     4  10  18  30  50  72  97 131 169 212 256 302
#     4   9  17  28  43  67  99 134 171 211 255 299
#     4  11  24  39  54  74 103 139 174 207 248 300
#
# _framework density 16.124969
#
# number of rings (size 3 to 8) (size 9 to 14) (size 15 to 20)
#    0.000    2.250    2.500    1.125    0.000    2.750 
#    0.000    2.500    0.000    2.250    0.000    7.000 
#    0.000    0.000    0.000    4.250    0.000    4.500 
#
# Total GULP energy -356631.785141 kJ/mol
# GULP energy per Si atom -5572.371643 kJ/mol
# Density = 1.608827 g / cm^3
# Si number density = 16.124969 Si / 1000 Ang^3
#
#
#
# Elastic Constant Matrix: (Units=GPa)
#
#
# Indices 1 2 3 4 5 6 
#
# 1 161.4295 73.7186 36.1027 0.0000 0.0000 0.0000
# 2 73.7186 105.3893 29.3231 0.0000 0.0000 0.0000
# 3 36.1027 29.3231 35.1346 0.0000 0.0000 0.0000
# 4 0.0000 0.0000 0.0000 4.9462 0.0000 0.0000
# 5 0.0000 0.0000 0.0000 0.0000 24.4865 0.0000
# 6 0.0000 0.0000 0.0000 0.0000 0.0000 26.4624
#
#
#
# Elastic Compliance Matrix: (Units=1/GPa)
#
#
# Indices 1 2 3 4 5 6 
#
# 1 0.009915 -0.005341 -0.005731 0.000000 0.000000 0.000000
# 2 -0.005341 0.015236 -0.007227 0.000000 0.000000 0.000000
# 3 -0.005731 -0.007227 0.040383 0.000000 0.000000 0.000000
# 4 0.000000 0.000000 0.000000 0.202176 0.000000 0.000000
# 5 0.000000 0.000000 0.000000 0.000000 0.040839 0.000000
# 6 0.000000 0.000000 0.000000 0.000000 0.000000 0.037789
#
#
# Mechanical properties :
#
#
# Convention : Reuss Voigt Hill
#
# Bulk Modulus (GPa) = 34.56017 64.47134 49.51575
# Shear Modulus (GPa) = 12.73622 22.03296 17.38459
#
# Velocity S-wave (km/s) = 2.81347 3.70048 3.28703
# Velocity P-wave (km/s) = 5.65980 7.63722 6.72163
#
# Compressibility (1/GPa) = 0.02893505
#
# Stress axis : x y z
#
# Youngs Moduli (GPa) = 100.85257 65.63582 24.76315
#
# Poissons Ratio (x) = 0.35057 0.14192
# Poissons Ratio (y) = 0.53867 0.17897
# Poissons Ratio (z) = 0.57798 0.47436
#
# Static dielectric constant tensor:
#      x y z
#    x 1.574640 0.000000 0.000000 
#    y 0.000000 1.520280 0.000000 
#    z 0.000000 0.000000 1.534920 
# 
# From -- ./inp_files/11872.got.cif
#   From: 2010.05.17/outbox.ucp.g08.bks.cvg/sg47_6_cif.got.tgz:11872.got - 2010.06.11 16:36:43.
