data_PCOD9389435
_publ_section_title
;
Structure prediction by ZEFSAII (Michael W. Deem and Ramdas Pophale) SiO2 
 PCOD9389435
Probable space group: P M M M
;
_chemical_formula_sum "Si O2"
_cell_formula_units_Z 52
_cell_length_a 9.000000
_cell_length_b 21.000000
_cell_length_c 15.000000
_cell_angle_alpha 90.000000
_cell_angle_beta 90.000000
_cell_angle_gamma 90.000000
_cell_volume 2835.000000
_symmetry_space_group_name_H-M "P M M M"
_symmetry_group_IT_number 47
_symmetry_cell_setting 'orthorhombic'
loop_
_space_group_symop_operation_xyz
x,y,z
-x,-y,z
x,-y,-z
-x,y,-z
-x,-y,-z
x,y,-z
-x,y,z
x,-y,z
loop_
_atom_site_type_symbol
_atom_site_label
_atom_site_fract_x
_atom_site_fract_y
_atom_site_fract_z
Si Si1 0.820869 0.000000 0.893565
Si Si2 0.174822 0.315953 0.606139
Si Si3 0.322680 0.881905 0.786866
Si Si4 0.174133 0.771495 0.894721
Si Si5 0.822675 0.620517 0.102743
Si Si6 0.679055 0.821807 0.397013
Si Si7 0.322299 0.427794 0.721489
O O1 0.758058 0.061452 0.840573
O O2 0.000000 0.000000 0.890183
O O3 0.779412 0.000000 0.000000
O O4 0.190588 0.327873 0.500000
O O5 0.248736 0.247043 0.623421
O O6 0.248950 0.372881 0.661335
O O7 0.000000 0.312587 0.628012
O O8 0.500000 0.891946 0.791388
O O9 0.276692 0.816563 0.836191
O O10 0.281029 0.871065 0.682292
O O11 0.202422 0.696296 0.882537
O O12 0.000000 0.783262 0.873289
O O13 0.193968 0.785461 0.000000
O O14 0.734725 0.582883 0.177765
O O15 0.000000 0.609619 0.112063
O O16 0.782500 0.605777 0.000000
O O17 0.719772 0.839055 0.500000
O O18 0.500000 0.814968 0.394534
O O19 0.500000 0.421459 0.718011
O O20 0.282829 0.500000 0.692896
#
# Coordination Sequence:
#
# PCOD9389435 Si02
#       7
#     4   8   8   8   8   8   8
#     4  11  25  43  60  79 110 154 193 223 266 321
#     4  10  21  37  59  86 112 140 179 229 280 328
#     4  11  22  35  56  85 113 144 183 225 266 310
#     4   9  18  33  53  78 108 140 174 216 270 328
#     4   9  19  36  57  80 106 139 181 229 279 330
#     4   9  19  37  60  86 116 147 178 216 269 330
#     4  11  24  38  52  74 106 145 186 227 276 336
#
# _framework density 18.342151999999999
#
# number of rings (size 3 to 8) (size 9 to 14) (size 15 to 20)
#    0.000    2.077    0.000    3.923    0.000   10.154 
#    0.000    5.000    0.000    2.308    0.000    0.000 
#    0.000    0.000    0.000    0.000    0.000    0.000 
#
# Total GULP energy -290402.288337 kJ/mol
# GULP energy per Si atom -5584.659391 kJ/mol
# Density = 1.830040 g / cm^3
# Si number density = 18.342152 Si / 1000 Ang^3
#
#
#
# Elastic Constant Matrix: (Units=GPa)
#
#
# Indices 1 2 3 4 5 6 
#
# 1 56.1128 38.1617 48.8592 0.0000 0.0000 0.0000
# 2 38.1617 70.7401 66.9692 0.0000 0.0000 0.0000
# 3 48.8592 66.9692 115.2993 0.0000 0.0000 0.0000
# 4 0.0000 0.0000 0.0000 27.5850 0.0000 0.0000
# 5 0.0000 0.0000 0.0000 0.0000 30.9062 0.0000
# 6 0.0000 0.0000 0.0000 0.0000 0.0000 29.1090
#
#
#
# Elastic Compliance Matrix: (Units=1/GPa)
#
#
# Indices 1 2 3 4 5 6 
#
# 1 0.030862 -0.009482 -0.007571 0.000000 0.000000 0.000000
# 2 -0.009482 0.034318 -0.015915 0.000000 0.000000 0.000000
# 3 -0.007571 -0.015915 0.021125 0.000000 0.000000 0.000000
# 4 0.000000 0.000000 0.000000 0.036252 0.000000 0.000000
# 5 0.000000 0.000000 0.000000 0.000000 0.032356 0.000000
# 6 0.000000 0.000000 0.000000 0.000000 0.000000 0.034354
#
#
# Mechanical properties :
#
#
# Convention : Reuss Voigt Hill
#
# Bulk Modulus (GPa) = 49.09152 61.12582 55.10867
# Shear Modulus (GPa) = 19.08474 23.39752 21.24113
#
# Velocity S-wave (km/s) = 3.22915 3.57545 3.40671
# Velocity P-wave (km/s) = 6.38167 7.10231 6.75161
#
# Compressibility (1/GPa) = 0.02037012
#
# Stress axis : x y z
#
# Youngs Moduli (GPa) = 32.40266 29.13961 47.33734
#
# Poissons Ratio (x) = 0.27629 0.35838
# Poissons Ratio (y) = 0.30723 0.75336
# Poissons Ratio (z) = 0.24531 0.46375
#
# Static dielectric constant tensor:
#      x y z
#    x 1.612190 0.000000 0.000000 
#    y 0.000000 1.615830 0.000000 
#    z 0.000000 0.000000 1.647040 
# 
# From -- ./inp_files/7089.got.cif
#   From: 2010.05.17/outbox.ucp.g08.bks.cvg/sg47_4_cif.got.tgz:7089.got - 2010.06.11 16:36:43.
