data_PCOD9389709
_publ_section_title
;
Structure prediction by ZEFSAII (Michael W. Deem and Ramdas Pophale) SiO2 
 PCOD9389709
Probable space group: P N N N
;
_chemical_formula_sum "Si O2"
_cell_formula_units_Z 44
_cell_length_a 21.295583
_cell_length_b 23.724772
_cell_length_c 5.395312
_cell_angle_alpha 90.000000
_cell_angle_beta 90.000000
_cell_angle_gamma 90.000000
_cell_volume 2725.888865
_symmetry_space_group_name_H-M "P N N N"
_symmetry_group_IT_number 48
_space_group.IT_coordinate_system_code '2'
_symmetry_cell_setting 'orthorhombic'
loop_
_space_group_symop_operation_xyz
x,y,z
1/2-x,1/2-y,z
x,1/2-y,1/2-z
1/2-x,y,1/2-z
-x,-y,-z
1/2+x,1/2+y,-z
-x,1/2+y,1/2+z
1/2+x,-y,1/2+z
loop_
_atom_site_type_symbol
_atom_site_label
_atom_site_fract_x
_atom_site_fract_y
_atom_site_fract_z
Si Si1 0.750000 0.130417 0.750000
Si Si2 0.334070 0.689715 0.631427
Si Si3 0.968724 0.215792 0.507620
Si Si4 0.126653 0.592677 0.477116
Si Si5 0.509332 0.406095 0.607829
Si Si6 0.555648 0.002751 0.296100
O O1 0.774519 0.168182 0.522369
O O2 0.688545 0.094880 0.688053
O O3 0.321572 0.750000 0.750000
O O4 0.394495 0.701759 0.458399
O O5 0.360033 0.641936 0.821406
O O6 0.974532 0.250000 0.250000
O O7 0.001533 0.154995 0.493702
O O8 0.989626 0.250000 0.750000
O O9 0.061944 0.602336 0.324296
O O10 0.117194 0.530514 0.589423
O O11 0.538007 0.450780 0.412217
O O12 0.447190 0.439328 0.695524
O O13 0.500000 0.000000 0.500000
#
# Coordination Sequence:
#
# PCOD9389709 Si02
#       6
#     4   8   8   8   8   8
#     4  12  24  33  46  60  94 130 186 221 268 312
#     4  11  24  35  45  64  96 137 180 227 266 297
#     4  11  22  35  53  72 103 133 172 226 266 313
#     4  11  20  36  45  67  93 127 176 225 263 308
#     4  10  18  34  52  72  91 125 170 218 267 313
#     4   9  19  31  53  69  91 119 169 222 256 313
#
# _framework density 16.141524
#
# number of rings (size 3 to 8) (size 9 to 14) (size 15 to 20)
#    0.000    1.455    3.636    2.727    2.545    2.182 
#    0.000    0.000    0.000    0.000    0.000    0.000 
#    0.000    0.000    0.000    0.000    0.000  101.818 
#
# Total GULP energy -245161.139529 kJ/mol
# GULP energy per Si atom -5571.844080 kJ/mol
# Density = 1.610479 g / cm^3
# Si number density = 16.141524 Si / 1000 Ang^3
#
#
#
# Elastic Constant Matrix: (Units=GPa)
#
#
# Indices 1 2 3 4 5 6 
#
# 1 47.9825 50.2916 19.3706 0.0000 0.0000 0.0000
# 2 50.2916 129.7196 39.1529 0.0000 0.0000 0.0000
# 3 19.3706 39.1529 68.7951 0.0000 0.0000 0.0000
# 4 0.0000 0.0000 0.0000 25.9548 0.0000 0.0000
# 5 0.0000 0.0000 0.0000 0.0000 24.9069 0.0000
# 6 0.0000 0.0000 0.0000 0.0000 0.0000 26.3791
#
#
#
# Elastic Compliance Matrix: (Units=1/GPa)
#
#
# Indices 1 2 3 4 5 6 
#
# 1 0.035491 -0.012972 -0.002611 0.000000 0.000000 0.000000
# 2 -0.012972 0.014049 -0.004343 0.000000 0.000000 0.000000
# 3 -0.002611 -0.004343 0.017743 0.000000 0.000000 0.000000
# 4 0.000000 0.000000 0.000000 0.038528 0.000000 0.000000
# 5 0.000000 0.000000 0.000000 0.000000 0.040150 0.000000
# 6 0.000000 0.000000 0.000000 0.000000 0.000000 0.037909
#
#
# Mechanical properties :
#
#
# Convention : Reuss Voigt Hill
#
# Bulk Modulus (GPa) = 36.45435 51.56971 44.01203
# Shear Modulus (GPa) = 21.47178 24.62695 23.04936
#
# Velocity S-wave (km/s) = 3.65117 3.91024 3.78293
# Velocity P-wave (km/s) = 6.35673 7.23910 6.81221
#
# Compressibility (1/GPa) = 0.02743157
#
# Stress axis : x y z
#
# Youngs Moduli (GPa) = 28.17641 71.18030 56.36094
#
# Poissons Ratio (x) = 0.92332 0.14714
# Poissons Ratio (y) = 0.36549 0.24478
# Poissons Ratio (z) = 0.07356 0.30914
#
# Static dielectric constant tensor:
#      x y z
#    x 1.525530 0.000000 0.000000 
#    y 0.000000 1.573540 0.000000 
#    z 0.000000 0.000000 1.695690 
# 
# From -- ./inp_files/5292.got.cif
#   From: 2010.05.17/outbox.cif.g08.bks.cpg/sg48_3_cif.got.tgz:5292.got - 2010.06.03 20:39:00.
