data_PCOD9389301
_publ_section_title
;
Structure prediction by ZEFSAII (Michael W. Deem and Ramdas Pophale) SiO2 
 PCOD9389301
Probable space group: P M M M
;
_chemical_formula_sum "Si O2"
_cell_formula_units_Z 44
_cell_length_a 30.000000
_cell_length_b 9.000000
_cell_length_c 9.000000
_cell_angle_alpha 90.000000
_cell_angle_beta 90.000000
_cell_angle_gamma 90.000000
_cell_volume 2430.000000
_symmetry_space_group_name_H-M "P M M M"
_symmetry_group_IT_number 47
_symmetry_cell_setting 'orthorhombic'
loop_
_space_group_symop_operation_xyz
x,y,z
-x,-y,z
x,-y,-z
-x,y,-z
-x,-y,-z
x,y,-z
-x,y,z
x,-y,z
loop_
_atom_site_type_symbol
_atom_site_label
_atom_site_fract_x
_atom_site_fract_y
_atom_site_fract_z
Si Si1 0.139834 0.324951 0.823515
Si Si2 0.775393 0.179108 0.326596
Si Si3 0.323556 0.173645 0.320827
Si Si4 0.951099 0.680105 0.675218
Si Si5 0.500000 0.171928 0.180934
Si Si6 0.408550 0.324344 0.823354
O O1 0.143226 0.500000 0.784370
O O2 0.183299 0.244464 0.761533
O O3 0.093294 0.265996 0.756186
O O4 0.138000 0.312239 0.000000
O O5 0.779865 0.221258 0.500000
O O6 0.725939 0.226296 0.273537
O O7 0.775973 0.000000 0.319340
O O8 0.324261 0.181430 0.500000
O O9 0.364626 0.262378 0.254541
O O10 0.328146 0.000000 0.279298
O O11 0.947854 0.712859 0.500000
O O12 0.951449 0.500000 0.690257
O O13 0.000000 0.732495 0.728666
O O14 0.545703 0.248759 0.231235
O O15 0.500000 0.000000 0.222878
O O16 0.500000 0.181563 0.000000
O O17 0.412105 0.500000 0.802232
O O18 0.404772 0.294480 0.000000
#
# Coordination Sequence:
#
# PCOD9389301 Si02
#       6
#     8   8   8   8   4   8
#     4  10  20  31  46  73 105 132 160 199 248 299
#     4   9  19  36  55  72  93 127 169 208 247 294
#     4   9  19  36  55  74  97 127 166 209 250 295
#     4   8  14  26  45  68  94 127 167 206 243 288
#     4   9  17  31  52  75 100 135 176 210 242 287
#     4  10  20  33  51  77 107 135 164 203 250 297
#
# _framework density 18.106995999999999
#
# number of rings (size 3 to 8) (size 9 to 14) (size 15 to 20)
#    0.000    2.818    0.000    3.000    0.000    5.818 
#    0.000    7.727    0.000    3.273    0.000    3.818 
#    0.000    0.000    0.000    0.000    0.000    0.000 
#
# Total GULP energy -245257.099412 kJ/mol
# GULP energy per Si atom -5574.024987 kJ/mol
# Density = 1.806578 g / cm^3
# Si number density = 18.106996 Si / 1000 Ang^3
#
#
#
# Elastic Constant Matrix: (Units=GPa)
#
#
# Indices 1 2 3 4 5 6 
#
# 1 204.3106 43.5721 47.5073 0.0000 0.0000 0.0000
# 2 43.5721 5.8311 23.0312 0.0000 0.0000 0.0000
# 3 47.5073 23.0312 8.6301 0.0000 0.0000 0.0000
# 4 0.0000 0.0000 0.0000 21.7028 0.0000 0.0000
# 5 0.0000 0.0000 0.0000 0.0000 40.1627 0.0000
# 6 0.0000 0.0000 0.0000 0.0000 0.0000 36.5872
#
#
#
# Elastic Compliance Matrix: (Units=1/GPa)
#
#
# Indices 1 2 3 4 5 6 
#
# 1 0.014870 -0.022241 -0.022500 0.000000 0.000000 0.000000
# 2 -0.022241 0.015291 0.081625 0.000000 0.000000 0.000000
# 3 -0.022500 0.081625 0.021902 0.000000 0.000000 0.000000
# 4 0.000000 0.000000 0.000000 0.046077 0.000000 0.000000
# 5 0.000000 0.000000 0.000000 0.000000 0.024899 0.000000
# 6 0.000000 0.000000 0.000000 0.000000 0.000000 0.027332
#
#
# Mechanical properties :
#
#
# Convention : Reuss Voigt Hill
#
# Bulk Modulus (GPa) = 7.94728 49.66590 28.80659
# Shear Modulus (GPa) = 42.17778 26.66796 34.42287
#
# Velocity S-wave (km/s) = 4.83158 3.84187 4.36487
# Velocity P-wave (km/s) = 5.96022 6.86794 6.43012
#
# Compressibility (1/GPa) = 0.12582920
#
# Stress axis : x y z
#
# Youngs Moduli (GPa) = 67.25163 65.39842 45.65854
#
# Poissons Ratio (x) = 1.45451 1.02733
# Poissons Ratio (y) = 1.49573 -3.72686
# Poissons Ratio (z) = 1.51318 -5.33812
#
# Static dielectric constant tensor:
#      x y z
#    x 1.621240 0.000000 0.000000 
#    y 0.000000 1.613890 0.000000 
#    z 0.000000 0.000000 1.610130 
# 
# From -- ./inp_files/1962.got.cif
#   From: 2010.05.17/outbox.ucp.g08.bks.cvg/sg47_1_cif.got.tgz:1962.got - 2010.06.11 16:36:43.
