data_PCOD9389759
_publ_section_title
;
Structure prediction by ZEFSAII (Michael W. Deem and Ramdas Pophale) SiO2 
 PCOD9389759
Probable space group: P N N N
;
_chemical_formula_sum "Si O2"
_cell_formula_units_Z 56
_cell_length_a 7.677992
_cell_length_b 15.241276
_cell_length_c 21.375764
_cell_angle_alpha 90.000000
_cell_angle_beta 90.000000
_cell_angle_gamma 90.000000
_cell_volume 2501.443102
_symmetry_space_group_name_H-M "P N N N"
_symmetry_group_IT_number 48
_space_group.IT_coordinate_system_code '2'
_symmetry_cell_setting 'orthorhombic'
loop_
_space_group_symop_operation_xyz
x,y,z
1/2-x,1/2-y,z
x,1/2-y,1/2-z
1/2-x,y,1/2-z
-x,-y,-z
1/2+x,1/2+y,-z
-x,1/2+y,1/2+z
1/2+x,-y,1/2+z
loop_
_atom_site_type_symbol
_atom_site_label
_atom_site_fract_x
_atom_site_fract_y
_atom_site_fract_z
Si Si1 0.532242 0.847560 0.866145
Si Si2 0.450624 0.164246 0.721174
Si Si3 0.457108 0.237871 0.581257
Si Si4 0.552099 0.843064 0.652433
Si Si5 0.955283 0.474900 0.239707
Si Si6 0.540402 0.598965 0.982761
Si Si7 0.542254 0.603170 0.498036
O O1 0.475877 0.754166 0.837686
O O2 0.741354 0.841133 0.860664
O O3 0.483268 0.934773 0.828607
O O4 0.473370 0.853774 0.937737
O O5 0.536919 0.250000 0.750000
O O6 0.250000 0.162950 0.750000
O O7 0.466820 0.187293 0.647764
O O8 0.525391 0.071290 0.743250
O O9 0.250000 0.250000 0.574344
O O10 0.533606 0.171638 0.529910
O O11 0.516268 0.337386 0.561703
O O12 0.526608 0.904554 0.711357
O O13 0.480356 0.882344 0.587771
O O14 0.750000 0.478948 0.250000
O O15 0.748766 0.607993 0.992439
O O16 0.500000 0.500000 0.000000
O O17 0.500000 0.500000 0.500000
#
# Coordination Sequence:
#
# PCOD9389759 Si02
#       7
#     8   8   8   8   8   8   8
#     4  10  21  39  61  84 119 160 204 239 296 369
#     4  10  20  35  54  86 117 154 191 239 299 350
#     4  10  18  35  60  81 114 155 202 236 282 354
#     4  10  20  40  59  85 115 161 205 234 301 364
#     4  11  24  36  59  92 121 151 195 254 311 353
#     4  10  20  36  60  85 115 156 200 248 287 356
#     4  10  22  36  59  89 116 156 199 251 298 346
#
# _framework density 22.387079
#
# number of rings (size 3 to 8) (size 9 to 14) (size 15 to 20)
#    0.000    1.857    2.857    1.714    2.000    4.571 
#    0.000    0.714    0.000    1.714    0.000    0.000 
#    0.000    0.000    0.000    0.000    0.000    0.000 
#
# Total GULP energy -312136.360748 kJ/mol
# GULP energy per Si atom -5573.863585 kJ/mol
# Density = 2.233612 g / cm^3
# Si number density = 22.387079 Si / 1000 Ang^3
#
#
#
# Elastic Constant Matrix: (Units=GPa)
#
#
# Indices 1 2 3 4 5 6 
#
# 1 27.7135 -7.0218 -5.6693 0.0000 0.0000 0.0000
# 2 -7.0218 181.5352 39.9449 0.0000 0.0000 0.0000
# 3 -5.6693 39.9449 95.8631 0.0000 0.0000 0.0000
# 4 0.0000 0.0000 0.0000 29.8754 0.0000 0.0000
# 5 0.0000 0.0000 0.0000 0.0000 -0.3620 0.0000
# 6 0.0000 0.0000 0.0000 0.0000 0.0000 31.2993
#
#
#
# Elastic Compliance Matrix: (Units=1/GPa)
#
#
# Indices 1 2 3 4 5 6 
#
# 1 0.036702 0.001037 0.001738 0.000000 0.000000 0.000000
# 2 0.001037 0.006094 -0.002478 0.000000 0.000000 0.000000
# 3 0.001738 -0.002478 0.011567 0.000000 0.000000 0.000000
# 4 0.000000 0.000000 0.000000 0.033472 0.000000 0.000000
# 5 0.000000 0.000000 0.000000 0.000000 -2.762343 0.000000
# 6 0.000000 0.000000 0.000000 0.000000 0.000000 0.031950
#
#
# Mechanical properties :
#
#
# Convention : Reuss Voigt Hill
#
# Bulk Modulus (GPa) = 18.19576 39.95770 29.07673
# Shear Modulus (GPa) = -1.90488 30.68641 14.39076
#
# Velocity S-wave (km/s) = -0.92343 3.70634 2.53813
# Velocity P-wave (km/s) = 2.64735 6.01691 4.64821
#
# Compressibility (1/GPa) = 0.05495785
#
# Stress axis : x y z
#
# Youngs Moduli (GPa) = 27.24657 164.09766 86.45380
#
# Poissons Ratio (x) = -0.17019 -0.15029
# Poissons Ratio (y) = -0.02826 0.21423
# Poissons Ratio (z) = -0.04737 0.40662
#
# Static dielectric constant tensor:
#      x y z
#    x 1.823830 0.000000 0.000000 
#    y 0.000000 1.872320 0.000000 
#    z 0.000000 0.000000 1.954270 
# 
# From -- ./inp_files/28371.got.cif
#   From: 2010.05.17/outbox.cif.g08.bks.cpg/sg48_15_cif.got.tgz:28371.got - 2010.06.03 20:39:00.
