data_PCOD9389133
_publ_section_title
;
Structure prediction by ZEFSAII (Michael W. Deem and Ramdas Pophale) SiO2 
 PCOD9389133
Probable space group: P M M M
;
_chemical_formula_sum "Si O2"
_cell_formula_units_Z 36
_cell_length_a 13.824130
_cell_length_b 13.812576
_cell_length_c 9.320978
_cell_angle_alpha 90.000000
_cell_angle_beta 90.000000
_cell_angle_gamma 90.000000
_cell_volume 1779.811353
_symmetry_space_group_name_H-M "P M M M"
_symmetry_group_IT_number 47
_symmetry_cell_setting 'orthorhombic'
loop_
_space_group_symop_operation_xyz
x,y,z
-x,-y,z
x,-y,-z
-x,y,-z
-x,-y,-z
x,y,-z
-x,y,z
x,-y,z
loop_
_atom_site_type_symbol
_atom_site_label
_atom_site_fract_x
_atom_site_fract_y
_atom_site_fract_z
Si Si1 0.392437 0.382192 0.334202
Si Si2 0.690561 0.116478 0.165145
Si Si3 0.500000 0.118317 0.664846
Si Si4 0.895202 0.196458 0.174031
Si Si5 0.800798 0.390033 0.171855
O O1 0.377703 0.353493 0.500000
O O2 0.500000 0.350852 0.287818
O O3 0.394122 0.500000 0.332002
O O4 0.301231 0.355992 0.237664
O O5 0.598574 0.149425 0.256922
O O6 0.796415 0.145479 0.222478
O O7 0.687248 0.000000 0.161466
O O8 0.681400 0.151230 0.000000
O O9 0.500000 0.148384 0.500000
O O10 0.500000 0.000000 0.668001
O O11 0.880380 0.309939 0.207521
O O12 0.000000 0.161723 0.226463
O O13 0.895924 0.185875 0.000000
O O14 0.821669 0.500000 0.220035
O O15 0.791667 0.391681 0.000000
#
# Coordination Sequence:
#
# PCOD9389133 Si02
#       5
#     8   8   4   8   8
#     4   8  14  26  44  64  88 120 155 193 240 290
#     4   9  17  31  53  78 102 130 163 199 242 291
#     4   9  17  31  53  79 106 133 160 196 243 295
#     4   9  18  32  49  72 101 129 163 208 249 287
#     4   9  17  29  46  68  93 124 162 201 242 287
#
# _framework density 20.226863999999999
#
# number of rings (size 3 to 8) (size 9 to 14) (size 15 to 20)
#    0.000    3.222    0.000    1.000    0.000    2.667 
#    2.000    7.778    0.000    2.667    0.000    6.222 
#    0.000    0.000    0.000    0.000    0.000    0.000 
#
# Total GULP energy -200730.162281 kJ/mol
# GULP energy per Si atom -5575.837841 kJ/mol
# Density = 2.018083 g / cm^3
# Si number density = 20.226864 Si / 1000 Ang^3
#
#
#
# Elastic Constant Matrix: (Units=GPa)
#
#
# Indices 1 2 3 4 5 6 
#
# 1 185.4741 26.0160 52.1497 0.0000 0.0000 0.0000
# 2 26.0160 42.4095 11.6934 0.0000 0.0000 0.0000
# 3 52.1497 11.6934 34.6986 0.0000 0.0000 0.0000
# 4 0.0000 0.0000 0.0000 8.8606 0.0000 0.0000
# 5 0.0000 0.0000 0.0000 0.0000 -2.8178 0.0000
# 6 0.0000 0.0000 0.0000 0.0000 0.0000 25.1201
#
#
#
# Elastic Compliance Matrix: (Units=1/GPa)
#
#
# Indices 1 2 3 4 5 6 
#
# 1 0.009502 -0.002085 -0.013578 0.000000 0.000000 0.000000
# 2 -0.002085 0.026453 -0.005781 0.000000 0.000000 0.000000
# 3 -0.013578 -0.005781 0.051174 0.000000 0.000000 0.000000
# 4 0.000000 0.000000 0.000000 0.112859 0.000000 0.000000
# 5 0.000000 0.000000 0.000000 0.000000 -0.354888 0.000000
# 6 0.000000 0.000000 0.000000 0.000000 0.000000 0.039809
#
#
# Mechanical properties :
#
#
# Convention : Reuss Voigt Hill
#
# Bulk Modulus (GPa) = 22.60331 49.14447 35.87389
# Shear Modulus (GPa) = -87.02053 17.74747 -34.63653
#
# Velocity S-wave (km/s) = -6.56625 2.96534 -4.14261
# Velocity P-wave (km/s) = 6.80356 6.00614 2.25994
#
# Compressibility (1/GPa) = 0.04424131
#
# Stress axis : x y z
#
# Youngs Moduli (GPa) = 105.24419 37.80348 19.54110
#
# Poissons Ratio (x) = 0.07882 0.26532
# Poissons Ratio (y) = 0.21944 0.11296
# Poissons Ratio (z) = 1.42898 0.21853
#
# Static dielectric constant tensor:
#      x y z
#    x 1.710520 0.000000 0.000000 
#    y 0.000000 1.796620 0.000000 
#    z 0.000000 0.000000 1.679810 
# 
# From -- ./inp_files/3741.got.cif
#   From: 2010.05.17/outbox.cif.g08.bks.cpg/sg47_2_cif.got.tgz:3741.got - 2010.06.03 20:15:42.
