data_PCOD9389436
_publ_section_title
;
Structure prediction by ZEFSAII (Michael W. Deem and Ramdas Pophale) SiO2 
 PCOD9389436
Probable space group: P M M M
;
_chemical_formula_sum "Si O2"
_cell_formula_units_Z 64
_cell_length_a 9.000000
_cell_length_b 15.000000
_cell_length_c 24.000000
_cell_angle_alpha 90.000000
_cell_angle_beta 90.000000
_cell_angle_gamma 90.000000
_cell_volume 3240.000000
_symmetry_space_group_name_H-M "P M M M"
_symmetry_group_IT_number 47
_symmetry_cell_setting 'orthorhombic'
loop_
_space_group_symop_operation_xyz
x,y,z
-x,-y,z
x,-y,-z
-x,y,-z
-x,-y,-z
x,y,-z
-x,y,z
x,-y,z
loop_
_atom_site_type_symbol
_atom_site_label
_atom_site_fract_x
_atom_site_fract_y
_atom_site_fract_z
Si Si1 0.328763 0.398785 0.894348
Si Si2 0.818886 0.095086 0.147905
Si Si3 0.669642 0.227230 0.633041
Si Si4 0.170082 0.633769 0.220267
Si Si5 0.178210 0.404813 0.345900
Si Si6 0.830581 0.163445 0.741072
Si Si7 0.837588 0.099929 0.566110
Si Si8 0.178323 0.766282 0.060105
O O1 0.500000 0.371309 0.897245
O O2 0.315845 0.500000 0.913136
O O3 0.272031 0.392383 0.830762
O O4 0.230224 0.333306 0.930355
O O5 0.767329 0.100673 0.211359
O O6 0.761694 0.173914 0.109940
O O7 0.000000 0.102267 0.151228
O O8 0.783765 0.000000 0.122403
O O9 0.500000 0.245961 0.642564
O O10 0.753970 0.319737 0.625448
O O11 0.737405 0.176540 0.686147
O O12 0.704975 0.162835 0.582717
O O13 0.220250 0.598861 0.280455
O O14 0.165256 0.740086 0.228672
O O15 0.000000 0.604606 0.209671
O O16 0.222879 0.500000 0.369681
O O17 0.000000 0.397641 0.346540
O O18 0.000000 0.138714 0.726709
O O19 0.843976 0.094226 0.500000
O O20 0.000000 0.134736 0.585449
O O21 0.819849 0.000000 0.588637
O O22 0.000000 0.769555 0.062329
O O23 0.226368 0.800135 0.000000
#
# Coordination Sequence:
#
# PCOD9389436 Si02
#       8
#     8   8   8   8   8   8   8   8
#     4  11  23  35  50  74 103 135 170 210 261 321
#     4   9  17  32  56  83 106 130 166 214 266 316
#     4  11  22  33  51  83 121 154 183 223 276 332
#     4   9  16  30  52  76 103 135 175 220 261 306
#     4   9  18  33  53  77 108 149 193 232 269 314
#     4   9  17  32  52  75 108 146 182 216 255 311
#     4   9  19  38  63  86 108 142 192 242 281 323
#     4  10  21  38  58  78 100 128 168 218 268 320
#
# _framework density 19.753086
#
# number of rings (size 3 to 8) (size 9 to 14) (size 15 to 20)
#    0.000    2.375    1.250    3.000    0.000    5.500 
#    0.000    4.375    0.000    1.500    0.000    3.500 
#    0.000    0.000    0.000    0.000    0.000    0.000 
#
# Total GULP energy -356484.225767 kJ/mol
# GULP energy per Si atom -5570.066028 kJ/mol
# Density = 1.970813 g / cm^3
# Si number density = 19.753086 Si / 1000 Ang^3
#
#
#
# Elastic Constant Matrix: (Units=GPa)
#
#
# Indices 1 2 3 4 5 6 
#
# 1 4.9451 15.7173 14.4670 0.0000 0.0000 0.0000
# 2 15.7173 50.6188 32.0548 0.0000 0.0000 0.0000
# 3 14.4670 32.0548 38.4316 0.0000 0.0000 0.0000
# 4 0.0000 0.0000 0.0000 22.2166 0.0000 0.0000
# 5 0.0000 0.0000 0.0000 0.0000 -929.2639 0.0000
# 6 0.0000 0.0000 0.0000 0.0000 0.0000 22.3292
#
#
#
# Elastic Compliance Matrix: (Units=1/GPa)
#
#
# Indices 1 2 3 4 5 6 
#
# 1 -0.944447 0.144369 0.235109 0.000000 0.000000 0.000000
# 2 0.144369 0.019803 -0.070863 0.000000 0.000000 0.000000
# 3 0.235109 -0.070863 -0.003378 0.000000 0.000000 0.000000
# 4 0.000000 0.000000 0.000000 0.045011 0.000000 0.000000
# 5 0.000000 0.000000 0.000000 0.000000 -0.001076 0.000000
# 6 0.000000 0.000000 0.000000 0.000000 0.000000 0.044784
#
#
# Mechanical properties :
#
#
# Convention : Reuss Voigt Hill
#
# Bulk Modulus (GPa) = -3.21757 24.27485 10.52864
# Shear Modulus (GPa) = -3.20486 -174.82653 -89.01570
#
# Velocity S-wave (km/s) = -1.27514 -9.41797 -6.72027
# Velocity P-wave (km/s) = 1.94946 10.29312 7.40772
#
# Compressibility (1/GPa) = -0.31079311
#
# Stress axis : x y z
#
# Youngs Moduli (GPa) = -1.05882 50.49712 -296.02352
#
# Poissons Ratio (x) = -7.29020 69.59765
# Poissons Ratio (y) = 0.15286 -20.97699
# Poissons Ratio (z) = 0.24894 3.57836
#
# Static dielectric constant tensor:
#      x y z
#    x 1.700020 0.000000 0.000000 
#    y 0.000000 1.738410 0.000000 
#    z 0.000000 0.000000 1.714940 
# 
# From -- ./inp_files/7853.got.cif
#   From: 2010.05.17/outbox.ucp.g08.bks.cvg/sg47_4_cif.got.tgz:7853.got - 2010.06.11 16:36:43.
