data_PCOD9389563
_publ_section_title
;
Structure prediction by ZEFSAII (Michael W. Deem and Ramdas Pophale) SiO2 
 PCOD9389563
Probable space group: P N N N
;
_chemical_formula_sum "Si O2"
_cell_formula_units_Z 64
_cell_length_a 9.332664
_cell_length_b 19.172031
_cell_length_c 16.693755
_cell_angle_alpha 90.000000
_cell_angle_beta 90.000000
_cell_angle_gamma 90.000000
_cell_volume 2986.948869
_symmetry_space_group_name_H-M "P N N N"
_symmetry_group_IT_number 48
_space_group.IT_coordinate_system_code '2'
_symmetry_cell_setting 'orthorhombic'
loop_
_space_group_symop_operation_xyz
x,y,z
1/2-x,1/2-y,z
x,1/2-y,1/2-z
1/2-x,y,1/2-z
-x,-y,-z
1/2+x,1/2+y,-z
-x,1/2+y,1/2+z
1/2+x,-y,1/2+z
loop_
_atom_site_type_symbol
_atom_site_label
_atom_site_fract_x
_atom_site_fract_y
_atom_site_fract_z
Si Si1 0.192983 0.365203 0.989461
Si Si2 0.761940 0.616133 0.838437
Si Si3 0.669026 0.823664 0.326967
Si Si4 0.655701 0.356830 0.830029
Si Si5 0.977906 0.501584 0.637599
Si Si6 0.734485 0.019988 0.050419
Si Si7 0.009082 0.000746 0.680067
Si Si8 0.395201 0.627540 0.429424
O O1 0.301496 0.355375 0.915104
O O2 0.184775 0.449733 0.995389
O O3 0.040298 0.336828 0.959384
O O4 0.222202 0.340261 0.079587
O O5 0.750000 0.650280 0.750000
O O6 0.623324 0.568223 0.854893
O O7 0.893137 0.561088 0.829346
O O8 0.750000 0.750000 0.331774
O O9 0.750000 0.858388 0.250000
O O10 0.497764 0.821204 0.314312
O O11 0.750000 0.366615 0.750000
O O12 0.615320 0.431370 0.871304
O O13 0.773297 0.325801 0.889990
O O14 0.038479 0.488561 0.726719
O O15 0.098998 0.514604 0.571988
O O16 0.651289 0.019171 0.133855
O O17 0.675854 0.085195 0.001902
O O18 0.948548 0.070161 0.636514
#
# Coordination Sequence:
#
# PCOD9389563 Si02
#       8
#     8   8   8   8   8   8   8   8
#     4  11  20  37  59  77 114 164 191 242 302 345
#     4  10  19  33  51  81 123 158 193 234 278 340
#     4  11  27  46  62  86 113 142 196 263 313 352
#     4  12  21  37  60  83 111 155 197 240 289 361
#     4  11  20  28  48  82 123 155 201 227 280 336
#     4  11  20  28  48  81 121 153 198 233 278 344
#     4  10  17  32  43  72 118 161 191 233 265 335
#     4  11  20  32  52  83 116 153 199 230 279 349
#
# _framework density 21.426548
#
# number of rings (size 3 to 8) (size 9 to 14) (size 15 to 20)
#    0.000    1.125    6.250    2.250    3.500    1.000 
#    0.000    4.375    0.000    0.375    0.000    0.000 
#    0.000    0.000    0.500    0.000    0.000    0.000 
#
# Total GULP energy -357269.717943 kJ/mol
# GULP energy per Si atom -5582.339343 kJ/mol
# Density = 2.137778 g / cm^3
# Si number density = 21.426548 Si / 1000 Ang^3
#
#
#
# Elastic Constant Matrix: (Units=GPa)
#
#
# Indices 1 2 3 4 5 6 
#
# 1 162.5878 9.4407 50.5343 0.0000 0.0000 0.0000
# 2 9.4407 24.1671 -3.5845 0.0000 0.0000 0.0000
# 3 50.5343 -3.5845 126.1670 0.0000 0.0000 0.0000
# 4 0.0000 0.0000 0.0000 1.7421 0.0000 0.0000
# 5 0.0000 0.0000 0.0000 0.0000 34.6335 0.0000
# 6 0.0000 0.0000 0.0000 0.0000 0.0000 9.6131
#
#
#
# Elastic Compliance Matrix: (Units=1/GPa)
#
#
# Indices 1 2 3 4 5 6 
#
# 1 0.007276 -0.003289 -0.003008 0.000000 0.000000 0.000000
# 2 -0.003289 0.043040 0.002540 0.000000 0.000000 0.000000
# 3 -0.003008 0.002540 0.009203 0.000000 0.000000 0.000000
# 4 0.000000 0.000000 0.000000 0.574023 0.000000 0.000000
# 5 0.000000 0.000000 0.000000 0.000000 0.028874 0.000000
# 6 0.000000 0.000000 0.000000 0.000000 0.000000 0.104025
#
#
# Mechanical properties :
#
#
# Convention : Reuss Voigt Hill
#
# Bulk Modulus (GPa) = 19.22840 47.30032 33.26436
# Shear Modulus (GPa) = 6.31880 26.29984 16.30932
#
# Velocity S-wave (km/s) = 1.71914 3.50729 2.76193
# Velocity P-wave (km/s) = 3.59641 6.20684 5.07243
#
# Compressibility (1/GPa) = 0.05200642
#
# Stress axis : x y z
#
# Youngs Moduli (GPa) = 137.43136 23.23417 108.66113
#
# Poissons Ratio (x) = 0.07641 0.32684
# Poissons Ratio (y) = 0.45196 -0.27600
# Poissons Ratio (z) = 0.41338 -0.05901
#
# Static dielectric constant tensor:
#      x y z
#    x 1.834930 0.000000 0.000000 
#    y 0.000000 1.786690 0.000000 
#    z 0.000000 0.000000 1.877780 
# 
# From -- ./inp_files/30642.got.cif
#   From: 2010.05.17/outbox.cif.g08.bks.cpg/sg48_16_cif.got.tgz:30642.got - 2010.06.03 20:39:00.
