data_PCOD9389500
_publ_section_title
;
Structure prediction by ZEFSAII (Michael W. Deem and Ramdas Pophale) SiO2 
 PCOD9389500
Probable space group: P N N N
;
_chemical_formula_sum "Si O2"
_cell_formula_units_Z 48
_cell_length_a 25.824359
_cell_length_b 9.478561
_cell_length_c 11.685727
_cell_angle_alpha 90.000000
_cell_angle_beta 90.000000
_cell_angle_gamma 90.000000
_cell_volume 2860.406103
_symmetry_space_group_name_H-M "P N N N"
_symmetry_group_IT_number 48
_space_group.IT_coordinate_system_code '2'
_symmetry_cell_setting 'orthorhombic'
loop_
_space_group_symop_operation_xyz
x,y,z
1/2-x,1/2-y,z
x,1/2-y,1/2-z
1/2-x,y,1/2-z
-x,-y,-z
1/2+x,1/2+y,-z
-x,1/2+y,1/2+z
1/2+x,-y,1/2+z
loop_
_atom_site_type_symbol
_atom_site_label
_atom_site_fract_x
_atom_site_fract_y
_atom_site_fract_z
Si Si1 0.011607 0.266369 0.005914
Si Si2 0.367860 0.099906 0.762059
Si Si3 0.943210 0.388484 0.674382
Si Si4 0.887537 0.658226 0.633785
Si Si5 0.967897 0.019289 0.326551
Si Si6 0.188872 0.232133 0.938304
O O1 0.062991 0.194795 0.054196
O O2 0.981367 0.337549 0.110222
O O3 0.029513 0.393715 0.921685
O O4 0.972354 0.166043 0.938539
O O5 0.398946 0.250000 0.750000
O O6 0.335493 0.127705 0.877680
O O7 0.329449 0.111929 0.654008
O O8 0.411331 0.983625 0.770240
O O9 0.931220 0.250000 0.750000
O O10 0.894807 0.492121 0.658204
O O11 0.986584 0.480361 0.739955
O O12 0.889272 0.750000 0.750000
O O13 0.837828 0.698260 0.558159
O O14 0.250000 0.250000 0.943849
#
# Coordination Sequence:
#
# PCOD9389500 Si02
#       6
#     8   8   8   8   8   8
#     4  10  19  30  48  74 112 150 179 211 262 338
#     4   8  15  30  54  77 107 129 171 226 274 320
#     4  10  21  33  49  74 114 150 181 217 267 330
#     4  12  21  34  50  78 113 145 186 224 263 332
#     4  10  16  30  50  76 109 149 178 207 274 332
#     4   9  19  33  52  77 103 136 183 236 283 300
#
# _framework density 16.780833999999999
#
# number of rings (size 3 to 8) (size 9 to 14) (size 15 to 20)
#    1.000    1.000    3.333    4.000    0.000    0.333 
#    0.000    0.000    0.000    0.000    0.000    8.167 
#    0.000   10.667    0.000    0.000    0.000    0.000 
#
# Total GULP energy -267285.163043 kJ/mol
# GULP energy per Si atom -5568.440897 kJ/mol
# Density = 1.674264 g / cm^3
# Si number density = 16.780834 Si / 1000 Ang^3
#
#
#
# Elastic Constant Matrix: (Units=GPa)
#
#
# Indices 1 2 3 4 5 6 
#
# 1 82.6716 17.0826 33.0496 0.0000 0.0000 0.0000
# 2 17.0826 37.7372 36.0337 0.0000 0.0000 0.0000
# 3 33.0496 36.0337 70.2101 0.0000 0.0000 0.0000
# 4 0.0000 0.0000 0.0000 21.2400 0.0000 0.0000
# 5 0.0000 0.0000 0.0000 0.0000 24.6585 0.0000
# 6 0.0000 0.0000 0.0000 0.0000 0.0000 12.9685
#
#
#
# Elastic Compliance Matrix: (Units=1/GPa)
#
#
# Indices 1 2 3 4 5 6 
#
# 1 0.014900 -0.000093 -0.006966 0.000000 0.000000 0.000000
# 2 -0.000093 0.051966 -0.026626 0.000000 0.000000 0.000000
# 3 -0.006966 -0.026626 0.031187 0.000000 0.000000 0.000000
# 4 0.000000 0.000000 0.000000 0.047081 0.000000 0.000000
# 5 0.000000 0.000000 0.000000 0.000000 0.040554 0.000000
# 6 0.000000 0.000000 0.000000 0.000000 0.000000 0.077110
#
#
# Mechanical properties :
#
#
# Convention : Reuss Voigt Hill
#
# Bulk Modulus (GPa) = 32.59242 40.32785 36.46014
# Shear Modulus (GPa) = 14.68878 18.73693 16.71285
#
# Velocity S-wave (km/s) = 2.96181 3.34513 3.15929
# Velocity P-wave (km/s) = 5.58220 6.24533 5.92305
#
# Compressibility (1/GPa) = 0.03068198
#
# Stress axis : x y z
#
# Youngs Moduli (GPa) = 67.11358 19.24351 32.06442
#
# Poissons Ratio (x) = 0.00180 0.22336
# Poissons Ratio (y) = 0.00627 0.85375
# Poissons Ratio (z) = 0.46751 0.51238
#
# Static dielectric constant tensor:
#      x y z
#    x 1.536220 0.000000 0.000000 
#    y 0.000000 1.592690 0.000000 
#    z 0.000000 0.000000 1.625970 
# 
# From -- ./inp_files/23286.got.cif
#   From: 2010.05.17/outbox.cif.g08.bks.cpg/sg48_12_cif.got.tgz:23286.got - 2010.06.03 20:39:00.
