data_PCOD9389010
_publ_section_title
;
Structure prediction by ZEFSAII (Michael W. Deem and Ramdas Pophale) SiO2 
 PCOD9389010
Probable space group: P M M M
;
_chemical_formula_sum "Si O2"
_cell_formula_units_Z 64
_cell_length_a 7.408465
_cell_length_b 19.909967
_cell_length_c 24.569480
_cell_angle_alpha 90.000000
_cell_angle_beta 90.000000
_cell_angle_gamma 90.000000
_cell_volume 3624.054654
_symmetry_space_group_name_H-M "P M M M"
_symmetry_group_IT_number 47
_symmetry_cell_setting 'orthorhombic'
loop_
_space_group_symop_operation_xyz
x,y,z
-x,-y,z
x,-y,-z
-x,y,-z
-x,-y,-z
x,y,-z
-x,y,z
x,-y,z
loop_
_atom_site_type_symbol
_atom_site_label
_atom_site_fract_x
_atom_site_fract_y
_atom_site_fract_z
Si Si1 0.781393 0.704499 0.333871
Si Si2 0.783561 0.424432 0.272557
Si Si3 0.281633 0.925381 0.267475
Si Si4 0.284256 0.659701 0.164107
Si Si5 0.720161 0.422935 0.061778
Si Si6 0.711211 0.787724 0.225308
Si Si7 0.779164 0.783952 0.560758
Si Si8 0.787084 0.925950 0.395978
O O1 0.719008 0.630170 0.316700
O O2 0.724800 0.753513 0.284815
O O3 0.720452 0.734149 0.391285
O O4 0.000000 0.704247 0.333985
O O5 0.712995 0.500000 0.277386
O O6 0.745687 0.392320 0.213538
O O7 0.000000 0.427566 0.277775
O O8 0.500000 0.924515 0.265602
O O9 0.213478 0.862582 0.232339
O O10 0.231805 0.916295 0.330936
O O11 0.221087 0.000000 0.250915
O O12 0.500000 0.666912 0.158565
O O13 0.215740 0.627695 0.108231
O O14 0.211949 0.732053 0.183967
O O15 0.500000 0.422353 0.062507
O O16 0.773967 0.500000 0.073709
O O17 0.775358 0.406650 0.000000
O O18 0.500000 0.795018 0.211833
O O19 0.724716 0.764705 0.500000
O O20 0.716564 0.859643 0.574631
O O21 0.000000 0.784795 0.562182
O O22 0.000000 0.928501 0.408388
O O23 0.711622 0.000000 0.409358
#
# Coordination Sequence:
#
# PCOD9389010 Si02
#       8
#     8   8   8   8   8   8   8   8
#     4   9  16  27  41  54  71  95 120 146 182 225
#     4   9  17  27  39  56  77  99 121 148 184 224
#     4   9  16  25  37  52  73 100 122 142 176 220
#     4   9  16  25  39  59  79  98 124 157 185 210
#     4   8  13  21  34  53  77 103 127 150 178 212
#     4   9  16  25  38  56  76  95 119 153 185 213
#     4   9  16  25  38  55  72  91 118 151 182 214
#     4   9  16  25  38  55  72  91 118 149 177 211
#
# _framework density 17.659776999999998
#
# number of rings (size 3 to 8) (size 9 to 14) (size 15 to 20)
#    0.000    3.125    1.250    0.750    0.000    1.000 
#    0.000    1.250    0.000    2.250    0.000    6.125 
#    0.000    0.500    0.000   13.250    0.000    6.500 
#
# Total GULP energy -356702.012952 kJ/mol
# GULP energy per Si atom -5573.468952 kJ/mol
# Density = 1.761958 g / cm^3
# Si number density = 17.659777 Si / 1000 Ang^3
#
#
#
# Elastic Constant Matrix: (Units=GPa)
#
#
# Indices 1 2 3 4 5 6 
#
# 1 58.6293 -3.2919 -3.7701 0.0000 0.0000 0.0000
# 2 -3.2919 126.8286 66.3455 0.0000 0.0000 0.0000
# 3 -3.7701 66.3455 110.2240 0.0000 0.0000 0.0000
# 4 0.0000 0.0000 0.0000 27.5307 0.0000 0.0000
# 5 0.0000 0.0000 0.0000 0.0000 7.7545 0.0000
# 6 0.0000 0.0000 0.0000 0.0000 0.0000 2.9736
#
#
#
# Elastic Compliance Matrix: (Units=1/GPa)
#
#
# Indices 1 2 3 4 5 6 
#
# 1 0.017097 0.000201 0.000464 0.000000 0.000000 0.000000
# 2 0.000201 0.011511 -0.006922 0.000000 0.000000 0.000000
# 3 0.000464 -0.006922 0.013254 0.000000 0.000000 0.000000
# 4 0.000000 0.000000 0.000000 0.036323 0.000000 0.000000
# 5 0.000000 0.000000 0.000000 0.000000 0.128957 0.000000
# 6 0.000000 0.000000 0.000000 0.000000 0.000000 0.336293
#
#
# Mechanical properties :
#
#
# Convention : Reuss Voigt Hill
#
# Bulk Modulus (GPa) = 34.07243 46.02765 40.05004
# Shear Modulus (GPa) = 8.83812 23.41165 16.12489
#
# Velocity S-wave (km/s) = 2.23954 3.64497 3.02501
# Velocity P-wave (km/s) = 5.10128 6.62077 5.91006
#
# Compressibility (1/GPa) = 0.02934924
#
# Stress axis : x y z
#
# Youngs Moduli (GPa) = 58.48836 86.87634 75.44625
#
# Poissons Ratio (x) = -0.01748 -0.03498
# Poissons Ratio (y) = -0.01177 0.52220
# Poissons Ratio (z) = -0.02712 0.60132
#
# Static dielectric constant tensor:
#      x y z
#    x 1.687610 0.000000 0.000000 
#    y 0.000000 1.636030 0.000000 
#    z 0.000000 0.000000 1.572640 
# 
# From -- ./inp_files/11834.got.cif
#   From: 2010.05.17/outbox.cif.g08.bks.cpg/sg47_6_cif.got.tgz:11834.got - 2010.06.03 20:15:42.
