data_PCOD9389265
_publ_section_title
;
Structure prediction by ZEFSAII (Michael W. Deem and Ramdas Pophale) SiO2 
 PCOD9389265
Probable space group: P M M M
;
_chemical_formula_sum "Si O2"
_cell_formula_units_Z 64
_cell_length_a 21.000000
_cell_length_b 18.000000
_cell_length_c 9.000000
_cell_angle_alpha 90.000000
_cell_angle_beta 90.000000
_cell_angle_gamma 90.000000
_cell_volume 3402.000000
_symmetry_space_group_name_H-M "P M M M"
_symmetry_group_IT_number 47
_symmetry_cell_setting 'orthorhombic'
loop_
_space_group_symop_operation_xyz
x,y,z
-x,-y,z
x,-y,-z
-x,y,-z
-x,-y,-z
x,y,-z
-x,y,z
x,-y,z
loop_
_atom_site_type_symbol
_atom_site_label
_atom_site_fract_x
_atom_site_fract_y
_atom_site_fract_z
Si Si1 0.191001 0.849270 0.823925
Si Si2 0.675314 0.082810 0.181018
Si Si3 0.296240 0.419850 0.319134
Si Si4 0.929253 0.911006 0.331227
Si Si5 0.072170 0.415046 0.319148
Si Si6 0.187266 0.310634 0.320272
Si Si7 0.572266 0.202874 0.823017
Si Si8 0.569758 0.635927 0.320615
O O1 0.253372 0.894735 0.774617
O O2 0.126019 0.888569 0.778328
O O3 0.189845 0.770311 0.745631
O O4 0.195112 0.840408 0.000000
O O5 0.624462 0.144114 0.228990
O O6 0.659729 0.000000 0.232561
O O7 0.673545 0.082159 0.000000
O O8 0.296122 0.418657 0.500000
O O9 0.271187 0.500000 0.272730
O O10 0.249901 0.355032 0.270564
O O11 0.368742 0.409080 0.270280
O O12 0.915655 0.884421 0.500000
O O13 0.000000 0.883924 0.289792
O O14 0.931629 0.000000 0.336526
O O15 0.072770 0.414979 0.500000
O O16 0.086561 0.500000 0.273843
O O17 0.125218 0.356835 0.271187
O O18 0.000000 0.396804 0.272603
O O19 0.186678 0.307498 0.500000
O O20 0.500000 0.174625 0.802612
O O21 0.577556 0.280414 0.737798
O O22 0.580934 0.216132 0.000000
O O23 0.570069 0.636088 0.500000
O O24 0.500000 0.608444 0.272167
#
# Coordination Sequence:
#
# PCOD9389265 Si02
#       8
#     8   8   8   8   8   8   8   8
#     4  11  22  34  50  73 103 137 168 200 242 295
#     4   9  18  32  49  70  96 125 160 203 246 286
#     4   9  17  29  47  71  95 121 161 211 253 290
#     4   9  19  37  59  80 102 129 163 205 249 290
#     4   8  14  26  46  71  94 116 148 191 236 280
#     4  10  19  31  49  71  95 125 161 202 245 286
#     4   9  17  30  50  73  95 123 160 201 244 291
#     4   9  17  29  46  68  95 126 156 191 241 298
#
# _framework density 18.812463000000001
#
# number of rings (size 3 to 8) (size 9 to 14) (size 15 to 20)
#    0.000    2.750    0.000    2.625    0.000    3.500 
#    0.000    5.000    0.000    4.500    0.000    4.375 
#    0.000    0.000    0.000    0.000    0.000    0.000 
#
# Total GULP energy -356674.943442 kJ/mol
# GULP energy per Si atom -5573.045991 kJ/mol
# Density = 1.876965 g / cm^3
# Si number density = 18.812463 Si / 1000 Ang^3
#
#
#
# Elastic Constant Matrix: (Units=GPa)
#
#
# Indices 1 2 3 4 5 6 
#
# 1 65.7301 17.4995 10.4909 0.0000 0.0000 0.0000
# 2 17.4995 43.2527 2.2069 0.0000 0.0000 0.0000
# 3 10.4909 2.2069 -0.6015 0.0000 0.0000 0.0000
# 4 0.0000 0.0000 0.0000 -43.5788 0.0000 0.0000
# 5 0.0000 0.0000 0.0000 0.0000 14.2825 0.0000
# 6 0.0000 0.0000 0.0000 0.0000 0.0000 32.4573
#
#
#
# Elastic Compliance Matrix: (Units=1/GPa)
#
#
# Indices 1 2 3 4 5 6 
#
# 1 0.005329 -0.005811 0.071624 0.000000 0.000000 0.000000
# 2 -0.005811 0.025810 -0.006647 0.000000 0.000000 0.000000
# 3 0.071624 -0.006647 -0.437670 0.000000 0.000000 0.000000
# 4 0.000000 0.000000 0.000000 -0.022947 0.000000 0.000000
# 5 0.000000 0.000000 0.000000 0.000000 0.070016 0.000000
# 6 0.000000 0.000000 0.000000 0.000000 0.000000 0.030810
#
#
# Mechanical properties :
#
#
# Convention : Reuss Voigt Hill
#
# Bulk Modulus (GPa) = -3.46984 18.75287 7.64151
# Shear Modulus (GPa) = -9.20724 5.84448 -1.68138
#
# Velocity S-wave (km/s) = -2.21469 1.76450 -0.94641
# Velocity P-wave (km/s) = 2.89625 3.76048 1.69602
#
# Compressibility (1/GPa) = -0.28819768
#
# Stress axis : x y z
#
# Youngs Moduli (GPa) = 187.65144 38.74474 -2.28483
#
# Poissons Ratio (x) = 0.22513 0.16365
# Poissons Ratio (y) = 1.09035 -0.01519
# Poissons Ratio (z) = -13.44041 0.25755
#
# Static dielectric constant tensor:
#      x y z
#    x 1.674440 0.000000 0.000000 
#    y 0.000000 1.631550 0.000000 
#    z 0.000000 0.000000 1.639080 
# 
# From -- ./inp_files/9907.got.cif
#   From: 2010.05.17/outbox.ucp.g08.bks.cvg/sg47_5_cif.got.tgz:9907.got - 2010.06.11 16:36:43.
