data_PCOD9389786
_publ_section_title
;
Structure prediction by ZEFSAII (Michael W. Deem and Ramdas Pophale) SiO2 
 PCOD9389786
Probable space group: P N N N
;
_chemical_formula_sum "Si O2"
_cell_formula_units_Z 38
_cell_length_a 11.658122
_cell_length_b 18.131898
_cell_length_c 7.868378
_cell_angle_alpha 90.000000
_cell_angle_beta 90.000000
_cell_angle_gamma 90.000000
_cell_volume 1663.248263
_symmetry_space_group_name_H-M "P N N N"
_symmetry_group_IT_number 48
_space_group.IT_coordinate_system_code '2'
_symmetry_cell_setting 'orthorhombic'
loop_
_space_group_symop_operation_xyz
x,y,z
1/2-x,1/2-y,z
x,1/2-y,1/2-z
1/2-x,y,1/2-z
-x,-y,-z
1/2+x,1/2+y,-z
-x,1/2+y,1/2+z
1/2+x,-y,1/2+z
loop_
_atom_site_type_symbol
_atom_site_label
_atom_site_fract_x
_atom_site_fract_y
_atom_site_fract_z
Si Si1 0.060142 0.710814 0.008884
Si Si2 0.612948 0.974938 0.754246
Si Si3 0.250000 0.974380 0.750000
Si Si4 0.750000 0.250000 0.750000
Si Si5 0.934407 0.368668 0.362552
Si Si6 0.946986 0.582871 0.126404
O O1 0.171232 0.702317 0.125391
O O2 0.955853 0.670624 0.106753
O O3 0.075588 0.670238 0.826233
O O4 0.050025 0.798011 0.980603
O O5 0.750000 0.971996 0.750000
O O6 0.545340 0.922420 0.622814
O O7 0.559008 0.055974 0.769586
O O8 0.563986 0.941332 0.929795
O O9 0.320538 0.919683 0.624247
O O10 0.346822 0.031898 0.803857
#
# Coordination Sequence:
#
# PCOD9389786 Si02
#       6
#     8   8   4   2   8   8
#     4  10  21  39  59  91 122 164 208 270 318 377
#     4   9  18  36  62  90 115 163 209 263 305 375
#     4  10  18  37  64  91 122 172 202 264 328 378
#     4  12  24  34  60  86 132 166 196 262 342 394
#     4   9  19  39  66  86 119 165 224 259 304 388
#     4   9  20  37  58  90 129 155 206 269 323 375
#
# _framework density 22.846861000000001
#
# number of rings (size 3 to 8) (size 9 to 14) (size 15 to 20)
#    0.000    2.526    0.000    2.526    1.474    1.684 
#    3.789   10.526    0.000    0.000    0.000    0.000 
#    0.000    0.000    0.000    0.000    0.000    0.000 
#
# Total GULP energy -211551.468319 kJ/mol
# GULP energy per Si atom -5567.143903 kJ/mol
# Density = 2.279486 g / cm^3
# Si number density = 22.846861 Si / 1000 Ang^3
#
#
#
# Elastic Constant Matrix: (Units=GPa)
#
#
# Indices 1 2 3 4 5 6 
#
# 1 139.5945 93.3054 15.0086 0.0000 0.0000 0.0000
# 2 93.3054 185.0516 42.5506 0.0000 0.0000 0.0000
# 3 15.0086 42.5506 52.5376 0.0000 0.0000 0.0000
# 4 0.0000 0.0000 0.0000 8.8613 0.0000 0.0000
# 5 0.0000 0.0000 0.0000 0.0000 -1.6636 0.0000
# 6 0.0000 0.0000 0.0000 0.0000 0.0000 37.2847
#
#
#
# Elastic Compliance Matrix: (Units=1/GPa)
#
#
# Indices 1 2 3 4 5 6 
#
# 1 0.010920 -0.005884 0.001646 0.000000 0.000000 0.000000
# 2 -0.005884 0.009812 -0.006265 0.000000 0.000000 0.000000
# 3 0.001646 -0.006265 0.023638 0.000000 0.000000 0.000000
# 4 0.000000 0.000000 0.000000 0.112850 0.000000 0.000000
# 5 0.000000 0.000000 0.000000 0.000000 -0.601109 0.000000
# 6 0.000000 0.000000 0.000000 0.000000 0.000000 0.026821
#
#
# Mechanical properties :
#
#
# Convention : Reuss Voigt Hill
#
# Bulk Modulus (GPa) = 42.80380 75.43478 59.11929
# Shear Modulus (GPa) = -12.87750 23.98441 5.55346
#
# Velocity S-wave (km/s) = -2.37669 3.24356 1.56077
# Velocity P-wave (km/s) = 3.35324 6.86417 5.40190
#
# Compressibility (1/GPa) = 0.02336241
#
# Stress axis : x y z
#
# Youngs Moduli (GPa) = 91.57693 101.92028 42.30455
#
# Poissons Ratio (x) = 0.59975 -0.06965
# Poissons Ratio (y) = 0.53888 0.26506
# Poissons Ratio (z) = -0.15077 0.63858
#
# Static dielectric constant tensor:
#      x y z
#    x 1.729620 0.000000 0.000000 
#    y 0.000000 1.909920 0.000000 
#    z 0.000000 0.000000 1.789480 
# 
# From -- ./inp_files/10744.got.cif
#   From: 2010.05.17/outbox.cif.g08.bks.cpg/sg48_6_cif.got.tgz:10744.got - 2010.06.03 20:39:00.
