data_PCOD9389956
_publ_section_title
;
Structure prediction by ZEFSAII (Michael W. Deem and Ramdas Pophale) SiO2 
 PCOD9389956
Probable space group: P N N N
;
_chemical_formula_sum "Si O2"
_cell_formula_units_Z 48
_cell_length_a 19.030160
_cell_length_b 8.430645
_cell_length_c 14.729679
_cell_angle_alpha 90.000000
_cell_angle_beta 90.000000
_cell_angle_gamma 90.000000
_cell_volume 2363.178487
_symmetry_space_group_name_H-M "P N N N"
_symmetry_group_IT_number 48
_space_group.IT_coordinate_system_code '2'
_symmetry_cell_setting 'orthorhombic'
loop_
_space_group_symop_operation_xyz
x,y,z
1/2-x,1/2-y,z
x,1/2-y,1/2-z
1/2-x,y,1/2-z
-x,-y,-z
1/2+x,1/2+y,-z
-x,1/2+y,1/2+z
1/2+x,-y,1/2+z
loop_
_atom_site_type_symbol
_atom_site_label
_atom_site_fract_x
_atom_site_fract_y
_atom_site_fract_z
Si Si1 0.454819 0.250000 0.750000
Si Si2 0.630986 0.250000 0.250000
Si Si3 0.750000 0.992550 0.250000
Si Si4 0.650905 0.671803 0.393530
Si Si5 0.440267 0.579581 0.377574
Si Si6 0.775986 0.079585 0.647375
Si Si7 0.250000 0.250000 0.452896
Si Si8 0.054829 0.639144 0.926451
O O1 0.399987 0.218994 0.667929
O O2 0.508657 0.372665 0.705000
O O3 0.684111 0.394185 0.228028
O O4 0.583844 0.233861 0.159716
O O5 0.784241 0.893548 0.332163
O O6 0.682198 0.750522 0.481953
O O7 0.605294 0.517426 0.421474
O O8 0.360106 0.575944 0.350971
O O9 0.443416 0.691209 0.468205
O O10 0.475124 0.414918 0.408880
O O11 0.750000 0.250000 0.606575
O O12 0.750000 0.076619 0.750000
O O13 0.751614 0.916785 0.599971
#
# Coordination Sequence:
#
# PCOD9389956 Si02
#       8
#     4   4   4   8   8   8   4   8
#     4  10  20  35  65  88 128 180 234 270 348 422
#     4   9  18  34  60  96 129 178 228 278 349 424
#     4   9  18  33  56  90 141 171 210 285 349 412
#     4  10  19  34  57  95 127 172 219 277 345 406
#     4  10  20  41  63  88 126 182 221 280 344 407
#     4  11  25  46  70  99 136 181 231 290 350 409
#     4  12  23  41  68 104 134 178 230 290 346 426
#     4   9  19  37  61  88 127 174 223 276 347 401
#
# _framework density 20.311624999999999
#
# number of rings (size 3 to 8) (size 9 to 14) (size 15 to 20)
#    0.000    2.000    1.667    2.250    0.000    1.333 
#    3.000    0.000    0.000   14.000    0.000    0.000 
#    0.000    0.000    0.000    0.000    0.000    0.000 
#
# Total GULP energy -267271.338901 kJ/mol
# GULP energy per Si atom -5568.152894 kJ/mol
# Density = 2.026540 g / cm^3
# Si number density = 20.311625 Si / 1000 Ang^3
#
#
#
# Elastic Constant Matrix: (Units=GPa)
#
#
# Indices 1 2 3 4 5 6 
#
# 1 123.1390 47.3497 43.1433 0.0000 0.0000 0.0000
# 2 47.3497 96.4271 45.6238 0.0000 0.0000 0.0000
# 3 43.1433 45.6238 101.8450 0.0000 0.0000 0.0000
# 4 0.0000 0.0000 0.0000 25.4073 0.0000 0.0000
# 5 0.0000 0.0000 0.0000 0.0000 44.9404 0.0000
# 6 0.0000 0.0000 0.0000 0.0000 0.0000 19.8625
#
#
#
# Elastic Compliance Matrix: (Units=1/GPa)
#
#
# Indices 1 2 3 4 5 6 
#
# 1 0.010579 -0.003901 -0.002734 0.000000 0.000000 0.000000
# 2 -0.003901 0.014598 -0.004887 0.000000 0.000000 0.000000
# 3 -0.002734 -0.004887 0.013166 0.000000 0.000000 0.000000
# 4 0.000000 0.000000 0.000000 0.039359 0.000000 0.000000
# 5 0.000000 0.000000 0.000000 0.000000 0.022252 0.000000
# 6 0.000000 0.000000 0.000000 0.000000 0.000000 0.050346
#
#
# Mechanical properties :
#
#
# Convention : Reuss Voigt Hill
#
# Bulk Modulus (GPa) = 65.36202 65.96051 65.66126
# Shear Modulus (GPa) = 28.02001 30.39500 29.20750
#
# Velocity S-wave (km/s) = 3.71820 3.87257 3.79617
# Velocity P-wave (km/s) = 7.11919 7.24848 7.18413
#
# Compressibility (1/GPa) = 0.01529941
#
# Stress axis : x y z
#
# Youngs Moduli (GPa) = 94.52872 68.50038 75.95205
#
# Poissons Ratio (x) = 0.26723 0.20763
# Poissons Ratio (y) = 0.36877 0.37119
# Poissons Ratio (z) = 0.25842 0.33477
#
# Static dielectric constant tensor:
#      x y z
#    x 1.729590 0.000000 0.000000 
#    y 0.000000 1.819930 0.000000 
#    z 0.000000 0.000000 2.046850 
# 
# From -- ./inp_files/27934.got.cif
#   From: 2010.05.17/outbox.cif.g08.bks.cpg/sg48_14_cif.got.tgz:27934.got - 2010.06.03 20:39:00.
