data_PCOD9389656
_publ_section_title
;
Structure prediction by ZEFSAII (Michael W. Deem and Ramdas Pophale) SiO2 
 PCOD9389656
Probable space group: P N N N
;
_chemical_formula_sum "Si O2"
_cell_formula_units_Z 38
_cell_length_a 18.061904
_cell_length_b 12.786049
_cell_length_c 7.678899
_cell_angle_alpha 90.000000
_cell_angle_beta 90.000000
_cell_angle_gamma 90.000000
_cell_volume 1773.367927
_symmetry_space_group_name_H-M "P N N N"
_symmetry_group_IT_number 48
_space_group.IT_coordinate_system_code '2'
_symmetry_cell_setting 'orthorhombic'
loop_
_space_group_symop_operation_xyz
x,y,z
1/2-x,1/2-y,z
x,1/2-y,1/2-z
1/2-x,y,1/2-z
-x,-y,-z
1/2+x,1/2+y,-z
-x,1/2+y,1/2+z
1/2+x,-y,1/2+z
loop_
_atom_site_type_symbol
_atom_site_label
_atom_site_fract_x
_atom_site_fract_y
_atom_site_fract_z
Si Si1 0.610409 0.250000 0.250000
Si Si2 0.750000 0.750000 0.750000
Si Si3 0.040513 0.506379 0.247373
Si Si4 0.018642 0.325108 0.498846
Si Si5 0.382438 0.545372 0.588460
Si Si6 0.844807 0.683037 0.078669
O O1 0.554548 0.213749 0.402000
O O2 0.651578 0.350891 0.327894
O O3 0.800505 0.809239 0.604735
O O4 0.060149 0.415555 0.385556
O O5 0.010374 0.611034 0.336495
O O6 0.967844 0.458482 0.154406
O O7 0.106130 0.537031 0.118559
O O8 0.074259 0.230362 0.531892
O O9 0.346002 0.436414 0.640261
O O10 0.823549 0.750000 0.250000
#
# Coordination Sequence:
#
# PCOD9389656 Si02
#       6
#     4   2   8   8   8   8
#     4  10  21  30  50  87 129 160 185 220 268 372
#     4  12  28  44  60  86 110 140 220 272 312 342
#     4   9  17  29  52  82 123 162 184 223 271 364
#     4  10  18  31  52  86 125 160 190 220 289 357
#     4  10  19  33  51  82 121 153 191 225 286 349
#     4  12  23  40  62  85 117 161 196 255 304 347
#
# _framework density 21.428155
#
# number of rings (size 3 to 8) (size 9 to 14) (size 15 to 20)
#    0.000    1.684    2.105    6.000    0.000    0.000 
#    0.000    0.000    0.000    0.000    0.000    4.421 
#    0.000    0.000    0.000    0.000    0.000    0.000 
#
# Total GULP energy -211864.358866 kJ/mol
# GULP energy per Si atom -5575.377865 kJ/mol
# Density = 2.137938 g / cm^3
# Si number density = 21.428155 Si / 1000 Ang^3
#
#
#
# Elastic Constant Matrix: (Units=GPa)
#
#
# Indices 1 2 3 4 5 6 
#
# 1 17.1459 26.1041 17.8390 0.0000 0.0000 0.0000
# 2 26.1041 183.5629 51.3242 0.0000 0.0000 0.0000
# 3 17.8390 51.3242 101.4022 0.0000 0.0000 0.0000
# 4 0.0000 0.0000 0.0000 31.9018 0.0000 0.0000
# 5 0.0000 0.0000 0.0000 0.0000 28.1546 0.0000
# 6 0.0000 0.0000 0.0000 0.0000 0.0000 -107.1001
#
#
#
# Elastic Compliance Matrix: (Units=1/GPa)
#
#
# Indices 1 2 3 4 5 6 
#
# 1 0.082254 -0.008913 -0.009959 0.000000 0.000000 0.000000
# 2 -0.008913 0.007311 -0.002133 0.000000 0.000000 0.000000
# 3 -0.009959 -0.002133 0.012693 0.000000 0.000000 0.000000
# 4 0.000000 0.000000 0.000000 0.031346 0.000000 0.000000
# 5 0.000000 0.000000 0.000000 0.000000 0.035518 0.000000
# 6 0.000000 0.000000 0.000000 0.000000 0.000000 -0.009337
#
#
# Mechanical properties :
#
#
# Convention : Reuss Voigt Hill
#
# Bulk Modulus (GPa) = 16.59761 54.73840 35.66801
# Shear Modulus (GPa) = 22.53480 4.38082 13.45781
#
# Velocity S-wave (km/s) = 3.24643 1.43138 2.50880
# Velocity P-wave (km/s) = 4.67064 5.32281 5.00736
#
# Compressibility (1/GPa) = 0.06024962
#
# Stress axis : x y z
#
# Youngs Moduli (GPa) = 12.15742 136.77134 78.78175
#
# Poissons Ratio (x) = 1.21898 0.78462
# Poissons Ratio (y) = 0.10835 0.16802
# Poissons Ratio (z) = 0.12108 0.29170
#
# Static dielectric constant tensor:
#      x y z
#    x 1.783540 0.000000 0.000000 
#    y 0.000000 1.837020 0.000000 
#    z 0.000000 0.000000 1.872300 
# 
# From -- ./inp_files/15815.got.cif
#   From: 2010.05.17/outbox.cif.g08.bks.cpg/sg48_8_cif.got.tgz:15815.got - 2010.06.03 20:39:00.
