data_PCOD9389251
_publ_section_title
;
Structure prediction by ZEFSAII (Michael W. Deem and Ramdas Pophale) SiO2 
 PCOD9389251
Probable space group: P M M M
;
_chemical_formula_sum "Si O2"
_cell_formula_units_Z 44
_cell_length_a 21.000000
_cell_length_b 9.000000
_cell_length_c 15.000000
_cell_angle_alpha 90.000000
_cell_angle_beta 90.000000
_cell_angle_gamma 90.000000
_cell_volume 2835.000000
_symmetry_space_group_name_H-M "P M M M"
_symmetry_group_IT_number 47
_symmetry_cell_setting 'orthorhombic'
loop_
_space_group_symop_operation_xyz
x,y,z
-x,-y,z
x,-y,-z
-x,y,-z
-x,-y,-z
x,y,-z
-x,y,z
x,-y,z
loop_
_atom_site_type_symbol
_atom_site_label
_atom_site_fract_x
_atom_site_fract_y
_atom_site_fract_z
Si Si1 0.929796 0.171577 0.608005
Si Si2 0.199444 0.323438 0.603711
Si Si3 0.308826 0.179295 0.280554
Si Si4 0.428960 0.180636 0.603023
Si Si5 0.500000 0.668797 0.891790
Si Si6 0.367824 0.821150 0.101992
O O1 0.931772 0.172976 0.500000
O O2 0.870945 0.273344 0.632886
O O3 0.000000 0.218333 0.639420
O O4 0.919034 0.000000 0.634572
O O5 0.209061 0.275008 0.500000
O O6 0.205172 0.500000 0.606058
O O7 0.250223 0.248762 0.667870
O O8 0.372816 0.228314 0.332408
O O9 0.316695 0.220744 0.176894
O O10 0.304903 0.000000 0.285991
O O11 0.417257 0.224290 0.500000
O O12 0.500000 0.230718 0.628892
O O13 0.429629 0.000000 0.604483
O O14 0.500000 0.500000 0.858607
O O15 0.564302 0.754861 0.868502
O O16 0.500000 0.664126 0.000000
O O17 0.373479 0.000000 0.102202
O O18 0.354226 0.774202 0.000000
#
# Coordination Sequence:
#
# PCOD9389251 Si02
#       6
#     8   8   8   8   4   8
#     4   8  14  26  45  67  90 118 152 185 213 247
#     4  10  20  31  43  63  94 126 152 182 219 259
#     4  10  19  29  46  64  82 114 152 187 224 270
#     4   8  14  24  38  57  78 100 136 185 222 250
#     4   9  17  29  45  63  82 107 138 173 221 280
#     4   9  18  31  46  65  87 109 139 186 237 277
#
# _framework density 15.520282
#
# number of rings (size 3 to 8) (size 9 to 14) (size 15 to 20)
#    0.000    3.000    0.000    2.455    1.273    4.000 
#    0.000    1.818    0.000    0.000    0.000    2.545 
#    0.000    0.727    0.000    8.364    0.000    2.727 
#
# Total GULP energy -245019.411831 kJ/mol
# GULP energy per Si atom -5568.622996 kJ/mol
# Density = 1.548496 g / cm^3
# Si number density = 15.520282 Si / 1000 Ang^3
#
#
#
# Elastic Constant Matrix: (Units=GPa)
#
#
# Indices 1 2 3 4 5 6 
#
# 1 101.6974 31.3009 65.0073 0.0000 0.0000 0.0000
# 2 31.3009 13.4761 28.4407 0.0000 0.0000 0.0000
# 3 65.0073 28.4407 73.6359 0.0000 0.0000 0.0000
# 4 0.0000 0.0000 0.0000 10.6919 0.0000 0.0000
# 5 0.0000 0.0000 0.0000 0.0000 3.6155 0.0000
# 6 0.0000 0.0000 0.0000 0.0000 0.0000 -35.0426
#
#
#
# Elastic Compliance Matrix: (Units=1/GPa)
#
#
# Indices 1 2 3 4 5 6 
#
# 1 0.034586 -0.085972 0.002673 0.000000 0.000000 0.000000
# 2 -0.085972 0.615107 -0.161677 0.000000 0.000000 0.000000
# 3 0.002673 -0.161677 0.073666 0.000000 0.000000 0.000000
# 4 0.000000 0.000000 0.000000 0.093529 0.000000 0.000000
# 5 0.000000 0.000000 0.000000 0.000000 0.276586 0.000000
# 6 0.000000 0.000000 0.000000 0.000000 0.000000 -0.028537
#
#
# Mechanical properties :
#
#
# Convention : Reuss Voigt Hill
#
# Bulk Modulus (GPa) = 4.28441 48.70079 26.49260
# Shear Modulus (GPa) = 3.06243 0.12367 1.59305
#
# Velocity S-wave (km/s) = 1.40622 0.28259 1.01423
# Velocity P-wave (km/s) = 2.32446 5.61724 4.29864
#
# Compressibility (1/GPa) = 0.23340434
#
# Stress axis : x y z
#
# Youngs Moduli (GPa) = 28.91368 1.62573 13.57473
#
# Poissons Ratio (x) = 0.13977 -0.03628
# Poissons Ratio (y) = 2.48578 2.19473
# Poissons Ratio (z) = -0.07727 0.26284
#
# Static dielectric constant tensor:
#      x y z
#    x 1.517670 0.000000 0.000000 
#    y 0.000000 1.517560 0.000000 
#    z 0.000000 0.000000 1.526800 
# 
# From -- ./inp_files/24895.got.cif
#   From: 2010.05.17/outbox.ucp.g08.bks.cvg/sg47_13_cif.got.tgz:24895.got - 2010.06.11 16:36:43.
