data_PCOD9389411
_publ_section_title
;
Structure prediction by ZEFSAII (Michael W. Deem and Ramdas Pophale) SiO2 
 PCOD9389411
Probable space group: P M M M
;
_chemical_formula_sum "Si O2"
_cell_formula_units_Z 64
_cell_length_a 9.000000
_cell_length_b 24.000000
_cell_length_c 15.000000
_cell_angle_alpha 90.000000
_cell_angle_beta 90.000000
_cell_angle_gamma 90.000000
_cell_volume 3240.000000
_symmetry_space_group_name_H-M "P M M M"
_symmetry_group_IT_number 47
_symmetry_cell_setting 'orthorhombic'
loop_
_space_group_symop_operation_xyz
x,y,z
-x,-y,z
x,-y,-z
-x,y,-z
-x,-y,-z
x,y,-z
-x,y,z
x,-y,z
loop_
_atom_site_type_symbol
_atom_site_label
_atom_site_fract_x
_atom_site_fract_y
_atom_site_fract_z
Si Si1 0.821187 0.730094 0.897176
Si Si2 0.324055 0.672957 0.603412
Si Si3 0.333377 0.566121 0.099281
Si Si4 0.832651 0.211942 0.607646
Si Si5 0.323994 0.902165 0.395847
Si Si6 0.323990 0.152982 0.895851
Si Si7 0.826121 0.368207 0.764170
Si Si8 0.171766 0.062296 0.225056
O O1 0.755565 0.789537 0.871194
O O2 0.775648 0.683677 0.826289
O O3 0.000000 0.732254 0.896619
O O4 0.774580 0.718765 0.000000
O O5 0.288648 0.660868 0.500000
O O6 0.500000 0.681255 0.609787
O O7 0.238760 0.729354 0.631115
O O8 0.265639 0.628518 0.673492
O O9 0.500000 0.587261 0.122277
O O10 0.343229 0.500000 0.094428
O O11 0.212320 0.581377 0.171439
O O12 0.294939 0.586860 0.000000
O O13 0.843167 0.212034 0.500000
O O14 0.725160 0.160811 0.628248
O O15 0.000000 0.205231 0.643726
O O16 0.287086 0.912304 0.500000
O O17 0.500000 0.909468 0.385581
O O18 0.233573 0.937768 0.325480
O O19 0.500000 0.159420 0.887171
O O20 0.266107 0.104188 0.833748
O O21 0.289243 0.141576 0.000000
O O22 0.000000 0.362761 0.744948
O O23 0.000000 0.079520 0.225846
O O24 0.182242 0.000000 0.188299
#
# Coordination Sequence:
#
# PCOD9389411 Si02
#       8
#     8   8   8   8   8   8   8   8
#     4   9  19  36  56  81 116 152 183 220 273 340
#     4  10  21  36  53  76 111 155 200 243 287 336
#     4   9  19  37  60  86 119 159 200 242 288 340
#     4   9  17  31  52  77 106 141 181 225 274 330
#     4  10  21  37  58  83 111 144 181 225 278 334
#     4  10  22  40  62  86 111 142 181 229 284 338
#     4  11  22  34  55  87 120 156 195 240 292 341
#     4  11  25  42  60  82 108 142 184 230 281 339
#
# _framework density 19.753086
#
# number of rings (size 3 to 8) (size 9 to 14) (size 15 to 20)
#    0.000    2.125    0.000    3.000    1.750    7.250 
#    0.000    4.375    0.000    0.375    0.000    2.625 
#    0.000    0.000    0.000    0.000    0.000    0.000 
#
# Total GULP energy -357159.688435 kJ/mol
# GULP energy per Si atom -5580.620132 kJ/mol
# Density = 1.970813 g / cm^3
# Si number density = 19.753086 Si / 1000 Ang^3
#
#
#
# Elastic Constant Matrix: (Units=GPa)
#
#
# Indices 1 2 3 4 5 6 
#
# 1 5.8723 4.6527 13.0369 0.0000 0.0000 0.0000
# 2 4.6527 38.8488 25.6974 0.0000 0.0000 0.0000
# 3 13.0369 25.6974 51.0785 0.0000 0.0000 0.0000
# 4 0.0000 0.0000 0.0000 20.3895 0.0000 0.0000
# 5 0.0000 0.0000 0.0000 0.0000 25.1247 0.0000
# 6 0.0000 0.0000 0.0000 0.0000 0.0000 31.6738
#
#
#
# Elastic Compliance Matrix: (Units=1/GPa)
#
#
# Indices 1 2 3 4 5 6 
#
# 1 0.415852 0.030580 -0.121524 0.000000 0.000000 0.000000
# 2 0.030580 0.040828 -0.028346 0.000000 0.000000 0.000000
# 3 -0.121524 -0.028346 0.064855 0.000000 0.000000 0.000000
# 4 0.000000 0.000000 0.000000 0.049045 0.000000 0.000000
# 5 0.000000 0.000000 0.000000 0.000000 0.039801 0.000000
# 6 0.000000 0.000000 0.000000 0.000000 0.000000 0.031572
#
#
# Mechanical properties :
#
#
# Convention : Reuss Voigt Hill
#
# Bulk Modulus (GPa) = 3.53411 20.28597 11.91004
# Shear Modulus (GPa) = 5.12899 18.93178 12.03039
#
# Velocity S-wave (km/s) = 1.61313 3.09920 2.47055
# Velocity P-wave (km/s) = 2.29404 4.80612 3.76573
#
# Compressibility (1/GPa) = 0.28295691
#
# Stress axis : x y z
#
# Youngs Moduli (GPa) = 2.40470 24.49285 15.41898
#
# Poissons Ratio (x) = -0.74900 1.87377
# Poissons Ratio (y) = -0.07354 0.43706
# Poissons Ratio (z) = 0.29223 0.69427
#
# Static dielectric constant tensor:
#      x y z
#    x 1.674170 0.000000 0.000000 
#    y 0.000000 1.734970 0.000000 
#    z 0.000000 0.000000 1.712430 
# 
# From -- ./inp_files/12657.got.cif
#   From: 2010.05.17/outbox.ucp.g08.bks.cvg/sg47_7_cif.got.tgz:12657.got - 2010.06.11 16:36:43.
