data_PCOD9389888
_publ_section_title
;
Structure prediction by ZEFSAII (Michael W. Deem and Ramdas Pophale) SiO2 
 PCOD9389888
Probable space group: P N N N
;
_chemical_formula_sum "Si O2"
_cell_formula_units_Z 38
_cell_length_a 13.489831
_cell_length_b 15.680374
_cell_length_c 8.815492
_cell_angle_alpha 90.000000
_cell_angle_beta 90.000000
_cell_angle_gamma 90.000000
_cell_volume 1864.702193
_symmetry_space_group_name_H-M "P N N N"
_symmetry_group_IT_number 48
_space_group.IT_coordinate_system_code '2'
_symmetry_cell_setting 'orthorhombic'
loop_
_space_group_symop_operation_xyz
x,y,z
1/2-x,1/2-y,z
x,1/2-y,1/2-z
1/2-x,y,1/2-z
-x,-y,-z
1/2+x,1/2+y,-z
-x,1/2+y,1/2+z
1/2+x,-y,1/2+z
loop_
_atom_site_type_symbol
_atom_site_label
_atom_site_fract_x
_atom_site_fract_y
_atom_site_fract_z
Si Si1 0.250000 0.108888 0.250000
Si Si2 0.076185 0.624754 0.821581
Si Si3 0.108947 0.302047 0.007985
Si Si4 0.750000 0.250000 0.250000
Si Si5 0.132842 0.056399 0.731113
Si Si6 0.425460 0.105748 0.448688
O O1 0.311884 0.163669 0.129435
O O2 0.337945 0.064000 0.345312
O O3 0.173722 0.683336 0.827616
O O4 0.095865 0.526131 0.861243
O O5 0.996623 0.668312 0.928756
O O6 0.022665 0.621091 0.654795
O O7 0.111374 0.200798 0.006189
O O8 0.123464 0.353934 0.854188
O O9 0.250000 0.042118 0.750000
O O10 0.073303 0.059021 0.890115
#
# Coordination Sequence:
#
# PCOD9389888 Si02
#       6
#     4   8   8   2   8   8
#     4  10  19  32  58  86 122 155 204 227 298 368
#     4  11  23  42  65  84 118 163 219 248 286 360
#     4  11  21  38  60  91 122 163 196 252 304 368
#     4  12  20  44  68  84 102 168 228 242 272 350
#     4  12  24  36  60  94 132 155 192 259 314 357
#     4  11  21  38  60  91 122 163 196 252 304 368
#
# _framework density 20.378587
#
# number of rings (size 3 to 8) (size 9 to 14) (size 15 to 20)
#    0.000    0.842    5.263    5.053    0.000    0.842 
#    0.000    0.000    0.000    2.526    0.000    0.000 
#    0.000    0.000    0.000    0.000    0.000    0.000 
#
# Total GULP energy -211967.639912 kJ/mol
# GULP energy per Si atom -5578.095787 kJ/mol
# Density = 2.033220 g / cm^3
# Si number density = 20.378587 Si / 1000 Ang^3
#
#
#
# Elastic Constant Matrix: (Units=GPa)
#
#
# Indices 1 2 3 4 5 6 
#
# 1 104.2762 -2.3421 2.7688 0.0000 0.0000 0.0000
# 2 -2.3421 54.7077 -3.7776 0.0000 0.0000 0.0000
# 3 2.7688 -3.7776 60.0009 0.0000 0.0000 0.0000
# 4 0.0000 0.0000 0.0000 21.5916 0.0000 0.0000
# 5 0.0000 0.0000 0.0000 0.0000 10.1918 0.0000
# 6 0.0000 0.0000 0.0000 0.0000 0.0000 -61.7136
#
#
#
# Elastic Compliance Matrix: (Units=1/GPa)
#
#
# Indices 1 2 3 4 5 6 
#
# 1 0.009610 0.000382 -0.000419 0.000000 0.000000 0.000000
# 2 0.000382 0.018374 0.001139 0.000000 0.000000 0.000000
# 3 -0.000419 0.001139 0.016757 0.000000 0.000000 0.000000
# 4 0.000000 0.000000 0.000000 0.046314 0.000000 0.000000
# 5 0.000000 0.000000 0.000000 0.000000 0.098118 0.000000
# 6 0.000000 0.000000 0.000000 0.000000 0.000000 -0.016204
#
#
# Mechanical properties :
#
#
# Convention : Reuss Voigt Hill
#
# Bulk Modulus (GPa) = 21.30126 23.58700 22.44413
# Shear Modulus (GPa) = 26.82206 8.83633 17.82919
#
# Velocity S-wave (km/s) = 3.63187 2.08459 2.96108
# Velocity P-wave (km/s) = 5.29743 4.17055 4.76740
#
# Compressibility (1/GPa) = 0.04694558
#
# Stress axis : x y z
#
# Youngs Moduli (GPa) = 104.06214 54.42476 59.67482
#
# Poissons Ratio (x) = -0.02081 0.02503
# Poissons Ratio (y) = -0.03980 -0.06798
# Poissons Ratio (z) = 0.04364 -0.06200
#
# Static dielectric constant tensor:
#      x y z
#    x 1.756180 0.000000 0.000000 
#    y 0.000000 1.725610 0.000000 
#    z 0.000000 0.000000 1.763850 
# 
# From -- ./inp_files/10749.got.cif
#   From: 2010.05.17/outbox.cif.g08.bks.cpg/sg48_6_cif.got.tgz:10749.got - 2010.06.03 20:39:00.
