data_PCOD9389541
_publ_section_title
;
Structure prediction by ZEFSAII (Michael W. Deem and Ramdas Pophale) SiO2 
 PCOD9389541
Probable space group: P N N N
;
_chemical_formula_sum "Si O2"
_cell_formula_units_Z 48
_cell_length_a 26.565454
_cell_length_b 5.316098
_cell_length_c 13.664777
_cell_angle_alpha 90.000000
_cell_angle_beta 90.000000
_cell_angle_gamma 90.000000
_cell_volume 1929.802077
_symmetry_space_group_name_H-M "P N N N"
_symmetry_group_IT_number 48
_space_group.IT_coordinate_system_code '2'
_symmetry_cell_setting 'orthorhombic'
loop_
_space_group_symop_operation_xyz
x,y,z
1/2-x,1/2-y,z
x,1/2-y,1/2-z
1/2-x,y,1/2-z
-x,-y,-z
1/2+x,1/2+y,-z
-x,1/2+y,1/2+z
1/2+x,-y,1/2+z
loop_
_atom_site_type_symbol
_atom_site_label
_atom_site_fract_x
_atom_site_fract_y
_atom_site_fract_z
Si Si1 0.045103 0.244490 0.893415
Si Si2 0.106324 0.362849 0.403715
Si Si3 0.780131 0.993776 0.967512
Si Si4 0.582691 0.250144 0.381002
Si Si5 0.686553 0.492307 0.187108
Si Si6 0.069383 0.855220 0.389412
O O1 0.070729 0.192810 0.999598
O O2 0.078443 0.463685 0.842423
O O3 0.990808 0.375723 0.892738
O O4 0.039711 0.955854 0.857554
O O5 0.162619 0.451482 0.430625
O O6 0.081694 0.587156 0.343132
O O7 0.101894 0.090273 0.355907
O O8 0.750000 0.750000 0.932926
O O9 0.750000 0.250000 0.941132
O O10 0.783240 0.984832 0.086098
O O11 0.631167 0.094689 0.348438
O O12 0.584865 0.302829 0.496741
O O13 0.701270 0.250000 0.250000
O O14 0.688170 0.750000 0.250000
#
# Coordination Sequence:
#
# PCOD9389541 Si02
#       6
#     8   8   8   8   8   8
#     4  10  17  28  52  74  90 109 126 164 249 301
#     4  10  18  31  46  66  95 105 136 181 234 298
#     4  12  25  38  52  62  81 119 162 212 261 281
#     4  10  18  31  46  66  95 105 136 181 234 298
#     4  12  25  38  52  62  81 119 162 212 261 281
#     4  10  17  28  52  74  90 109 126 164 249 301
#
# _framework density 24.873018999999999
#
# number of rings (size 3 to 8) (size 9 to 14) (size 15 to 20)
#    0.000    1.333    3.333    8.000    4.667    2.000 
#    0.000    0.000    0.000    0.000    0.000    0.000 
#    0.000    0.000    0.000    0.000    0.000    0.000 
#
# Total GULP energy -267824.365755 kJ/mol
# GULP energy per Si atom -5579.674287 kJ/mol
# Density = 2.481641 g / cm^3
# Si number density = 24.873019 Si / 1000 Ang^3
#
#
#
# Elastic Constant Matrix: (Units=GPa)
#
#
# Indices 1 2 3 4 5 6 
#
# 1 139.8503 55.4909 -6.1235 0.0000 0.0000 0.0000
# 2 55.4909 283.8507 7.0159 0.0000 0.0000 0.0000
# 3 -6.1235 7.0159 53.3735 0.0000 0.0000 0.0000
# 4 0.0000 0.0000 0.0000 16.5366 0.0000 0.0000
# 5 0.0000 0.0000 0.0000 0.0000 2.1281 0.0000
# 6 0.0000 0.0000 0.0000 0.0000 0.0000 54.1189
#
#
#
# Elastic Compliance Matrix: (Units=1/GPa)
#
#
# Indices 1 2 3 4 5 6 
#
# 1 0.007816 -0.001555 0.001101 0.000000 0.000000 0.000000
# 2 -0.001555 0.003844 -0.000684 0.000000 0.000000 0.000000
# 3 0.001101 -0.000684 0.018952 0.000000 0.000000 0.000000
# 4 0.000000 0.000000 0.000000 0.060472 0.000000 0.000000
# 5 0.000000 0.000000 0.000000 0.000000 0.469892 0.000000
# 6 0.000000 0.000000 0.000000 0.000000 0.000000 0.018478
#
#
# Mechanical properties :
#
#
# Convention : Reuss Voigt Hill
#
# Bulk Modulus (GPa) = 35.29036 65.53788 50.41412
# Shear Modulus (GPa) = 8.45774 42.60281 25.53027
#
# Velocity S-wave (km/s) = 1.84601 4.14310 3.20726
# Velocity P-wave (km/s) = 4.33159 7.02092 5.83335
#
# Compressibility (1/GPa) = 0.02833635
#
# Stress axis : x y z
#
# Youngs Moduli (GPa) = 127.94625 260.15251 52.76458
#
# Poissons Ratio (x) = 0.40458 -0.05810
# Poissons Ratio (y) = 0.19898 0.03608
# Poissons Ratio (z) = -0.14089 0.17787
#
# Static dielectric constant tensor:
#      x y z
#    x 2.082280 0.000000 0.000000 
#    y 0.000000 1.969630 0.000000 
#    z 0.000000 0.000000 2.169070 
# 
# From -- ./inp_files/34779.got.cif
#   From: 2010.05.17/outbox.cif.g08.bks.cpg/sg48_18_cif.got.tgz:34779.got - 2010.06.03 20:39:00.
