data_PCOD9389585
_publ_section_title
;
Structure prediction by ZEFSAII (Michael W. Deem and Ramdas Pophale) SiO2 
 PCOD9389585
Probable space group: P N N N
;
_chemical_formula_sum "Si O2"
_cell_formula_units_Z 26
_cell_length_a 16.933128
_cell_length_b 7.780156
_cell_length_c 7.417169
_cell_angle_alpha 90.000000
_cell_angle_beta 90.000000
_cell_angle_gamma 90.000000
_cell_volume 977.155478
_symmetry_space_group_name_H-M "P N N N"
_symmetry_group_IT_number 48
_space_group.IT_coordinate_system_code '2'
_symmetry_cell_setting 'orthorhombic'
loop_
_space_group_symop_operation_xyz
x,y,z
1/2-x,1/2-y,z
x,1/2-y,1/2-z
1/2-x,y,1/2-z
-x,-y,-z
1/2+x,1/2+y,-z
-x,1/2+y,1/2+z
1/2+x,-y,1/2+z
loop_
_atom_site_type_symbol
_atom_site_label
_atom_site_fract_x
_atom_site_fract_y
_atom_site_fract_z
Si Si1 0.750000 0.750000 0.250000
Si Si2 0.620064 0.661565 0.010383
Si Si3 0.336443 0.977249 0.172616
Si Si4 0.962647 0.189940 0.461321
O O1 0.685819 0.621487 0.157243
O O2 0.658081 0.841004 0.935007
O O3 0.615846 0.526076 0.851497
O O4 0.529697 0.695140 0.057480
O O5 0.250000 0.945504 0.250000
O O6 0.377262 0.833281 0.051640
O O7 0.959267 0.250000 0.250000
O O8 0.000000 0.000000 0.500000
#
# Coordination Sequence:
#
# PCOD9389585 Si02
#       4
#     2   8   8   8
#     4  12  20  30  56  92 144 178 264 308 394 460
#     4  10  18  32  55  94 138 187 244 331 378 470
#     4  10  17  34  61  90 140 189 249 313 396 463
#     4  10  18  33  62  99 143 197 255 323 402 477
#
# _framework density 26.607845000000001
#
# number of rings (size 3 to 8) (size 9 to 14) (size 15 to 20)
#    0.000    1.846    9.231    0.923    0.000    0.000 
#    0.000    1.538    0.000    0.000    0.000   44.154 
#    9.231    0.308    0.000    0.000    0.000    0.000 
#
# Total GULP energy -145211.036110 kJ/mol
# GULP energy per Si atom -5585.039850 kJ/mol
# Density = 2.654728 g / cm^3
# Si number density = 26.607845 Si / 1000 Ang^3
#
#
#
# Elastic Constant Matrix: (Units=GPa)
#
#
# Indices 1 2 3 4 5 6 
#
# 1 250.1834 38.6146 83.0933 0.0000 0.0000 0.0000
# 2 38.6146 122.4792 39.7507 0.0000 0.0000 0.0000
# 3 83.0933 39.7507 175.9258 0.0000 0.0000 0.0000
# 4 0.0000 0.0000 0.0000 35.3620 0.0000 0.0000
# 5 0.0000 0.0000 0.0000 0.0000 51.9050 0.0000
# 6 0.0000 0.0000 0.0000 0.0000 0.0000 12.1843
#
#
#
# Elastic Compliance Matrix: (Units=1/GPa)
#
#
# Indices 1 2 3 4 5 6 
#
# 1 0.004820 -0.000843 -0.002086 0.000000 0.000000 0.000000
# 2 -0.000843 0.008958 -0.001626 0.000000 0.000000 0.000000
# 3 -0.002086 -0.001626 0.007037 0.000000 0.000000 0.000000
# 4 0.000000 0.000000 0.000000 0.028279 0.000000 0.000000
# 5 0.000000 0.000000 0.000000 0.000000 0.019266 0.000000
# 6 0.000000 0.000000 0.000000 0.000000 0.000000 0.082073
#
#
# Mechanical properties :
#
#
# Convention : Reuss Voigt Hill
#
# Bulk Modulus (GPa) = 85.43157 96.83396 91.13276
# Shear Modulus (GPa) = 30.59151 45.69893 38.14522
#
# Velocity S-wave (km/s) = 3.39443 4.14877 3.79041
# Velocity P-wave (km/s) = 6.89494 7.70855 7.31307
#
# Compressibility (1/GPa) = 0.01170528
#
# Stress axis : x y z
#
# Youngs Moduli (GPa) = 207.46876 111.63142 142.10599
#
# Poissons Ratio (x) = 0.09405 0.29646
# Poissons Ratio (y) = 0.17480 0.23108
# Poissons Ratio (z) = 0.43282 0.18153
#
# Static dielectric constant tensor:
#      x y z
#    x 2.105380 0.000000 0.000000 
#    y 0.000000 2.195590 0.000000 
#    z 0.000000 0.000000 2.369610 
# 
# From -- ./inp_files/13515.got.cif
#   From: 2010.05.17/outbox.cif.g08.bks.cpg/sg48_7_cif.got.tgz:13515.got - 2010.06.03 20:39:00.
