data_PCOD9389994
_publ_section_title
;
Structure prediction by ZEFSAII (Michael W. Deem and Ramdas Pophale) SiO2 
 PCOD9389994
Probable space group: P N N N
;
_chemical_formula_sum "Si O2"
_cell_formula_units_Z 60
_cell_length_a 19.124350
_cell_length_b 11.716762
_cell_length_c 12.318015
_cell_angle_alpha 90.000000
_cell_angle_beta 90.000000
_cell_angle_gamma 90.000000
_cell_volume 2760.164845
_symmetry_space_group_name_H-M "P N N N"
_symmetry_group_IT_number 48
_space_group.IT_coordinate_system_code '2'
_symmetry_cell_setting 'orthorhombic'
loop_
_space_group_symop_operation_xyz
x,y,z
1/2-x,1/2-y,z
x,1/2-y,1/2-z
1/2-x,y,1/2-z
-x,-y,-z
1/2+x,1/2+y,-z
-x,1/2+y,1/2+z
1/2+x,-y,1/2+z
loop_
_atom_site_type_symbol
_atom_site_label
_atom_site_fract_x
_atom_site_fract_y
_atom_site_fract_z
Si Si1 0.551386 0.450179 0.385174
Si Si2 0.317590 0.000316 0.477966
Si Si3 0.662699 0.488197 0.558205
Si Si4 0.883137 0.750000 0.250000
Si Si5 0.165557 0.375909 0.268997
Si Si6 0.147344 0.737786 0.374457
Si Si7 0.169041 0.997781 0.773819
Si Si8 0.503085 0.683692 0.417364
O O1 0.602286 0.510775 0.473642
O O2 0.608102 0.427930 0.290541
O O3 0.502238 0.558258 0.358106
O O4 0.512597 0.350727 0.454613
O O5 0.236155 0.037066 0.482310
O O6 0.323114 0.876866 0.423321
O O7 0.351646 0.083981 0.389885
O O8 0.345232 0.990856 0.598333
O O9 0.643875 0.536822 0.675648
O O10 0.670328 0.351989 0.564056
O O11 0.840205 0.867677 0.253293
O O12 0.931026 0.754984 0.360008
O O13 0.137510 0.250000 0.250000
O O14 0.250000 0.373209 0.250000
O O15 0.168216 0.750000 0.250000
O O16 0.063661 0.741829 0.384171
O O17 0.250000 0.962621 0.750000
#
# Coordination Sequence:
#
# PCOD9389994 Si02
#       8
#     8   8   8   4   8   8   8   8
#     4   9  19  37  64  85 119 171 210 263 313 396
#     4  11  22  36  58  94 132 160 206 268 323 394
#     4  10  19  35  59  87 121 165 209 253 324 393
#     4  10  21  38  66  90 121 170 228 284 308 388
#     4   9  19  33  50  81 121 161 199 256 315 369
#     4  11  20  35  63  90 119 158 213 267 317 372
#     4  11  22  40  60  93 136 169 215 261 337 406
#     4   9  19  37  61  90 113 161 228 260 317 370
#
# _framework density 21.737832000000001
#
# number of rings (size 3 to 8) (size 9 to 14) (size 15 to 20)
#    0.000    2.000    3.333    0.600    0.000    2.667 
#    4.800    3.333    0.000    6.400    0.000    0.000 
#    0.000    0.000    0.000    0.000    0.000    0.000 
#
# Total GULP energy -334340.780673 kJ/mol
# GULP energy per Si atom -5572.346345 kJ/mol
# Density = 2.168836 g / cm^3
# Si number density = 21.737832 Si / 1000 Ang^3
#
#
#
# Elastic Constant Matrix: (Units=GPa)
#
#
# Indices 1 2 3 4 5 6 
#
# 1 66.7804 5.6314 20.5694 0.0000 0.0000 0.0000
# 2 5.6314 62.0608 18.5353 0.0000 0.0000 0.0000
# 3 20.5694 18.5353 147.0496 0.0000 0.0000 0.0000
# 4 0.0000 0.0000 0.0000 23.1487 0.0000 0.0000
# 5 0.0000 0.0000 0.0000 0.0000 31.0052 0.0000
# 6 0.0000 0.0000 0.0000 0.0000 0.0000 14.6179
#
#
#
# Elastic Compliance Matrix: (Units=1/GPa)
#
#
# Indices 1 2 3 4 5 6 
#
# 1 0.015687 -0.000798 -0.002094 0.000000 0.000000 0.000000
# 2 -0.000798 0.016784 -0.002004 0.000000 0.000000 0.000000
# 3 -0.002094 -0.002004 0.007346 0.000000 0.000000 0.000000
# 4 0.000000 0.000000 0.000000 0.043199 0.000000 0.000000
# 5 0.000000 0.000000 0.000000 0.000000 0.032253 0.000000
# 6 0.000000 0.000000 0.000000 0.000000 0.000000 0.068409
#
#
# Mechanical properties :
#
#
# Convention : Reuss Voigt Hill
#
# Bulk Modulus (GPa) = 33.30533 40.59588 36.95060
# Shear Modulus (GPa) = 24.57275 29.16467 26.86871
#
# Velocity S-wave (km/s) = 3.36581 3.66683 3.51954
# Velocity P-wave (km/s) = 5.51902 6.05337 5.79236
#
# Compressibility (1/GPa) = 0.03002523
#
# Stress axis : x y z
#
# Youngs Moduli (GPa) = 63.74849 59.57993 136.13062
#
# Poissons Ratio (x) = 0.04755 0.28501
# Poissons Ratio (y) = 0.05088 0.27280
# Poissons Ratio (z) = 0.13347 0.11940
#
# Static dielectric constant tensor:
#      x y z
#    x 1.894830 0.000000 0.000000 
#    y 0.000000 1.764980 0.000000 
#    z 0.000000 0.000000 1.822660 
# 
# From -- ./inp_files/22936.got.cif
#   From: 2010.05.17/outbox.cif.g08.bks.cpg/sg48_12_cif.got.tgz:22936.got - 2010.06.03 20:39:00.
