data_PCOD9389972
_publ_section_title
;
Structure prediction by ZEFSAII (Michael W. Deem and Ramdas Pophale) SiO2 
 PCOD9389972
Probable space group: P N N N
;
_chemical_formula_sum "Si O2"
_cell_formula_units_Z 60
_cell_length_a 15.902416
_cell_length_b 10.971727
_cell_length_c 19.810217
_cell_angle_alpha 90.000000
_cell_angle_beta 90.000000
_cell_angle_gamma 90.000000
_cell_volume 3456.426578
_symmetry_space_group_name_H-M "P N N N"
_symmetry_group_IT_number 48
_space_group.IT_coordinate_system_code '2'
_symmetry_cell_setting 'orthorhombic'
loop_
_space_group_symop_operation_xyz
x,y,z
1/2-x,1/2-y,z
x,1/2-y,1/2-z
1/2-x,y,1/2-z
-x,-y,-z
1/2+x,1/2+y,-z
-x,1/2+y,1/2+z
1/2+x,-y,1/2+z
loop_
_atom_site_type_symbol
_atom_site_label
_atom_site_fract_x
_atom_site_fract_y
_atom_site_fract_z
Si Si1 0.801651 0.859851 0.871905
Si Si2 0.536104 0.616473 0.460728
Si Si3 0.269835 0.387930 0.523925
Si Si4 0.632585 0.065197 0.473002
Si Si5 0.893916 0.165544 0.646410
Si Si6 0.750000 0.250000 0.554536
Si Si7 0.160058 0.909478 0.220101
Si Si8 0.037370 0.146491 0.054827
O O1 0.750000 0.750000 0.839405
O O2 0.751299 0.891955 0.942430
O O3 0.894248 0.811427 0.891479
O O4 0.819644 0.974817 0.825276
O O5 0.500000 0.500000 0.500000
O O6 0.635041 0.587663 0.455499
O O7 0.477002 0.640047 0.396300
O O8 0.531762 0.744533 0.501088
O O9 0.250000 0.250000 0.543145
O O10 0.204020 0.479505 0.557677
O O11 0.684006 0.170853 0.511263
O O12 0.558137 0.115412 0.426177
O O13 0.581770 0.975882 0.524658
O O14 0.810106 0.162604 0.599409
O O15 0.891023 0.075502 0.710390
O O16 0.884688 0.302941 0.676947
O O17 0.250000 0.870221 0.250000
#
# Coordination Sequence:
#
# PCOD9389972 Si02
#       8
#     8   8   8   8   8   4   8   8
#     4  10  20  36  58  81 125 154 201 242 303 377
#     4  12  23  35  55  85 118 154 197 258 317 354
#     4  10  19  35  53  80 116 152 188 242 312 362
#     4  10  20  31  53  80 112 147 193 226 308 359
#     4  11  22  37  53  82 120 157 208 246 290 363
#     4  12  18  31  56  80 108 154 187 248 272 352
#     4  11  23  36  57  82 114 172 208 237 288 364
#     4  10  20  35  51  82 112 158 189 241 310 364
#
# _framework density 17.358967
#
# number of rings (size 3 to 8) (size 9 to 14) (size 15 to 20)
#    0.000    1.333    6.667    2.800    3.733    0.267 
#    0.000    0.000    0.000    0.000    0.000    6.533 
#    0.000    0.000    0.000    0.000    0.000    0.000 
#
# Total GULP energy -334160.984772 kJ/mol
# GULP energy per Si atom -5569.349746 kJ/mol
# Density = 1.731946 g / cm^3
# Si number density = 17.358967 Si / 1000 Ang^3
#
#
#
# Elastic Constant Matrix: (Units=GPa)
#
#
# Indices 1 2 3 4 5 6 
#
# 1 178.5520 46.2126 51.3911 0.0000 0.0000 0.0000
# 2 46.2126 75.1372 36.3861 0.0000 0.0000 0.0000
# 3 51.3911 36.3861 63.9419 0.0000 0.0000 0.0000
# 4 0.0000 0.0000 0.0000 14.1549 0.0000 0.0000
# 5 0.0000 0.0000 0.0000 0.0000 22.7169 0.0000
# 6 0.0000 0.0000 0.0000 0.0000 0.0000 38.7727
#
#
#
# Elastic Compliance Matrix: (Units=1/GPa)
#
#
# Indices 1 2 3 4 5 6 
#
# 1 0.007578 -0.002362 -0.004746 0.000000 0.000000 0.000000
# 2 -0.002362 0.019108 -0.008975 0.000000 0.000000 0.000000
# 3 -0.004746 -0.008975 0.024561 0.000000 0.000000 0.000000
# 4 0.000000 0.000000 0.000000 0.070647 0.000000 0.000000
# 5 0.000000 0.000000 0.000000 0.000000 0.044020 0.000000
# 6 0.000000 0.000000 0.000000 0.000000 0.000000 0.025791
#
#
# Mechanical properties :
#
#
# Convention : Reuss Voigt Hill
#
# Bulk Modulus (GPa) = 52.41028 65.06786 58.73907
# Shear Modulus (GPa) = 21.71716 27.37165 24.54440
#
# Velocity S-wave (km/s) = 3.54087 3.97520 3.76431
# Velocity P-wave (km/s) = 6.85381 7.65733 7.26668
#
# Compressibility (1/GPa) = 0.01908023
#
# Stress axis : x y z
#
# Youngs Moduli (GPa) = 131.95846 52.33376 40.71492
#
# Poissons Ratio (x) = 0.12363 0.19325
# Poissons Ratio (y) = 0.31174 0.36541
# Poissons Ratio (z) = 0.62632 0.46968
#
# Static dielectric constant tensor:
#      x y z
#    x 1.645420 0.000000 0.000000 
#    y 0.000000 1.681230 0.000000 
#    z 0.000000 0.000000 1.619200 
# 
# From -- ./inp_files/34557.got.cif
#   From: 2010.05.17/outbox.cif.g08.bks.cpg/sg48_18_cif.got.tgz:34557.got - 2010.06.03 20:39:00.
