data_PCOD9389756
_publ_section_title
;
Structure prediction by ZEFSAII (Michael W. Deem and Ramdas Pophale) SiO2 
 PCOD9389756
Probable space group: P N N N
;
_chemical_formula_sum "Si O2"
_cell_formula_units_Z 64
_cell_length_a 9.075396
_cell_length_b 16.717243
_cell_length_c 20.311417
_cell_angle_alpha 90.000000
_cell_angle_beta 90.000000
_cell_angle_gamma 90.000000
_cell_volume 3081.558822
_symmetry_space_group_name_H-M "P N N N"
_symmetry_group_IT_number 48
_space_group.IT_coordinate_system_code '2'
_symmetry_cell_setting 'orthorhombic'
loop_
_space_group_symop_operation_xyz
x,y,z
1/2-x,1/2-y,z
x,1/2-y,1/2-z
1/2-x,y,1/2-z
-x,-y,-z
1/2+x,1/2+y,-z
-x,1/2+y,1/2+z
1/2+x,-y,1/2+z
loop_
_atom_site_type_symbol
_atom_site_label
_atom_site_fract_x
_atom_site_fract_y
_atom_site_fract_z
Si Si1 0.793078 0.660675 0.143836
Si Si2 0.583707 0.079443 0.092336
Si Si3 0.328427 0.418542 0.512135
Si Si4 0.554494 0.452521 0.677996
Si Si5 0.664704 0.824577 0.679796
Si Si6 0.677590 0.990328 0.602990
Si Si7 0.327375 0.642138 0.817672
Si Si8 0.556864 0.962987 0.315511
O O1 0.750000 0.750000 0.160925
O O2 0.951295 0.623285 0.162198
O O3 0.678035 0.604157 0.181245
O O4 0.785790 0.647463 0.064969
O O5 0.457338 0.107850 0.040242
O O6 0.712619 0.138271 0.119644
O O7 0.515959 0.039100 0.158289
O O8 0.631477 0.997348 0.055333
O O9 0.199796 0.454158 0.467878
O O10 0.693347 0.452404 0.629509
O O11 0.561154 0.453069 0.756852
O O12 0.750000 0.750000 0.646230
O O13 0.750000 0.830190 0.750000
O O14 0.683715 0.911056 0.647932
O O15 0.486502 0.813078 0.678128
O O16 0.526938 0.034950 0.615491
O O17 0.250000 0.666533 0.750000
O O18 0.367978 0.548705 0.809079
#
# Coordination Sequence:
#
# PCOD9389756 Si02
#       8
#     8   8   8   8   8   8   8   8
#     4  11  23  38  58  87 122 169 204 254 314 362
#     4   9  17  32  59  92 108 149 199 255 296 349
#     4   9  19  35  56  83 120 152 198 245 301 358
#     4  10  18  35  59  88 122 151 204 256 312 372
#     4  10  23  39  55  87 130 162 194 245 324 372
#     4  10  21  35  64  87 116 162 201 253 309 368
#     4  11  18  34  65  91 118 155 208 259 297 370
#     4  11  19  33  56  98 122 147 208 258 307 375
#
# _framework density 20.768709999999999
#
# number of rings (size 3 to 8) (size 9 to 14) (size 15 to 20)
#    0.000    1.875    3.750    3.000    1.750    2.000 
#    0.000    1.875    0.000    1.500    9.750    0.000 
#    0.000    0.000    0.000    0.000    0.000    0.000 
#
# Total GULP energy -356368.597096 kJ/mol
# GULP energy per Si atom -5568.259330 kJ/mol
# Density = 2.072144 g / cm^3
# Si number density = 20.768710 Si / 1000 Ang^3
#
#
#
# Elastic Constant Matrix: (Units=GPa)
#
#
# Indices 1 2 3 4 5 6 
#
# 1 95.3230 31.9762 18.8938 0.0000 0.0000 0.0000
# 2 31.9762 86.7506 -3.0216 0.0000 0.0000 0.0000
# 3 18.8938 -3.0216 76.1290 0.0000 0.0000 0.0000
# 4 0.0000 0.0000 0.0000 3.6298 0.0000 0.0000
# 5 0.0000 0.0000 0.0000 0.0000 25.8811 0.0000
# 6 0.0000 0.0000 0.0000 0.0000 0.0000 15.3797
#
#
#
# Elastic Compliance Matrix: (Units=1/GPa)
#
#
# Indices 1 2 3 4 5 6 
#
# 1 0.012776 -0.004826 -0.003362 0.000000 0.000000 0.000000
# 2 -0.004826 0.013366 0.001728 0.000000 0.000000 0.000000
# 3 -0.003362 0.001728 0.014039 0.000000 0.000000 0.000000
# 4 0.000000 0.000000 0.000000 0.275494 0.000000 0.000000
# 5 0.000000 0.000000 0.000000 0.000000 0.038638 0.000000
# 6 0.000000 0.000000 0.000000 0.000000 0.000000 0.065021
#
#
# Mechanical properties :
#
#
# Convention : Reuss Voigt Hill
#
# Bulk Modulus (GPa) = 36.68311 39.32215 38.00263
# Shear Modulus (GPa) = 11.32908 23.00174 17.16541
#
# Velocity S-wave (km/s) = 2.33810 3.33155 2.87802
# Velocity P-wave (km/s) = 4.99900 5.81149 5.42049
#
# Compressibility (1/GPa) = 0.02726050
#
# Stress axis : x y z
#
# Youngs Moduli (GPa) = 78.27115 74.81391 71.23184
#
# Poissons Ratio (x) = 0.36108 0.23951
# Poissons Ratio (y) = 0.37777 -0.12311
# Poissons Ratio (z) = 0.26317 -0.12930
#
# Static dielectric constant tensor:
#      x y z
#    x 1.867470 0.000000 0.000000 
#    y 0.000000 1.717530 0.000000 
#    z 0.000000 0.000000 1.832010 
# 
# From -- ./inp_files/33717.got.cif
#   From: 2010.05.17/outbox.cif.g08.bks.cpg/sg48_17_cif.got.tgz:33717.got - 2010.06.03 20:39:00.
