data_PCOD9389509
_publ_section_title
;
Structure prediction by ZEFSAII (Michael W. Deem and Ramdas Pophale) SiO2 
 PCOD9389509
Probable space group: P N N N
;
_chemical_formula_sum "Si O2"
_cell_formula_units_Z 36
_cell_length_a 19.162651
_cell_length_b 19.547649
_cell_length_c 5.213527
_cell_angle_alpha 90.000000
_cell_angle_beta 90.000000
_cell_angle_gamma 90.000000
_cell_volume 1952.907842
_symmetry_space_group_name_H-M "P N N N"
_symmetry_group_IT_number 48
_space_group.IT_coordinate_system_code '2'
_symmetry_cell_setting 'orthorhombic'
loop_
_space_group_symop_operation_xyz
x,y,z
1/2-x,1/2-y,z
x,1/2-y,1/2-z
1/2-x,y,1/2-z
-x,-y,-z
1/2+x,1/2+y,-z
-x,1/2+y,1/2+z
1/2+x,-y,1/2+z
loop_
_atom_site_type_symbol
_atom_site_label
_atom_site_fract_x
_atom_site_fract_y
_atom_site_fract_z
Si Si1 0.321523 0.120572 0.341978
Si Si2 0.250000 0.019481 0.750000
Si Si3 0.503459 0.413118 0.724903
Si Si4 0.030487 0.328154 0.289828
Si Si5 0.117004 0.003452 0.523430
O O1 0.250000 0.156023 0.250000
O O2 0.293950 0.071042 0.567184
O O3 0.387837 0.168810 0.381492
O O4 0.352001 0.068180 0.130873
O O5 0.188523 0.973600 0.633147
O O6 0.484473 0.366161 0.479011
O O7 0.439761 0.468287 0.728085
O O8 0.573356 0.454182 0.659259
O O9 0.506963 0.369811 0.983088
O O10 0.009871 0.250000 0.250000
#
# Coordination Sequence:
#
# PCOD9389509 Si02
#       5
#     8   4   8   8   8
#     4   9  19  32  51  79 111 143 180 227 275 333
#     4  10  16  32  52  81 113 140 174 232 286 356
#     4  10  21  35  55  80 108 146 182 234 279 336
#     4  11  22  37  54  75 111 152 194 224 264 325
#     4   9  19  31  55  80 113 138 177 230 301 333
#
# _framework density 18.434051
#
# number of rings (size 3 to 8) (size 9 to 14) (size 15 to 20)
#    0.000    2.222    2.222    0.667    3.111    3.111 
#    0.000    0.000    0.000    0.000    0.000    0.778 
#    0.000    0.000    0.000    0.000    0.000    0.000 
#
# Total GULP energy -200475.901616 kJ/mol
# GULP energy per Si atom -5568.775045 kJ/mol
# Density = 1.839209 g / cm^3
# Si number density = 18.434051 Si / 1000 Ang^3
#
#
#
# Elastic Constant Matrix: (Units=GPa)
#
#
# Indices 1 2 3 4 5 6 
#
# 1 96.7140 23.4610 11.0022 0.0000 0.0000 0.0000
# 2 23.4610 56.8308 8.0913 0.0000 0.0000 0.0000
# 3 11.0022 8.0913 45.2793 0.0000 0.0000 0.0000
# 4 0.0000 0.0000 0.0000 20.6812 0.0000 0.0000
# 5 0.0000 0.0000 0.0000 0.0000 22.1906 0.0000
# 6 0.0000 0.0000 0.0000 0.0000 0.0000 9.9937
#
#
#
# Elastic Compliance Matrix: (Units=1/GPa)
#
#
# Indices 1 2 3 4 5 6 
#
# 1 0.011669 -0.004529 -0.002026 0.000000 0.000000 0.000000
# 2 -0.004529 0.019813 -0.002440 0.000000 0.000000 0.000000
# 3 -0.002026 -0.002440 0.023013 0.000000 0.000000 0.000000
# 4 0.000000 0.000000 0.000000 0.048353 0.000000 0.000000
# 5 0.000000 0.000000 0.000000 0.000000 0.045064 0.000000
# 6 0.000000 0.000000 0.000000 0.000000 0.000000 0.100063
#
#
# Mechanical properties :
#
#
# Convention : Reuss Voigt Hill
#
# Bulk Modulus (GPa) = 27.39308 31.54811 29.47059
# Shear Modulus (GPa) = 17.97694 20.99108 19.48401
#
# Velocity S-wave (km/s) = 3.12621 3.37814 3.25462
# Velocity P-wave (km/s) = 5.28424 5.68920 5.49046
#
# Compressibility (1/GPa) = 0.03650557
#
# Stress axis : x y z
#
# Youngs Moduli (GPa) = 85.69848 50.47176 43.45279
#
# Poissons Ratio (x) = 0.22857 0.08804
# Poissons Ratio (y) = 0.38810 0.10603
# Poissons Ratio (z) = 0.17363 0.12316
#
# Static dielectric constant tensor:
#      x y z
#    x 1.707480 0.000000 0.000000 
#    y 0.000000 1.616400 0.000000 
#    z 0.000000 0.000000 1.747120 
# 
# From -- ./inp_files/4191.got.cif
#   From: 2010.05.17/outbox.cif.g08.bks.cpg/sg48_3_cif.got.tgz:4191.got - 2010.06.03 20:39:00.
