data_PCOD9389763
_publ_section_title
;
Structure prediction by ZEFSAII (Michael W. Deem and Ramdas Pophale) SiO2 
 PCOD9389763
Probable space group: P N N N
;
_chemical_formula_sum "Si O2"
_cell_formula_units_Z 42
_cell_length_a 10.200259
_cell_length_b 13.116583
_cell_length_c 16.405131
_cell_angle_alpha 90.000000
_cell_angle_beta 90.000000
_cell_angle_gamma 90.000000
_cell_volume 2194.884208
_symmetry_space_group_name_H-M "P N N N"
_symmetry_group_IT_number 48
_space_group.IT_coordinate_system_code '2'
_symmetry_cell_setting 'orthorhombic'
loop_
_space_group_symop_operation_xyz
x,y,z
1/2-x,1/2-y,z
x,1/2-y,1/2-z
1/2-x,y,1/2-z
-x,-y,-z
1/2+x,1/2+y,-z
-x,1/2+y,1/2+z
1/2+x,-y,1/2+z
loop_
_atom_site_type_symbol
_atom_site_label
_atom_site_fract_x
_atom_site_fract_y
_atom_site_fract_z
Si Si1 0.093844 0.240098 0.153642
Si Si2 0.067591 0.918490 0.563606
Si Si3 0.297766 0.860416 0.087610
Si Si4 0.869233 0.519880 0.683633
Si Si5 0.250000 0.250000 0.750000
Si Si6 0.445473 0.083170 0.812074
O O1 0.250000 0.250000 0.142847
O O2 0.061022 0.250000 0.250000
O O3 0.024028 0.328136 0.100400
O O4 0.072649 0.119708 0.140171
O O5 0.179200 0.869197 0.508535
O O6 0.113330 0.987333 0.638976
O O7 0.000000 0.000000 0.500000
O O8 0.250000 0.750000 0.111455
O O9 0.200625 0.946508 0.119766
O O10 0.435010 0.876261 0.133368
O O11 0.750000 0.546058 0.750000
O O12 0.982903 0.460326 0.731765
O O13 0.343638 0.173220 0.798999
#
# Coordination Sequence:
#
# PCOD9389763 Si02
#       6
#     8   8   8   8   2   8
#     4  11  17  32  62  93 118 156 209 254 300 372
#     4  10  21  39  55  85 130 154 190 255 324 363
#     4  10  21  40  60  87 122 161 200 251 315 371
#     4  10  18  35  66  94 114 151 222 263 294 364
#     4  12  24  40  58  82 112 148 210 246 312 366
#     4  10  21  39  61  85 116 158 198 263 304 366
#
# _framework density 19.135406
#
# number of rings (size 3 to 8) (size 9 to 14) (size 15 to 20)
#    0.000    1.714    3.810    3.429    0.000    2.667 
#   17.143    0.952    0.000    0.000    0.000    0.000 
#    0.000    0.000    0.000    0.000    0.000    0.000 
#
# Total GULP energy -234029.127770 kJ/mol
# GULP energy per Si atom -5572.122090 kJ/mol
# Density = 1.909185 g / cm^3
# Si number density = 19.135406 Si / 1000 Ang^3
#
#
#
# Elastic Constant Matrix: (Units=GPa)
#
#
# Indices 1 2 3 4 5 6 
#
# 1 45.5286 58.5973 46.1277 0.0000 0.0000 0.0000
# 2 58.5973 176.9250 63.1253 0.0000 0.0000 0.0000
# 3 46.1277 63.1253 93.0558 0.0000 0.0000 0.0000
# 4 0.0000 0.0000 0.0000 26.5095 0.0000 0.0000
# 5 0.0000 0.0000 0.0000 0.0000 17.8770 0.0000
# 6 0.0000 0.0000 0.0000 0.0000 0.0000 -3.9926
#
#
#
# Elastic Compliance Matrix: (Units=1/GPa)
#
#
# Indices 1 2 3 4 5 6 
#
# 1 0.058469 -0.011905 -0.020907 0.000000 0.000000 0.000000
# 2 -0.011905 0.009881 -0.000801 0.000000 0.000000 0.000000
# 3 -0.020907 -0.000801 0.021653 0.000000 0.000000 0.000000
# 4 0.000000 0.000000 0.000000 0.037722 0.000000 0.000000
# 5 0.000000 0.000000 0.000000 0.000000 0.055938 0.000000
# 6 0.000000 0.000000 0.000000 0.000000 0.000000 -0.250466
#
#
# Mechanical properties :
#
#
# Convention : Reuss Voigt Hill
#
# Bulk Modulus (GPa) = 43.90572 72.35666 58.13119
# Shear Modulus (GPa) = 623.64136 17.92274 320.78205
#
# Velocity S-wave (km/s) = 18.07255 3.06376 12.96155
# Velocity P-wave (km/s) = 21.41224 7.10004 15.95141
#
# Compressibility (1/GPa) = 0.02277608
#
# Stress axis : x y z
#
# Youngs Moduli (GPa) = 17.10304 101.20305 46.18205
#
# Poissons Ratio (x) = 1.20487 0.96552
# Poissons Ratio (y) = 0.20362 0.03701
# Poissons Ratio (z) = 0.35757 0.08111
#
# Static dielectric constant tensor:
#      x y z
#    x 1.659860 0.000000 0.000000 
#    y 0.000000 1.667970 0.000000 
#    z 0.000000 0.000000 1.714050 
# 
# From -- ./inp_files/30988.got.cif
#   From: 2010.05.17/outbox.cif.g08.bks.cpg/sg48_16_cif.got.tgz:30988.got - 2010.06.03 20:39:00.
