data_PCOD9389738
_publ_section_title
;
Structure prediction by ZEFSAII (Michael W. Deem and Ramdas Pophale) SiO2 
 PCOD9389738
Probable space group: P N N N
;
_chemical_formula_sum "Si O2"
_cell_formula_units_Z 64
_cell_length_a 29.258799
_cell_length_b 11.422229
_cell_length_c 9.299665
_cell_angle_alpha 90.000000
_cell_angle_beta 90.000000
_cell_angle_gamma 90.000000
_cell_volume 3107.954575
_symmetry_space_group_name_H-M "P N N N"
_symmetry_group_IT_number 48
_space_group.IT_coordinate_system_code '2'
_symmetry_cell_setting 'orthorhombic'
loop_
_space_group_symop_operation_xyz
x,y,z
1/2-x,1/2-y,z
x,1/2-y,1/2-z
1/2-x,y,1/2-z
-x,-y,-z
1/2+x,1/2+y,-z
-x,1/2+y,1/2+z
1/2+x,-y,1/2+z
loop_
_atom_site_type_symbol
_atom_site_label
_atom_site_fract_x
_atom_site_fract_y
_atom_site_fract_z
Si Si1 0.180468 0.350211 0.368491
Si Si2 0.951036 0.094616 0.616189
Si Si3 0.450967 0.371377 0.587201
Si Si4 0.757306 0.890643 0.411611
Si Si5 0.426072 0.697725 0.899796
Si Si6 0.471099 0.164531 0.384516
Si Si7 0.895515 0.032942 0.867979
Si Si8 0.851077 0.681030 0.108390
O O1 0.193555 0.250000 0.250000
O O2 0.222271 0.411074 0.457023
O O3 0.147768 0.455676 0.321437
O O4 0.149166 0.276253 0.481273
O O5 0.941320 0.191384 0.495864
O O6 0.913155 0.109752 0.736155
O O7 0.002911 0.104517 0.675003
O O8 0.949531 0.968120 0.539550
O O9 0.459704 0.243551 0.522082
O O10 0.399972 0.372106 0.647475
O O11 0.750000 0.750000 0.404035
O O12 0.750000 0.939010 0.250000
O O13 0.811187 0.907808 0.439222
O O14 0.408252 0.750000 0.750000
O O15 0.475163 0.635023 0.872982
O O16 0.393191 0.611731 0.988864
O O17 0.460836 0.250000 0.250000
O O18 0.438039 0.055406 0.385847
O O19 0.835427 0.750000 0.250000
#
# Coordination Sequence:
#
# PCOD9389738 Si02
#       8
#     8   8   8   8   8   8   8   8
#     4  11  22  36  60  91 122 162 205 246 310 386
#     4  10  22  39  56  81 123 171 213 270 308 349
#     4  10  20  34  56  87 123 163 211 252 313 376
#     4   9  17  36  54  81 127 163 184 236 307 380
#     4  10  24  39  54  77 116 164 219 264 302 355
#     4  10  18  35  54  80 117 155 204 260 314 371
#     4  12  21  37  61  84 118 169 212 259 313 368
#     4  11  20  34  56  87 124 163 201 240 304 392
#
# _framework density 20.592320000000001
#
# number of rings (size 3 to 8) (size 9 to 14) (size 15 to 20)
#    0.000    1.625    5.000    1.875    1.750    5.250 
#    0.000    0.000    0.000    0.000    0.000    0.875 
#    0.000    2.000    0.000    0.000    0.000    0.000 
#
# Total GULP energy -356792.881385 kJ/mol
# GULP energy per Si atom -5574.888772 kJ/mol
# Density = 2.054545 g / cm^3
# Si number density = 20.592320 Si / 1000 Ang^3
#
#
#
# Elastic Constant Matrix: (Units=GPa)
#
#
# Indices 1 2 3 4 5 6 
#
# 1 114.9831 12.9148 37.0742 0.0000 0.0000 0.0000
# 2 12.9148 43.7056 21.8385 0.0000 0.0000 0.0000
# 3 37.0742 21.8385 84.5872 0.0000 0.0000 0.0000
# 4 0.0000 0.0000 0.0000 26.9624 0.0000 0.0000
# 5 0.0000 0.0000 0.0000 0.0000 18.2411 0.0000
# 6 0.0000 0.0000 0.0000 0.0000 0.0000 16.3912
#
#
#
# Elastic Compliance Matrix: (Units=1/GPa)
#
#
# Indices 1 2 3 4 5 6 
#
# 1 0.010158 -0.000892 -0.004222 0.000000 0.000000 0.000000
# 2 -0.000892 0.026348 -0.006411 0.000000 0.000000 0.000000
# 3 -0.004222 -0.006411 0.015328 0.000000 0.000000 0.000000
# 4 0.000000 0.000000 0.000000 0.037089 0.000000 0.000000
# 5 0.000000 0.000000 0.000000 0.000000 0.054821 0.000000
# 6 0.000000 0.000000 0.000000 0.000000 0.000000 0.061008
#
#
# Mechanical properties :
#
#
# Convention : Reuss Voigt Hill
#
# Bulk Modulus (GPa) = 34.74290 42.99231 38.86760
# Shear Modulus (GPa) = 21.06174 23.74885 22.40529
#
# Velocity S-wave (km/s) = 3.20159 3.39969 3.30213
# Velocity P-wave (km/s) = 5.52949 6.02774 5.78399
#
# Compressibility (1/GPa) = 0.02878286
#
# Stress axis : x y z
#
# Youngs Moduli (GPa) = 98.44002 37.95420 65.24057
#
# Poissons Ratio (x) = 0.03386 0.27545
# Poissons Ratio (y) = 0.08782 0.41828
# Poissons Ratio (z) = 0.41562 0.24334
#
# Static dielectric constant tensor:
#      x y z
#    x 1.803600 0.000000 0.000000 
#    y 0.000000 1.748940 0.000000 
#    z 0.000000 0.000000 1.828240 
# 
# From -- ./inp_files/16929.got.cif
#   From: 2010.05.17/outbox.cif.g08.bks.cpg/sg48_9_cif.got.tgz:16929.got - 2010.06.03 20:39:00.
