data_PCOD9389526
_publ_section_title
;
Structure prediction by ZEFSAII (Michael W. Deem and Ramdas Pophale) SiO2 
 PCOD9389526
Probable space group: P N N N
;
_chemical_formula_sum "Si O2"
_cell_formula_units_Z 20
_cell_length_a 7.598754
_cell_length_b 8.538286
_cell_length_c 11.466942
_cell_angle_alpha 90.000000
_cell_angle_beta 90.000000
_cell_angle_gamma 90.000000
_cell_volume 743.979037
_symmetry_space_group_name_H-M "P N N N"
_symmetry_group_IT_number 48
_space_group.IT_coordinate_system_code '2'
_symmetry_cell_setting 'orthorhombic'
loop_
_space_group_symop_operation_xyz
x,y,z
1/2-x,1/2-y,z
x,1/2-y,1/2-z
1/2-x,y,1/2-z
-x,-y,-z
1/2+x,1/2+y,-z
-x,1/2+y,1/2+z
1/2+x,-y,1/2+z
loop_
_atom_site_type_symbol
_atom_site_label
_atom_site_fract_x
_atom_site_fract_y
_atom_site_fract_z
Si Si1 0.341941 0.927744 0.579511
Si Si2 0.498875 0.003569 0.163295
Si Si3 0.250000 0.250000 0.250000
Si Si4 0.250000 0.750000 0.250000
O O1 0.250000 0.750000 0.575220
O O2 0.418243 0.963470 0.708076
O O3 0.157844 0.021967 0.575217
O O4 0.500000 0.000000 0.500000
O O5 0.369672 0.150428 0.162809
O O6 0.374127 0.854851 0.171136
#
# Coordination Sequence:
#
# PCOD9389526 Si02
#       4
#     8   8   2   2
#     4  11  23  43  75 111 154 202 271 331 388 483
#     4  10  21  44  74 108 152 209 260 310 420 463
#     4  10  16  40  76  98 144 218 252 308 388 494
#     4  10  24  40  80 110 150 212 244 328 408 482
#
# _framework density 26.882477999999999
#
# number of rings (size 3 to 8) (size 9 to 14) (size 15 to 20)
#    0.000    1.600    4.000    1.200    2.800    3.200 
#    0.000   12.000    0.000    0.000    0.000    0.000 
#    0.000    0.000    0.000    0.000    0.000    0.000 
#
# Total GULP energy -111655.184068 kJ/mol
# GULP energy per Si atom -5582.759203 kJ/mol
# Density = 2.682129 g / cm^3
# Si number density = 26.882478 Si / 1000 Ang^3
#
#
#
# Elastic Constant Matrix: (Units=GPa)
#
#
# Indices 1 2 3 4 5 6 
#
# 1 307.7194 115.6204 78.5704 0.0000 0.0000 0.0000
# 2 115.6204 145.2448 42.6027 0.0000 0.0000 0.0000
# 3 78.5704 42.6027 137.4948 0.0000 0.0000 0.0000
# 4 0.0000 0.0000 0.0000 4.0504 0.0000 0.0000
# 5 0.0000 0.0000 0.0000 0.0000 66.2757 0.0000
# 6 0.0000 0.0000 0.0000 0.0000 0.0000 111.6182
#
#
#
# Elastic Compliance Matrix: (Units=1/GPa)
#
#
# Indices 1 2 3 4 5 6 
#
# 1 0.005007 -0.003461 -0.001789 0.000000 0.000000 0.000000
# 2 -0.003461 0.009966 -0.001110 0.000000 0.000000 0.000000
# 3 -0.001789 -0.001110 0.008639 0.000000 0.000000 0.000000
# 4 0.000000 0.000000 0.000000 0.246891 0.000000 0.000000
# 5 0.000000 0.000000 0.000000 0.000000 0.015088 0.000000
# 6 0.000000 0.000000 0.000000 0.000000 0.000000 0.008959
#
#
# Mechanical properties :
#
#
# Convention : Reuss Voigt Hill
#
# Bulk Modulus (GPa) = 91.81083 118.22733 105.01908
# Shear Modulus (GPa) = 16.08234 59.96655 38.02444
#
# Velocity S-wave (km/s) = 2.44856 4.72814 3.76502
# Velocity P-wave (km/s) = 6.49775 8.59546 7.61914
#
# Compressibility (1/GPa) = 0.01089196
#
# Stress axis : x y z
#
# Youngs Moduli (GPa) = 199.72700 100.34524 115.75248
#
# Poissons Ratio (x) = 0.34729 0.20705
# Poissons Ratio (y) = 0.69125 0.12850
# Poissons Ratio (z) = 0.35726 0.11139
#
# Static dielectric constant tensor:
#      x y z
#    x 2.244860 0.000000 0.000000 
#    y 0.000000 2.249470 0.000000 
#    z 0.000000 0.000000 2.187220 
# 
# From -- ./inp_files/7913.got.cif
#   From: 2010.05.17/outbox.cif.g08.bks.cpg/sg48_4_cif.got.tgz:7913.got - 2010.06.03 20:39:00.
