data_PCOD9389164
_publ_section_title
;
Structure prediction by ZEFSAII (Michael W. Deem and Ramdas Pophale) SiO2 
 PCOD9389164
Probable space group: P M M M
;
_chemical_formula_sum "Si O2"
_cell_formula_units_Z 40
_cell_length_a 27.310508
_cell_length_b 9.284438
_cell_length_c 7.768756
_cell_angle_alpha 90.000000
_cell_angle_beta 90.000000
_cell_angle_gamma 90.000000
_cell_volume 1969.866889
_symmetry_space_group_name_H-M "P M M M"
_symmetry_group_IT_number 47
_symmetry_cell_setting 'orthorhombic'
loop_
_space_group_symop_operation_xyz
x,y,z
-x,-y,z
x,-y,-z
-x,y,-z
-x,-y,-z
x,y,-z
-x,y,z
x,-y,z
loop_
_atom_site_type_symbol
_atom_site_label
_atom_site_fract_x
_atom_site_fract_y
_atom_site_fract_z
Si Si1 0.000000 0.165962 0.289407
Si Si2 0.710113 0.335452 0.705257
Si Si3 0.902633 0.665809 0.289495
Si Si4 0.500000 0.335812 0.703608
Si Si5 0.194727 0.165508 0.289047
Si Si6 0.395534 0.664326 0.203820
O O1 0.048943 0.248818 0.234328
O O2 0.000000 0.166085 0.500000
O O3 0.000000 0.000000 0.234308
O O4 0.716075 0.345216 0.500000
O O5 0.711288 0.500000 0.774462
O O6 0.755374 0.241965 0.770483
O O7 0.656037 0.271839 0.736836
O O8 0.902736 0.665763 0.500000
O O9 0.903558 0.500000 0.234019
O O10 0.853109 0.745802 0.235052
O O11 0.500000 0.500000 0.780295
O O12 0.500000 0.347316 0.500000
O O13 0.448028 0.267376 0.753172
O O14 0.194980 0.165786 0.500000
O O15 0.192090 0.000000 0.234213
O O16 0.396812 0.500000 0.278210
O O17 0.392961 0.654686 0.000000
#
# Coordination Sequence:
#
# PCOD9389164 Si02
#       6
#     4   8   8   4   8   8
#     4   9  15  21  29  43  67 101 140 179 218 263
#     4   9  16  26  40  58  80 107 140 177 216 259
#     4   9  15  22  32  47  69  99 136 177 220 265
#     4   9  15  23  37  59  88 119 148 179 216 258
#     4   9  16  25  37  53  73  99 134 176 219 262
#     4   9  16  25  38  58  85 115 145 178 217 260
#
# _framework density 20.30594
#
# number of rings (size 3 to 8) (size 9 to 14) (size 15 to 20)
#    0.000    3.000    0.000    2.400    0.000    9.600 
#    0.000    0.000    0.000    0.600    0.000    0.700 
#    0.000    5.600    0.000    0.900    0.000   19.600 
#
# Total GULP energy -223000.210200 kJ/mol
# GULP energy per Si atom -5575.005255 kJ/mol
# Density = 2.025972 g / cm^3
# Si number density = 20.305940 Si / 1000 Ang^3
#
#
#
# Elastic Constant Matrix: (Units=GPa)
#
#
# Indices 1 2 3 4 5 6 
#
# 1 256.2674 107.0585 6.0138 0.0000 0.0000 0.0000
# 2 107.0585 121.2025 5.4876 0.0000 0.0000 0.0000
# 3 6.0138 5.4876 30.8385 0.0000 0.0000 0.0000
# 4 0.0000 0.0000 0.0000 -1.8795 0.0000 0.0000
# 5 0.0000 0.0000 0.0000 0.0000 -32.8390 0.0000
# 6 0.0000 0.0000 0.0000 0.0000 0.0000 -1.6989
#
#
#
# Elastic Compliance Matrix: (Units=1/GPa)
#
#
# Indices 1 2 3 4 5 6 
#
# 1 0.006186 -0.005453 -0.000236 0.000000 0.000000 0.000000
# 2 -0.005453 0.013125 -0.001272 0.000000 0.000000 0.000000
# 3 -0.000236 -0.001272 0.032699 0.000000 0.000000 0.000000
# 4 0.000000 0.000000 0.000000 -0.532051 0.000000 0.000000
# 5 0.000000 0.000000 0.000000 0.000000 -0.030452 0.000000
# 6 0.000000 0.000000 0.000000 0.000000 0.000000 -0.588625
#
#
# Mechanical properties :
#
#
# Convention : Reuss Voigt Hill
#
# Bulk Modulus (GPa) = 26.25520 71.71425 48.98473
# Shear Modulus (GPa) = -4.66201 12.03308 3.68554
#
# Velocity S-wave (km/s) = -1.51686 2.43696 1.34868
# Velocity P-wave (km/s) = 3.14485 6.58118 5.15761
#
# Compressibility (1/GPa) = 0.03808769
#
# Stress axis : x y z
#
# Youngs Moduli (GPa) = 161.65776 76.18922 30.58164
#
# Poissons Ratio (x) = 0.41549 0.00721
# Poissons Ratio (y) = 0.88158 0.03890
# Poissons Ratio (z) = 0.03813 0.09692
#
# Static dielectric constant tensor:
#      x y z
#    x 1.739670 0.000000 0.000000 
#    y 0.000000 1.691700 0.000000 
#    z 0.000000 0.000000 1.727170 
# 
# From -- ./inp_files/13003.got.cif
#   From: 2010.05.17/outbox.cif.g08.bks.cpg/sg47_7_cif.got.tgz:13003.got - 2010.06.03 20:15:42.
