data_PCOD9389699
_publ_section_title
;
Structure prediction by ZEFSAII (Michael W. Deem and Ramdas Pophale) SiO2 
 PCOD9389699
Probable space group: P N N N
;
_chemical_formula_sum "Si O2"
_cell_formula_units_Z 56
_cell_length_a 9.339165
_cell_length_b 12.987175
_cell_length_c 20.013535
_cell_angle_alpha 90.000000
_cell_angle_beta 90.000000
_cell_angle_gamma 90.000000
_cell_volume 2427.429056
_symmetry_space_group_name_H-M "P N N N"
_symmetry_group_IT_number 48
_space_group.IT_coordinate_system_code '2'
_symmetry_cell_setting 'orthorhombic'
loop_
_space_group_symop_operation_xyz
x,y,z
1/2-x,1/2-y,z
x,1/2-y,1/2-z
1/2-x,y,1/2-z
-x,-y,-z
1/2+x,1/2+y,-z
-x,1/2+y,1/2+z
1/2+x,-y,1/2+z
loop_
_atom_site_type_symbol
_atom_site_label
_atom_site_fract_x
_atom_site_fract_y
_atom_site_fract_z
Si Si1 0.490528 0.982415 0.102946
Si Si2 0.752701 0.419865 0.168493
Si Si3 0.099344 0.868538 0.268779
Si Si4 0.579951 0.348419 0.052923
Si Si5 0.559049 0.889263 0.355801
Si Si6 0.820137 0.007276 0.940838
Si Si7 0.096142 0.213360 0.535832
O O1 0.586981 0.067706 0.139802
O O2 0.438525 0.898700 0.157571
O O3 0.338867 0.024709 0.077621
O O4 0.574546 0.906547 0.052566
O O5 0.750000 0.408480 0.250000
O O6 0.652186 0.341192 0.125772
O O7 0.682553 0.526528 0.139944
O O8 0.115431 0.750000 0.250000
O O9 0.250000 0.920828 0.250000
O O10 0.964792 0.892682 0.222951
O O11 0.431486 0.413680 0.051837
O O12 0.680203 0.418584 0.005355
O O13 0.533585 0.246832 0.013057
O O14 0.406227 0.926000 0.385428
O O15 0.589655 0.785894 0.396846
O O16 0.250000 0.250000 0.507811
#
# Coordination Sequence:
#
# PCOD9389699 Si02
#       7
#     8   8   8   8   8   8   8
#     4  12  22  32  60  93 118 158 219 246 281 373
#     4  11  22  36  58  88 125 162 200 249 305 368
#     4  11  20  28  45  81 128 164 192 232 290 357
#     4   9  22  42  57  77 128 167 191 254 322 354
#     4  10  18  33  50  75 122 167 191 231 298 349
#     4   9  20  37  57  78 118 161 204 241 292 363
#     4  11  22  37  58  86 122 167 207 247 303 367
#
# _framework density 23.069676000000001
#
# number of rings (size 3 to 8) (size 9 to 14) (size 15 to 20)
#    0.000    1.571    5.714    0.857    0.000    2.857 
#    0.000    2.143    0.000    0.000    0.000    2.000 
#    4.286    0.000    0.000    0.000    0.000    0.000 
#
# Total GULP energy -312195.032449 kJ/mol
# GULP energy per Si atom -5574.911294 kJ/mol
# Density = 2.301717 g / cm^3
# Si number density = 23.069676 Si / 1000 Ang^3
#
#
#
# Elastic Constant Matrix: (Units=GPa)
#
#
# Indices 1 2 3 4 5 6 
#
# 1 132.5394 17.7348 42.6668 0.0000 0.0000 0.0000
# 2 17.7348 31.2650 11.2932 0.0000 0.0000 0.0000
# 3 42.6668 11.2932 120.7418 0.0000 0.0000 0.0000
# 4 0.0000 0.0000 0.0000 9.6633 0.0000 0.0000
# 5 0.0000 0.0000 0.0000 0.0000 43.8230 0.0000
# 6 0.0000 0.0000 0.0000 0.0000 0.0000 33.1815
#
#
#
# Elastic Compliance Matrix: (Units=1/GPa)
#
#
# Indices 1 2 3 4 5 6 
#
# 1 0.008992 -0.004091 -0.002795 0.000000 0.000000 0.000000
# 2 -0.004091 0.034964 -0.001825 0.000000 0.000000 0.000000
# 3 -0.002795 -0.001825 0.009440 0.000000 0.000000 0.000000
# 4 0.000000 0.000000 0.000000 0.103485 0.000000 0.000000
# 5 0.000000 0.000000 0.000000 0.000000 0.022819 0.000000
# 6 0.000000 0.000000 0.000000 0.000000 0.000000 0.030137
#
#
# Mechanical properties :
#
#
# Convention : Reuss Voigt Hill
#
# Bulk Modulus (GPa) = 27.79656 47.54839 37.67248
# Shear Modulus (GPa) = 20.89856 31.52367 26.21111
#
# Velocity S-wave (km/s) = 3.01306 3.70057 3.37437
# Velocity P-wave (km/s) = 4.91730 6.23815 5.61669
#
# Compressibility (1/GPa) = 0.03597567
#
# Stress axis : x y z
#
# Youngs Moduli (GPa) = 111.20905 28.60054 105.92738
#
# Poissons Ratio (x) = 0.11701 0.29606
# Poissons Ratio (y) = 0.45497 0.19327
# Poissons Ratio (z) = 0.31082 0.05218
#
# Static dielectric constant tensor:
#      x y z
#    x 1.985980 0.000000 0.000000 
#    y 0.000000 1.867650 0.000000 
#    z 0.000000 0.000000 1.992590 
# 
# From -- ./inp_files/33660.got.cif
#   From: 2010.05.17/outbox.cif.g08.bks.cpg/sg48_17_cif.got.tgz:33660.got - 2010.06.03 20:39:00.
