data_PCOD9389973
_publ_section_title
;
Structure prediction by ZEFSAII (Michael W. Deem and Ramdas Pophale) SiO2 
 PCOD9389973
Probable space group: P N N N
;
_chemical_formula_sum "Si O2"
_cell_formula_units_Z 48
_cell_length_a 16.729380
_cell_length_b 5.349138
_cell_length_c 25.797254
_cell_angle_alpha 90.000000
_cell_angle_beta 90.000000
_cell_angle_gamma 90.000000
_cell_volume 2308.538533
_symmetry_space_group_name_H-M "P N N N"
_symmetry_group_IT_number 48
_space_group.IT_coordinate_system_code '2'
_symmetry_cell_setting 'orthorhombic'
loop_
_space_group_symop_operation_xyz
x,y,z
1/2-x,1/2-y,z
x,1/2-y,1/2-z
1/2-x,y,1/2-z
-x,-y,-z
1/2+x,1/2+y,-z
-x,1/2+y,1/2+z
1/2+x,-y,1/2+z
loop_
_atom_site_type_symbol
_atom_site_label
_atom_site_fract_x
_atom_site_fract_y
_atom_site_fract_z
Si Si1 0.024479 0.506135 0.602746
Si Si2 0.565001 0.726441 0.812558
Si Si3 0.345283 0.762687 0.189349
Si Si4 0.044510 0.499844 0.054245
Si Si5 0.204305 0.000205 0.940568
Si Si6 0.269460 0.500252 0.443916
O O1 0.113846 0.505371 0.579266
O O2 0.016985 0.619246 0.661370
O O3 0.973511 0.724710 0.575729
O O4 0.988587 0.232749 0.588562
O O5 0.557773 0.750000 0.750000
O O6 0.621871 0.499781 0.830930
O O7 0.608671 0.986556 0.830123
O O8 0.250000 0.750000 0.189292
O O9 0.368217 0.750000 0.250000
O O10 0.138074 0.518793 0.043046
O O11 0.000000 0.500000 0.000000
O O12 0.250000 0.750000 0.923494
O O13 0.250000 0.250000 0.922588
O O14 0.215355 0.004057 0.003616
O O15 0.250000 0.750000 0.414137
O O16 0.250000 0.250000 0.414372
#
# Coordination Sequence:
#
# PCOD9389973 Si02
#       6
#     8   8   8   8   8   8
#     4  12  24  40  62  91 120 159 209 253 309 376
#     4  10  21  38  60  89 123 160 204 256 310 363
#     4   9  17  33  59  85 114 156 201 245 301 366
#     4  12  23  38  60  87 120 156 201 255 304 361
#     4  10  20  37  59  83 111 150 198 242 295 364
#     4  10  19  35  54  77 112 156 193 233 293 351
#
# _framework density 20.792376000000001
#
# number of rings (size 3 to 8) (size 9 to 14) (size 15 to 20)
#    0.000    1.500    0.000    8.000    0.000    2.000 
#    0.000    8.333    0.000    0.500    0.000    1.167 
#    0.000    0.000    0.000    0.000    0.000    0.000 
#
# Total GULP energy -267720.608363 kJ/mol
# GULP energy per Si atom -5577.512674 kJ/mol
# Density = 2.074505 g / cm^3
# Si number density = 20.792376 Si / 1000 Ang^3
#
#
#
# Elastic Constant Matrix: (Units=GPa)
#
#
# Indices 1 2 3 4 5 6 
#
# 1 112.1626 63.6249 30.5344 0.0000 0.0000 0.0000
# 2 63.6249 202.5815 35.1332 0.0000 0.0000 0.0000
# 3 30.5344 35.1332 67.7731 0.0000 0.0000 0.0000
# 4 0.0000 0.0000 0.0000 23.5650 0.0000 0.0000
# 5 0.0000 0.0000 0.0000 0.0000 22.4649 0.0000
# 6 0.0000 0.0000 0.0000 0.0000 0.0000 39.5957
#
#
#
# Elastic Compliance Matrix: (Units=1/GPa)
#
#
# Indices 1 2 3 4 5 6 
#
# 1 0.011626 -0.003014 -0.003676 0.000000 0.000000 0.000000
# 2 -0.003014 0.006205 -0.001859 0.000000 0.000000 0.000000
# 3 -0.003676 -0.001859 0.017375 0.000000 0.000000 0.000000
# 4 0.000000 0.000000 0.000000 0.042436 0.000000 0.000000
# 5 0.000000 0.000000 0.000000 0.000000 0.044514 0.000000
# 6 0.000000 0.000000 0.000000 0.000000 0.000000 0.025255
#
#
# Mechanical properties :
#
#
# Convention : Reuss Voigt Hill
#
# Bulk Modulus (GPa) = 55.22045 71.23357 63.22701
# Shear Modulus (GPa) = 29.31795 34.00675 31.66235
#
# Velocity S-wave (km/s) = 3.75912 4.04857 3.90652
# Velocity P-wave (km/s) = 6.74218 7.49589 7.12900
#
# Compressibility (1/GPa) = 0.01810923
#
# Stress axis : x y z
#
# Youngs Moduli (GPa) = 86.01496 161.15391 57.55488
#
# Poissons Ratio (x) = 0.48570 0.21154
# Poissons Ratio (y) = 0.25924 0.10699
# Poissons Ratio (z) = 0.31615 0.29957
#
# Static dielectric constant tensor:
#      x y z
#    x 1.736800 0.000000 0.000000 
#    y 0.000000 1.852630 0.000000 
#    z 0.000000 0.000000 1.877910 
# 
# From -- ./inp_files/37881.got.cif
#   From: 2010.05.17/outbox.cif.g08.bks.cpg/sg48_19_cif.got.tgz:37881.got - 2010.06.03 20:39:00.
