data_PCOD9389263
_publ_section_title
;
Structure prediction by ZEFSAII (Michael W. Deem and Ramdas Pophale) SiO2 
 PCOD9389263
Probable space group: P M M M
;
_chemical_formula_sum "Si O2"
_cell_formula_units_Z 52
_cell_length_a 9.000000
_cell_length_b 12.000000
_cell_length_c 27.000000
_cell_angle_alpha 90.000000
_cell_angle_beta 90.000000
_cell_angle_gamma 90.000000
_cell_volume 2916.000000
_symmetry_space_group_name_H-M "P M M M"
_symmetry_group_IT_number 47
_symmetry_cell_setting 'orthorhombic'
loop_
_space_group_symop_operation_xyz
x,y,z
-x,-y,z
x,-y,-z
-x,y,-z
-x,-y,-z
x,y,-z
-x,y,z
x,-y,z
loop_
_atom_site_type_symbol
_atom_site_label
_atom_site_fract_x
_atom_site_fract_y
_atom_site_fract_z
Si Si1 0.176102 0.682693 0.943158
Si Si2 0.824058 0.713786 0.700448
Si Si3 0.323821 0.500000 0.125291
Si Si4 0.674950 0.132947 0.112095
Si Si5 0.671471 0.133616 0.776095
Si Si6 0.828897 0.635360 0.500000
Si Si7 0.176948 0.500000 0.232149
Si Si8 0.677278 0.631565 0.602445
O O1 0.262141 0.604755 0.905095
O O2 0.225501 0.806186 0.928049
O O3 0.000000 0.667227 0.937562
O O4 0.215241 0.657519 0.000000
O O5 0.771011 0.817397 0.732947
O O6 0.787660 0.607443 0.734862
O O7 0.741346 0.698993 0.648601
O O8 0.000000 0.715310 0.691904
O O9 0.500000 0.500000 0.125971
O O10 0.262306 0.500000 0.180743
O O11 0.500000 0.160287 0.105531
O O12 0.718001 0.168230 0.168239
O O13 0.688488 0.000000 0.109216
O O14 0.500000 0.169848 0.769221
O O15 0.673523 0.000000 0.775446
O O16 0.826221 0.500000 0.500000
O O17 0.747003 0.669243 0.550357
O O18 0.000000 0.671071 0.500000
O O19 0.000000 0.500000 0.222100
O O20 0.500000 0.639373 0.600312
O O21 0.716397 0.500000 0.609558
#
# Coordination Sequence:
#
# PCOD9389263 Si02
#       8
#     8   8   4   8   8   4   4   8
#     4  11  24  40  57  78 106 138 172 212 260 314
#     4  11  21  33  51  77 109 141 176 217 262 311
#     4  12  25  39  58  79 101 135 178 219 260 311
#     4   9  19  37  60  84 108 135 170 214 262 313
#     4   9  19  36  55  76 104 137 174 215 260 310
#     4   9  17  29  47  69 100 141 180 221 267 312
#     4  10  22  37  53  77 111 143 170 209 263 319
#     4  10  19  31  48  72 104 142 183 221 261 311
#
# _framework density 17.832647000000001
#
# number of rings (size 3 to 8) (size 9 to 14) (size 15 to 20)
#    0.000    1.923    0.769    4.385    0.000    8.923 
#    0.000    3.077    0.000    0.000    0.000    0.538 
#    0.000    4.308    0.000    0.000    0.000    0.000 
#
# Total GULP energy -290332.711457 kJ/mol
# GULP energy per Si atom -5583.321374 kJ/mol
# Density = 1.779206 g / cm^3
# Si number density = 17.832647 Si / 1000 Ang^3
#
#
#
# Elastic Constant Matrix: (Units=GPa)
#
#
# Indices 1 2 3 4 5 6 
#
# 1 49.6350 17.5001 62.4771 0.0000 0.0000 0.0000
# 2 17.5001 28.6725 22.1287 0.0000 0.0000 0.0000
# 3 62.4771 22.1287 120.4511 0.0000 0.0000 0.0000
# 4 0.0000 0.0000 0.0000 -4.8406 0.0000 0.0000
# 5 0.0000 0.0000 0.0000 0.0000 26.7194 0.0000
# 6 0.0000 0.0000 0.0000 0.0000 0.0000 17.9050
#
#
#
# Elastic Compliance Matrix: (Units=1/GPa)
#
#
# Indices 1 2 3 4 5 6 
#
# 1 0.063473 -0.015534 -0.030069 0.000000 0.000000 0.000000
# 2 -0.015534 0.044440 -0.000107 0.000000 0.000000 0.000000
# 3 -0.030069 -0.000107 0.023918 0.000000 0.000000 0.000000
# 4 0.000000 0.000000 0.000000 -0.206586 0.000000 0.000000
# 5 0.000000 0.000000 0.000000 0.000000 0.037426 0.000000
# 6 0.000000 0.000000 0.000000 0.000000 0.000000 0.055850
#
#
# Mechanical properties :
#
#
# Convention : Reuss Voigt Hill
#
# Bulk Modulus (GPa) = 24.74543 44.77452 34.75997
# Shear Modulus (GPa) = 40.51456 14.40027 27.45742
#
# Velocity S-wave (km/s) = 4.77165 2.84478 3.92819
# Velocity P-wave (km/s) = 6.65318 5.99608 6.33316
#
# Compressibility (1/GPa) = 0.04041150
#
# Stress axis : x y z
#
# Youngs Moduli (GPa) = 15.75476 22.50216 41.80870
#
# Poissons Ratio (x) = 0.34954 1.25715
# Poissons Ratio (y) = 0.24473 0.00448
# Poissons Ratio (z) = 0.47373 0.00241
#
# Static dielectric constant tensor:
#      x y z
#    x 1.593310 0.000000 0.000000 
#    y 0.000000 1.646600 0.000000 
#    z 0.000000 0.000000 1.581600 
# 
# From -- ./inp_files/33278.got.cif
#   From: 2010.05.17/outbox.ucp.g08.bks.cvg/sg47_17_cif.got.tgz:33278.got - 2010.06.11 16:36:43.
