data_PCOD9389857
_publ_section_title
;
Structure prediction by ZEFSAII (Michael W. Deem and Ramdas Pophale) SiO2 
 PCOD9389857
Probable space group: P N N N
;
_chemical_formula_sum "Si O2"
_cell_formula_units_Z 48
_cell_length_a 24.012220
_cell_length_b 22.345332
_cell_length_c 5.134764
_cell_angle_alpha 90.000000
_cell_angle_beta 90.000000
_cell_angle_gamma 90.000000
_cell_volume 2755.114250
_symmetry_space_group_name_H-M "P N N N"
_symmetry_group_IT_number 48
_space_group.IT_coordinate_system_code '2'
_symmetry_cell_setting 'orthorhombic'
loop_
_space_group_symop_operation_xyz
x,y,z
1/2-x,1/2-y,z
x,1/2-y,1/2-z
1/2-x,y,1/2-z
-x,-y,-z
1/2+x,1/2+y,-z
-x,1/2+y,1/2+z
1/2+x,-y,1/2+z
loop_
_atom_site_type_symbol
_atom_site_label
_atom_site_fract_x
_atom_site_fract_y
_atom_site_fract_z
Si Si1 0.326041 0.710585 0.010595
Si Si2 0.515327 0.553724 0.696121
Si Si3 0.713965 0.423839 0.006678
Si Si4 0.494647 0.184995 0.249723
Si Si5 0.087876 0.541434 0.420691
Si Si6 0.560422 0.163723 0.760817
O O1 0.305118 0.750000 0.250000
O O2 0.294690 0.647958 0.972358
O O3 0.386969 0.690973 0.112185
O O4 0.326046 0.750000 0.750000
O O5 0.500000 0.500000 0.500000
O O6 0.530264 0.622689 0.635794
O O7 0.568409 0.524354 0.839617
O O8 0.458681 0.558103 0.864963
O O9 0.750000 0.436080 0.750000
O O10 0.651928 0.451735 0.998923
O O11 0.750000 0.444810 0.250000
O O12 0.465727 0.250000 0.250000
O O13 0.511367 0.172760 0.549878
O O14 0.545748 0.191499 0.040551
O O15 0.076036 0.593623 0.207009
#
# Coordination Sequence:
#
# PCOD9389857 Si02
#       6
#     8   8   8   8   8   8
#     4  11  21  33  50  69  96 138 190 234 269 307
#     4  10  19  35  58  79 108 144 181 222 273 329
#     4  11  25  39  54  74 104 142 182 235 280 315
#     4  11  20  30  48  76 109 138 171 216 267 324
#     4   9  21  36  55  79 103 142 187 223 269 329
#     4  10  19  32  48  71 102 139 180 222 265 308
#
# _framework density 17.422146000000001
#
# number of rings (size 3 to 8) (size 9 to 14) (size 15 to 20)
#    0.000    1.667    1.667    4.000    2.333    4.667 
#    0.000    0.000    0.000    0.000    0.000    0.000 
#    0.000    0.667    1.000    0.000    0.000    0.000 
#
# Total GULP energy -267305.039548 kJ/mol
# GULP energy per Si atom -5568.854991 kJ/mol
# Density = 1.738249 g / cm^3
# Si number density = 17.422146 Si / 1000 Ang^3
#
#
#
# Elastic Constant Matrix: (Units=GPa)
#
#
# Indices 1 2 3 4 5 6 
#
# 1 86.7366 40.3340 30.3412 0.0000 0.0000 0.0000
# 2 40.3340 130.3135 24.1965 0.0000 0.0000 0.0000
# 3 30.3412 24.1965 91.4183 0.0000 0.0000 0.0000
# 4 0.0000 0.0000 0.0000 18.8364 0.0000 0.0000
# 5 0.0000 0.0000 0.0000 0.0000 20.9700 0.0000
# 6 0.0000 0.0000 0.0000 0.0000 0.0000 47.0783
#
#
#
# Elastic Compliance Matrix: (Units=1/GPa)
#
#
# Indices 1 2 3 4 5 6 
#
# 1 0.014653 -0.003820 -0.003852 0.000000 0.000000 0.000000
# 2 -0.003820 0.009066 -0.001132 0.000000 0.000000 0.000000
# 3 -0.003852 -0.001132 0.012517 0.000000 0.000000 0.000000
# 4 0.000000 0.000000 0.000000 0.053089 0.000000 0.000000
# 5 0.000000 0.000000 0.000000 0.000000 0.047687 0.000000
# 6 0.000000 0.000000 0.000000 0.000000 0.000000 0.021241
#
#
# Mechanical properties :
#
#
# Convention : Reuss Voigt Hill
#
# Bulk Modulus (GPa) = 53.68234 55.35685 54.51960
# Shear Modulus (GPa) = 27.46184 31.61671 29.53928
#
# Velocity S-wave (km/s) = 3.97452 4.26460 4.12211
# Velocity P-wave (km/s) = 7.20708 7.48945 7.34962
#
# Compressibility (1/GPa) = 0.01862810
#
# Stress axis : x y z
#
# Youngs Moduli (GPa) = 68.24501 110.29825 79.89259
#
# Poissons Ratio (x) = 0.42135 0.30776
# Poissons Ratio (y) = 0.26070 0.09042
# Poissons Ratio (z) = 0.26289 0.12484
#
# Static dielectric constant tensor:
#      x y z
#    x 1.603130 0.000000 0.000000 
#    y 0.000000 1.695860 0.000000 
#    z 0.000000 0.000000 1.669180 
# 
# From -- ./inp_files/5316.got.cif
#   From: 2010.05.17/outbox.cif.g08.bks.cpg/sg48_3_cif.got.tgz:5316.got - 2010.06.03 20:39:00.
