data_PCOD9389004
_publ_section_title
;
Structure prediction by ZEFSAII (Michael W. Deem and Ramdas Pophale) SiO2 
 PCOD9389004
Probable space group: P M M M
;
_chemical_formula_sum "Si O2"
_cell_formula_units_Z 44
_cell_length_a 9.833697
_cell_length_b 29.330121
_cell_length_c 7.543992
_cell_angle_alpha 90.000000
_cell_angle_beta 90.000000
_cell_angle_gamma 90.000000
_cell_volume 2175.864749
_symmetry_space_group_name_H-M "P M M M"
_symmetry_group_IT_number 47
_symmetry_cell_setting 'orthorhombic'
loop_
_space_group_symop_operation_xyz
x,y,z
-x,-y,z
x,-y,-z
-x,y,-z
-x,-y,-z
x,y,-z
-x,y,z
x,-y,z
loop_
_atom_site_type_symbol
_atom_site_label
_atom_site_fract_x
_atom_site_fract_y
_atom_site_fract_z
Si Si1 0.343641 0.865232 0.282783
Si Si2 0.345373 0.599330 0.789263
Si Si3 0.844810 0.051878 0.716053
Si Si4 0.844898 0.782637 0.712236
Si Si5 0.345060 0.500000 0.710533
Si Si6 0.845496 0.320449 0.212880
O O1 0.344311 0.865114 0.500000
O O2 0.500000 0.864504 0.225500
O O3 0.262654 0.910466 0.226002
O O4 0.258123 0.821152 0.223274
O O5 0.500000 0.599828 0.716666
O O6 0.284622 0.548696 0.763064
O O7 0.252853 0.640052 0.717988
O O8 0.355720 0.605995 0.000000
O O9 0.844039 0.051999 0.500000
O O10 0.000000 0.063153 0.769359
O O11 0.814642 0.000000 0.771938
O O12 0.852098 0.787750 0.500000
O O13 0.798940 0.731041 0.749301
O O14 0.000000 0.787928 0.780755
O O15 0.500000 0.500000 0.785274
O O16 0.352520 0.500000 0.500000
O O17 0.000000 0.324858 0.281064
O O18 0.851370 0.325040 0.000000
#
# Coordination Sequence:
#
# PCOD9389004 Si02
#       6
#     8   8   8   8   4   8
#     4   9  16  24  35  54  80 108 139 177 218 257
#     4   9  17  30  48  67  87 114 146 177 211 253
#     4   8  13  21  33  49  72 106 145 179 212 255
#     4   9  17  29  44  60  81 112 144 172 209 259
#     4   9  17  29  46  69  94 118 146 179 212 248
#     4   9  18  32  48  66  88 113 143 180 218 254
#
# _framework density 20.221845999999999
#
# number of rings (size 3 to 8) (size 9 to 14) (size 15 to 20)
#    0.000    3.182    0.000    1.364    0.000    5.091 
#    0.000    2.273    0.000    2.727    0.000    0.000 
#    0.000    0.727    0.000    8.364    0.000   10.727 
#
# Total GULP energy -245346.540390 kJ/mol
# GULP energy per Si atom -5576.057736 kJ/mol
# Density = 2.017582 g / cm^3
# Si number density = 20.221846 Si / 1000 Ang^3
#
#
#
# Elastic Constant Matrix: (Units=GPa)
#
#
# Indices 1 2 3 4 5 6 
#
# 1 121.1104 133.5850 5.0277 0.0000 0.0000 0.0000
# 2 133.5850 214.6612 -0.8962 0.0000 0.0000 0.0000
# 3 5.0277 -0.8962 49.1235 0.0000 0.0000 0.0000
# 4 0.0000 0.0000 0.0000 21.8154 0.0000 0.0000
# 5 0.0000 0.0000 0.0000 0.0000 -0.5238 0.0000
# 6 0.0000 0.0000 0.0000 0.0000 0.0000 28.2696
#
#
#
# Elastic Compliance Matrix: (Units=1/GPa)
#
#
# Indices 1 2 3 4 5 6 
#
# 1 0.026778 -0.016677 -0.003045 0.000000 0.000000 0.000000
# 2 -0.016677 0.015045 0.001981 0.000000 0.000000 0.000000
# 3 -0.003045 0.001981 0.020705 0.000000 0.000000 0.000000
# 4 0.000000 0.000000 0.000000 0.045839 0.000000 0.000000
# 5 0.000000 0.000000 0.000000 0.000000 -1.909231 0.000000
# 6 0.000000 0.000000 0.000000 0.000000 0.000000 0.035374
#
#
# Mechanical properties :
#
#
# Convention : Reuss Voigt Hill
#
# Bulk Modulus (GPa) = 36.97321 73.36978 55.17150
# Shear Modulus (GPa) = -2.90530 26.39082 11.74276
#
# Velocity S-wave (km/s) = -1.19993 3.61649 2.41238
# Velocity P-wave (km/s) = 4.05015 7.33484 5.92468
#
# Compressibility (1/GPa) = 0.02704661
#
# Stress axis : x y z
#
# Youngs Moduli (GPa) = 37.34454 66.46843 48.29838
#
# Poissons Ratio (x) = 1.10847 0.14706
# Poissons Ratio (y) = 0.62278 -0.09569
# Poissons Ratio (z) = 0.11371 -0.13169
#
# Static dielectric constant tensor:
#      x y z
#    x 1.705090 0.000000 0.000000 
#    y 0.000000 1.707420 0.000000 
#    z 0.000000 0.000000 1.764550 
# 
# From -- ./inp_files/2032.got.cif
#   From: 2010.05.17/outbox.cif.g08.bks.cpg/sg47_2_cif.got.tgz:2032.got - 2010.06.03 20:15:42.
