data_PCOD9389273
_publ_section_title
;
Structure prediction by ZEFSAII (Michael W. Deem and Ramdas Pophale) SiO2 
 PCOD9389273
Probable space group: P M M M
;
_chemical_formula_sum "Si O2"
_cell_formula_units_Z 56
_cell_length_a 9.000000
_cell_length_b 15.000000
_cell_length_c 21.000000
_cell_angle_alpha 90.000000
_cell_angle_beta 90.000000
_cell_angle_gamma 90.000000
_cell_volume 2835.000000
_symmetry_space_group_name_H-M "P M M M"
_symmetry_group_IT_number 47
_symmetry_cell_setting 'orthorhombic'
loop_
_space_group_symop_operation_xyz
x,y,z
-x,-y,z
x,-y,-z
-x,y,-z
-x,-y,-z
x,y,-z
-x,y,z
x,-y,z
loop_
_atom_site_type_symbol
_atom_site_label
_atom_site_fract_x
_atom_site_fract_y
_atom_site_fract_z
Si Si1 0.822904 0.599917 0.375280
Si Si2 0.825419 0.898486 0.709635
Si Si3 0.681420 0.398712 0.000000
Si Si4 0.323723 0.217833 0.609353
Si Si5 0.678741 0.281521 0.119222
Si Si6 0.174969 0.901533 0.862755
Si Si7 0.675059 0.601413 0.237966
Si Si8 0.825905 0.894020 0.500000
O O1 0.782555 0.500000 0.398649
O O2 0.742075 0.684644 0.405356
O O3 0.771725 0.604053 0.301548
O O4 0.000000 0.609609 0.380558
O O5 0.729955 0.821409 0.677163
O O6 0.811660 0.896577 0.785849
O O7 0.000000 0.885830 0.693407
O O8 0.784113 0.000000 0.689105
O O9 0.728381 0.345529 0.062447
O O10 0.733258 0.500000 0.000000
O O11 0.500000 0.400334 0.000000
O O12 0.500000 0.220287 0.606005
O O13 0.253809 0.148207 0.560469
O O14 0.500000 0.279099 0.119478
O O15 0.740093 0.182841 0.110452
O O16 0.723738 0.326984 0.185906
O O17 0.000000 0.895498 0.877559
O O18 0.228263 0.000000 0.882615
O O19 0.500000 0.616397 0.254203
O O20 0.683845 0.500000 0.211503
O O21 0.000000 0.870480 0.500000
O O22 0.813416 0.000000 0.500000
#
# Coordination Sequence:
#
# PCOD9389273 Si02
#       8
#     8   8   4   8   8   8   8   4
#     4  10  21  37  57  81 110 146 186 224 265 320
#     4   9  18  34  56  81 110 145 182 218 262 321
#     4   9  18  34  54  75 102 136 173 213 260 319
#     4  12  24  37  57  85 116 147 180 224 274 319
#     4  10  19  31  51  77 102 135 178 220 264 314
#     4   9  19  35  53  74 103 139 176 216 265 318
#     4   9  17  30  50  79 112 140 170 215 271 325
#     4  11  25  45  66  85 110 147 187 224 262 311
#
# _framework density 19.753086
#
# number of rings (size 3 to 8) (size 9 to 14) (size 15 to 20)
#    0.000    2.143    0.000    4.500    0.000    8.857 
#    0.000    2.500    0.000    6.000    0.000    0.000 
#    0.000    0.000    0.000    0.000    0.000    0.000 
#
# Total GULP energy -312699.233788 kJ/mol
# GULP energy per Si atom -5583.914889 kJ/mol
# Density = 1.970813 g / cm^3
# Si number density = 19.753086 Si / 1000 Ang^3
#
#
#
# Elastic Constant Matrix: (Units=GPa)
#
#
# Indices 1 2 3 4 5 6 
#
# 1 65.3370 51.8463 9.9799 0.0000 0.0000 0.0000
# 2 51.8463 136.4579 15.7526 0.0000 0.0000 0.0000
# 3 9.9799 15.7526 18.9823 0.0000 0.0000 0.0000
# 4 0.0000 0.0000 0.0000 22.6330 0.0000 0.0000
# 5 0.0000 0.0000 0.0000 0.0000 12.8027 0.0000
# 6 0.0000 0.0000 0.0000 0.0000 0.0000 31.0738
#
#
#
# Elastic Compliance Matrix: (Units=1/GPa)
#
#
# Indices 1 2 3 4 5 6 
#
# 1 0.022367 -0.007897 -0.005206 0.000000 0.000000 0.000000
# 2 -0.007897 0.010893 -0.004888 0.000000 0.000000 0.000000
# 3 -0.005206 -0.004888 0.059474 0.000000 0.000000 0.000000
# 4 0.000000 0.000000 0.000000 0.044183 0.000000 0.000000
# 5 0.000000 0.000000 0.000000 0.000000 0.078108 0.000000
# 6 0.000000 0.000000 0.000000 0.000000 0.000000 0.032181
#
#
# Mechanical properties :
#
#
# Convention : Reuss Voigt Hill
#
# Bulk Modulus (GPa) = 17.62049 41.77056 29.69553
# Shear Modulus (GPa) = 16.55049 22.84846 19.69948
#
# Velocity S-wave (km/s) = 2.89774 3.40472 3.16141
# Velocity P-wave (km/s) = 4.48727 6.05380 5.32842
#
# Compressibility (1/GPa) = 0.05675210
#
# Stress axis : x y z
#
# Youngs Moduli (GPa) = 44.70857 91.80197 16.81419
#
# Poissons Ratio (x) = 0.72498 0.08753
# Poissons Ratio (y) = 0.35308 0.08218
# Poissons Ratio (z) = 0.23275 0.44870
#
# Static dielectric constant tensor:
#      x y z
#    x 1.656980 0.000000 0.000000 
#    y 0.000000 1.708540 0.000000 
#    z 0.000000 0.000000 1.829830 
# 
# From -- ./inp_files/11342.got.cif
#   From: 2010.05.17/outbox.ucp.g08.bks.cvg/sg47_6_cif.got.tgz:11342.got - 2010.06.11 16:36:43.
