data_PCOD9389905
_publ_section_title
;
Structure prediction by ZEFSAII (Michael W. Deem and Ramdas Pophale) SiO2 
 PCOD9389905
Probable space group: P N N N
;
_chemical_formula_sum "Si O2"
_cell_formula_units_Z 32
_cell_length_a 5.442728
_cell_length_b 15.803389
_cell_length_c 17.395025
_cell_angle_alpha 90.000000
_cell_angle_beta 90.000000
_cell_angle_gamma 90.000000
_cell_volume 1496.207814
_symmetry_space_group_name_H-M "P N N N"
_symmetry_group_IT_number 48
_space_group.IT_coordinate_system_code '2'
_symmetry_cell_setting 'orthorhombic'
loop_
_space_group_symop_operation_xyz
x,y,z
1/2-x,1/2-y,z
x,1/2-y,1/2-z
1/2-x,y,1/2-z
-x,-y,-z
1/2+x,1/2+y,-z
-x,1/2+y,1/2+z
1/2+x,-y,1/2+z
loop_
_atom_site_type_symbol
_atom_site_label
_atom_site_fract_x
_atom_site_fract_y
_atom_site_fract_z
Si Si1 0.491427 0.599540 0.521998
Si Si2 0.245119 0.153998 0.158452
Si Si3 0.493770 0.092430 0.541821
Si Si4 0.497535 0.004582 0.699316
O O1 0.500000 0.500000 0.500000
O O2 0.531114 0.610441 0.613000
O O3 0.242275 0.635799 0.487594
O O4 0.741998 0.635038 0.485030
O O5 0.250000 0.250000 0.129429
O O6 0.250000 0.162072 0.250000
O O7 0.026972 0.085201 0.153298
O O8 0.493636 0.074440 0.632466
O O9 0.500000 0.000000 0.500000
O O10 0.750000 0.013480 0.750000
O O11 0.250000 0.006300 0.750000
#
# Coordination Sequence:
#
# PCOD9389905 Si02
#       4
#     8   8   8   8
#     4  10  19  35  56  75 103 151 194 240 273 322
#     4  10  22  37  53  81 122 161 191 227 288 360
#     4  10  19  33  55  77 101 144 190 243 278 315
#     4  11  22  35  56  80 114 150 190 231 287 347
#
# _framework density 21.387405000000001
#
# number of rings (size 3 to 8) (size 9 to 14) (size 15 to 20)
#    0.000    1.750    5.000    1.500   10.500    0.000 
#    0.000   18.750    0.000    0.000    0.000    0.000 
#    0.000   17.000    0.500    0.000    0.000    0.000 
#
# Total GULP energy -178151.174625 kJ/mol
# GULP energy per Si atom -5567.224207 kJ/mol
# Density = 2.133873 g / cm^3
# Si number density = 21.387405 Si / 1000 Ang^3
#
#
#
# Elastic Constant Matrix: (Units=GPa)
#
#
# Indices 1 2 3 4 5 6 
#
# 1 236.2664 12.4441 80.5070 0.0000 0.0000 0.0000
# 2 12.4441 38.4671 39.3662 0.0000 0.0000 0.0000
# 3 80.5070 39.3662 142.3836 0.0000 0.0000 0.0000
# 4 0.0000 0.0000 0.0000 23.4933 0.0000 0.0000
# 5 0.0000 0.0000 0.0000 0.0000 48.9255 0.0000
# 6 0.0000 0.0000 0.0000 0.0000 0.0000 41.7298
#
#
#
# Elastic Compliance Matrix: (Units=1/GPa)
#
#
# Indices 1 2 3 4 5 6 
#
# 1 0.005340 0.001900 -0.003545 0.000000 0.000000 0.000000
# 2 0.001900 0.036930 -0.011285 0.000000 0.000000 0.000000
# 3 -0.003545 -0.011285 0.012148 0.000000 0.000000 0.000000
# 4 0.000000 0.000000 0.000000 0.042565 0.000000 0.000000
# 5 0.000000 0.000000 0.000000 0.000000 0.020439 0.000000
# 6 0.000000 0.000000 0.000000 0.000000 0.000000 0.023964
#
#
# Mechanical properties :
#
#
# Convention : Reuss Voigt Hill
#
# Bulk Modulus (GPa) = 35.01522 75.75019 55.38270
# Shear Modulus (GPa) = 28.28609 41.81638 35.05123
#
# Velocity S-wave (km/s) = 3.64064 4.42655 4.05269
# Velocity P-wave (km/s) = 5.83779 7.84989 6.91739
#
# Compressibility (1/GPa) = 0.02855901
#
# Stress axis : x y z
#
# Youngs Moduli (GPa) = 187.25375 27.07814 82.32019
#
# Poissons Ratio (x) = -0.05145 0.29182
# Poissons Ratio (y) = -0.35581 0.92897
# Poissons Ratio (z) = 0.66380 0.30557
#
# Static dielectric constant tensor:
#      x y z
#    x 1.902660 0.000000 0.000000 
#    y 0.000000 1.826060 0.000000 
#    z 0.000000 0.000000 1.832180 
# 
# From -- ./inp_files/3980.got.cif
#   From: 2010.05.17/outbox.cif.g08.bks.cpg/sg48_2_cif.got.tgz:3980.got - 2010.06.03 20:39:00.
