data_PCOD9389244
_publ_section_title
;
Structure prediction by ZEFSAII (Michael W. Deem and Ramdas Pophale) SiO2 
 PCOD9389244
Probable space group: P M M M
;
_chemical_formula_sum "Si O2"
_cell_formula_units_Z 52
_cell_length_a 27.000000
_cell_length_b 9.000000
_cell_length_c 12.000000
_cell_angle_alpha 90.000000
_cell_angle_beta 90.000000
_cell_angle_gamma 90.000000
_cell_volume 2916.000000
_symmetry_space_group_name_H-M "P M M M"
_symmetry_group_IT_number 47
_symmetry_cell_setting 'orthorhombic'
loop_
_space_group_symop_operation_xyz
x,y,z
-x,-y,z
x,-y,-z
-x,y,-z
-x,-y,-z
x,y,-z
-x,y,z
x,-y,z
loop_
_atom_site_type_symbol
_atom_site_label
_atom_site_fract_x
_atom_site_fract_y
_atom_site_fract_z
Si Si1 0.321651 0.824656 0.125999
Si Si2 0.943463 0.823025 0.000000
Si Si3 0.056689 0.165619 0.632821
Si Si4 0.114597 0.327459 0.199032
Si Si5 0.500000 0.681087 0.125739
Si Si6 0.219985 0.671113 0.869458
Si Si7 0.442936 0.318698 0.500000
Si Si8 0.404638 0.678967 0.735130
O O1 0.265337 0.779702 0.146472
O O2 0.355710 0.743504 0.213283
O O3 0.328392 0.000000 0.130731
O O4 0.334149 0.772811 0.000000
O O5 0.915139 0.764371 0.892260
O O6 0.000000 0.768902 0.000000
O O7 0.943698 0.000000 0.000000
O O8 0.056728 0.169393 0.500000
O O9 0.089946 0.291559 0.684339
O O10 0.000000 0.183053 0.671126
O O11 0.073352 0.000000 0.667989
O O12 0.111903 0.500000 0.168953
O O13 0.171981 0.286169 0.199017
O O14 0.500000 0.500000 0.124951
O O15 0.548929 0.727524 0.190135
O O16 0.500000 0.734426 0.000000
O O17 0.234631 0.500000 0.845528
O O18 0.205446 0.675804 0.000000
O O19 0.444198 0.500000 0.500000
O O20 0.500000 0.270489 0.500000
O O21 0.415411 0.270793 0.389450
O O22 0.403000 0.500000 0.736948
#
# Coordination Sequence:
#
# PCOD9389244 Si02
#       8
#     8   4   8   8   4   8   4   8
#     4  10  21  35  52  77 106 135 172 216 262 310
#     4  11  23  35  49  75 113 153 185 210 253 322
#     4   9  19  36  55  75 103 141 181 216 256 315
#     4  11  21  34  54  81 109 136 173 225 275 315
#     4   9  16  25  44  76 107 135 172 209 248 304
#     4   9  18  35  55  76 104 137 172 211 262 320
#     4   9  16  30  53  81 107 137 179 221 254 299
#     4  10  18  31  53  78 106 139 175 216 259 304
#
# _framework density 17.832647000000001
#
# number of rings (size 3 to 8) (size 9 to 14) (size 15 to 20)
#    0.000    2.231    1.538    2.538    0.000    5.846 
#    0.000    1.538    1.692    1.846    0.000    0.000 
#    0.000    0.000    0.000    0.000    0.000    0.000 
#
# Total GULP energy -289890.501896 kJ/mol
# GULP energy per Si atom -5574.817344 kJ/mol
# Density = 1.779206 g / cm^3
# Si number density = 17.832647 Si / 1000 Ang^3
#
#
#
# Elastic Constant Matrix: (Units=GPa)
#
#
# Indices 1 2 3 4 5 6 
#
# 1 55.3428 28.9857 53.3136 0.0000 0.0000 0.0000
# 2 28.9857 8.4750 30.7509 0.0000 0.0000 0.0000
# 3 53.3136 30.7509 88.4406 0.0000 0.0000 0.0000
# 4 0.0000 0.0000 0.0000 17.2093 0.0000 0.0000
# 5 0.0000 0.0000 0.0000 0.0000 33.7047 0.0000
# 6 0.0000 0.0000 0.0000 0.0000 0.0000 54.7096
#
#
#
# Elastic Compliance Matrix: (Units=1/GPa)
#
#
# Indices 1 2 3 4 5 6 
#
# 1 0.013804 0.065052 -0.030940 0.000000 0.000000 0.000000
# 2 0.065052 -0.144469 0.011018 0.000000 0.000000 0.000000
# 3 -0.030940 0.011018 0.026127 0.000000 0.000000 0.000000
# 4 0.000000 0.000000 0.000000 0.058108 0.000000 0.000000
# 5 0.000000 0.000000 0.000000 0.000000 0.029669 0.000000
# 6 0.000000 0.000000 0.000000 0.000000 0.000000 0.018278
#
#
# Mechanical properties :
#
#
# Convention : Reuss Voigt Hill
#
# Bulk Modulus (GPa) = -70.03467 42.03988 -13.99740
# Shear Modulus (GPa) = -53.47563 23.73859 -14.86852
#
# Velocity S-wave (km/s) = -5.48202 3.65250 -2.89066
# Velocity P-wave (km/s) = 8.91228 6.43534 4.35977
#
# Compressibility (1/GPa) = -0.01427864
#
# Stress axis : x y z
#
# Youngs Moduli (GPa) = 72.44437 -6.92191 38.27423
#
# Poissons Ratio (x) = 0.45028 1.18419
# Poissons Ratio (y) = -4.71263 -0.42169
# Poissons Ratio (z) = 2.24141 0.07626
#
# Static dielectric constant tensor:
#      x y z
#    x 1.644930 0.000000 0.000000 
#    y 0.000000 1.606560 0.000000 
#    z 0.000000 0.000000 1.618900 
# 
# From -- ./inp_files/19891.got.cif
#   From: 2010.05.17/outbox.ucp.g08.bks.cvg/sg47_10_cif.got.tgz:19891.got - 2010.06.11 16:36:43.
