data_PCOD9389246
_publ_section_title
;
Structure prediction by ZEFSAII (Michael W. Deem and Ramdas Pophale) SiO2 
 PCOD9389246
Probable space group: P M M M
;
_chemical_formula_sum "Si O2"
_cell_formula_units_Z 64
_cell_length_a 21.000000
_cell_length_b 9.000000
_cell_length_c 21.000000
_cell_angle_alpha 90.000000
_cell_angle_beta 90.000000
_cell_angle_gamma 90.000000
_cell_volume 3969.000000
_symmetry_space_group_name_H-M "P M M M"
_symmetry_group_IT_number 47
_symmetry_cell_setting 'orthorhombic'
loop_
_space_group_symop_operation_xyz
x,y,z
-x,-y,z
x,-y,-z
-x,y,-z
-x,-y,-z
x,y,-z
-x,y,z
x,-y,z
loop_
_atom_site_type_symbol
_atom_site_label
_atom_site_fract_x
_atom_site_fract_y
_atom_site_fract_z
Si Si1 0.701940 0.177918 0.926456
Si Si2 0.710898 0.680685 0.688805
Si Si3 0.211070 0.679349 0.817389
Si Si4 0.197745 0.679199 0.572949
Si Si5 0.427761 0.321866 0.878853
Si Si6 0.072230 0.178213 0.629446
Si Si7 0.927789 0.678652 0.230462
Si Si8 0.428937 0.679338 0.273148
O O1 0.751962 0.247883 0.876515
O O2 0.631206 0.240853 0.911727
O O3 0.701421 0.000000 0.918986
O O4 0.718131 0.213198 0.000000
O O5 0.708898 0.500000 0.688168
O O6 0.751325 0.721408 0.752110
O O7 0.750012 0.726924 0.625829
O O8 0.637147 0.732642 0.694731
O O9 0.215404 0.500000 0.823260
O O10 0.135815 0.718134 0.809663
O O11 0.215715 0.714686 0.500000
O O12 0.191742 0.500000 0.578075
O O13 0.129565 0.750701 0.589684
O O14 0.500000 0.279906 0.899251
O O15 0.421506 0.500000 0.887922
O O16 0.423396 0.293425 0.802760
O O17 0.077596 0.241505 0.701269
O O18 0.000000 0.214757 0.606946
O O19 0.078258 0.000000 0.630004
O O20 0.924655 0.500000 0.240353
O O21 0.000000 0.711303 0.205374
O O22 0.500000 0.733402 0.293558
O O23 0.430010 0.500000 0.280881
#
# Coordination Sequence:
#
# PCOD9389246 Si02
#       8
#     8   8   8   8   8   8   8   8
#     4  11  24  37  48  69 104 140 170 204 250 302
#     4   9  15  27  48  73  97 123 161 207 249 288
#     4  10  18  32  55  77  97 126 166 211 251 292
#     4  10  20  33  49  70  98 133 170 208 251 297
#     4   9  17  31  52  76  99 128 170 211 247 296
#     4  10  20  32  47  70 101 134 166 201 242 293
#     4   9  17  31  53  79 104 128 159 203 254 304
#     4   8  13  23  44  72  97 121 153 197 244 285
#
# _framework density 16.124969
#
# number of rings (size 3 to 8) (size 9 to 14) (size 15 to 20)
#    0.000    2.500    2.500    1.500    0.000    3.250 
#    0.000    2.500    0.000    0.750    0.000    5.250 
#    0.000    0.000    0.000    1.125    0.000    1.250 
#
# Total GULP energy -356605.237111 kJ/mol
# GULP energy per Si atom -5571.956830 kJ/mol
# Density = 1.608827 g / cm^3
# Si number density = 16.124969 Si / 1000 Ang^3
#
#
#
# Elastic Constant Matrix: (Units=GPa)
#
#
# Indices 1 2 3 4 5 6 
#
# 1 167.4852 31.4436 79.1988 0.0000 0.0000 0.0000
# 2 31.4436 20.8261 29.3102 0.0000 0.0000 0.0000
# 3 79.1988 29.3102 107.7367 0.0000 0.0000 0.0000
# 4 0.0000 0.0000 0.0000 11.4123 0.0000 0.0000
# 5 0.0000 0.0000 0.0000 0.0000 24.7980 0.0000
# 6 0.0000 0.0000 0.0000 0.0000 0.0000 16.1387
#
#
#
# Elastic Compliance Matrix: (Units=1/GPa)
#
#
# Indices 1 2 3 4 5 6 
#
# 1 0.009838 -0.007576 -0.005171 0.000000 0.000000 0.000000
# 2 -0.007576 0.083643 -0.017186 0.000000 0.000000 0.000000
# 3 -0.005171 -0.017186 0.017759 0.000000 0.000000 0.000000
# 4 0.000000 0.000000 0.000000 0.087625 0.000000 0.000000
# 5 0.000000 0.000000 0.000000 0.000000 0.040326 0.000000
# 6 0.000000 0.000000 0.000000 0.000000 0.000000 0.061963
#
#
# Mechanical properties :
#
#
# Convention : Reuss Voigt Hill
#
# Bulk Modulus (GPa) = 19.46546 63.99479 41.73012
# Shear Modulus (GPa) = 13.22246 20.87615 17.04931
#
# Velocity S-wave (km/s) = 2.86667 3.60202 3.25518
# Velocity P-wave (km/s) = 4.80155 7.55463 6.32958
#
# Compressibility (1/GPa) = 0.05137306
#
# Stress axis : x y z
#
# Youngs Moduli (GPa) = 101.64333 11.95563 56.31036
#
# Poissons Ratio (x) = 0.09058 0.29119
# Poissons Ratio (y) = 0.77009 0.96774
# Poissons Ratio (z) = 0.52561 0.20547
#
# Static dielectric constant tensor:
#      x y z
#    x 1.564660 0.000000 0.000000 
#    y 0.000000 1.531300 0.000000 
#    z 0.000000 0.000000 1.527460 
# 
# From -- ./inp_files/9938.got.cif
#   From: 2010.05.17/outbox.ucp.g08.bks.cvg/sg47_5_cif.got.tgz:9938.got - 2010.06.11 16:36:43.
