data_PCOD9389748
_publ_section_title
;
Structure prediction by ZEFSAII (Michael W. Deem and Ramdas Pophale) SiO2 
 PCOD9389748
Probable space group: P N N N
;
_chemical_formula_sum "Si O2"
_cell_formula_units_Z 58
_cell_length_a 13.369196
_cell_length_b 23.527210
_cell_length_c 10.098088
_cell_angle_alpha 90.000000
_cell_angle_beta 90.000000
_cell_angle_gamma 90.000000
_cell_volume 3176.251406
_symmetry_space_group_name_H-M "P N N N"
_symmetry_group_IT_number 48
_space_group.IT_coordinate_system_code '2'
_symmetry_cell_setting 'orthorhombic'
loop_
_space_group_symop_operation_xyz
x,y,z
1/2-x,1/2-y,z
x,1/2-y,1/2-z
1/2-x,y,1/2-z
-x,-y,-z
1/2+x,1/2+y,-z
-x,1/2+y,1/2+z
1/2+x,-y,1/2+z
loop_
_atom_site_type_symbol
_atom_site_label
_atom_site_fract_x
_atom_site_fract_y
_atom_site_fract_z
Si Si1 0.677437 0.538916 0.859373
Si Si2 0.750000 0.250000 0.750000
Si Si3 0.072347 0.720783 0.065863
Si Si4 0.343428 0.072270 0.656293
Si Si5 0.443218 0.550041 0.808579
Si Si6 0.980886 0.161187 0.813758
Si Si7 0.178221 0.912128 0.060888
Si Si8 0.667668 0.355508 0.361796
O O1 0.750000 0.564561 0.750000
O O2 0.562224 0.543472 0.813325
O O3 0.705227 0.472801 0.880094
O O4 0.689062 0.565234 0.004308
O O5 0.824373 0.279964 0.851233
O O6 0.030695 0.784775 0.086326
O O7 0.005767 0.682108 0.162615
O O8 0.099686 0.694686 0.923905
O O9 0.250000 0.084993 0.750000
O O10 0.427811 0.120100 0.657624
O O11 0.391821 0.011907 0.702665
O O12 0.399921 0.594583 0.702102
O O13 0.406114 0.574223 0.949695
O O14 0.877264 0.127061 0.833339
O O15 0.268096 0.882853 0.981583
O O16 0.750000 0.337699 0.250000
#
# Coordination Sequence:
#
# PCOD9389748 Si02
#       8
#     8   2   8   8   8   8   8   8
#     4  11  22  35  59  91 119 157 200 246 311 375
#     4   8  16  36  54  76 114 144 196 254 272 356
#     4  10  21  35  54  86 116 152 206 243 292 351
#     4  11  21  40  63  87 116 163 206 253 307 363
#     4  10  19  38  55  85 126 151 190 245 305 374
#     4  10  20  37  60  79 114 162 200 253 291 350
#     4  10  18  35  57  81 116 159 192 228 303 364
#     4  10  21  34  57  88 128 158 190 246 302 377
#
# _framework density 18.260518000000001
#
# number of rings (size 3 to 8) (size 9 to 14) (size 15 to 20)
#    0.000    1.931    2.759    4.552    1.931    1.103 
#    0.000   11.379    0.000    0.000    0.000    0.000 
#    0.000    0.000    0.000    0.000    0.000    0.000 
#
# Total GULP energy -323373.360776 kJ/mol
# GULP energy per Si atom -5575.402772 kJ/mol
# Density = 1.821896 g / cm^3
# Si number density = 18.260518 Si / 1000 Ang^3
#
#
#
# Elastic Constant Matrix: (Units=GPa)
#
#
# Indices 1 2 3 4 5 6 
#
# 1 69.6347 19.1082 43.1562 0.0000 0.0000 0.0000
# 2 19.1082 89.6155 47.0794 0.0000 0.0000 0.0000
# 3 43.1562 47.0794 93.8001 0.0000 0.0000 0.0000
# 4 0.0000 0.0000 0.0000 21.0680 0.0000 0.0000
# 5 0.0000 0.0000 0.0000 0.0000 21.2916 0.0000
# 6 0.0000 0.0000 0.0000 0.0000 0.0000 11.1529
#
#
#
# Elastic Compliance Matrix: (Units=1/GPa)
#
#
# Indices 1 2 3 4 5 6 
#
# 1 0.020129 0.000779 -0.009652 0.000000 0.000000 0.000000
# 2 0.000779 0.015185 -0.007980 0.000000 0.000000 0.000000
# 3 -0.009652 -0.007980 0.019107 0.000000 0.000000 0.000000
# 4 0.000000 0.000000 0.000000 0.047465 0.000000 0.000000
# 5 0.000000 0.000000 0.000000 0.000000 0.046967 0.000000
# 6 0.000000 0.000000 0.000000 0.000000 0.000000 0.089663
#
#
# Mechanical properties :
#
#
# Convention : Reuss Voigt Hill
#
# Bulk Modulus (GPa) = 48.27510 52.41535 50.34522
# Shear Modulus (GPa) = 17.91307 20.28293 19.09800
#
# Velocity S-wave (km/s) = 3.13545 3.33641 3.23749
# Velocity P-wave (km/s) = 6.29304 6.60369 6.45023
#
# Compressibility (1/GPa) = 0.02071461
#
# Stress axis : x y z
#
# Youngs Moduli (GPa) = 49.68034 65.85491 52.33758
#
# Poissons Ratio (x) = -0.05128 0.50515
# Poissons Ratio (y) = -0.03868 0.41764
# Poissons Ratio (z) = 0.47950 0.52550
#
# Static dielectric constant tensor:
#      x y z
#    x 1.633040 0.000000 0.000000 
#    y 0.000000 1.662880 0.000000 
#    z 0.000000 0.000000 1.740130 
# 
# From -- ./inp_files/13248.got.cif
#   From: 2010.05.17/outbox.cif.g08.bks.cpg/sg48_7_cif.got.tgz:13248.got - 2010.06.03 20:39:00.
