data_PCOD9389496
_publ_section_title
;
Structure prediction by ZEFSAII (Michael W. Deem and Ramdas Pophale) SiO2 
 PCOD9389496
Probable space group: P N N N
;
_chemical_formula_sum "Si O2"
_cell_formula_units_Z 52
_cell_length_a 5.368645
_cell_length_b 29.953489
_cell_length_c 18.569779
_cell_angle_alpha 90.000000
_cell_angle_beta 90.000000
_cell_angle_gamma 90.000000
_cell_volume 2986.199642
_symmetry_space_group_name_H-M "P N N N"
_symmetry_group_IT_number 48
_space_group.IT_coordinate_system_code '2'
_symmetry_cell_setting 'orthorhombic'
loop_
_space_group_symop_operation_xyz
x,y,z
1/2-x,1/2-y,z
x,1/2-y,1/2-z
1/2-x,y,1/2-z
-x,-y,-z
1/2+x,1/2+y,-z
-x,1/2+y,1/2+z
1/2+x,-y,1/2+z
loop_
_atom_site_type_symbol
_atom_site_label
_atom_site_fract_x
_atom_site_fract_y
_atom_site_fract_z
Si Si1 0.639545 0.569415 0.494619
Si Si2 0.468483 0.503278 0.617475
Si Si3 0.505737 0.800121 0.718121
Si Si4 0.501664 0.778770 0.549501
Si Si5 0.750000 0.971753 0.750000
Si Si6 0.363063 0.623602 0.972363
Si Si7 0.375432 0.579504 0.827880
O O1 0.621915 0.531593 0.557435
O O2 0.606623 0.542467 0.420462
O O3 0.405861 0.603995 0.503215
O O4 0.906319 0.593164 0.501500
O O5 0.585980 0.498094 0.697022
O O6 0.240562 0.536308 0.633391
O O7 0.506074 0.750000 0.750000
O O8 0.750000 0.824051 0.750000
O O9 0.532063 0.792336 0.633461
O O10 0.250000 0.819567 0.750000
O O11 0.750000 0.750000 0.529397
O O12 0.439539 0.825577 0.509997
O O13 0.250000 0.750000 0.544014
O O14 0.647325 0.936548 0.691854
O O15 0.355479 0.618483 0.885021
O O16 0.250000 0.584826 0.750000
#
# Coordination Sequence:
#
# PCOD9389496 Si02
#       7
#     8   8   8   8   4   8   8
#     4  10  21  36  54  78 101 141 179 216 263 310
#     4   9  19  31  57  73 108 139 178 212 253 324
#     4  10  16  30  45  63  83 111 159 220 248 317
#     4  12  22  36  52  67  93 131 178 224 274 308
#     4  10  16  32  50  78 107 140 177 210 254 320
#     4  11  23  37  51  74 103 135 182 231 262 308
#     4   9  19  33  47  77 104 138 177 218 264 303
#
# _framework density 17.413436999999998
#
# number of rings (size 3 to 8) (size 9 to 14) (size 15 to 20)
#    0.000    1.846    4.615    0.923    2.154    2.462 
#    1.385    0.000    0.000    0.000    0.000    0.000 
#    0.000    0.000    0.000   10.385    0.615    0.000 
#
# Total GULP energy -289472.625684 kJ/mol
# GULP energy per Si atom -5566.781263 kJ/mol
# Density = 1.737380 g / cm^3
# Si number density = 17.413437 Si / 1000 Ang^3
#
#
#
# Elastic Constant Matrix: (Units=GPa)
#
#
# Indices 1 2 3 4 5 6 
#
# 1 92.9024 18.9756 5.3933 0.0000 0.0000 0.0000
# 2 18.9756 83.3157 24.0300 0.0000 0.0000 0.0000
# 3 5.3933 24.0300 23.8284 0.0000 0.0000 0.0000
# 4 0.0000 0.0000 0.0000 4.2945 0.0000 0.0000
# 5 0.0000 0.0000 0.0000 0.0000 -54.1446 0.0000
# 6 0.0000 0.0000 0.0000 0.0000 0.0000 -477.5278
#
#
#
# Elastic Compliance Matrix: (Units=1/GPa)
#
#
# Indices 1 2 3 4 5 6 
#
# 1 0.011289 -0.002587 0.000053 0.000000 0.000000 0.000000
# 2 -0.002587 0.017518 -0.017081 0.000000 0.000000 0.000000
# 3 0.000053 -0.017081 0.059180 0.000000 0.000000 0.000000
# 4 0.000000 0.000000 0.000000 0.232854 0.000000 0.000000
# 5 0.000000 0.000000 0.000000 0.000000 -0.018469 0.000000
# 6 0.000000 0.000000 0.000000 0.000000 0.000000 -0.002094
#
#
# Mechanical properties :
#
#
# Convention : Reuss Voigt Hill
#
# Bulk Modulus (GPa) = 20.50905 32.98271 26.74588
# Shear Modulus (GPa) = 14.05442 -95.36575 -40.65567
#
# Velocity S-wave (km/s) = 2.84404 -7.40841 -4.83715
# Velocity P-wave (km/s) = 4.75268 7.36188 3.97550
#
# Compressibility (1/GPa) = 0.04875896
#
# Stress axis : x y z
#
# Youngs Moduli (GPa) = 88.58019 57.08364 16.89759
#
# Poissons Ratio (x) = 0.14765 -0.00090
# Poissons Ratio (y) = 0.22912 0.28863
# Poissons Ratio (z) = -0.00472 0.97504
#
# Static dielectric constant tensor:
#      x y z
#    x 1.730140 0.000000 0.000000 
#    y 0.000000 1.621410 0.000000 
#    z 0.000000 0.000000 1.611740 
# 
# From -- ./inp_files/29656.got.cif
#   From: 2010.05.17/outbox.cif.g08.bks.cpg/sg48_15_cif.got.tgz:29656.got - 2010.06.03 20:39:00.
