data_PCOD9389186
_publ_section_title
;
Structure prediction by ZEFSAII (Michael W. Deem and Ramdas Pophale) SiO2 
 PCOD9389186
Probable space group: P M M M
;
_chemical_formula_sum "Si O2"
_cell_formula_units_Z 40
_cell_length_a 7.775939
_cell_length_b 30.674945
_cell_length_c 9.078138
_cell_angle_alpha 90.000000
_cell_angle_beta 90.000000
_cell_angle_gamma 90.000000
_cell_volume 2165.376494
_symmetry_space_group_name_H-M "P M M M"
_symmetry_group_IT_number 47
_symmetry_cell_setting 'orthorhombic'
loop_
_space_group_symop_operation_xyz
x,y,z
-x,-y,z
x,-y,-z
-x,y,-z
-x,-y,-z
x,y,-z
-x,y,z
x,-y,z
loop_
_atom_site_type_symbol
_atom_site_label
_atom_site_fract_x
_atom_site_fract_y
_atom_site_fract_z
Si Si1 0.790280 0.795580 0.331633
Si Si2 0.500000 0.049866 0.820424
Si Si3 0.208293 0.707997 0.171164
Si Si4 0.000000 0.449964 0.180217
Si Si5 0.308712 0.388250 0.820530
Si Si6 0.800425 0.114670 0.822538
O O1 0.734122 0.798678 0.500000
O O2 0.732099 0.750445 0.258736
O O3 0.742828 0.838953 0.242973
O O4 0.000000 0.794349 0.329241
O O5 0.669614 0.076810 0.775894
O O6 0.500000 0.000000 0.769076
O O7 0.500000 0.048968 0.000000
O O8 0.272857 0.661352 0.227903
O O9 0.000000 0.706433 0.175395
O O10 0.259196 0.712544 0.000000
O O11 0.165773 0.422416 0.228211
O O12 0.000000 0.500000 0.228810
O O13 0.000000 0.450453 0.000000
O O14 0.500000 0.401589 0.778374
O O15 0.299392 0.386843 0.000000
O O16 0.000000 0.106639 0.779501
O O17 0.796161 0.117590 0.000000
#
# Coordination Sequence:
#
# PCOD9389186 Si02
#       6
#     8   4   8   4   8   8
#     4   9  17  29  47  71  98 128 161 198 241 286
#     4   9  18  32  51  77 103 125 159 207 246 279
#     4   9  15  26  45  65  90 126 162 196 235 282
#     4   9  16  26  40  60  89 123 157 195 240 285
#     4   9  16  26  40  60  87 119 156 194 232 279
#     4   9  17  31  51  73  98 129 163 197 237 286
#
# _framework density 18.472536999999999
#
# number of rings (size 3 to 8) (size 9 to 14) (size 15 to 20)
#    0.000    3.000    1.000    0.600    0.000    3.200 
#    1.800    4.500    0.000    1.200    0.000    2.800 
#    0.000    1.600    0.000    1.800    0.000    2.000 
#
# Total GULP energy -222990.172100 kJ/mol
# GULP energy per Si atom -5574.754302 kJ/mol
# Density = 1.843049 g / cm^3
# Si number density = 18.472537 Si / 1000 Ang^3
#
#
#
# Elastic Constant Matrix: (Units=GPa)
#
#
# Indices 1 2 3 4 5 6 
#
# 1 105.0469 93.1074 20.4072 0.0000 0.0000 0.0000
# 2 93.1074 200.3983 30.7040 0.0000 0.0000 0.0000
# 3 20.4072 30.7040 15.7760 0.0000 0.0000 0.0000
# 4 0.0000 0.0000 0.0000 -4.5061 0.0000 0.0000
# 5 0.0000 0.0000 0.0000 0.0000 3.2015 0.0000
# 6 0.0000 0.0000 0.0000 0.0000 0.0000 -22.8705
#
#
#
# Elastic Compliance Matrix: (Units=1/GPa)
#
#
# Indices 1 2 3 4 5 6 
#
# 1 0.017129 -0.006502 -0.009502 0.000000 0.000000 0.000000
# 2 -0.006502 0.009579 -0.010231 0.000000 0.000000 0.000000
# 3 -0.009502 -0.010231 0.095592 0.000000 0.000000 0.000000
# 4 0.000000 0.000000 0.000000 -0.221922 0.000000 0.000000
# 5 0.000000 0.000000 0.000000 0.000000 0.312358 0.000000
# 6 0.000000 0.000000 0.000000 0.000000 0.000000 -0.043724
#
#
# Mechanical properties :
#
#
# Convention : Reuss Voigt Hill
#
# Bulk Modulus (GPa) = 14.32090 67.73980 41.03035
# Shear Modulus (GPa) = 20.42837 6.96514 13.69676
#
# Velocity S-wave (km/s) = 3.32908 1.94389 2.72594
# Velocity P-wave (km/s) = 4.74831 6.46440 5.67163
#
# Compressibility (1/GPa) = 0.06982803
#
# Stress axis : x y z
#
# Youngs Moduli (GPa) = 58.38111 104.39731 10.46115
#
# Poissons Ratio (x) = 0.67884 0.09940
# Poissons Ratio (y) = 0.37962 0.10703
# Poissons Ratio (z) = 0.55472 1.06814
#
# Static dielectric constant tensor:
#      x y z
#    x 1.664220 0.000000 0.000000 
#    y 0.000000 1.612260 0.000000 
#    z 0.000000 0.000000 1.605680 
# 
# From -- ./inp_files/1739.got.cif
#   From: 2010.05.17/outbox.cif.g08.bks.cpg/sg47_1_cif.got.tgz:1739.got - 2010.06.03 20:15:42.
