data_PCOD9389569
_publ_section_title
;
Structure prediction by ZEFSAII (Michael W. Deem and Ramdas Pophale) SiO2 
 PCOD9389569
Probable space group: P N N N
;
_chemical_formula_sum "Si O2"
_cell_formula_units_Z 40
_cell_length_a 12.031970
_cell_length_b 14.073979
_cell_length_c 11.044475
_cell_angle_alpha 90.000000
_cell_angle_beta 90.000000
_cell_angle_gamma 90.000000
_cell_volume 1870.245918
_symmetry_space_group_name_H-M "P N N N"
_symmetry_group_IT_number 48
_space_group.IT_coordinate_system_code '2'
_symmetry_cell_setting 'orthorhombic'
loop_
_space_group_symop_operation_xyz
x,y,z
1/2-x,1/2-y,z
x,1/2-y,1/2-z
1/2-x,y,1/2-z
-x,-y,-z
1/2+x,1/2+y,-z
-x,1/2+y,1/2+z
1/2+x,-y,1/2+z
loop_
_atom_site_type_symbol
_atom_site_label
_atom_site_fract_x
_atom_site_fract_y
_atom_site_fract_z
Si Si1 0.938228 0.000729 0.133931
Si Si2 0.134088 0.202309 0.914081
Si Si3 0.724199 0.406439 0.983445
Si Si4 0.155509 0.090557 0.161775
Si Si5 0.594657 0.226994 0.890151
O O1 0.907044 0.891537 0.160353
O O2 0.033131 0.056263 0.209123
O O3 0.821095 0.053536 0.111009
O O4 0.000000 0.000000 0.000000
O O5 0.250000 0.250000 0.881764
O O6 0.036331 0.278032 0.903411
O O7 0.140561 0.163376 0.051313
O O8 0.708823 0.493731 0.892122
O O9 0.638767 0.321251 0.956356
O O10 0.841956 0.359967 0.952548
O O11 0.250000 0.128687 0.250000
O O12 0.622792 0.250000 0.750000
#
# Coordination Sequence:
#
# PCOD9389569 Si02
#       5
#     8   8   8   8   8
#     4   8  15  32  49  73 109 140 175 225 281 313
#     4  10  20  34  47  74 114 142 179 228 284 321
#     4   9  16  29  50  81 105 137 179 231 270 319
#     4  10  17  32  55  76 105 141 186 231 265 326
#     4  11  18  27  49  80 111 139 185 228 271 332
#
# _framework density 21.387563
#
# number of rings (size 3 to 8) (size 9 to 14) (size 15 to 20)
#    0.000    2.800    6.000    2.400    0.000    0.800 
#    0.000    4.000    0.000    0.000    0.000    0.000 
#    0.000    0.000    0.000    0.000    0.000    0.000 
#
# Total GULP energy -222682.286119 kJ/mol
# GULP energy per Si atom -5567.057153 kJ/mol
# Density = 2.133888 g / cm^3
# Si number density = 21.387563 Si / 1000 Ang^3
#
#
#
# Elastic Constant Matrix: (Units=GPa)
#
#
# Indices 1 2 3 4 5 6 
#
# 1 195.6444 57.9993 35.6352 0.0000 0.0000 0.0000
# 2 57.9993 75.8954 17.9938 0.0000 0.0000 0.0000
# 3 35.6352 17.9938 44.1678 0.0000 0.0000 0.0000
# 4 0.0000 0.0000 0.0000 8.1239 0.0000 0.0000
# 5 0.0000 0.0000 0.0000 0.0000 13.1757 0.0000
# 6 0.0000 0.0000 0.0000 0.0000 0.0000 5.0332
#
#
#
# Elastic Compliance Matrix: (Units=1/GPa)
#
#
# Indices 1 2 3 4 5 6 
#
# 1 0.007178 -0.004552 -0.003937 0.000000 0.000000 0.000000
# 2 -0.004552 0.017471 -0.003445 0.000000 0.000000 0.000000
# 3 -0.003937 -0.003445 0.027221 0.000000 0.000000 0.000000
# 4 0.000000 0.000000 0.000000 0.123093 0.000000 0.000000
# 5 0.000000 0.000000 0.000000 0.000000 0.075897 0.000000
# 6 0.000000 0.000000 0.000000 0.000000 0.000000 0.198681
#
#
# Mechanical properties :
#
#
# Convention : Reuss Voigt Hill
#
# Bulk Modulus (GPa) = 35.71150 59.88491 47.79820
# Shear Modulus (GPa) = 10.35747 18.87185 14.61466
#
# Velocity S-wave (km/s) = 2.20301 2.97370 2.61688
# Velocity P-wave (km/s) = 4.81711 6.31278 5.61497
#
# Compressibility (1/GPa) = 0.02800218
#
# Stress axis : x y z
#
# Youngs Moduli (GPa) = 139.31884 57.23633 36.73674
#
# Poissons Ratio (x) = 0.26054 0.14462
# Poissons Ratio (y) = 0.63417 0.12657
# Poissons Ratio (z) = 0.54846 0.19719
#
# Static dielectric constant tensor:
#      x y z
#    x 1.929190 0.000000 0.000000 
#    y 0.000000 1.792060 0.000000 
#    z 0.000000 0.000000 1.869890 
# 
# From -- ./inp_files/26322.got.cif
#   From: 2010.05.17/outbox.cif.g08.bks.cpg/sg48_14_cif.got.tgz:26322.got - 2010.06.03 20:39:00.
