data_PCOD9389354
_publ_section_title
;
Structure prediction by ZEFSAII (Michael W. Deem and Ramdas Pophale) SiO2 
 PCOD9389354
Probable space group: P M M M
;
_chemical_formula_sum "Si O2"
_cell_formula_units_Z 40
_cell_length_a 9.000000
_cell_length_b 27.000000
_cell_length_c 9.000000
_cell_angle_alpha 90.000000
_cell_angle_beta 90.000000
_cell_angle_gamma 90.000000
_cell_volume 2187.000000
_symmetry_space_group_name_H-M "P M M M"
_symmetry_group_IT_number 47
_symmetry_cell_setting 'orthorhombic'
loop_
_space_group_symop_operation_xyz
x,y,z
-x,-y,z
x,-y,-z
-x,y,-z
-x,-y,-z
x,y,-z
-x,y,z
x,-y,z
loop_
_atom_site_type_symbol
_atom_site_label
_atom_site_fract_x
_atom_site_fract_y
_atom_site_fract_z
Si Si1 0.822045 0.800860 0.325135
Si Si2 0.678407 0.058232 0.500000
Si Si3 0.326735 0.695715 0.323545
Si Si4 0.819117 0.500000 0.328661
Si Si5 0.175149 0.398094 0.823149
Si Si6 0.679657 0.106791 0.824481
O O1 0.782578 0.811841 0.500000
O O2 0.766094 0.745458 0.293403
O O3 0.743283 0.839010 0.214062
O O4 0.000000 0.804323 0.312608
O O5 0.500000 0.065897 0.500000
O O6 0.726768 0.078231 0.667178
O O7 0.711562 0.000000 0.500000
O O8 0.314083 0.685773 0.500000
O O9 0.500000 0.704318 0.289293
O O10 0.263615 0.648844 0.236983
O O11 0.773806 0.500000 0.500000
O O12 0.771356 0.449508 0.249117
O O13 0.000000 0.500000 0.322595
O O14 0.000000 0.391795 0.785059
O O15 0.186863 0.401692 0.000000
O O16 0.500000 0.105780 0.824388
O O17 0.722028 0.092836 0.000000
#
# Coordination Sequence:
#
# PCOD9389354 Si02
#       6
#     8   4   8   4   8   8
#     4  10  20  35  57  82 109 145 187 231 281 335
#     4   9  18  34  57  85 119 155 191 236 283 328
#     4  10  21  36  55  79 108 143 182 225 273 325
#     4   9  17  31  54  79 102 133 174 220 268 321
#     4  10  20  34  53  78 108 140 176 220 270 324
#     4  10  20  34  56  85 116 152 192 234 283 336
#
# _framework density 18.289895000000001
#
# number of rings (size 3 to 8) (size 9 to 14) (size 15 to 20)
#    0.000    2.200    1.000    2.100    0.000    6.000 
#    0.000    2.500    0.000    4.200    0.000    1.400 
#    0.000    0.000    0.000    0.000    0.000    0.000 
#
# Total GULP energy -222834.792534 kJ/mol
# GULP energy per Si atom -5570.869813 kJ/mol
# Density = 1.824827 g / cm^3
# Si number density = 18.289895 Si / 1000 Ang^3
#
#
#
# Elastic Constant Matrix: (Units=GPa)
#
#
# Indices 1 2 3 4 5 6 
#
# 1 14.7405 3.3912 21.4880 0.0000 0.0000 0.0000
# 2 3.3912 82.8205 60.3257 0.0000 0.0000 0.0000
# 3 21.4880 60.3257 111.2001 0.0000 0.0000 0.0000
# 4 0.0000 0.0000 0.0000 25.3293 0.0000 0.0000
# 5 0.0000 0.0000 0.0000 0.0000 26.2207 0.0000
# 6 0.0000 0.0000 0.0000 0.0000 0.0000 25.3028
#
#
#
# Elastic Compliance Matrix: (Units=1/GPa)
#
#
# Indices 1 2 3 4 5 6 
#
# 1 0.108410 0.017889 -0.030653 0.000000 0.000000 0.000000
# 2 0.017889 0.022914 -0.015888 0.000000 0.000000 0.000000
# 3 -0.030653 -0.015888 0.023535 0.000000 0.000000 0.000000
# 4 0.000000 0.000000 0.000000 0.039480 0.000000 0.000000
# 5 0.000000 0.000000 0.000000 0.000000 0.038138 0.000000
# 6 0.000000 0.000000 0.000000 0.000000 0.000000 0.039521
#
#
# Mechanical properties :
#
#
# Convention : Reuss Voigt Hill
#
# Bulk Modulus (GPa) = 10.25069 42.13011 26.19040
# Shear Modulus (GPa) = 13.81899 23.60765 18.71332
#
# Velocity S-wave (km/s) = 2.75172 3.59660 3.20214
# Velocity P-wave (km/s) = 3.96392 6.35075 5.29361
#
# Compressibility (1/GPa) = 0.09755440
#
# Stress axis : x y z
#
# Youngs Moduli (GPa) = 9.22427 43.64097 42.48964
#
# Poissons Ratio (x) = -0.78067 1.30245
# Poissons Ratio (y) = -0.16501 0.67506
# Poissons Ratio (z) = 0.28275 0.69335
#
# Static dielectric constant tensor:
#      x y z
#    x 1.617640 0.000000 0.000000 
#    y 0.000000 1.619310 0.000000 
#    z 0.000000 0.000000 1.652950 
# 
# From -- ./inp_files/1740.got.cif
#   From: 2010.05.17/outbox.ucp.g08.bks.cvg/sg47_1_cif.got.tgz:1740.got - 2010.06.11 16:36:43.
