data_PCOD9389352
_publ_section_title
;
Structure prediction by ZEFSAII (Michael W. Deem and Ramdas Pophale) SiO2 
 PCOD9389352
Probable space group: P M M M
;
_chemical_formula_sum "Si O2"
_cell_formula_units_Z 52
_cell_length_a 15.000000
_cell_length_b 9.000000
_cell_length_c 21.000000
_cell_angle_alpha 90.000000
_cell_angle_beta 90.000000
_cell_angle_gamma 90.000000
_cell_volume 2835.000000
_symmetry_space_group_name_H-M "P M M M"
_symmetry_group_IT_number 47
_symmetry_cell_setting 'orthorhombic'
loop_
_space_group_symop_operation_xyz
x,y,z
-x,-y,z
x,-y,-z
-x,y,-z
-x,-y,-z
x,y,-z
-x,y,z
x,-y,z
loop_
_atom_site_type_symbol
_atom_site_label
_atom_site_fract_x
_atom_site_fract_y
_atom_site_fract_z
Si Si1 0.222705 0.172791 0.275553
Si Si2 0.891739 0.828557 0.500000
Si Si3 0.401693 0.322864 0.727857
Si Si4 0.597886 0.175272 0.866448
Si Si5 0.893186 0.668741 0.628048
Si Si6 0.101105 0.323874 0.174187
Si Si7 0.763798 0.332512 0.074819
O O1 0.314094 0.245937 0.299941
O O2 0.145383 0.210572 0.324719
O O3 0.181225 0.250673 0.213715
O O4 0.236084 0.000000 0.264752
O O5 0.865595 0.730473 0.560007
O O6 0.000000 0.836377 0.500000
O O7 0.860098 0.000000 0.500000
O O8 0.500000 0.283308 0.701368
O O9 0.392564 0.500000 0.725764
O O10 0.400915 0.265426 0.800547
O O11 0.500000 0.202839 0.896961
O O12 0.683725 0.225528 0.905129
O O13 0.603191 0.000000 0.852523
O O14 0.861849 0.500000 0.641029
O O15 0.000000 0.665560 0.631953
O O16 0.098910 0.500000 0.189096
O O17 0.138624 0.301339 0.103505
O O18 0.000000 0.267863 0.184770
O O19 0.739840 0.500000 0.097693
O O20 0.769462 0.333058 0.000000
#
# Coordination Sequence:
#
# PCOD9389352 Si02
#       7
#     8   4   8   8   8   8   8
#     4  12  23  34  53  81 111 141 175 218 267 316
#     4   9  17  31  51  77 112 149 186 229 273 313
#     4  10  20  35  56  79 104 135 170 211 261 318
#     4  10  20  34  53  77 103 131 163 204 260 320
#     4  10  20  34  53  78 111 152 193 227 262 309
#     4  10  21  37  55  74 100 135 175 219 266 316
#     4  10  21  36  54  75  99 132 174 216 261 317
#
# _framework density 18.342151999999999
#
# number of rings (size 3 to 8) (size 9 to 14) (size 15 to 20)
#    0.000    1.769    1.538    3.462    0.000    6.769 
#    0.000    3.077    0.000    0.000    0.000    2.692 
#    0.000    4.308    0.000    0.000    0.000    0.000 
#
# Total GULP energy -289604.016911 kJ/mol
# GULP energy per Si atom -5569.308018 kJ/mol
# Density = 1.830040 g / cm^3
# Si number density = 18.342152 Si / 1000 Ang^3
#
#
#
# Elastic Constant Matrix: (Units=GPa)
#
#
# Indices 1 2 3 4 5 6 
#
# 1 73.4615 39.5741 2.1006 0.0000 0.0000 0.0000
# 2 39.5741 47.1411 -2.8500 0.0000 0.0000 0.0000
# 3 2.1006 -2.8500 28.1842 0.0000 0.0000 0.0000
# 4 0.0000 0.0000 0.0000 18.9795 0.0000 0.0000
# 5 0.0000 0.0000 0.0000 0.0000 -48.9589 0.0000
# 6 0.0000 0.0000 0.0000 0.0000 0.0000 17.6944
#
#
#
# Elastic Compliance Matrix: (Units=1/GPa)
#
#
# Indices 1 2 3 4 5 6 
#
# 1 0.025304 -0.021488 -0.004059 0.000000 0.000000 0.000000
# 2 -0.021488 0.039590 0.005605 0.000000 0.000000 0.000000
# 3 -0.004059 0.005605 0.036350 0.000000 0.000000 0.000000
# 4 0.000000 0.000000 0.000000 0.052689 0.000000 0.000000
# 5 0.000000 0.000000 0.000000 0.000000 -0.020425 0.000000
# 6 0.000000 0.000000 0.000000 0.000000 0.000000 0.056515
#
#
# Mechanical properties :
#
#
# Convention : Reuss Voigt Hill
#
# Bulk Modulus (GPa) = 16.29689 25.15959 20.72824
# Shear Modulus (GPa) = 19.97121 4.87380 12.42250
#
# Velocity S-wave (km/s) = 3.30330 1.63185 2.60526
# Velocity P-wave (km/s) = 4.84286 4.15899 4.51389
#
# Compressibility (1/GPa) = 0.06136138
#
# Stress axis : x y z
#
# Youngs Moduli (GPa) = 39.51904 25.25862 27.51018
#
# Poissons Ratio (x) = 0.54275 0.11166
# Poissons Ratio (y) = 0.84918 -0.15419
# Poissons Ratio (z) = 0.16040 -0.14157
#
# Static dielectric constant tensor:
#      x y z
#    x 1.682490 0.000000 0.000000 
#    y 0.000000 1.640500 0.000000 
#    z 0.000000 0.000000 1.464710 
# 
# From -- ./inp_files/6927.got.cif
#   From: 2010.05.17/outbox.ucp.g08.bks.cvg/sg47_4_cif.got.tgz:6927.got - 2010.06.11 16:36:43.
