data_PCOD9389231
_publ_section_title
;
Structure prediction by ZEFSAII (Michael W. Deem and Ramdas Pophale) SiO2 
 PCOD9389231
Probable space group: P M M M
;
_chemical_formula_sum "Si O2"
_cell_formula_units_Z 64
_cell_length_a 15.000000
_cell_length_b 9.000000
_cell_length_c 30.000000
_cell_angle_alpha 90.000000
_cell_angle_beta 90.000000
_cell_angle_gamma 90.000000
_cell_volume 4050.000000
_symmetry_space_group_name_H-M "P M M M"
_symmetry_group_IT_number 47
_symmetry_cell_setting 'orthorhombic'
loop_
_space_group_symop_operation_xyz
x,y,z
-x,-y,z
x,-y,-z
-x,y,-z
-x,-y,-z
x,y,-z
-x,y,z
x,-y,z
loop_
_atom_site_type_symbol
_atom_site_label
_atom_site_fract_x
_atom_site_fract_y
_atom_site_fract_z
Si Si1 0.902182 0.819565 0.252519
Si Si2 0.710684 0.180244 0.223457
Si Si3 0.272938 0.325435 0.612077
Si Si4 0.401526 0.831141 0.446881
Si Si5 0.098438 0.821729 0.356795
Si Si6 0.602512 0.821863 0.862167
Si Si7 0.603552 0.320601 0.695294
Si Si8 0.391897 0.673479 0.951784
O O1 0.813241 0.770086 0.227714
O O2 0.892353 0.779317 0.304645
O O3 0.000000 0.767810 0.237024
O O4 0.903547 0.000000 0.250755
O O5 0.664954 0.227563 0.177750
O O6 0.651887 0.245853 0.263104
O O7 0.708739 0.000000 0.226267
O O8 0.260214 0.500000 0.615126
O O9 0.325499 0.277740 0.568574
O O10 0.179032 0.246310 0.616536
O O11 0.338848 0.277962 0.652172
O O12 0.404392 0.836433 0.500000
O O13 0.500000 0.784023 0.430910
O O14 0.385061 0.000000 0.430797
O O15 0.000000 0.774896 0.371859
O O16 0.102629 0.000000 0.358544
O O17 0.500000 0.770335 0.855397
O O18 0.637305 0.764014 0.909211
O O19 0.600522 0.000000 0.862678
O O20 0.500000 0.276513 0.691941
O O21 0.606434 0.500000 0.699404
O O22 0.500000 0.682397 0.952326
O O23 0.369362 0.500000 0.947416
O O24 0.360198 0.727967 0.000000
#
# Coordination Sequence:
#
# PCOD9389231 Si02
#       8
#     8   8   8   8   8   8   8   8
#     4   8  14  26  45  66  86 111 147 190 228 260
#     4  10  18  29  45  63  86 116 152 188 219 260
#     4  11  21  32  49  73 100 126 153 188 232 278
#     4   9  19  36  56  76  97 123 157 194 229 269
#     4   9  17  31  51  72  93 120 157 196 231 270
#     4   9  17  26  36  56  85 114 143 176 218 263
#     4  10  21  33  42  59  91 126 155 182 214 256
#     4   8  14  25  40  56  74 102 143 183 215 254
#
# _framework density 15.802469
#
# number of rings (size 3 to 8) (size 9 to 14) (size 15 to 20)
#    0.000    2.750    1.250    2.625    0.000    3.250 
#    0.000    3.125    0.000    0.750    0.000    2.625 
#    0.000    0.500    0.000    6.250    0.000    1.250 
#
# Total GULP energy -356308.732485 kJ/mol
# GULP energy per Si atom -5567.323945 kJ/mol
# Density = 1.576650 g / cm^3
# Si number density = 15.802469 Si / 1000 Ang^3
#
#
#
# Elastic Constant Matrix: (Units=GPa)
#
#
# Indices 1 2 3 4 5 6 
#
# 1 106.8523 22.9244 35.1321 0.0000 0.0000 0.0000
# 2 22.9244 -0.0161 14.8682 0.0000 0.0000 0.0000
# 3 35.1321 14.8682 52.0090 0.0000 0.0000 0.0000
# 4 0.0000 0.0000 0.0000 34.9239 0.0000 0.0000
# 5 0.0000 0.0000 0.0000 0.0000 -72.0045 0.0000
# 6 0.0000 0.0000 0.0000 0.0000 0.0000 6.3294
#
#
#
# Elastic Compliance Matrix: (Units=1/GPa)
#
#
# Indices 1 2 3 4 5 6 
#
# 1 0.008196 0.024744 -0.012610 0.000000 0.000000 0.000000
# 2 0.024744 -0.159675 0.028933 0.000000 0.000000 0.000000
# 3 -0.012610 0.028933 0.019475 0.000000 0.000000 0.000000
# 4 0.000000 0.000000 0.000000 0.028634 0.000000 0.000000
# 5 0.000000 0.000000 0.000000 0.000000 -0.013888 0.000000
# 6 0.000000 0.000000 0.000000 0.000000 0.000000 0.157993
#
#
# Mechanical properties :
#
#
# Convention : Reuss Voigt Hill
#
# Bulk Modulus (GPa) = -20.05171 33.85496 6.90162
# Shear Modulus (GPa) = -86.17241 -0.42222 -43.29732
#
# Velocity S-wave (km/s) = -7.39252 -0.51746 -5.24009
# Velocity P-wave (km/s) = 9.25107 4.59492 5.67754
#
# Compressibility (1/GPa) = -0.04987105
#
# Stress axis : x y z
#
# Youngs Moduli (GPa) = 122.00866 -6.26272 51.34900
#
# Poissons Ratio (x) = 0.15497 0.64753
# Poissons Ratio (y) = -3.01904 -1.48566
# Poissons Ratio (z) = 1.53857 0.18120
#
# Static dielectric constant tensor:
#      x y z
#    x 1.528110 0.000000 0.000000 
#    y 0.000000 1.529260 0.000000 
#    z 0.000000 0.000000 1.538480 
# 
# From -- ./inp_files/22149.got.cif
#   From: 2010.05.17/outbox.ucp.g08.bks.cvg/sg47_12_cif.got.tgz:22149.got - 2010.06.11 16:36:43.
