data_PCOD9389999
_publ_section_title
;
Structure prediction by ZEFSAII (Michael W. Deem and Ramdas Pophale) SiO2 
 PCOD9389999
Probable space group: P N N N
;
_chemical_formula_sum "Si O2"
_cell_formula_units_Z 64
_cell_length_a 8.982069
_cell_length_b 26.568434
_cell_length_c 11.235052
_cell_angle_alpha 90.000000
_cell_angle_beta 90.000000
_cell_angle_gamma 90.000000
_cell_volume 2681.127275
_symmetry_space_group_name_H-M "P N N N"
_symmetry_group_IT_number 48
_space_group.IT_coordinate_system_code '2'
_symmetry_cell_setting 'orthorhombic'
loop_
_space_group_symop_operation_xyz
x,y,z
1/2-x,1/2-y,z
x,1/2-y,1/2-z
1/2-x,y,1/2-z
-x,-y,-z
1/2+x,1/2+y,-z
-x,1/2+y,1/2+z
1/2+x,-y,1/2+z
loop_
_atom_site_type_symbol
_atom_site_label
_atom_site_fract_x
_atom_site_fract_y
_atom_site_fract_z
Si Si1 0.121169 0.377589 0.155369
Si Si2 0.682342 0.145342 0.059057
Si Si3 0.589949 0.962133 0.313598
Si Si4 0.622593 0.052048 0.491149
Si Si5 0.751663 0.808988 0.048523
Si Si6 0.958334 0.182821 0.665482
Si Si7 0.089477 0.796680 0.075271
Si Si8 0.608194 0.997217 0.887484
O O1 0.250000 0.365135 0.250000
O O2 0.183229 0.348993 0.040659
O O3 0.115674 0.438254 0.146822
O O4 0.948666 0.356809 0.157521
O O5 0.787071 0.097655 0.063207
O O6 0.599235 0.143186 0.930310
O O7 0.799536 0.190240 0.032138
O O8 0.750000 0.949788 0.250000
O O9 0.517832 0.931965 0.425902
O O10 0.469571 0.967947 0.210402
O O11 0.593427 0.016353 0.378742
O O12 0.733051 0.019231 0.574496
O O13 0.750000 0.750000 0.011037
O O14 0.637970 0.814199 0.160473
O O15 0.925809 0.816683 0.050444
O O16 0.889321 0.177737 0.795161
O O17 0.915813 0.237674 0.610085
O O18 0.500000 0.000000 0.000000
#
# Coordination Sequence:
#
# PCOD9389999 Si02
#       8
#     8   8   8   8   8   8   8   8
#     4  11  24  43  66  88 122 177 223 274 344 409
#     4  11  22  38  58  92 125 161 217 273 322 395
#     4  11  23  42  66  90 126 172 211 267 337 408
#     4  11  25  43  64  94 129 168 219 274 335 404
#     4   9  20  39  64  95 130 172 226 276 322 397
#     4   9  19  36  61  89 134 181 214 253 335 413
#     4  10  19  35  59  95 134 174 212 266 335 406
#     4  12  23  45  69  93 127 170 224 278 341 408
#
# _framework density 23.870555
#
# number of rings (size 3 to 8) (size 9 to 14) (size 15 to 20)
#    0.000    1.500    2.500    2.250    0.000    7.750 
#    0.000    1.875    0.000    1.500    0.000   10.500 
#    0.000    0.000    0.000    0.000    0.000    0.000 
#
# Total GULP energy -356830.994237 kJ/mol
# GULP energy per Si atom -5575.484285 kJ/mol
# Density = 2.381622 g / cm^3
# Si number density = 23.870555 Si / 1000 Ang^3
#
#
#
# Elastic Constant Matrix: (Units=GPa)
#
#
# Indices 1 2 3 4 5 6 
#
# 1 153.2457 17.8549 37.3219 0.0000 0.0000 0.0000
# 2 17.8549 49.4335 -5.3471 0.0000 0.0000 0.0000
# 3 37.3219 -5.3471 50.8613 0.0000 0.0000 0.0000
# 4 0.0000 0.0000 0.0000 11.1153 0.0000 0.0000
# 5 0.0000 0.0000 0.0000 0.0000 52.2037 0.0000
# 6 0.0000 0.0000 0.0000 0.0000 0.0000 5.3797
#
#
#
# Elastic Compliance Matrix: (Units=1/GPa)
#
#
# Indices 1 2 3 4 5 6 
#
# 1 0.008609 -0.003837 -0.006721 0.000000 0.000000 0.000000
# 2 -0.003837 0.022172 0.005146 0.000000 0.000000 0.000000
# 3 -0.006721 0.005146 0.025134 0.000000 0.000000 0.000000
# 4 0.000000 0.000000 0.000000 0.089966 0.000000 0.000000
# 5 0.000000 0.000000 0.000000 0.000000 0.019156 0.000000
# 6 0.000000 0.000000 0.000000 0.000000 0.000000 0.185885
#
#
# Mechanical properties :
#
#
# Convention : Reuss Voigt Hill
#
# Bulk Modulus (GPa) = 22.17663 39.24443 30.71053
# Shear Modulus (GPa) = 13.27053 27.32045 20.29549
#
# Velocity S-wave (km/s) = 2.36039 3.38675 2.91904
# Velocity P-wave (km/s) = 4.09135 5.63646 4.92488
#
# Compressibility (1/GPa) = 0.04509252
#
# Stress axis : x y z
#
# Youngs Moduli (GPa) = 116.15373 45.10282 39.78666
#
# Poissons Ratio (x) = 0.17304 0.26740
# Poissons Ratio (y) = 0.44563 -0.20475
# Poissons Ratio (z) = 0.78065 -0.23211
#
# Static dielectric constant tensor:
#      x y z
#    x 2.050420 0.000000 0.000000 
#    y 0.000000 1.951350 0.000000 
#    z 0.000000 0.000000 1.904590 
# 
# From -- ./inp_files/19073.got.cif
#   From: 2010.05.17/outbox.cif.g08.bks.cpg/sg48_10_cif.got.tgz:19073.got - 2010.06.03 20:39:00.
