data_PCOD9389260
_publ_section_title
;
Structure prediction by ZEFSAII (Michael W. Deem and Ramdas Pophale) SiO2 
 PCOD9389260
Probable space group: P M M M
;
_chemical_formula_sum "Si O2"
_cell_formula_units_Z 64
_cell_length_a 15.000000
_cell_length_b 30.000000
_cell_length_c 9.000000
_cell_angle_alpha 90.000000
_cell_angle_beta 90.000000
_cell_angle_gamma 90.000000
_cell_volume 4050.000000
_symmetry_space_group_name_H-M "P M M M"
_symmetry_group_IT_number 47
_symmetry_cell_setting 'orthorhombic'
loop_
_space_group_symop_operation_xyz
x,y,z
-x,-y,z
x,-y,-z
-x,y,-z
-x,-y,-z
x,y,-z
-x,y,z
x,-y,z
loop_
_atom_site_type_symbol
_atom_site_label
_atom_site_fract_x
_atom_site_fract_y
_atom_site_fract_z
Si Si1 0.097687 0.153422 0.678950
Si Si2 0.396652 0.195972 0.821168
Si Si3 0.901604 0.250967 0.178862
Si Si4 0.603037 0.361913 0.675832
Si Si5 0.608075 0.450930 0.828933
Si Si6 0.713298 0.284376 0.178443
Si Si7 0.598690 0.053149 0.170254
Si Si8 0.283728 0.117492 0.676004
O O1 0.099906 0.157754 0.500000
O O2 0.106779 0.202244 0.749495
O O3 0.182242 0.124701 0.725841
O O4 0.000000 0.135615 0.720740
O O5 0.500000 0.198877 0.775765
O O6 0.341655 0.240087 0.779583
O O7 0.346442 0.154480 0.750253
O O8 0.394206 0.192056 0.000000
O O9 0.816025 0.279175 0.225105
O O10 0.000000 0.268777 0.217436
O O11 0.897647 0.246050 0.000000
O O12 0.604287 0.357336 0.500000
O O13 0.500000 0.356099 0.726843
O O14 0.634190 0.410865 0.723972
O O15 0.664774 0.325842 0.750914
O O16 0.500000 0.452415 0.826634
O O17 0.640108 0.500000 0.785037
O O18 0.633917 0.442355 0.000000
O O19 0.710264 0.287937 0.000000
O O20 0.500000 0.068816 0.218404
O O21 0.675330 0.071226 0.273283
O O22 0.597488 0.000000 0.169103
O O23 0.611518 0.068461 0.000000
O O24 0.287489 0.122490 0.500000
#
# Coordination Sequence:
#
# PCOD9389260 Si02
#       8
#     8   8   8   8   8   8   8   8
#     4   9  18  32  48  67  93 122 149 180 223 273
#     4  10  20  32  45  63  90 125 159 186 217 263
#     4   9  17  30  49  70  88 110 148 196 236 266
#     4  10  20  30  41  61  90 124 159 194 230 267
#     4   8  14  26  44  63  83 112 152 194 233 274
#     4  10  19  31  46  63  88 122 156 188 224 271
#     4   9  19  36  55  72  92 121 153 183 220 268
#     4  11  21  31  48  73  96 118 149 188 226 265
#
# _framework density 15.802469
#
# number of rings (size 3 to 8) (size 9 to 14) (size 15 to 20)
#    0.000    2.500    1.250    2.250    0.000    5.250 
#    0.000    1.875    0.000    0.375    0.000    2.625 
#    0.000    0.500    0.000    5.750    0.000    1.875 
#
# Total GULP energy -356505.328957 kJ/mol
# GULP energy per Si atom -5570.395765 kJ/mol
# Density = 1.576650 g / cm^3
# Si number density = 15.802469 Si / 1000 Ang^3
#
#
#
# Elastic Constant Matrix: (Units=GPa)
#
#
# Indices 1 2 3 4 5 6 
#
# 1 125.3869 46.6396 32.8113 0.0000 0.0000 0.0000
# 2 46.6396 50.8145 17.2938 0.0000 0.0000 0.0000
# 3 32.8113 17.2938 -0.4261 0.0000 0.0000 0.0000
# 4 0.0000 0.0000 0.0000 54.9270 0.0000 0.0000
# 5 0.0000 0.0000 0.0000 0.0000 16.0517 0.0000
# 6 0.0000 0.0000 0.0000 0.0000 0.0000 -51.4089
#
#
#
# Elastic Compliance Matrix: (Units=1/GPa)
#
#
# Indices 1 2 3 4 5 6 
#
# 1 0.007810 -0.014302 0.020960 0.000000 0.000000 0.000000
# 2 -0.014302 0.027518 0.015539 0.000000 0.000000 0.000000
# 3 0.020960 0.015539 -0.102187 0.000000 0.000000 0.000000
# 4 0.000000 0.000000 0.000000 0.018206 0.000000 0.000000
# 5 0.000000 0.000000 0.000000 0.000000 0.062299 0.000000
# 6 0.000000 0.000000 0.000000 0.000000 0.000000 -0.019452
#
#
# Mechanical properties :
#
#
# Convention : Reuss Voigt Hill
#
# Bulk Modulus (GPa) = -44.51631 41.02939 -1.74346
# Shear Modulus (GPa) = -86.67329 9.18265 -38.74532
#
# Velocity S-wave (km/s) = -7.41397 2.41320 -4.95699
# Velocity P-wave (km/s) = 10.07576 5.81248 5.81962
#
# Compressibility (1/GPa) = -0.02246368
#
# Stress axis : x y z
#
# Youngs Moduli (GPa) = 128.03560 36.33988 -9.78602
#
# Poissons Ratio (x) = 0.51973 0.20512
# Poissons Ratio (y) = 1.83117 0.15207
# Poissons Ratio (z) = -2.68365 -0.56469
#
# Static dielectric constant tensor:
#      x y z
#    x 1.543280 0.000000 0.000000 
#    y 0.000000 1.527590 0.000000 
#    z 0.000000 0.000000 1.531590 
# 
# From -- ./inp_files/8204.got.cif
#   From: 2010.05.17/outbox.ucp.g08.bks.cvg/sg47_5_cif.got.tgz:8204.got - 2010.06.11 16:36:43.
