data_PCOD9389126
_publ_section_title
;
Structure prediction by ZEFSAII (Michael W. Deem and Ramdas Pophale) SiO2 
 PCOD9389126
Probable space group: P M M M
;
_chemical_formula_sum "Si O2"
_cell_formula_units_Z 52
_cell_length_a 17.603517
_cell_length_b 9.224023
_cell_length_c 18.349661
_cell_angle_alpha 90.000000
_cell_angle_beta 90.000000
_cell_angle_gamma 90.000000
_cell_volume 2979.530713
_symmetry_space_group_name_H-M "P M M M"
_symmetry_group_IT_number 47
_symmetry_cell_setting 'orthorhombic'
loop_
_space_group_symop_operation_xyz
x,y,z
-x,-y,z
x,-y,-z
-x,y,-z
-x,-y,-z
x,y,-z
-x,y,z
x,-y,z
loop_
_atom_site_type_symbol
_atom_site_label
_atom_site_fract_x
_atom_site_fract_y
_atom_site_fract_z
Si Si1 0.886569 0.167549 0.500000
Si Si2 0.586435 0.823561 0.917302
Si Si3 0.000000 0.176074 0.916415
Si Si4 0.299217 0.666549 0.355290
Si Si5 0.298774 0.166850 0.500000
Si Si6 0.114331 0.332786 0.646673
Si Si7 0.120268 0.173678 0.795724
Si Si8 0.701012 0.173901 0.792356
O O1 0.793893 0.168593 0.500000
O O2 0.910574 0.248915 0.426154
O O3 0.910034 0.000000 0.500000
O O4 0.500000 0.779917 0.899091
O O5 0.648318 0.776941 0.858801
O O6 0.587430 0.000000 0.917663
O O7 0.603290 0.776662 0.000000
O O8 0.072374 0.217196 0.866810
O O9 0.000000 0.000000 0.920230
O O10 0.000000 0.229054 0.000000
O O11 0.323629 0.500000 0.356179
O O12 0.324005 0.750737 0.427451
O O13 0.206748 0.668058 0.355380
O O14 0.322441 0.748209 0.282016
O O15 0.322454 0.000000 0.500000
O O16 0.090083 0.500000 0.645865
O O17 0.093729 0.253404 0.722028
O O18 0.209791 0.203458 0.806098
O O19 0.111178 0.000000 0.785339
O O20 0.693801 0.000000 0.783672
#
# Coordination Sequence:
#
# PCOD9389126 Si02
#       8
#     4   8   4   8   4   8   8   8
#     4   9  15  23  39  64  92 120 150 184 222 265
#     4   8  14  25  42  66  94 119 144 180 226 270
#     4   9  18  32  49  68  89 114 147 189 234 275
#     4   9  16  25  38  59  89 122 153 185 223 266
#     4   9  15  23  37  59  89 121 153 190 225 258
#     4   9  16  26  41  62  89 120 152 185 223 266
#     4   9  17  29  45  65  89 117 150 188 228 267
#     4   9  16  26  43  67  91 116 150 188 222 262
#
# _framework density 17.452411999999999
#
# number of rings (size 3 to 8) (size 9 to 14) (size 15 to 20)
#    0.000    3.154    0.000    1.846    0.000    6.154 
#    0.000    3.462    0.000    2.308    0.000    9.154 
#    0.000    4.308    0.000    0.000    0.000    0.000 
#
# Total GULP energy -289790.210438 kJ/mol
# GULP energy per Si atom -5572.888662 kJ/mol
# Density = 1.741269 g / cm^3
# Si number density = 17.452412 Si / 1000 Ang^3
#
#
#
# Elastic Constant Matrix: (Units=GPa)
#
#
# Indices 1 2 3 4 5 6 
#
# 1 55.2853 34.5931 72.4795 0.0000 0.0000 0.0000
# 2 34.5931 71.2312 76.4670 0.0000 0.0000 0.0000
# 3 72.4795 76.4670 208.0888 0.0000 0.0000 0.0000
# 4 0.0000 0.0000 0.0000 -5.1927 0.0000 0.0000
# 5 0.0000 0.0000 0.0000 0.0000 -38.0061 0.0000
# 6 0.0000 0.0000 0.0000 0.0000 0.0000 -2.6005
#
#
#
# Elastic Compliance Matrix: (Units=1/GPa)
#
#
# Indices 1 2 3 4 5 6 
#
# 1 0.035000 -0.006458 -0.009818 0.000000 0.000000 0.000000
# 2 -0.006458 0.024377 -0.006708 0.000000 0.000000 0.000000
# 3 -0.009818 -0.006708 0.010690 0.000000 0.000000 0.000000
# 4 0.000000 0.000000 0.000000 -0.192579 0.000000 0.000000
# 5 0.000000 0.000000 0.000000 0.000000 -0.026312 0.000000
# 6 0.000000 0.000000 0.000000 0.000000 0.000000 -0.384536
#
#
# Mechanical properties :
#
#
# Convention : Reuss Voigt Hill
#
# Bulk Modulus (GPa) = 41.49625 77.96494 59.73060
# Shear Modulus (GPa) = -10.43060 0.91120 -4.75970
#
# Velocity S-wave (km/s) = -2.44736 0.72335 -1.65323
# Velocity P-wave (km/s) = 3.98024 6.74296 5.53669
#
# Compressibility (1/GPa) = 0.02409856
#
# Stress axis : x y z
#
# Youngs Moduli (GPa) = 28.57138 41.02309 93.54268
#
# Poissons Ratio (x) = 0.26494 0.91837
# Poissons Ratio (y) = 0.18452 0.62750
# Poissons Ratio (z) = 0.28050 0.27519
#
# Static dielectric constant tensor:
#      x y z
#    x 1.599610 0.000000 0.000000 
#    y 0.000000 1.577500 0.000000 
#    z 0.000000 0.000000 1.575610 
# 
# From -- ./inp_files/25086.got.cif
#   From: 2010.05.17/outbox.cif.g08.bks.cpg/sg47_13_cif.got.tgz:25086.got - 2010.06.03 20:15:42.
