data_PCOD9389767
_publ_section_title
;
Structure prediction by ZEFSAII (Michael W. Deem and Ramdas Pophale) SiO2 
 PCOD9389767
Probable space group: P N N N
;
_chemical_formula_sum "Si O2"
_cell_formula_units_Z 48
_cell_length_a 15.158598
_cell_length_b 16.472702
_cell_length_c 8.178057
_cell_angle_alpha 90.000000
_cell_angle_beta 90.000000
_cell_angle_gamma 90.000000
_cell_volume 2042.085920
_symmetry_space_group_name_H-M "P N N N"
_symmetry_group_IT_number 48
_space_group.IT_coordinate_system_code '2'
_symmetry_cell_setting 'orthorhombic'
loop_
_space_group_symop_operation_xyz
x,y,z
1/2-x,1/2-y,z
x,1/2-y,1/2-z
1/2-x,y,1/2-z
-x,-y,-z
1/2+x,1/2+y,-z
-x,1/2+y,1/2+z
1/2+x,-y,1/2+z
loop_
_atom_site_type_symbol
_atom_site_label
_atom_site_fract_x
_atom_site_fract_y
_atom_site_fract_z
Si Si1 0.722774 0.083636 0.556273
Si Si2 0.091303 0.908220 0.499132
Si Si3 0.640184 0.923449 0.520376
Si Si4 0.378569 0.247931 0.563033
Si Si5 0.468780 0.634772 0.131314
Si Si6 0.913526 0.911095 0.613273
O O1 0.750000 0.077561 0.750000
O O2 0.706359 0.994869 0.478248
O O3 0.809706 0.123128 0.478590
O O4 0.626690 0.124567 0.549784
O O5 0.051368 0.878901 0.323527
O O6 0.017051 0.889475 0.630469
O O7 0.096240 0.006717 0.490441
O O8 0.670389 0.830303 0.508661
O O9 0.621767 0.934386 0.711020
O O10 0.548101 0.926731 0.419915
O O11 0.350606 0.250000 0.750000
O O12 0.481378 0.216888 0.575389
O O13 0.372320 0.331779 0.469129
#
# Coordination Sequence:
#
# PCOD9389767 Si02
#       6
#     8   8   8   8   8   8
#     4  10  18  36  57  92 109 144 197 236 278 351
#     4  10  21  34  63  81 118 146 193 241 283 351
#     4  10  20  33  64  83 113 149 194 242 281 343
#     4  10  21  36  58  81 115 155 198 231 291 358
#     4   9  19  35  60  81 111 154 184 239 286 347
#     4  11  19  36  55  90 108 152 191 239 287 340
#
# _framework density 23.505379000000001
#
# number of rings (size 3 to 8) (size 9 to 14) (size 15 to 20)
#    1.000    1.000    5.000    1.000    0.000    0.000 
#    0.000    2.500    0.000    1.000    4.333    0.000 
#    0.000    0.000    0.000    0.000    0.000    0.000 
#
# Total GULP energy -267626.349287 kJ/mol
# GULP energy per Si atom -5575.548943 kJ/mol
# Density = 2.345188 g / cm^3
# Si number density = 23.505379 Si / 1000 Ang^3
#
#
#
# Elastic Constant Matrix: (Units=GPa)
#
#
# Indices 1 2 3 4 5 6 
#
# 1 169.8235 11.6781 12.1709 0.0000 0.0000 0.0000
# 2 11.6781 65.0510 -1.2050 0.0000 0.0000 0.0000
# 3 12.1709 -1.2050 16.3047 0.0000 0.0000 0.0000
# 4 0.0000 0.0000 0.0000 25.3800 0.0000 0.0000
# 5 0.0000 0.0000 0.0000 0.0000 7.0642 0.0000
# 6 0.0000 0.0000 0.0000 0.0000 0.0000 26.0015
#
#
#
# Elastic Compliance Matrix: (Units=1/GPa)
#
#
# Indices 1 2 3 4 5 6 
#
# 1 0.006317 -0.001223 -0.004806 0.000000 0.000000 0.000000
# 2 -0.001223 0.015630 0.002068 0.000000 0.000000 0.000000
# 3 -0.004806 0.002068 0.065072 0.000000 0.000000 0.000000
# 4 0.000000 0.000000 0.000000 0.039401 0.000000 0.000000
# 5 0.000000 0.000000 0.000000 0.000000 0.141558 0.000000
# 6 0.000000 0.000000 0.000000 0.000000 0.000000 0.038459
#
#
# Mechanical properties :
#
#
# Convention : Reuss Voigt Hill
#
# Bulk Modulus (GPa) = 12.64254 32.94080 22.79167
# Shear Modulus (GPa) = 14.67458 26.92484 20.79971
#
# Velocity S-wave (km/s) = 2.50132 3.38816 2.97794
# Velocity P-wave (km/s) = 3.70573 5.41763 4.64129
#
# Compressibility (1/GPa) = 0.07909805
#
# Stress axis : x y z
#
# Youngs Moduli (GPa) = 158.30320 63.97774 15.36757
#
# Poissons Ratio (x) = 0.07825 0.07385
# Poissons Ratio (y) = 0.19361 -0.03178
# Poissons Ratio (z) = 0.76077 -0.13231
#
# Static dielectric constant tensor:
#      x y z
#    x 1.985100 0.000000 0.000000 
#    y 0.000000 1.958060 0.000000 
#    z 0.000000 0.000000 1.833140 
# 
# From -- ./inp_files/14308.got.cif
#   From: 2010.05.17/outbox.cif.g08.bks.cpg/sg48_8_cif.got.tgz:14308.got - 2010.06.03 20:39:00.
