data_PCOD9389913
_publ_section_title
;
Structure prediction by ZEFSAII (Michael W. Deem and Ramdas Pophale) SiO2 
 PCOD9389913
Probable space group: P N N N
;
_chemical_formula_sum "Si O2"
_cell_formula_units_Z 56
_cell_length_a 20.231092
_cell_length_b 11.484213
_cell_length_c 12.554252
_cell_angle_alpha 90.000000
_cell_angle_beta 90.000000
_cell_angle_gamma 90.000000
_cell_volume 2916.831932
_symmetry_space_group_name_H-M "P N N N"
_symmetry_group_IT_number 48
_space_group.IT_coordinate_system_code '2'
_symmetry_cell_setting 'orthorhombic'
loop_
_space_group_symop_operation_xyz
x,y,z
1/2-x,1/2-y,z
x,1/2-y,1/2-z
1/2-x,y,1/2-z
-x,-y,-z
1/2+x,1/2+y,-z
-x,1/2+y,1/2+z
1/2+x,-y,1/2+z
loop_
_atom_site_type_symbol
_atom_site_label
_atom_site_fract_x
_atom_site_fract_y
_atom_site_fract_z
Si Si1 0.093933 0.610964 0.946316
Si Si2 0.575005 0.551254 0.871304
Si Si3 0.878700 0.753628 0.515206
Si Si4 0.927792 0.381576 0.438916
Si Si5 0.799639 0.929456 0.398197
Si Si6 0.148247 0.084290 0.834948
Si Si7 0.457931 0.040869 0.127743
O O1 0.093757 0.748500 0.932651
O O2 0.164212 0.550214 0.926420
O O3 0.037107 0.553744 0.871628
O O4 0.067040 0.570215 0.061701
O O5 0.628110 0.650231 0.900396
O O6 0.505332 0.605138 0.912711
O O7 0.569315 0.535173 0.746308
O O8 0.585146 0.437860 0.944429
O O9 0.817592 0.835519 0.487296
O O10 0.890597 0.681462 0.404706
O O11 0.931601 0.846252 0.561515
O O12 0.889720 0.464148 0.355836
O O13 0.835695 0.890476 0.287941
O O14 0.721829 0.931900 0.382736
#
# Coordination Sequence:
#
# PCOD9389913 Si02
#       7
#     8   8   8   8   8   8   8
#     4  10  21  36  54  82 114 145 183 226 275 333
#     4  10  20  35  56  82 112 144 181 229 281 331
#     4  10  19  33  56  81 109 143 182 229 276 319
#     4  10  21  36  54  82 114 145 183 226 275 333
#     4  10  21  36  56  83 115 150 185 225 276 332
#     4  10  21  36  56  83 115 150 185 225 276 332
#     4  10  20  35  56  82 112 144 181 229 281 331
#
# _framework density 19.198912
#
# number of rings (size 3 to 8) (size 9 to 14) (size 15 to 20)
#    0.000    2.000    1.429    2.143    0.000    4.000 
#    0.000    2.857    0.000   35.143    0.000    8.000 
#    0.000    0.000    0.000    0.000    0.000    0.000 
#
# Total GULP energy -312241.553351 kJ/mol
# GULP energy per Si atom -5575.742024 kJ/mol
# Density = 1.915521 g / cm^3
# Si number density = 19.198912 Si / 1000 Ang^3
#
#
#
# Elastic Constant Matrix: (Units=GPa)
#
#
# Indices 1 2 3 4 5 6 
#
# 1 54.0312 4.2000 21.9112 0.0000 0.0000 0.0000
# 2 4.2000 40.8444 5.4373 0.0000 0.0000 0.0000
# 3 21.9112 5.4373 95.3600 0.0000 0.0000 0.0000
# 4 0.0000 0.0000 0.0000 15.6522 0.0000 0.0000
# 5 0.0000 0.0000 0.0000 0.0000 27.5324 0.0000
# 6 0.0000 0.0000 0.0000 0.0000 0.0000 15.8372
#
#
#
# Elastic Compliance Matrix: (Units=1/GPa)
#
#
# Indices 1 2 3 4 5 6 
#
# 1 0.020499 -0.001492 -0.004625 0.000000 0.000000 0.000000
# 2 -0.001492 0.024779 -0.001070 0.000000 0.000000 0.000000
# 3 -0.004625 -0.001070 0.011610 0.000000 0.000000 0.000000
# 4 0.000000 0.000000 0.000000 0.063889 0.000000 0.000000
# 5 0.000000 0.000000 0.000000 0.000000 0.036321 0.000000
# 6 0.000000 0.000000 0.000000 0.000000 0.000000 0.063142
#
#
# Mechanical properties :
#
#
# Convention : Reuss Voigt Hill
#
# Bulk Modulus (GPa) = 23.52159 28.14805 25.83482
# Shear Modulus (GPa) = 20.09750 22.38350 21.24050
#
# Velocity S-wave (km/s) = 3.23895 3.41819 3.32978
# Velocity P-wave (km/s) = 5.12502 5.50198 5.31684
#
# Compressibility (1/GPa) = 0.04251413
#
# Stress axis : x y z
#
# Youngs Moduli (GPa) = 48.78176 40.35665 86.13030
#
# Poissons Ratio (x) = 0.06022 0.39837
# Poissons Ratio (y) = 0.07279 0.09216
# Poissons Ratio (z) = 0.22562 0.04318
#
# Static dielectric constant tensor:
#      x y z
#    x 1.673030 0.000000 0.000000 
#    y 0.000000 1.681340 0.000000 
#    z 0.000000 0.000000 1.687670 
# 
# From -- ./inp_files/22879.got.cif
#   From: 2010.05.17/outbox.cif.g08.bks.cpg/sg48_12_cif.got.tgz:22879.got - 2010.06.03 20:39:00.
