data_PCOD9389968
_publ_section_title
;
Structure prediction by ZEFSAII (Michael W. Deem and Ramdas Pophale) SiO2 
 PCOD9389968
Probable space group: P N N N
;
_chemical_formula_sum "Si O2"
_cell_formula_units_Z 56
_cell_length_a 14.812205
_cell_length_b 29.176215
_cell_length_c 5.508804
_cell_angle_alpha 90.000000
_cell_angle_beta 90.000000
_cell_angle_gamma 90.000000
_cell_volume 2380.707200
_symmetry_space_group_name_H-M "P N N N"
_symmetry_group_IT_number 48
_space_group.IT_coordinate_system_code '2'
_symmetry_cell_setting 'orthorhombic'
loop_
_space_group_symop_operation_xyz
x,y,z
1/2-x,1/2-y,z
x,1/2-y,1/2-z
1/2-x,y,1/2-z
-x,-y,-z
1/2+x,1/2+y,-z
-x,1/2+y,1/2+z
1/2+x,-y,1/2+z
loop_
_atom_site_type_symbol
_atom_site_label
_atom_site_fract_x
_atom_site_fract_y
_atom_site_fract_z
Si Si1 0.351907 0.079425 0.517728
Si Si2 0.145634 0.681868 0.688056
Si Si3 0.776151 0.668785 0.990060
Si Si4 0.447369 0.797285 0.206771
Si Si5 0.800150 0.476412 0.506552
Si Si6 0.946894 0.414641 0.314541
Si Si7 0.951391 0.882407 0.413438
O O1 0.286300 0.122468 0.487047
O O2 0.447436 0.087027 0.385511
O O3 0.384685 0.080946 0.795717
O O4 0.310230 0.030860 0.461687
O O5 0.250000 0.686670 0.750000
O O6 0.124496 0.705214 0.428379
O O7 0.116620 0.629240 0.647446
O O8 0.089722 0.697822 0.929736
O O9 0.750000 0.695753 0.750000
O O10 0.750000 0.689658 0.250000
O O11 0.879552 0.652399 0.962210
O O12 0.501146 0.750000 0.250000
O O13 0.501970 0.843973 0.255750
O O14 0.750000 0.458505 0.750000
O O15 0.898724 0.455411 0.453922
O O16 0.750000 0.466824 0.250000
O O17 0.965779 0.410817 0.026524
#
# Coordination Sequence:
#
# PCOD9389968 Si02
#       7
#     8   8   8   8   8   8   8
#     4  11  22  42  66  93 131 173 230 272 333 397
#     4  11  24  43  67  96 134 177 220 266 330 402
#     4  10  19  34  61  92 123 162 214 268 313 385
#     4  11  24  42  67 101 135 172 216 274 334 401
#     4  12  29  44  63  95 136 181 225 284 339 389
#     4  11  24  42  67  96 132 177 224 279 333 396
#     4  10  22  40  68  98 133 174 223 272 340 400
#
# _framework density 23.522421999999999
#
# number of rings (size 3 to 8) (size 9 to 14) (size 15 to 20)
#    0.000    1.143    2.857    3.429    4.000    3.429 
#    0.000    0.000    0.000    3.857    0.000    5.000 
#    0.000    0.000    0.000    0.000    0.000    0.000 
#
# Total GULP energy -311855.074453 kJ/mol
# GULP energy per Si atom -5568.840615 kJ/mol
# Density = 2.346888 g / cm^3
# Si number density = 23.522422 Si / 1000 Ang^3
#
#
#
# Elastic Constant Matrix: (Units=GPa)
#
#
# Indices 1 2 3 4 5 6 
#
# 1 86.6081 6.0190 24.7694 0.0000 0.0000 0.0000
# 2 6.0190 54.9185 23.9966 0.0000 0.0000 0.0000
# 3 24.7694 23.9966 131.4328 0.0000 0.0000 0.0000
# 4 0.0000 0.0000 0.0000 8.6823 0.0000 0.0000
# 5 0.0000 0.0000 0.0000 0.0000 45.3818 0.0000
# 6 0.0000 0.0000 0.0000 0.0000 0.0000 57.2738
#
#
#
# Elastic Compliance Matrix: (Units=1/GPa)
#
#
# Indices 1 2 3 4 5 6 
#
# 1 0.012211 -0.000362 -0.002235 0.000000 0.000000 0.000000
# 2 -0.000362 0.019798 -0.003547 0.000000 0.000000 0.000000
# 3 -0.002235 -0.003547 0.008677 0.000000 0.000000 0.000000
# 4 0.000000 0.000000 0.000000 0.115177 0.000000 0.000000
# 5 0.000000 0.000000 0.000000 0.000000 0.022035 0.000000
# 6 0.000000 0.000000 0.000000 0.000000 0.000000 0.017460
#
#
# Mechanical properties :
#
#
# Convention : Reuss Voigt Hill
#
# Bulk Modulus (GPa) = 35.21211 42.50328 38.85769
# Shear Modulus (GPa) = 23.02970 36.81254 29.92112
#
# Velocity S-wave (km/s) = 3.13238 3.96030 3.57042
# Velocity P-wave (km/s) = 5.29948 6.24663 5.79245
#
# Compressibility (1/GPa) = 0.02839932
#
# Stress axis : x y z
#
# Youngs Moduli (GPa) = 81.89586 50.50988 115.24464
#
# Poissons Ratio (x) = 0.01827 0.25759
# Poissons Ratio (y) = 0.02962 0.40872
# Poissons Ratio (z) = 0.18305 0.17913
#
# Static dielectric constant tensor:
#      x y z
#    x 1.881280 0.000000 0.000000 
#    y 0.000000 1.884410 0.000000 
#    z 0.000000 0.000000 2.221020 
# 
# From -- ./inp_files/3713.got.cif
#   From: 2010.05.17/outbox.cif.g08.bks.cpg/sg48_2_cif.got.tgz:3713.got - 2010.06.03 20:39:00.
