data_PCOD9389450
_publ_section_title
;
Structure prediction by ZEFSAII (Michael W. Deem and Ramdas Pophale) SiO2 
 PCOD9389450
Probable space group: P M M M
;
_chemical_formula_sum "Si O2"
_cell_formula_units_Z 64
_cell_length_a 9.000000
_cell_length_b 24.000000
_cell_length_c 15.000000
_cell_angle_alpha 90.000000
_cell_angle_beta 90.000000
_cell_angle_gamma 90.000000
_cell_volume 3240.000000
_symmetry_space_group_name_H-M "P M M M"
_symmetry_group_IT_number 47
_symmetry_cell_setting 'orthorhombic'
loop_
_space_group_symop_operation_xyz
x,y,z
-x,-y,z
x,-y,-z
-x,y,-z
-x,-y,-z
x,y,-z
-x,y,z
x,-y,z
loop_
_atom_site_type_symbol
_atom_site_label
_atom_site_fract_x
_atom_site_fract_y
_atom_site_fract_z
Si Si1 0.170448 0.667438 0.344972
Si Si2 0.676720 0.934012 0.600038
Si Si3 0.676145 0.675262 0.160831
Si Si4 0.666844 0.233726 0.599236
Si Si5 0.823736 0.216282 0.901799
Si Si6 0.825085 0.152348 0.273126
Si Si7 0.334811 0.563919 0.392568
Si Si8 0.829815 0.562643 0.107253
O O1 0.223329 0.684491 0.247661
O O2 0.281969 0.702633 0.405398
O O3 0.207682 0.602876 0.355706
O O4 0.000000 0.679497 0.363529
O O5 0.732699 0.918967 0.500000
O O6 0.500000 0.923347 0.600425
O O7 0.747881 0.900081 0.680464
O O8 0.699482 0.000000 0.610331
O O9 0.500000 0.678422 0.176466
O O10 0.730561 0.726526 0.100726
O O11 0.721319 0.613219 0.130334
O O12 0.666550 0.210114 0.500000
O O13 0.500000 0.229019 0.635929
O O14 0.783337 0.202212 0.659939
O O15 0.775801 0.174149 0.823825
O O16 0.000000 0.229405 0.887760
O O17 0.809408 0.191120 0.000000
O O18 0.000000 0.142895 0.269802
O O19 0.331397 0.565761 0.500000
O O20 0.500000 0.583174 0.363555
O O21 0.317876 0.500000 0.365737
O O22 0.787738 0.500000 0.138105
O O23 0.000000 0.574381 0.138250
O O24 0.835273 0.560604 0.000000
#
# Coordination Sequence:
#
# PCOD9389450 Si02
#       8
#     8   8   8   8   8   8   8   8
#     4  12  24  37  54  77 107 142 183 233 286 342
#     4   9  19  37  61  90 128 174 214 247 293 350
#     4  12  24  37  56  81 110 144 186 239 298 358
#     4  11  23  38  57  82 116 156 191 232 290 350
#     4  10  22  41  62  84 116 158 200 247 305 363
#     4  11  22  36  59  91 123 158 202 250 294 343
#     4   9  19  37  58  77 100 134 177 226 283 347
#     4   9  19  37  59  80 104 137 176 223 288 363
#
# _framework density 19.753086
#
# number of rings (size 3 to 8) (size 9 to 14) (size 15 to 20)
#    0.000    1.625    1.250    5.250    0.000    8.250 
#    0.000    1.875    0.000    0.375    0.000    2.625 
#    0.000    0.000    0.000    0.000    0.000    0.000 
#
# Total GULP energy -357115.807325 kJ/mol
# GULP energy per Si atom -5579.934489 kJ/mol
# Density = 1.970813 g / cm^3
# Si number density = 19.753086 Si / 1000 Ang^3
#
#
#
# Elastic Constant Matrix: (Units=GPa)
#
#
# Indices 1 2 3 4 5 6 
#
# 1 30.1804 41.4928 9.0460 0.0000 0.0000 0.0000
# 2 41.4928 83.6412 38.2906 0.0000 0.0000 0.0000
# 3 9.0460 38.2906 91.4491 0.0000 0.0000 0.0000
# 4 0.0000 0.0000 0.0000 25.0026 0.0000 0.0000
# 5 0.0000 0.0000 0.0000 0.0000 19.2463 0.0000
# 6 0.0000 0.0000 0.0000 0.0000 0.0000 33.8353
#
#
#
# Elastic Compliance Matrix: (Units=1/GPa)
#
#
# Indices 1 2 3 4 5 6 
#
# 1 0.121102 -0.067538 0.016300 0.000000 0.000000 0.000000
# 2 -0.067538 0.052457 -0.015283 0.000000 0.000000 0.000000
# 3 0.016300 -0.015283 0.015722 0.000000 0.000000 0.000000
# 4 0.000000 0.000000 0.000000 0.039996 0.000000 0.000000
# 5 0.000000 0.000000 0.000000 0.000000 0.051958 0.000000
# 6 0.000000 0.000000 0.000000 0.000000 0.000000 0.029555
#
#
# Mechanical properties :
#
#
# Convention : Reuss Voigt Hill
#
# Bulk Modulus (GPa) = 17.78197 42.54773 30.16485
# Shear Modulus (GPa) = 10.80898 23.37960 17.09429
#
# Velocity S-wave (km/s) = 2.34178 3.44407 2.94496
# Velocity P-wave (km/s) = 4.04148 6.11572 5.18342
#
# Compressibility (1/GPa) = 0.05623674
#
# Stress axis : x y z
#
# Youngs Moduli (GPa) = 8.25753 19.06330 63.60515
#
# Poissons Ratio (x) = 1.28750 -1.03674
# Poissons Ratio (y) = 0.55770 0.97210
# Poissons Ratio (z) = -0.13459 0.29135
#
# Static dielectric constant tensor:
#      x y z
#    x 1.667550 0.000000 0.000000 
#    y 0.000000 1.730310 0.000000 
#    z 0.000000 0.000000 1.777540 
# 
# From -- ./inp_files/7859.got.cif
#   From: 2010.05.17/outbox.ucp.g08.bks.cvg/sg47_4_cif.got.tgz:7859.got - 2010.06.11 16:36:43.
