data_PCOD9389602
_publ_section_title
;
Structure prediction by ZEFSAII (Michael W. Deem and Ramdas Pophale) SiO2 
 PCOD9389602
Probable space group: P N N N
;
_chemical_formula_sum "Si O2"
_cell_formula_units_Z 56
_cell_length_a 5.472170
_cell_length_b 17.543388
_cell_length_c 24.259224
_cell_angle_alpha 90.000000
_cell_angle_beta 90.000000
_cell_angle_gamma 90.000000
_cell_volume 2328.895244
_symmetry_space_group_name_H-M "P N N N"
_symmetry_group_IT_number 48
_space_group.IT_coordinate_system_code '2'
_symmetry_cell_setting 'orthorhombic'
loop_
_space_group_symop_operation_xyz
x,y,z
1/2-x,1/2-y,z
x,1/2-y,1/2-z
1/2-x,y,1/2-z
-x,-y,-z
1/2+x,1/2+y,-z
-x,1/2+y,1/2+z
1/2+x,-y,1/2+z
loop_
_atom_site_type_symbol
_atom_site_label
_atom_site_fract_x
_atom_site_fract_y
_atom_site_fract_z
Si Si1 0.660028 0.874529 0.916380
Si Si2 0.691318 0.166362 0.659170
Si Si3 0.166081 0.944612 0.664018
Si Si4 0.844088 0.886163 0.465439
Si Si5 0.687841 0.625541 0.339346
Si Si6 0.173205 0.373197 0.305566
Si Si7 0.843451 0.041969 0.938194
O O1 0.393410 0.900958 0.893633
O O2 0.783883 0.833187 0.864573
O O3 0.805527 0.955456 0.919879
O O4 0.664209 0.840186 0.977227
O O5 0.750000 0.250000 0.636018
O O6 0.425064 0.164694 0.685214
O O7 0.666854 0.099383 0.614003
O O8 0.936356 0.144557 0.690833
O O9 0.212391 0.033994 0.657918
O O10 0.399934 0.906428 0.692700
O O11 0.899704 0.934650 0.692840
O O12 0.836690 0.848851 0.404456
O O13 0.603399 0.939643 0.465277
O O14 0.098192 0.931968 0.469459
O O15 0.250000 0.330800 0.250000
#
# Coordination Sequence:
#
# PCOD9389602 Si02
#       7
#     8   8   8   8   8   8   8
#     4  10  20  26  46  59  87 110 140 166 211 240
#     4  10  18  29  43  59  86 116 138 169 208 242
#     4  10  19  30  45  60  84 107 135 183 205 245
#     4  10  18  26  41  61  87 113 132 167 207 235
#     4  10  18  31  42  66  87 105 143 176 199 253
#     4  10  20  31  42  60  84 111 143 173 208 251
#     4  10  19  28  40  63  88 106 143 170 196 249
#
# _framework density 24.045735000000001
#
# number of rings (size 3 to 8) (size 9 to 14) (size 15 to 20)
#    0.857    1.143    2.857    4.286    2.000    0.000 
#    0.000    0.000    0.000    0.000    0.000    0.000 
#    0.000  111.429    0.000    0.000    0.000   68.571 
#
# Total GULP energy -311824.489224 kJ/mol
# GULP energy per Si atom -5568.294450 kJ/mol
# Density = 2.399101 g / cm^3
# Si number density = 24.045735 Si / 1000 Ang^3
#
#
#
# Elastic Constant Matrix: (Units=GPa)
#
#
# Indices 1 2 3 4 5 6 
#
# 1 239.7372 26.0401 33.0998 0.0000 0.0000 0.0000
# 2 26.0401 80.9868 6.6555 0.0000 0.0000 0.0000
# 3 33.0998 6.6555 124.2901 0.0000 0.0000 0.0000
# 4 0.0000 0.0000 0.0000 -18.8118 0.0000 0.0000
# 5 0.0000 0.0000 0.0000 0.0000 31.0151 0.0000
# 6 0.0000 0.0000 0.0000 0.0000 0.0000 -9.6128
#
#
#
# Elastic Compliance Matrix: (Units=1/GPa)
#
#
# Indices 1 2 3 4 5 6 
#
# 1 0.004472 -0.001346 -0.001119 0.000000 0.000000 0.000000
# 2 -0.001346 0.012807 -0.000327 0.000000 0.000000 0.000000
# 3 -0.001119 -0.000327 0.008361 0.000000 0.000000 0.000000
# 4 0.000000 0.000000 0.000000 -0.053158 0.000000 0.000000
# 5 0.000000 0.000000 0.000000 0.000000 0.032242 0.000000
# 6 0.000000 0.000000 0.000000 0.000000 0.000000 -0.104028
#
#
# Mechanical properties :
#
#
# Convention : Reuss Voigt Hill
#
# Bulk Modulus (GPa) = 49.86001 64.06722 56.96362
# Shear Modulus (GPa) = -57.44900 25.79935 -15.82483
#
# Velocity S-wave (km/s) = -4.89320 3.27911 -2.56816
# Velocity P-wave (km/s) = 3.33827 6.40613 3.86616
#
# Compressibility (1/GPa) = 0.02005615
#
# Stress axis : x y z
#
# Youngs Moduli (GPa) = 223.61846 78.08009 119.60030
#
# Poissons Ratio (x) = 0.10509 0.13381
# Poissons Ratio (y) = 0.30097 0.03915
# Poissons Ratio (z) = 0.25019 0.02556
#
# Static dielectric constant tensor:
#      x y z
#    x 1.999380 0.000000 0.000000 
#    y 0.000000 1.882390 0.000000 
#    z 0.000000 0.000000 2.081940 
# 
# From -- ./inp_files/35512.got.cif
#   From: 2010.05.17/outbox.cif.g08.bks.cpg/sg48_18_cif.got.tgz:35512.got - 2010.06.03 20:39:00.
