data_PCOD9389540
_publ_section_title
;
Structure prediction by ZEFSAII (Michael W. Deem and Ramdas Pophale) SiO2 
 PCOD9389540
Probable space group: P N N N
;
_chemical_formula_sum "Si O2"
_cell_formula_units_Z 64
_cell_length_a 5.644247
_cell_length_b 29.842837
_cell_length_c 15.582130
_cell_angle_alpha 90.000000
_cell_angle_beta 90.000000
_cell_angle_gamma 90.000000
_cell_volume 2624.659325
_symmetry_space_group_name_H-M "P N N N"
_symmetry_group_IT_number 48
_space_group.IT_coordinate_system_code '2'
_symmetry_cell_setting 'orthorhombic'
loop_
_space_group_symop_operation_xyz
x,y,z
1/2-x,1/2-y,z
x,1/2-y,1/2-z
1/2-x,y,1/2-z
-x,-y,-z
1/2+x,1/2+y,-z
-x,1/2+y,1/2+z
1/2+x,-y,1/2+z
loop_
_atom_site_type_symbol
_atom_site_label
_atom_site_fract_x
_atom_site_fract_y
_atom_site_fract_z
Si Si1 0.750000 0.838783 0.613635
Si Si2 0.750000 0.475220 0.067007
Si Si3 0.250000 0.429578 0.619103
Si Si4 0.250000 0.801961 0.877330
Si Si5 0.750000 0.317475 0.917019
Si Si6 0.750000 0.423796 0.614116
Si Si7 0.250000 0.056922 0.146715
Si Si8 0.250000 0.177194 0.584411
O O1 0.497551 0.823862 0.652189
O O2 0.750000 0.892314 0.610839
O O3 0.750000 0.817024 0.518415
O O4 0.002448 0.823862 0.652189
O O5 0.750000 0.528984 0.052147
O O6 0.504769 0.463622 0.116830
O O7 0.995231 0.463622 0.116830
O O8 0.750000 0.448048 0.978308
O O9 0.506339 0.435184 0.660270
O O10 0.250000 0.377221 0.593173
O O11 0.993660 0.435184 0.660270
O O12 0.250000 0.750000 0.855095
O O13 0.250000 0.806674 0.981653
O O14 0.750000 0.371133 0.906271
O O15 0.495804 0.303586 0.880467
O O16 0.004196 0.303586 0.880467
O O17 0.250000 0.057727 0.250000
#
# Coordination Sequence:
#
# PCOD9389540 Si02
#       8
#     8   8   8   8   8   8   8   8
#     4  10  19  34  49  64  87 112 141 178 220 273
#     4  12  21  33  49  69  90 111 145 186 219 265
#     4  10  18  27  44  71  97 115 132 165 217 271
#     4  10  18  29  49  71  86 104 134 177 228 271
#     4   8  14  23  36  56  86 112 132 153 189 251
#     4  10  17  28  45  69  95 118 134 159 217 277
#     4  12  25  39  52  63  81 118 160 193 231 276
#     4   8  14  25  41  62  86 112 131 155 208 265
#
# _framework density 24.384118999999998
#
# number of rings (size 3 to 8) (size 9 to 14) (size 15 to 20)
#    0.000    2.000    0.000    8.250    0.000    0.000 
#    0.000    0.000    0.000    2.250    0.000    0.000 
#    0.000    0.000    0.000    0.000    0.000    0.000 
#
# Total GULP energy -356829.247508 kJ/mol
# GULP energy per Si atom -5575.456992 kJ/mol
# Density = 2.432862 g / cm^3
# Si number density = 24.384119 Si / 1000 Ang^3
#
#
#
# Elastic Constant Matrix: (Units=GPa)
#
#
# Indices 1 2 3 4 5 6 
#
# 1 351.6747 41.6440 23.3297 0.0000 0.0000 0.0000
# 2 41.6440 116.3733 -12.2771 0.0000 0.0000 0.0000
# 3 23.3297 -12.2771 49.8460 0.0000 0.0000 0.0000
# 4 0.0000 0.0000 0.0000 -29.5276 0.0000 0.0000
# 5 0.0000 0.0000 0.0000 0.0000 -29.6520 0.0000
# 6 0.0000 0.0000 0.0000 0.0000 0.0000 -100.2147
#
#
#
# Elastic Compliance Matrix: (Units=1/GPa)
#
#
# Indices 1 2 3 4 5 6 
#
# 1 0.003116 -0.001303 -0.001779 0.000000 0.000000 0.000000
# 2 -0.001303 0.009367 0.002917 0.000000 0.000000 0.000000
# 3 -0.001779 0.002917 0.021613 0.000000 0.000000 0.000000
# 4 0.000000 0.000000 0.000000 -0.033867 0.000000 0.000000
# 5 0.000000 0.000000 0.000000 0.000000 -0.033724 0.000000
# 6 0.000000 0.000000 0.000000 0.000000 0.000000 -0.009979
#
#
# Mechanical properties :
#
#
# Convention : Reuss Voigt Hill
#
# Bulk Modulus (GPa) = 29.61604 69.25414 49.43509
# Shear Modulus (GPa) = -156.79514 -0.86571 -78.83042
#
# Velocity S-wave (km/s) = -8.02756 -0.59649 -5.69199
# Velocity P-wave (km/s) = 8.58780 5.29042 4.78340
#
# Compressibility (1/GPa) = 0.03376548
#
# Stress axis : x y z
#
# Youngs Moduli (GPa) = 320.94231 106.75871 46.26866
#
# Poissons Ratio (x) = 0.13907 0.08232
# Poissons Ratio (y) = 0.41809 -0.13496
# Poissons Ratio (z) = 0.57101 -0.31139
#
# Static dielectric constant tensor:
#      x y z
#    x 2.029820 0.000000 0.000000 
#    y 0.000000 1.894870 0.000000 
#    z 0.000000 0.000000 1.661690 
# 
# From -- ./inp_files/29680.got.cif
#   From: 2010.05.17/outbox.cif.g08.bks.cpg/sg48_15_cif.got.tgz:29680.got - 2010.06.03 20:39:00.
