data_PCOD9389280
_publ_section_title
;
Structure prediction by ZEFSAII (Michael W. Deem and Ramdas Pophale) SiO2 
 PCOD9389280
Probable space group: P M M M
;
_chemical_formula_sum "Si O2"
_cell_formula_units_Z 52
_cell_length_a 15.000000
_cell_length_b 9.000000
_cell_length_c 21.000000
_cell_angle_alpha 90.000000
_cell_angle_beta 90.000000
_cell_angle_gamma 90.000000
_cell_volume 2835.000000
_symmetry_space_group_name_H-M "P M M M"
_symmetry_group_IT_number 47
_symmetry_cell_setting 'orthorhombic'
loop_
_space_group_symop_operation_xyz
x,y,z
-x,-y,z
x,-y,-z
-x,y,-z
-x,-y,-z
x,y,-z
-x,y,z
x,-y,z
loop_
_atom_site_type_symbol
_atom_site_label
_atom_site_fract_x
_atom_site_fract_y
_atom_site_fract_z
Si Si1 0.212482 0.821146 0.070621
Si Si2 0.400077 0.821752 0.875708
Si Si3 0.898411 0.179128 0.677243
Si Si4 0.286270 0.820643 0.624758
Si Si5 0.396165 0.181220 0.500000
Si Si6 0.395556 0.324678 0.738042
Si Si7 0.106084 0.326031 0.814033
O O1 0.317400 0.785930 0.079133
O O2 0.159301 0.746754 0.128056
O O3 0.202927 0.000000 0.075344
O O4 0.182273 0.775130 0.000000
O O5 0.500000 0.780376 0.897897
O O6 0.383496 0.744826 0.807828
O O7 0.399503 0.000000 0.866490
O O8 0.818459 0.220639 0.629345
O O9 0.876454 0.246364 0.746591
O O10 0.000000 0.225237 0.660197
O O11 0.898479 0.000000 0.682462
O O12 0.340921 0.771600 0.562439
O O13 0.334719 0.755202 0.686464
O O14 0.290974 0.000000 0.626893
O O15 0.500000 0.229808 0.500000
O O16 0.397740 0.000000 0.500000
O O17 0.500000 0.303700 0.721054
O O18 0.376932 0.500000 0.739858
O O19 0.128319 0.500000 0.808649
O O20 0.000000 0.312151 0.825862
#
# Coordination Sequence:
#
# PCOD9389280 Si02
#       7
#     8   8   8   8   4   8   8
#     4  10  21  35  51  73 100 131 167 205 248 299
#     4   9  18  33  52  73  98 129 165 205 249 298
#     4   9  18  33  53  77 103 129 161 205 254 298
#     4  10  19  32  52  75 100 134 172 205 242 292
#     4   9  18  32  50  74 104 137 173 209 242 283
#     4  10  20  32  48  73 102 129 161 206 256 299
#     4  10  21  36  54  76 101 130 165 206 252 301
#
# _framework density 18.342151999999999
#
# number of rings (size 3 to 8) (size 9 to 14) (size 15 to 20)
#    0.000    2.385    0.000    2.308    0.000    8.308 
#    0.000    3.846    0.000    3.692    0.000    3.231 
#    0.000    3.692    0.000    0.000    0.000    0.000 
#
# Total GULP energy -290124.322225 kJ/mol
# GULP energy per Si atom -5579.313889 kJ/mol
# Density = 1.830040 g / cm^3
# Si number density = 18.342152 Si / 1000 Ang^3
#
#
#
# Elastic Constant Matrix: (Units=GPa)
#
#
# Indices 1 2 3 4 5 6 
#
# 1 110.2096 28.6408 69.2923 0.0000 0.0000 0.0000
# 2 28.6408 10.6979 13.5936 0.0000 0.0000 0.0000
# 3 69.2923 13.5936 65.3743 0.0000 0.0000 0.0000
# 4 0.0000 0.0000 0.0000 -7.9695 0.0000 0.0000
# 5 0.0000 0.0000 0.0000 0.0000 23.6853 0.0000
# 6 0.0000 0.0000 0.0000 0.0000 0.0000 19.4115
#
#
#
# Elastic Compliance Matrix: (Units=1/GPa)
#
#
# Indices 1 2 3 4 5 6 
#
# 1 0.090661 -0.163929 -0.062008 0.000000 0.000000 0.000000
# 2 -0.163929 0.423451 0.085703 0.000000 0.000000 0.000000
# 3 -0.062008 0.085703 0.063200 0.000000 0.000000 0.000000
# 4 0.000000 0.000000 0.000000 -0.125479 0.000000 0.000000
# 5 0.000000 0.000000 0.000000 0.000000 0.042220 0.000000
# 6 0.000000 0.000000 0.000000 0.000000 0.000000 0.051516
#
#
# Mechanical properties :
#
#
# Convention : Reuss Voigt Hill
#
# Bulk Modulus (GPa) = 3.36876 45.48165 24.42521
# Shear Modulus (GPa) = 5.40549 12.00915 8.70732
#
# Velocity S-wave (km/s) = 1.71855 2.56154 2.18116
# Velocity P-wave (km/s) = 2.40385 5.79644 4.43719
#
# Compressibility (1/GPa) = 0.29684516
#
# Stress axis : x y z
#
# Youngs Moduli (GPa) = 11.03007 2.36155 15.82270
#
# Poissons Ratio (x) = 0.38713 0.98114
# Poissons Ratio (y) = 1.80815 -1.35606
# Poissons Ratio (z) = 0.68396 -0.20239
#
# Static dielectric constant tensor:
#      x y z
#    x 1.665270 0.000000 0.000000 
#    y 0.000000 1.605480 0.000000 
#    z 0.000000 0.000000 1.597350 
# 
# From -- ./inp_files/7039.got.cif
#   From: 2010.05.17/outbox.ucp.g08.bks.cvg/sg47_4_cif.got.tgz:7039.got - 2010.06.11 16:36:43.
