data_PCOD9389897
_publ_section_title
;
Structure prediction by ZEFSAII (Michael W. Deem and Ramdas Pophale) SiO2 
 PCOD9389897
Probable space group: P N N N
;
_chemical_formula_sum "Si O2"
_cell_formula_units_Z 64
_cell_length_a 11.686145
_cell_length_b 21.431521
_cell_length_c 11.016069
_cell_angle_alpha 90.000000
_cell_angle_beta 90.000000
_cell_angle_gamma 90.000000
_cell_volume 2758.994993
_symmetry_space_group_name_H-M "P N N N"
_symmetry_group_IT_number 48
_space_group.IT_coordinate_system_code '2'
_symmetry_cell_setting 'orthorhombic'
loop_
_space_group_symop_operation_xyz
x,y,z
1/2-x,1/2-y,z
x,1/2-y,1/2-z
1/2-x,y,1/2-z
-x,-y,-z
1/2+x,1/2+y,-z
-x,1/2+y,1/2+z
1/2+x,-y,1/2+z
loop_
_atom_site_type_symbol
_atom_site_label
_atom_site_fract_x
_atom_site_fract_y
_atom_site_fract_z
Si Si1 0.151779 0.113208 0.926976
Si Si2 0.837919 0.199235 0.924261
Si Si3 0.714251 0.009594 0.380702
Si Si4 0.347271 0.614851 0.515246
Si Si5 0.554957 0.962621 0.659477
Si Si6 0.558283 0.100443 0.749305
Si Si7 0.429163 0.272293 0.056565
Si Si8 0.544621 0.653612 0.691643
O O1 0.155492 0.183229 0.978653
O O2 0.247779 0.063860 0.888978
O O3 0.103870 0.071416 0.040142
O O4 0.065997 0.112457 0.811882
O O5 0.750000 0.250000 0.881013
O O6 0.867344 0.150822 0.820850
O O7 0.953093 0.228430 0.979546
O O8 0.762818 0.159931 0.018851
O O9 0.750000 0.033311 0.250000
O O10 0.790966 0.046980 0.474033
O O11 0.579290 0.027537 0.376986
O O12 0.421204 0.612860 0.391059
O O13 0.427325 0.637145 0.624252
O O14 0.586786 0.914618 0.767820
O O15 0.592075 0.031058 0.703930
O O16 0.459984 0.309767 0.180304
O O17 0.393759 0.203208 0.101306
#
# Coordination Sequence:
#
# PCOD9389897 Si02
#       8
#     8   8   8   8   8   8   8   8
#     4   9  19  38  57  73 109 166 200 224 282 369
#     4  11  21  34  50  74 116 157 188 229 281 359
#     4  11  20  33  54  83 113 153 198 248 293 347
#     4  12  22  32  49  84 118 140 188 246 299 332
#     4  10  19  38  57  75 114 155 203 230 289 359
#     4  10  22  35  51  75 113 161 188 227 286 357
#     4   9  19  36  54  76 108 153 198 225 284 353
#     4  10  19  33  53  81 108 144 190 243 286 334
#
# _framework density 23.196853999999998
#
# number of rings (size 3 to 8) (size 9 to 14) (size 15 to 20)
#    0.000    1.750    2.500    4.875    0.000    1.500 
#    0.000    0.000    0.000    0.000    0.000    0.875 
#    3.750    4.000    1.000    1.125    0.000    0.000 
#
# Total GULP energy -356647.645503 kJ/mol
# GULP energy per Si atom -5572.619461 kJ/mol
# Density = 2.314406 g / cm^3
# Si number density = 23.196854 Si / 1000 Ang^3
#
#
#
# Elastic Constant Matrix: (Units=GPa)
#
#
# Indices 1 2 3 4 5 6 
#
# 1 27.8596 16.9665 14.1952 0.0000 0.0000 0.0000
# 2 16.9665 158.6203 21.2934 0.0000 0.0000 0.0000
# 3 14.1952 21.2934 69.5766 0.0000 0.0000 0.0000
# 4 0.0000 0.0000 0.0000 33.0412 0.0000 0.0000
# 5 0.0000 0.0000 0.0000 0.0000 4.8230 0.0000
# 6 0.0000 0.0000 0.0000 0.0000 0.0000 27.5314
#
#
#
# Elastic Compliance Matrix: (Units=1/GPa)
#
#
# Indices 1 2 3 4 5 6 
#
# 1 0.041813 -0.003470 -0.007469 0.000000 0.000000 0.000000
# 2 -0.003470 0.006862 -0.001392 0.000000 0.000000 0.000000
# 3 -0.007469 -0.001392 0.016323 0.000000 0.000000 0.000000
# 4 0.000000 0.000000 0.000000 0.030265 0.000000 0.000000
# 5 0.000000 0.000000 0.000000 0.000000 0.207340 0.000000
# 6 0.000000 0.000000 0.000000 0.000000 0.000000 0.036322
#
#
# Mechanical properties :
#
#
# Convention : Reuss Voigt Hill
#
# Bulk Modulus (GPa) = 24.79173 40.10741 32.44957
# Shear Modulus (GPa) = 13.26146 26.65254 19.95700
#
# Velocity S-wave (km/s) = 2.39360 3.39333 2.93632
# Velocity P-wave (km/s) = 4.28367 5.71668 5.05125
#
# Compressibility (1/GPa) = 0.04033603
#
# Stress axis : x y z
#
# Youngs Moduli (GPa) = 23.91598 145.72146 61.26482
#
# Poissons Ratio (x) = 0.50563 0.45758
# Poissons Ratio (y) = 0.08298 0.08530
# Poissons Ratio (z) = 0.17863 0.20288
#
# Static dielectric constant tensor:
#      x y z
#    x 2.182310 0.000000 0.000000 
#    y 0.000000 1.981030 0.000000 
#    z 0.000000 0.000000 1.954890 
# 
# From -- ./inp_files/14569.got.cif
#   From: 2010.05.17/outbox.cif.g08.bks.cpg/sg48_8_cif.got.tgz:14569.got - 2010.06.03 20:39:00.
