data_PCOD9389018
_publ_section_title
;
Structure prediction by ZEFSAII (Michael W. Deem and Ramdas Pophale) SiO2 
 PCOD9389018
Probable space group: P M M M
;
_chemical_formula_sum "Si O2"
_cell_formula_units_Z 44
_cell_length_a 14.199993
_cell_length_b 7.453100
_cell_length_c 22.021489
_cell_angle_alpha 90.000000
_cell_angle_beta 90.000000
_cell_angle_gamma 90.000000
_cell_volume 2330.621558
_symmetry_space_group_name_H-M "P M M M"
_symmetry_group_IT_number 47
_symmetry_cell_setting 'orthorhombic'
loop_
_space_group_symop_operation_xyz
x,y,z
-x,-y,z
x,-y,-z
-x,y,-z
-x,-y,-z
x,y,-z
-x,y,z
x,-y,z
loop_
_atom_site_type_symbol
_atom_site_label
_atom_site_fract_x
_atom_site_fract_y
_atom_site_fract_z
Si Si1 0.707888 0.215978 0.688909
Si Si2 0.104470 0.214466 0.751195
Si Si3 0.394922 0.714135 0.813825
Si Si4 0.890635 0.280212 0.000000
Si Si5 0.390754 0.218775 0.567600
Si Si6 0.206299 0.715245 0.876217
O O1 0.810425 0.284192 0.709462
O O2 0.636953 0.256310 0.744241
O O3 0.670162 0.282093 0.624454
O O4 0.713349 0.000000 0.685224
O O5 0.136259 0.246422 0.820454
O O6 0.000000 0.285961 0.739824
O O7 0.101313 0.000000 0.742620
O O8 0.500000 0.785457 0.824664
O O9 0.398398 0.500000 0.823052
O O10 0.309366 0.784046 0.855716
O O11 0.836541 0.219909 0.060590
O O12 0.890719 0.500000 0.000000
O O13 0.000000 0.225172 0.000000
O O14 0.360131 0.275087 0.500000
O O15 0.500000 0.270754 0.575623
O O16 0.389025 0.000000 0.568129
O O17 0.213875 0.500000 0.880971
#
# Coordination Sequence:
#
# PCOD9389018 Si02
#       6
#     8   8   8   4   8   8
#     4   9  16  26  42  61  79 104 137 166 193 232
#     4   9  17  28  41  59  83 106 129 163 204 237
#     4   9  17  28  41  59  84 108 129 160 200 235
#     4   9  16  26  42  62  80  99 129 169 202 227
#     4   8  13  21  35  57  81 101 126 163 199 228
#     4   9  17  29  44  61  80 104 134 163 194 236
#
# _framework density 18.879082
#
# number of rings (size 3 to 8) (size 9 to 14) (size 15 to 20)
#    0.000    3.182    0.000    1.636    0.000    2.182 
#    0.000    0.909    0.000    5.455    0.000    6.364 
#    0.000    5.818    0.000    9.091    0.000    9.818 
#
# Total GULP energy -245329.450575 kJ/mol
# GULP energy per Si atom -5575.669331 kJ/mol
# Density = 1.883611 g / cm^3
# Si number density = 18.879082 Si / 1000 Ang^3
#
#
#
# Elastic Constant Matrix: (Units=GPa)
#
#
# Indices 1 2 3 4 5 6 
#
# 1 162.4902 7.0536 94.6061 0.0000 0.0000 0.0000
# 2 7.0536 58.9441 1.8242 0.0000 0.0000 0.0000
# 3 94.6061 1.8242 159.4823 0.0000 0.0000 0.0000
# 4 0.0000 0.0000 0.0000 12.6510 0.0000 0.0000
# 5 0.0000 0.0000 0.0000 0.0000 17.3574 0.0000
# 6 0.0000 0.0000 0.0000 0.0000 0.0000 5.5206
#
#
#
# Elastic Compliance Matrix: (Units=1/GPa)
#
#
# Indices 1 2 3 4 5 6 
#
# 1 0.009455 -0.000958 -0.005598 0.000000 0.000000 0.000000
# 2 -0.000958 0.017068 0.000373 0.000000 0.000000 0.000000
# 3 -0.005598 0.000373 0.009587 0.000000 0.000000 0.000000
# 4 0.000000 0.000000 0.000000 0.079045 0.000000 0.000000
# 5 0.000000 0.000000 0.000000 0.000000 0.057612 0.000000
# 6 0.000000 0.000000 0.000000 0.000000 0.000000 0.181138
#
#
# Mechanical properties :
#
#
# Convention : Reuss Voigt Hill
#
# Bulk Modulus (GPa) = 42.11526 65.32047 53.71786
# Shear Modulus (GPa) = 13.36233 25.60131 19.48182
#
# Velocity S-wave (km/s) = 2.66331 3.68648 3.21585
# Velocity P-wave (km/s) = 5.64038 7.26599 6.50418
#
# Compressibility (1/GPa) = 0.02374436
#
# Stress axis : x y z
#
# Youngs Moduli (GPa) = 105.76402 58.58799 104.31132
#
# Poissons Ratio (x) = 0.05614 0.58392
# Poissons Ratio (y) = 0.10134 -0.03893
# Poissons Ratio (z) = 0.59205 -0.02186
#
# Static dielectric constant tensor:
#      x y z
#    x 1.664030 0.000000 0.000000 
#    y 0.000000 1.728850 0.000000 
#    z 0.000000 0.000000 1.626640 
# 
# From -- ./inp_files/30762.got.cif
#   From: 2010.05.17/outbox.cif.g08.bks.cpg/sg47_16_cif.got.tgz:30762.got - 2010.06.03 20:15:42.
