data_PCOD9389833
_publ_section_title
;
Structure prediction by ZEFSAII (Michael W. Deem and Ramdas Pophale) SiO2 
 PCOD9389833
Probable space group: P N N N
;
_chemical_formula_sum "Si O2"
_cell_formula_units_Z 38
_cell_length_a 8.544411
_cell_length_b 11.170874
_cell_length_c 16.998188
_cell_angle_alpha 90.000000
_cell_angle_beta 90.000000
_cell_angle_gamma 90.000000
_cell_volume 1622.452205
_symmetry_space_group_name_H-M "P N N N"
_symmetry_group_IT_number 48
_space_group.IT_coordinate_system_code '2'
_symmetry_cell_setting 'orthorhombic'
loop_
_space_group_symop_operation_xyz
x,y,z
1/2-x,1/2-y,z
x,1/2-y,1/2-z
1/2-x,y,1/2-z
-x,-y,-z
1/2+x,1/2+y,-z
-x,1/2+y,1/2+z
1/2+x,-y,1/2+z
loop_
_atom_site_type_symbol
_atom_site_label
_atom_site_fract_x
_atom_site_fract_y
_atom_site_fract_z
Si Si1 0.750000 0.250000 0.750000
Si Si2 0.261757 0.958638 0.020736
Si Si3 0.613276 0.345284 0.369496
Si Si4 0.541277 0.679604 0.993709
Si Si5 0.250000 0.250000 0.862557
Si Si6 0.992378 0.072941 0.664927
O O1 0.865636 0.157204 0.706758
O O2 0.406466 0.940853 0.078827
O O3 0.159089 0.076856 0.037028
O O4 0.311882 0.943416 0.929741
O O5 0.130317 0.857518 0.022429
O O6 0.750000 0.250000 0.346002
O O7 0.490114 0.273604 0.424346
O O8 0.526426 0.434394 0.309099
O O9 0.618124 0.712099 0.075637
O O10 0.344178 0.143659 0.821825
#
# Coordination Sequence:
#
# PCOD9389833 Si02
#       6
#     2   8   8   8   4   8
#     4  12  32  50  68  90 128 194 248 290 326 406
#     4  10  19  35  60  99 150 172 208 267 344 420
#     4  10  20  36  65 108 144 169 208 279 359 412
#     4  10  19  30  58 108 137 181 198 259 362 408
#     4  12  20  33  66  96 132 167 220 274 330 406
#     4  12  24  44  64  97 132 182 232 280 328 406
#
# _framework density 23.421339
#
# number of rings (size 3 to 8) (size 9 to 14) (size 15 to 20)
#    0.000    1.263    4.211    3.158    1.474    0.421 
#    0.000    0.000    0.000    2.526    0.000    0.000 
#    0.000    0.000    0.000    0.000    0.000    0.000 
#
# Total GULP energy -211562.105080 kJ/mol
# GULP energy per Si atom -5567.423818 kJ/mol
# Density = 2.336803 g / cm^3
# Si number density = 23.421339 Si / 1000 Ang^3
#
#
#
# Elastic Constant Matrix: (Units=GPa)
#
#
# Indices 1 2 3 4 5 6 
#
# 1 144.0802 73.6799 24.3995 0.0000 0.0000 0.0000
# 2 73.6799 170.1664 32.4222 0.0000 0.0000 0.0000
# 3 24.3995 32.4222 34.7236 0.0000 0.0000 0.0000
# 4 0.0000 0.0000 0.0000 7.5709 0.0000 0.0000
# 5 0.0000 0.0000 0.0000 0.0000 -118.8659 0.0000
# 6 0.0000 0.0000 0.0000 0.0000 0.0000 51.0126
#
#
#
# Elastic Compliance Matrix: (Units=1/GPa)
#
#
# Indices 1 2 3 4 5 6 
#
# 1 0.009224 -0.003356 -0.003348 0.000000 0.000000 0.000000
# 2 -0.003356 0.008369 -0.005456 0.000000 0.000000 0.000000
# 3 -0.003348 -0.005456 0.036246 0.000000 0.000000 0.000000
# 4 0.000000 0.000000 0.000000 0.132085 0.000000 0.000000
# 5 0.000000 0.000000 0.000000 0.000000 -0.008413 0.000000
# 6 0.000000 0.000000 0.000000 0.000000 0.000000 0.019603
#
#
# Mechanical properties :
#
#
# Convention : Reuss Voigt Hill
#
# Bulk Modulus (GPa) = 33.87677 67.77480 50.82579
# Shear Modulus (GPa) = 21.61936 2.50809 12.06373
#
# Velocity S-wave (km/s) = 3.04149 1.03595 2.27199
# Velocity P-wave (km/s) = 5.17974 5.51642 5.35073
#
# Compressibility (1/GPa) = 0.02951875
#
# Stress axis : x y z
#
# Youngs Moduli (GPa) = 108.41706 119.48466 27.58914
#
# Poissons Ratio (x) = 0.40097 0.09236
# Poissons Ratio (y) = 0.36383 0.15054
# Poissons Ratio (z) = 0.36296 0.65197
#
# Static dielectric constant tensor:
#      x y z
#    x 1.741330 0.000000 0.000000 
#    y 0.000000 2.121140 0.000000 
#    z 0.000000 0.000000 2.023090 
# 
# From -- ./inp_files/30047.got.cif
#   From: 2010.05.17/outbox.cif.g08.bks.cpg/sg48_16_cif.got.tgz:30047.got - 2010.06.03 20:39:00.
