data_PCOD9389148
_publ_section_title
;
Structure prediction by ZEFSAII (Michael W. Deem and Ramdas Pophale) SiO2 
 PCOD9389148
Probable space group: P M M M
;
_chemical_formula_sum "Si O2"
_cell_formula_units_Z 44
_cell_length_a 29.027299
_cell_length_b 7.612292
_cell_length_c 10.092553
_cell_angle_alpha 90.000000
_cell_angle_beta 90.000000
_cell_angle_gamma 90.000000
_cell_volume 2230.093666
_symmetry_space_group_name_H-M "P M M M"
_symmetry_group_IT_number 47
_symmetry_cell_setting 'orthorhombic'
loop_
_space_group_symop_operation_xyz
x,y,z
-x,-y,z
x,-y,-z
-x,y,-z
-x,-y,-z
x,y,-z
-x,y,z
x,-y,z
loop_
_atom_site_type_symbol
_atom_site_label
_atom_site_fract_x
_atom_site_fract_y
_atom_site_fract_z
Si Si1 0.551304 0.710772 0.149925
Si Si2 0.000000 0.284582 0.346883
Si Si3 0.185335 0.788344 0.150207
Si Si4 0.920055 0.709813 0.849281
Si Si5 0.632797 0.210248 0.350657
Si Si6 0.735686 0.214558 0.347124
O O1 0.500000 0.773541 0.190043
O O2 0.549048 0.500000 0.143674
O O3 0.591870 0.752296 0.250427
O O4 0.560462 0.774914 0.000000
O O5 0.955684 0.226449 0.261255
O O6 0.000000 0.500000 0.349951
O O7 0.000000 0.226918 0.500000
O O8 0.132936 0.744133 0.187567
O O9 0.224126 0.722746 0.250623
O O10 0.188485 0.000000 0.147507
O O11 0.192798 0.723904 0.000000
O O12 0.926388 0.500000 0.856654
O O13 0.927794 0.778503 0.000000
O O14 0.623502 0.276565 0.500000
O O15 0.683896 0.271877 0.308743
O O16 0.636105 0.000000 0.359122
O O17 0.743298 0.265479 0.500000
O O18 0.736366 0.000000 0.343763
#
# Coordination Sequence:
#
# PCOD9389148 Si02
#       6
#     8   4   8   8   8   8
#     4   9  19  35  51  68  94 127 160 194 235 283
#     4   9  17  29  46  67  88 112 146 185 220 258
#     4   9  17  29  46  68  91 116 149 185 219 260
#     4   9  17  30  47  65  87 116 147 179 219 265
#     4   9  18  32  50  73  98 123 156 197 236 277
#     4   8  15  29  47  66  91 122 151 181 222 270
#
# _framework density 19.730112999999999
#
# number of rings (size 3 to 8) (size 9 to 14) (size 15 to 20)
#    0.000    3.182    0.000    1.909    0.000    4.000 
#    0.000    5.909    0.000    6.000    0.000    0.000 
#    0.000    0.000    0.000    0.000    0.000    0.000 
#
# Total GULP energy -245297.112149 kJ/mol
# GULP energy per Si atom -5574.934367 kJ/mol
# Density = 1.968521 g / cm^3
# Si number density = 19.730113 Si / 1000 Ang^3
#
#
#
# Elastic Constant Matrix: (Units=GPa)
#
#
# Indices 1 2 3 4 5 6 
#
# 1 219.1219 3.4391 161.8206 0.0000 0.0000 0.0000
# 2 3.4391 37.3305 6.1654 0.0000 0.0000 0.0000
# 3 161.8206 6.1654 151.5715 0.0000 0.0000 0.0000
# 4 0.0000 0.0000 0.0000 15.0024 0.0000 0.0000
# 5 0.0000 0.0000 0.0000 0.0000 43.9531 0.0000
# 6 0.0000 0.0000 0.0000 0.0000 0.0000 24.8648
#
#
#
# Elastic Compliance Matrix: (Units=1/GPa)
#
#
# Indices 1 2 3 4 5 6 
#
# 1 0.021695 0.001839 -0.023237 0.000000 0.000000 0.000000
# 2 0.001839 0.027125 -0.003067 0.000000 0.000000 0.000000
# 3 -0.023237 -0.003067 0.031531 0.000000 0.000000 0.000000
# 4 0.000000 0.000000 0.000000 0.066656 0.000000 0.000000
# 5 0.000000 0.000000 0.000000 0.000000 0.022752 0.000000
# 6 0.000000 0.000000 0.000000 0.000000 0.000000 0.040217
#
#
# Mechanical properties :
#
#
# Convention : Reuss Voigt Hill
#
# Bulk Modulus (GPa) = 31.82566 83.43045 57.62806
# Shear Modulus (GPa) = 18.56117 32.53732 25.54924
#
# Velocity S-wave (km/s) = 3.07050 4.06534 3.60243
# Velocity P-wave (km/s) = 5.36061 8.02581 6.82458
#
# Compressibility (1/GPa) = 0.03142118
#
# Stress axis : x y z
#
# Youngs Moduli (GPa) = 46.09274 36.86657 31.71504
#
# Poissons Ratio (x) = -0.06780 0.73697
# Poissons Ratio (y) = -0.08477 0.09726
# Poissons Ratio (z) = 1.07107 0.11306
#
# Static dielectric constant tensor:
#      x y z
#    x 1.679100 0.000000 0.000000 
#    y 0.000000 1.745460 0.000000 
#    z 0.000000 0.000000 1.681810 
# 
# From -- ./inp_files/2078.got.cif
#   From: 2010.05.17/outbox.cif.g08.bks.cpg/sg47_2_cif.got.tgz:2078.got - 2010.06.03 20:15:42.
