data_PCOD9389344
_publ_section_title
;
Structure prediction by ZEFSAII (Michael W. Deem and Ramdas Pophale) SiO2 
 PCOD9389344
Probable space group: P M M M
;
_chemical_formula_sum "Si O2"
_cell_formula_units_Z 56
_cell_length_a 9.000000
_cell_length_b 21.000000
_cell_length_c 15.000000
_cell_angle_alpha 90.000000
_cell_angle_beta 90.000000
_cell_angle_gamma 90.000000
_cell_volume 2835.000000
_symmetry_space_group_name_H-M "P M M M"
_symmetry_group_IT_number 47
_symmetry_cell_setting 'orthorhombic'
loop_
_space_group_symop_operation_xyz
x,y,z
-x,-y,z
x,-y,-z
-x,y,-z
-x,-y,-z
x,y,-z
-x,y,z
x,-y,z
loop_
_atom_site_type_symbol
_atom_site_label
_atom_site_fract_x
_atom_site_fract_y
_atom_site_fract_z
Si Si1 0.326839 0.317166 0.231237
Si Si2 0.823563 0.895189 0.218015
Si Si3 0.825129 0.575281 0.304186
Si Si4 0.677944 0.889345 0.598693
Si Si5 0.828243 0.422720 0.500000
Si Si6 0.675930 0.209505 0.102993
Si Si7 0.177399 0.749609 0.400457
Si Si8 0.329753 0.000000 0.894360
O O1 0.500000 0.312460 0.254306
O O2 0.268043 0.388470 0.230829
O O3 0.307477 0.281355 0.137720
O O4 0.235108 0.286215 0.313224
O O5 0.754226 0.916142 0.312625
O O6 0.763284 0.828736 0.179436
O O7 0.000000 0.895410 0.224622
O O8 0.760219 0.941049 0.142707
O O9 0.816726 0.500000 0.295153
O O10 0.764365 0.592909 0.403344
O O11 0.000000 0.592951 0.301462
O O12 0.714356 0.916454 0.500000
O O13 0.500000 0.891221 0.608606
O O14 0.737552 0.816947 0.598260
O O15 0.835372 0.500000 0.500000
O O16 0.000000 0.400529 0.500000
O O17 0.500000 0.192068 0.107932
O O18 0.722825 0.199674 0.000000
O O19 0.203414 0.720505 0.500000
O O20 0.000000 0.759814 0.392843
O O21 0.500000 0.000000 0.861319
O O22 0.334127 0.000000 0.000000
#
# Coordination Sequence:
#
# PCOD9389344 Si02
#       8
#     8   8   8   8   4   8   8   4
#     4  11  22  34  53  81 112 145 186 238 289 343
#     4  12  24  39  63  94 126 157 193 241 294 347
#     4   9  18  33  52  73 103 145 188 230 279 339
#     4  10  20  36  59  86 120 161 201 239 281 336
#     4   7  12  26  47  69  95 135 183 222 263 324
#     4  10  22  41  62  83 112 152 194 237 292 352
#     4  10  20  33  51  78 113 152 191 232 280 337
#     4  11  25  45  68  91 120 161 203 246 298 353
#
# _framework density 19.753086
#
# number of rings (size 3 to 8) (size 9 to 14) (size 15 to 20)
#    0.000    1.857    1.429    4.071    1.000    5.143 
#    0.000    0.357    0.000    3.857    0.000    3.000 
#    0.000    0.000    0.000    0.000    0.000    0.000 
#
# Total GULP energy -312248.406664 kJ/mol
# GULP energy per Si atom -5575.864405 kJ/mol
# Density = 1.970813 g / cm^3
# Si number density = 19.753086 Si / 1000 Ang^3
#
#
#
# Elastic Constant Matrix: (Units=GPa)
#
#
# Indices 1 2 3 4 5 6 
#
# 1 79.5706 15.6895 52.9101 0.0000 0.0000 0.0000
# 2 15.6895 45.4169 17.9653 0.0000 0.0000 0.0000
# 3 52.9101 17.9653 106.2602 0.0000 0.0000 0.0000
# 4 0.0000 0.0000 0.0000 40.4745 0.0000 0.0000
# 5 0.0000 0.0000 0.0000 0.0000 16.7721 0.0000
# 6 0.0000 0.0000 0.0000 0.0000 0.0000 -9.6039
#
#
#
# Elastic Compliance Matrix: (Units=1/GPa)
#
#
# Indices 1 2 3 4 5 6 
#
# 1 0.019175 -0.003051 -0.009032 0.000000 0.000000 0.000000
# 2 -0.003051 0.024082 -0.002552 0.000000 0.000000 0.000000
# 3 -0.009032 -0.002552 0.014340 0.000000 0.000000 0.000000
# 4 0.000000 0.000000 0.000000 0.024707 0.000000 0.000000
# 5 0.000000 0.000000 0.000000 0.000000 0.059623 0.000000
# 6 0.000000 0.000000 0.000000 0.000000 0.000000 -0.104125
#
#
# Mechanical properties :
#
#
# Convention : Reuss Voigt Hill
#
# Bulk Modulus (GPa) = 35.30373 44.93083 40.11728
# Shear Modulus (GPa) = 65.34805 19.17408 42.26107
#
# Velocity S-wave (km/s) = 5.75797 3.11897 4.63045
# Velocity P-wave (km/s) = 7.88143 5.98049 6.99583
#
# Compressibility (1/GPa) = 0.02832562
#
# Stress axis : x y z
#
# Youngs Moduli (GPa) = 52.15188 41.52501 69.73724
#
# Poissons Ratio (x) = 0.12671 0.62985
# Poissons Ratio (y) = 0.15913 0.17798
# Poissons Ratio (z) = 0.47103 0.10598
#
# Static dielectric constant tensor:
#      x y z
#    x 1.663740 0.000000 0.000000 
#    y 0.000000 1.826220 0.000000 
#    z 0.000000 0.000000 1.699360 
# 
# From -- ./inp_files/21645.got.cif
#   From: 2010.05.17/outbox.ucp.g08.bks.cvg/sg47_11_cif.got.tgz:21645.got - 2010.06.11 16:36:43.
