data_PCOD9389865
_publ_section_title
;
Structure prediction by ZEFSAII (Michael W. Deem and Ramdas Pophale) SiO2 
 PCOD9389865
Probable space group: P N N N
;
_chemical_formula_sum "Si O2"
_cell_formula_units_Z 40
_cell_length_a 20.789704
_cell_length_b 9.730532
_cell_length_c 9.762553
_cell_angle_alpha 90.000000
_cell_angle_beta 90.000000
_cell_angle_gamma 90.000000
_cell_volume 1974.914488
_symmetry_space_group_name_H-M "P N N N"
_symmetry_group_IT_number 48
_space_group.IT_coordinate_system_code '2'
_symmetry_cell_setting 'orthorhombic'
loop_
_space_group_symop_operation_xyz
x,y,z
1/2-x,1/2-y,z
x,1/2-y,1/2-z
1/2-x,y,1/2-z
-x,-y,-z
1/2+x,1/2+y,-z
-x,1/2+y,1/2+z
1/2+x,-y,1/2+z
loop_
_atom_site_type_symbol
_atom_site_label
_atom_site_fract_x
_atom_site_fract_y
_atom_site_fract_z
Si Si1 0.397399 0.999701 0.412053
Si Si2 0.250000 0.250000 0.250000
Si Si3 0.962607 0.397418 0.322411
Si Si4 0.664677 0.724592 0.509149
Si Si5 0.075248 0.750000 0.250000
Si Si6 0.966780 0.611114 0.092153
Si Si7 0.250000 0.250000 0.750000
O O1 0.417134 0.916881 0.547823
O O2 0.385363 0.883998 0.296018
O O3 0.462606 0.077883 0.362721
O O4 0.344778 0.112947 0.454615
O O5 0.296702 0.328726 0.357819
O O6 0.955773 0.250000 0.250000
O O7 0.945461 0.527309 0.226066
O O8 0.593144 0.672049 0.486739
O O9 0.701162 0.690071 0.366351
O O10 0.023362 0.715211 0.131404
O O11 0.000000 0.500000 0.000000
#
# Coordination Sequence:
#
# PCOD9389865 Si02
#       7
#     8   2   8   8   4   8   2
#     4  10  20  33  56  80 127 156 196 251 302 386
#     4  10  28  38  60  92 112 174 216 256 306 334
#     4  10  19  32  51  91 124 162 188 235 326 385
#     4  11  22  41  61  90 120 162 218 264 307 370
#     4  10  21  34  50  98 122 161 188 232 344 386
#     4  11  21  33  59  92 128 157 192 256 330 381
#     4  10  22  42  64  86 114 168 224 256 292 352
#
# _framework density 20.254041000000001
#
# number of rings (size 3 to 8) (size 9 to 14) (size 15 to 20)
#    0.000    1.600    0.000    7.800    7.000    0.000 
#    0.000    0.000    0.000    0.600    0.000    9.100 
#    0.000    0.000    0.000    0.000    0.000    0.000 
#
# Total GULP energy -222878.853068 kJ/mol
# GULP energy per Si atom -5571.971327 kJ/mol
# Density = 2.020794 g / cm^3
# Si number density = 20.254041 Si / 1000 Ang^3
#
#
#
# Elastic Constant Matrix: (Units=GPa)
#
#
# Indices 1 2 3 4 5 6 
#
# 1 44.7723 31.8484 35.0664 0.0000 0.0000 0.0000
# 2 31.8484 90.2651 26.9008 0.0000 0.0000 0.0000
# 3 35.0664 26.9008 120.1198 0.0000 0.0000 0.0000
# 4 0.0000 0.0000 0.0000 37.6437 0.0000 0.0000
# 5 0.0000 0.0000 0.0000 0.0000 28.0794 0.0000
# 6 0.0000 0.0000 0.0000 0.0000 0.0000 8.5523
#
#
#
# Elastic Compliance Matrix: (Units=1/GPa)
#
#
# Indices 1 2 3 4 5 6 
#
# 1 0.036100 -0.010283 -0.008236 0.000000 0.000000 0.000000
# 2 -0.010283 0.014800 -0.000313 0.000000 0.000000 0.000000
# 3 -0.008236 -0.000313 0.010799 0.000000 0.000000 0.000000
# 4 0.000000 0.000000 0.000000 0.026565 0.000000 0.000000
# 5 0.000000 0.000000 0.000000 0.000000 0.035613 0.000000
# 6 0.000000 0.000000 0.000000 0.000000 0.000000 0.116928
#
#
# Mechanical properties :
#
#
# Convention : Reuss Voigt Hill
#
# Bulk Modulus (GPa) = 41.60286 49.19871 45.40078
# Shear Modulus (GPa) = 17.45321 25.61118 21.53220
#
# Velocity S-wave (km/s) = 2.93868 3.55983 3.26407
# Velocity P-wave (km/s) = 5.66565 6.42185 6.05556
#
# Compressibility (1/GPa) = 0.02403681
#
# Stress axis : x y z
#
# Youngs Moduli (GPa) = 27.70053 67.56864 92.59857
#
# Poissons Ratio (x) = 0.69480 0.76263
# Poissons Ratio (y) = 0.28484 0.02894
# Poissons Ratio (z) = 0.22814 0.02112
#
# Static dielectric constant tensor:
#      x y z
#    x 1.714440 0.000000 0.000000 
#    y 0.000000 1.694730 0.000000 
#    z 0.000000 0.000000 1.587390 
# 
# From -- ./inp_files/22769.got.cif
#   From: 2010.05.17/outbox.cif.g08.bks.cpg/sg48_12_cif.got.tgz:22769.got - 2010.06.03 20:39:00.
