data_PCOD9389922
_publ_section_title
;
Structure prediction by ZEFSAII (Michael W. Deem and Ramdas Pophale) SiO2 
 PCOD9389922
Probable space group: P N N N
;
_chemical_formula_sum "Si O2"
_cell_formula_units_Z 64
_cell_length_a 24.692209
_cell_length_b 7.822312
_cell_length_c 15.951140
_cell_angle_alpha 90.000000
_cell_angle_beta 90.000000
_cell_angle_gamma 90.000000
_cell_volume 3080.965287
_symmetry_space_group_name_H-M "P N N N"
_symmetry_group_IT_number 48
_space_group.IT_coordinate_system_code '2'
_symmetry_cell_setting 'orthorhombic'
loop_
_space_group_symop_operation_xyz
x,y,z
1/2-x,1/2-y,z
x,1/2-y,1/2-z
1/2-x,y,1/2-z
-x,-y,-z
1/2+x,1/2+y,-z
-x,1/2+y,1/2+z
1/2+x,-y,1/2+z
loop_
_atom_site_type_symbol
_atom_site_label
_atom_site_fract_x
_atom_site_fract_y
_atom_site_fract_z
Si Si1 0.250000 0.545239 0.653536
Si Si2 0.934227 0.959861 0.250000
Si Si3 0.366800 0.952812 0.097573
Si Si4 0.750000 0.457623 0.650856
Si Si5 0.441102 0.540256 0.250000
Si Si6 0.633200 0.047188 0.597573
Si Si7 0.367588 0.452177 0.588788
Si Si8 0.367588 0.047823 0.588788
O O1 0.250000 0.750000 0.655191
O O2 0.250000 0.481566 0.750000
O O3 0.304673 0.488786 0.607973
O O4 0.195327 0.488786 0.607973
O O5 0.932660 0.750000 0.250000
O O6 0.902605 0.018971 0.333034
O O7 0.902605 0.018971 0.166966
O O8 0.996581 0.013656 0.250000
O O9 0.305980 0.022890 0.111573
O O10 0.408392 0.017957 0.167558
O O11 0.363196 0.750000 0.112847
O O12 0.383499 0.978603 0.001926
O O13 0.750000 0.250000 0.640910
O O14 0.750000 0.492562 0.750000
O O15 0.805980 0.522890 0.611573
O O16 0.441873 0.750000 0.250000
O O17 0.408392 0.482043 0.167558
O O18 0.616501 0.021397 0.501926
O O19 0.375180 0.250000 0.585791
#
# Coordination Sequence:
#
# PCOD9389922 Si02
#       8
#     8   8   8   8   8   8   8   8
#     4  11  22  37  60  87 113 140 182 237 281 328
#     4   9  20  37  55  77 109 153 196 230 275 340
#     4  10  19  33  57  85 112 144 188 239 281 328
#     4   9  15  28  52  81 107 134 171 220 279 332
#     4   9  18  35  58  81 108 149 199 240 278 326
#     4  10  19  33  57  85 112 144 188 239 281 328
#     4  11  22  37  57  81 115 154 185 222 282 349
#     4  11  22  37  57  81 115 154 185 222 282 349
#
# _framework density 20.772711000000001
#
# number of rings (size 3 to 8) (size 9 to 14) (size 15 to 20)
#    0.000    2.000    2.500    1.875    0.000    2.500 
#    0.000    0.625    0.000    5.250    0.000    0.000 
#    0.000    0.000    0.000    0.000    0.000    0.000 
#
# Total GULP energy -357523.797513 kJ/mol
# GULP energy per Si atom -5586.309336 kJ/mol
# Density = 2.072543 g / cm^3
# Si number density = 20.772711 Si / 1000 Ang^3
#
#
#
# Elastic Constant Matrix: (Units=GPa)
#
#
# Indices 1 2 3 4 5 6 
#
# 1 176.6213 2.4031 104.9529 0.0000 0.0000 0.0000
# 2 2.4031 10.8366 -20.2099 0.0000 0.0000 0.0000
# 3 104.9529 -20.2099 165.0325 0.0000 0.0000 0.0000
# 4 0.0000 0.0000 0.0000 12.6138 0.0000 0.0000
# 5 0.0000 0.0000 0.0000 0.0000 6.9294 0.0000
# 6 0.0000 0.0000 0.0000 0.0000 0.0000 -5.9221
#
#
#
# Elastic Compliance Matrix: (Units=1/GPa)
#
#
# Indices 1 2 3 4 5 6 
#
# 1 0.012189 -0.022238 -0.010475 0.000000 0.000000 0.000000
# 2 -0.022238 0.160165 0.033756 0.000000 0.000000 0.000000
# 3 -0.010475 0.033756 0.016855 0.000000 0.000000 0.000000
# 4 0.000000 0.000000 0.000000 0.079278 0.000000 0.000000
# 5 0.000000 0.000000 0.000000 0.000000 0.144313 0.000000
# 6 0.000000 0.000000 0.000000 0.000000 0.000000 -0.168859
#
#
# Mechanical properties :
#
#
# Convention : Reuss Voigt Hill
#
# Bulk Modulus (GPa) = 5.22752 58.53142 31.87947
# Shear Modulus (GPa) = 16.36027 20.41383 18.38705
#
# Velocity S-wave (km/s) = 2.80944 3.13824 2.97838
# Velocity P-wave (km/s) = 3.61191 6.43193 5.21611
#
# Compressibility (1/GPa) = 0.19129525
#
# Stress axis : x y z
#
# Youngs Moduli (GPa) = 82.04276 6.24356 59.33088
#
# Poissons Ratio (x) = 0.13884 0.62148
# Poissons Ratio (y) = 1.82446 -2.00278
# Poissons Ratio (z) = 0.85938 -0.21076
#
# Static dielectric constant tensor:
#      x y z
#    x 1.719510 0.000000 0.000000 
#    y 0.000000 1.764450 0.000000 
#    z 0.000000 0.000000 1.731980 
# 
# From -- ./inp_files/28643.got.cif
#   From: 2010.05.17/outbox.cif.g08.bks.cpg/sg48_15_cif.got.tgz:28643.got - 2010.06.03 20:39:00.
