data_PCOD9389884
_publ_section_title
;
Structure prediction by ZEFSAII (Michael W. Deem and Ramdas Pophale) SiO2 
 PCOD9389884
Probable space group: P N N N
;
_chemical_formula_sum "Si O2"
_cell_formula_units_Z 34
_cell_length_a 18.791629
_cell_length_b 5.081405
_cell_length_c 18.718331
_cell_angle_alpha 90.000000
_cell_angle_beta 90.000000
_cell_angle_gamma 90.000000
_cell_volume 1787.373699
_symmetry_space_group_name_H-M "P N N N"
_symmetry_group_IT_number 48
_space_group.IT_coordinate_system_code '2'
_symmetry_cell_setting 'orthorhombic'
loop_
_space_group_symop_operation_xyz
x,y,z
1/2-x,1/2-y,z
x,1/2-y,1/2-z
1/2-x,y,1/2-z
-x,-y,-z
1/2+x,1/2+y,-z
-x,1/2+y,1/2+z
1/2+x,-y,1/2+z
loop_
_atom_site_type_symbol
_atom_site_label
_atom_site_fract_x
_atom_site_fract_y
_atom_site_fract_z
Si Si1 0.944981 0.297417 0.539646
Si Si2 0.702948 0.006398 0.522074
Si Si3 0.561120 0.018407 0.105422
Si Si4 0.852068 0.992801 0.138955
Si Si5 0.250000 0.250000 0.750000
O O1 0.875070 0.464878 0.557598
O O2 0.923801 0.091294 0.477471
O O3 0.000000 0.500000 0.500000
O O4 0.983622 0.121310 0.599837
O O5 0.750000 0.750000 0.534784
O O6 0.687860 0.031472 0.436697
O O7 0.750000 0.250000 0.545787
O O8 0.587247 0.281666 0.145761
O O9 0.610296 0.787180 0.131923
O O10 0.796963 0.945231 0.201629
#
# Coordination Sequence:
#
# PCOD9389884 Si02
#       5
#     8   8   8   8   2
#     4  10  19  32  56  74  97 138 188 232 291 345
#     4  11  21  32  49  75 109 135 181 238 283 341
#     4  10  20  35  52  72  93 130 197 239 272 336
#     4  11  23  36  50  71 102 148 195 235 274 325
#     4  12  28  38  56  74 116 162 202 242 300 324
#
# _framework density 19.022323
#
# number of rings (size 3 to 8) (size 9 to 14) (size 15 to 20)
#    0.000    1.412    5.882    2.824    3.294    1.882 
#    0.000    0.000    0.000    0.000    0.000    0.000 
#    0.000    0.000    0.000    1.059   15.529    1.176 
#
# Total GULP energy -189467.810320 kJ/mol
# GULP energy per Si atom -5572.582656 kJ/mol
# Density = 1.897903 g / cm^3
# Si number density = 19.022323 Si / 1000 Ang^3
#
#
#
# Elastic Constant Matrix: (Units=GPa)
#
#
# Indices 1 2 3 4 5 6 
#
# 1 111.3935 56.0720 24.5623 0.0000 0.0000 0.0000
# 2 56.0720 149.0227 13.5983 0.0000 0.0000 0.0000
# 3 24.5623 13.5983 37.4376 0.0000 0.0000 0.0000
# 4 0.0000 0.0000 0.0000 16.5509 0.0000 0.0000
# 5 0.0000 0.0000 0.0000 0.0000 38.1777 0.0000
# 6 0.0000 0.0000 0.0000 0.0000 0.0000 39.6341
#
#
#
# Elastic Compliance Matrix: (Units=1/GPa)
#
#
# Indices 1 2 3 4 5 6 
#
# 1 0.012524 -0.004098 -0.006728 0.000000 0.000000 0.000000
# 2 -0.004098 0.008282 -0.000319 0.000000 0.000000 0.000000
# 3 -0.006728 -0.000319 0.031241 0.000000 0.000000 0.000000
# 4 0.000000 0.000000 0.000000 0.060420 0.000000 0.000000
# 5 0.000000 0.000000 0.000000 0.000000 0.026193 0.000000
# 6 0.000000 0.000000 0.000000 0.000000 0.000000 0.025231
#
#
# Mechanical properties :
#
#
# Convention : Reuss Voigt Hill
#
# Bulk Modulus (GPa) = 33.60741 54.03546 43.82144
# Shear Modulus (GPa) = 25.49724 32.44730 28.97227
#
# Velocity S-wave (km/s) = 3.66510 4.13455 3.90688
# Velocity P-wave (km/s) = 5.96794 7.15966 6.59079
#
# Compressibility (1/GPa) = 0.02975534
#
# Stress axis : x y z
#
# Youngs Moduli (GPa) = 79.84890 120.75023 32.00902
#
# Poissons Ratio (x) = 0.49487 0.21536
# Poissons Ratio (y) = 0.32724 0.01022
# Poissons Ratio (z) = 0.53722 0.03855
#
# Static dielectric constant tensor:
#      x y z
#    x 1.724770 0.000000 0.000000 
#    y 0.000000 1.714490 0.000000 
#    z 0.000000 0.000000 1.651460 
# 
# From -- ./inp_files/32733.got.cif
#   From: 2010.05.17/outbox.cif.g08.bks.cpg/sg48_17_cif.got.tgz:32733.got - 2010.06.03 20:39:00.
