data_PCOD9389597
_publ_section_title
;
Structure prediction by ZEFSAII (Michael W. Deem and Ramdas Pophale) SiO2 
 PCOD9389597
Probable space group: P N N N
;
_chemical_formula_sum "Si O2"
_cell_formula_units_Z 58
_cell_length_a 8.485774
_cell_length_b 27.417133
_cell_length_c 11.246668
_cell_angle_alpha 90.000000
_cell_angle_beta 90.000000
_cell_angle_gamma 90.000000
_cell_volume 2616.600228
_symmetry_space_group_name_H-M "P N N N"
_symmetry_group_IT_number 48
_space_group.IT_coordinate_system_code '2'
_symmetry_cell_setting 'orthorhombic'
loop_
_space_group_symop_operation_xyz
x,y,z
1/2-x,1/2-y,z
x,1/2-y,1/2-z
1/2-x,y,1/2-z
-x,-y,-z
1/2+x,1/2+y,-z
-x,1/2+y,1/2+z
1/2+x,-y,1/2+z
loop_
_atom_site_type_symbol
_atom_site_label
_atom_site_fract_x
_atom_site_fract_y
_atom_site_fract_z
Si Si1 0.559432 0.437529 0.747997
Si Si2 0.250000 0.250000 0.250000
Si Si3 0.533328 0.170599 0.829890
Si Si4 0.105702 0.808814 0.071895
Si Si5 0.935058 0.543290 0.755644
Si Si6 0.490910 0.213130 0.057580
Si Si7 0.066205 0.914391 0.988183
Si Si8 0.145086 0.615410 0.868864
O O1 0.750000 0.434884 0.750000
O O2 0.508654 0.387209 0.687004
O O3 0.503415 0.490153 0.703586
O O4 0.514399 0.436257 0.887336
O O5 0.364117 0.221109 0.160243
O O6 0.713363 0.181920 0.879589
O O7 0.519053 0.194289 0.699846
O O8 0.424187 0.191172 0.933987
O O9 0.041932 0.856099 0.001735
O O10 0.073570 0.763055 0.986777
O O11 0.750000 0.539604 0.750000
O O12 0.992909 0.559096 0.624528
O O13 0.988366 0.585766 0.843318
O O14 0.608923 0.171388 0.104822
O O15 0.255197 0.913447 0.967682
O O16 0.250000 0.612960 0.750000
#
# Coordination Sequence:
#
# PCOD9389597 Si02
#       8
#     8   2   8   8   8   8   8   8
#     4  10  17  37  65  99 130 163 216 281 351 381
#     4  12  36  44  60  84 136 192 222 250 308 452
#     4  10  19  39  71 106 129 148 216 287 342 395
#     4  10  20  37  70 104 127 154 209 286 342 387
#     4  10  23  37  60  89 136 187 219 262 339 397
#     4  12  25  43  62  91 130 176 213 265 341 388
#     4  10  19  38  62  98 127 167 220 290 316 394
#     4  10  23  39  61  91 131 169 234 278 309 387
#
# _framework density 22.166169
#
# number of rings (size 3 to 8) (size 9 to 14) (size 15 to 20)
#    0.000    1.655    4.138    1.241    4.828    1.103 
#    0.000    7.586    0.000    6.621    0.000    0.000 
#    0.000    0.000    0.000    0.000    0.000    0.000 
#
# Total GULP energy -323486.395278 kJ/mol
# GULP energy per Si atom -5577.351643 kJ/mol
# Density = 2.211572 g / cm^3
# Si number density = 22.166169 Si / 1000 Ang^3
#
#
#
# Elastic Constant Matrix: (Units=GPa)
#
#
# Indices 1 2 3 4 5 6 
#
# 1 35.1129 21.5401 26.7422 0.0000 0.0000 0.0000
# 2 21.5401 142.9489 35.8458 0.0000 0.0000 0.0000
# 3 26.7422 35.8458 93.5585 0.0000 0.0000 0.0000
# 4 0.0000 0.0000 0.0000 22.9456 0.0000 0.0000
# 5 0.0000 0.0000 0.0000 0.0000 24.6243 0.0000
# 6 0.0000 0.0000 0.0000 0.0000 0.0000 0.8520
#
#
#
# Elastic Compliance Matrix: (Units=1/GPa)
#
#
# Indices 1 2 3 4 5 6 
#
# 1 0.037762 -0.003301 -0.009529 0.000000 0.000000 0.000000
# 2 -0.003301 0.008028 -0.002132 0.000000 0.000000 0.000000
# 3 -0.009529 -0.002132 0.014229 0.000000 0.000000 0.000000
# 4 0.000000 0.000000 0.000000 0.043581 0.000000 0.000000
# 5 0.000000 0.000000 0.000000 0.000000 0.040610 0.000000
# 6 0.000000 0.000000 0.000000 0.000000 0.000000 1.173771
#
#
# Mechanical properties :
#
#
# Convention : Reuss Voigt Hill
#
# Bulk Modulus (GPa) = 33.22844 48.87518 41.05181
# Shear Modulus (GPa) = 3.68206 22.18384 12.93295
#
# Velocity S-wave (km/s) = 1.29024 3.16697 2.41810
# Velocity P-wave (km/s) = 4.15244 5.95569 5.13386
#
# Compressibility (1/GPa) = 0.03009470
#
# Stress axis : x y z
#
# Youngs Moduli (GPa) = 26.48191 124.57126 70.27828
#
# Poissons Ratio (x) = 0.41116 0.66968
# Poissons Ratio (y) = 0.08741 0.14985
# Poissons Ratio (z) = 0.25235 0.26561
#
# Static dielectric constant tensor:
#      x y z
#    x 1.856550 0.000000 0.000000 
#    y 0.000000 1.840580 0.000000 
#    z 0.000000 0.000000 1.869440 
# 
# From -- ./inp_files/18980.got.cif
#   From: 2010.05.17/outbox.cif.g08.bks.cpg/sg48_10_cif.got.tgz:18980.got - 2010.06.03 20:39:00.
