data_PCOD9389691
_publ_section_title
;
Structure prediction by ZEFSAII (Michael W. Deem and Ramdas Pophale) SiO2 
 PCOD9389691
Probable space group: P N N N
;
_chemical_formula_sum "Si O2"
_cell_formula_units_Z 40
_cell_length_a 14.352891
_cell_length_b 22.787246
_cell_length_c 5.000220
_cell_angle_alpha 90.000000
_cell_angle_beta 90.000000
_cell_angle_gamma 90.000000
_cell_volume 1635.386244
_symmetry_space_group_name_H-M "P N N N"
_symmetry_group_IT_number 48
_space_group.IT_coordinate_system_code '2'
_symmetry_cell_setting 'orthorhombic'
loop_
_space_group_symop_operation_xyz
x,y,z
1/2-x,1/2-y,z
x,1/2-y,1/2-z
1/2-x,y,1/2-z
-x,-y,-z
1/2+x,1/2+y,-z
-x,1/2+y,1/2+z
1/2+x,-y,1/2+z
loop_
_atom_site_type_symbol
_atom_site_label
_atom_site_fract_x
_atom_site_fract_y
_atom_site_fract_z
Si Si1 0.891979 0.189551 0.353936
Si Si2 0.842637 0.519080 0.596814
Si Si3 0.110767 0.612282 0.326005
Si Si4 0.410638 0.419475 0.575099
Si Si5 0.392735 0.288496 0.495567
O O1 0.849039 0.250000 0.250000
O O2 0.844525 0.152496 0.591403
O O3 0.994333 0.207249 0.465390
O O4 0.903173 0.149128 0.094305
O O5 0.750000 0.539681 0.750000
O O6 0.842079 0.448991 0.599771
O O7 0.857194 0.543850 0.301921
O O8 0.920716 0.544924 0.798656
O O9 0.011100 0.594153 0.201013
O O10 0.363620 0.356217 0.516894
O O11 0.358368 0.250000 0.250000
O O12 0.369885 0.250000 0.750000
#
# Coordination Sequence:
#
# PCOD9389691 Si02
#       5
#     8   8   8   8   8
#     4  10  18  32  56  89 119 142 180 235 288 335
#     4  12  25  40  57  81 118 155 192 236 286 335
#     4  11  21  36  60  87 115 148 190 236 279 335
#     4  11  21  38  61  86 112 148 193 234 279 339
#     4  10  18  32  56  89 118 141 179 235 290 334
#
# _framework density 24.459053000000001
#
# number of rings (size 3 to 8) (size 9 to 14) (size 15 to 20)
#    0.000    1.200    0.000   12.000    0.000    0.000 
#    0.000    0.000    0.000   12.600    0.000    1.400 
#    0.000    0.000    0.000    0.000    0.000    0.000 
#
# Total GULP energy -223990.616896 kJ/mol
# GULP energy per Si atom -5599.765422 kJ/mol
# Density = 2.440338 g / cm^3
# Si number density = 24.459053 Si / 1000 Ang^3
#
#
#
# Elastic Constant Matrix: (Units=GPa)
#
#
# Indices 1 2 3 4 5 6 
#
# 1 50.3971 6.6155 -7.9349 0.0000 0.0000 0.0000
# 2 6.6155 203.9782 74.6260 0.0000 0.0000 0.0000
# 3 -7.9349 74.6260 173.9590 0.0000 0.0000 0.0000
# 4 0.0000 0.0000 0.0000 60.2982 0.0000 0.0000
# 5 0.0000 0.0000 0.0000 0.0000 9.6650 0.0000
# 6 0.0000 0.0000 0.0000 0.0000 0.0000 -14.3376
#
#
#
# Elastic Compliance Matrix: (Units=1/GPa)
#
#
# Indices 1 2 3 4 5 6 
#
# 1 0.020222 -0.001178 0.001428 0.000000 0.000000 0.000000
# 2 -0.001178 0.005884 -0.002578 0.000000 0.000000 0.000000
# 3 0.001428 -0.002578 0.006919 0.000000 0.000000 0.000000
# 4 0.000000 0.000000 0.000000 0.016584 0.000000 0.000000
# 5 0.000000 0.000000 0.000000 0.000000 0.103466 0.000000
# 6 0.000000 0.000000 0.000000 0.000000 0.000000 -0.069747
#
#
# Mechanical properties :
#
#
# Convention : Reuss Voigt Hill
#
# Bulk Modulus (GPa) = 35.25010 63.88306 49.56658
# Shear Modulus (GPa) = 51.31293 34.79364 43.05329
#
# Velocity S-wave (km/s) = 4.58527 3.77573 4.20005
# Velocity P-wave (km/s) = 6.51737 6.72185 6.62040
#
# Compressibility (1/GPa) = 0.02836871
#
# Stress axis : x y z
#
# Youngs Moduli (GPa) = 49.45143 169.95838 144.52009
#
# Poissons Ratio (x) = 0.20025 -0.20635
# Poissons Ratio (y) = 0.05826 0.37254
# Poissons Ratio (z) = -0.07061 0.43812
#
# Static dielectric constant tensor:
#      x y z
#    x 2.050610 0.000000 0.000000 
#    y 0.000000 1.932760 0.000000 
#    z 0.000000 0.000000 1.870310 
# 
# From -- ./inp_files/5086.got.cif
#   From: 2010.05.17/outbox.cif.g08.bks.cpg/sg48_3_cif.got.tgz:5086.got - 2010.06.03 20:39:00.
