data_PCOD9389611
_publ_section_title
;
Structure prediction by ZEFSAII (Michael W. Deem and Ramdas Pophale) SiO2 
 PCOD9389611
Probable space group: P N N N
;
_chemical_formula_sum "Si O2"
_cell_formula_units_Z 40
_cell_length_a 16.474201
_cell_length_b 6.583065
_cell_length_c 21.445914
_cell_angle_alpha 90.000000
_cell_angle_beta 90.000000
_cell_angle_gamma 90.000000
_cell_volume 2325.825158
_symmetry_space_group_name_H-M "P N N N"
_symmetry_group_IT_number 48
_space_group.IT_coordinate_system_code '2'
_symmetry_cell_setting 'orthorhombic'
loop_
_space_group_symop_operation_xyz
x,y,z
1/2-x,1/2-y,z
x,1/2-y,1/2-z
1/2-x,y,1/2-z
-x,-y,-z
1/2+x,1/2+y,-z
-x,1/2+y,1/2+z
1/2+x,-y,1/2+z
loop_
_atom_site_type_symbol
_atom_site_label
_atom_site_fract_x
_atom_site_fract_y
_atom_site_fract_z
Si Si1 0.353630 0.927821 0.949274
Si Si2 0.750000 0.750000 0.528233
Si Si3 0.165235 0.141280 0.813329
Si Si4 0.750000 0.250000 0.338340
Si Si5 0.614960 0.457667 0.963644
Si Si6 0.041982 0.223063 0.924941
O O1 0.310974 0.867040 0.885122
O O2 0.439877 0.037709 0.935715
O O3 0.356840 0.730567 0.993053
O O4 0.299893 0.096919 0.983976
O O5 0.812305 0.597375 0.562992
O O6 0.250000 0.250000 0.831139
O O7 0.137085 0.250000 0.750000
O O8 0.100234 0.158134 0.868214
O O9 0.193620 0.910656 0.803110
O O10 0.549644 0.356633 0.917284
O O11 0.571402 0.609720 0.012369
#
# Coordination Sequence:
#
# PCOD9389611 Si02
#       6
#     8   4   8   4   8   8
#     4  11  17  30  50  71 102 137 168 217 268 320
#     4  10  18  28  46  74 103 133 168 208 270 338
#     4  11  23  36  51  70 101 144 187 225 250 309
#     4  12  18  33  54  68  98 140 181 222 266 310
#     4  10  19  30  50  73 104 136 169 219 278 331
#     4  10  20  33  47  74 101 135 180 219 265 319
#
# _framework density 17.198198000000001
#
# number of rings (size 3 to 8) (size 9 to 14) (size 15 to 20)
#    0.000    1.400    6.000    1.800    1.400    1.600 
#    0.000    0.000    0.000    0.000    0.000    0.000 
#    0.000    4.800    0.000    0.000    0.000    0.000 
#
# Total GULP energy -222858.600139 kJ/mol
# GULP energy per Si atom -5571.465003 kJ/mol
# Density = 1.715905 g / cm^3
# Si number density = 17.198198 Si / 1000 Ang^3
#
#
#
# Elastic Constant Matrix: (Units=GPa)
#
#
# Indices 1 2 3 4 5 6 
#
# 1 82.2223 26.7658 20.5811 0.0000 0.0000 0.0000
# 2 26.7658 102.4282 2.3779 0.0000 0.0000 0.0000
# 3 20.5811 2.3779 39.8695 0.0000 0.0000 0.0000
# 4 0.0000 0.0000 0.0000 13.6302 0.0000 0.0000
# 5 0.0000 0.0000 0.0000 0.0000 1205.1653 0.0000
# 6 0.0000 0.0000 0.0000 0.0000 0.0000 29.4361
#
#
#
# Elastic Compliance Matrix: (Units=1/GPa)
#
#
# Indices 1 2 3 4 5 6 
#
# 1 0.015332 -0.003828 -0.007686 0.000000 0.000000 0.000000
# 2 -0.003828 0.010732 0.001336 0.000000 0.000000 0.000000
# 3 -0.007686 0.001336 0.028970 0.000000 0.000000 0.000000
# 4 0.000000 0.000000 0.000000 0.073367 0.000000 0.000000
# 5 0.000000 0.000000 0.000000 0.000000 0.000830 0.000000
# 6 0.000000 0.000000 0.000000 0.000000 0.000000 0.033972
#
#
# Mechanical properties :
#
#
# Convention : Reuss Voigt Hill
#
# Bulk Modulus (GPa) = 28.83709 35.99661 32.41685
# Shear Modulus (GPa) = 25.62540 261.29933 143.46236
#
# Velocity S-wave (km/s) = 3.86425 12.33953 9.14320
# Velocity P-wave (km/s) = 6.05919 14.96645 11.41727
#
# Compressibility (1/GPa) = 0.03467756
#
# Stress axis : x y z
#
# Youngs Moduli (GPa) = 65.22181 93.17715 34.51854
#
# Poissons Ratio (x) = 0.35669 0.26532
# Poissons Ratio (y) = 0.24967 -0.04612
# Poissons Ratio (z) = 0.50132 -0.12449
#
# Static dielectric constant tensor:
#      x y z
#    x 1.674410 0.000000 0.000000 
#    y 0.000000 1.658070 0.000000 
#    z 0.000000 0.000000 1.570910 
# 
# From -- ./inp_files/5092.got.cif
#   From: 2010.05.17/outbox.cif.g08.bks.cpg/sg48_3_cif.got.tgz:5092.got - 2010.06.03 20:39:00.
