data_PCOD9389635
_publ_section_title
;
Structure prediction by ZEFSAII (Michael W. Deem and Ramdas Pophale) SiO2 
 PCOD9389635
Probable space group: P N N N
;
_chemical_formula_sum "Si O2"
_cell_formula_units_Z 40
_cell_length_a 5.748583
_cell_length_b 16.038288
_cell_length_c 22.123858
_cell_angle_alpha 90.000000
_cell_angle_beta 90.000000
_cell_angle_gamma 90.000000
_cell_volume 2039.762844
_symmetry_space_group_name_H-M "P N N N"
_symmetry_group_IT_number 48
_space_group.IT_coordinate_system_code '2'
_symmetry_cell_setting 'orthorhombic'
loop_
_space_group_symop_operation_xyz
x,y,z
1/2-x,1/2-y,z
x,1/2-y,1/2-z
1/2-x,y,1/2-z
-x,-y,-z
1/2+x,1/2+y,-z
-x,1/2+y,1/2+z
1/2+x,-y,1/2+z
loop_
_atom_site_type_symbol
_atom_site_label
_atom_site_fract_x
_atom_site_fract_y
_atom_site_fract_z
Si Si1 0.499677 0.550414 0.764222
Si Si2 0.398783 0.331685 0.588290
Si Si3 0.002872 0.635887 0.220015
Si Si4 0.570599 0.994554 0.401587
Si Si5 0.191515 0.928649 0.493563
O O1 0.250000 0.592855 0.750000
O O2 0.499083 0.465476 0.723645
O O3 0.491044 0.521976 0.834250
O O4 0.750000 0.591872 0.750000
O O5 0.250000 0.250000 0.577981
O O6 0.517992 0.326581 0.653384
O O7 0.243072 0.415158 0.597453
O O8 0.568913 0.347112 0.532130
O O9 0.250000 0.657887 0.250000
O O10 0.750000 0.658892 0.250000
O O11 0.354842 0.960854 0.439819
O O12 0.675851 0.069180 0.442683
O O13 0.000000 0.000000 0.500000
#
# Coordination Sequence:
#
# PCOD9389635 Si02
#       5
#     8   8   8   8   8
#     4  10  18  30  51  75 106 139 186 227 285 326
#     4  11  22  35  51  77 108 150 196 242 283 334
#     4  10  19  34  49  69 106 145 191 226 279 320
#     4  10  19  36  53  75 101 148 191 234 288 339
#     4   9  20  35  55  71  98 142 199 233 282 333
#
# _framework density 19.610122
#
# number of rings (size 3 to 8) (size 9 to 14) (size 15 to 20)
#    0.000    2.000    4.000    2.400    2.800    1.200 
#    0.000    2.000    0.000    0.000    0.000    0.000 
#    0.000    0.000    0.000   52.200   19.200    0.000 
#
# Total GULP energy -222913.727495 kJ/mol
# GULP energy per Si atom -5572.843187 kJ/mol
# Density = 1.956549 g / cm^3
# Si number density = 19.610122 Si / 1000 Ang^3
#
#
#
# Elastic Constant Matrix: (Units=GPa)
#
#
# Indices 1 2 3 4 5 6 
#
# 1 148.0148 22.6745 48.3217 0.0000 0.0000 0.0000
# 2 22.6745 32.0315 35.8563 0.0000 0.0000 0.0000
# 3 48.3217 35.8563 106.9198 0.0000 0.0000 0.0000
# 4 0.0000 0.0000 0.0000 1.3488 0.0000 0.0000
# 5 0.0000 0.0000 0.0000 0.0000 36.4556 0.0000
# 6 0.0000 0.0000 0.0000 0.0000 0.0000 27.7628
#
#
#
# Elastic Compliance Matrix: (Units=1/GPa)
#
#
# Indices 1 2 3 4 5 6 
#
# 1 0.008059 -0.002606 -0.002768 0.000000 0.000000 0.000000
# 2 -0.002606 0.050826 -0.015867 0.000000 0.000000 0.000000
# 3 -0.002768 -0.015867 0.015925 0.000000 0.000000 0.000000
# 4 0.000000 0.000000 0.000000 0.741425 0.000000 0.000000
# 5 0.000000 0.000000 0.000000 0.000000 0.027431 0.000000
# 6 0.000000 0.000000 0.000000 0.000000 0.000000 0.036019
#
#
# Mechanical properties :
#
#
# Convention : Reuss Voigt Hill
#
# Bulk Modulus (GPa) = 30.93378 55.63014 43.28196
# Shear Modulus (GPa) = 5.35939 25.12100 15.24020
#
# Velocity S-wave (km/s) = 1.65496 3.58302 2.79078
# Velocity P-wave (km/s) = 4.41141 6.74885 5.70121
#
# Compressibility (1/GPa) = 0.03232712
#
# Stress axis : x y z
#
# Youngs Moduli (GPa) = 124.08410 19.67516 62.79440
#
# Poissons Ratio (x) = 0.05127 0.17383
# Poissons Ratio (y) = 0.32336 0.99635
# Poissons Ratio (z) = 0.34350 0.31218
#
# Static dielectric constant tensor:
#      x y z
#    x 1.781620 0.000000 0.000000 
#    y 0.000000 1.674230 0.000000 
#    z 0.000000 0.000000 1.750000 
# 
# From -- ./inp_files/3352.got.cif
#   From: 2010.05.17/outbox.cif.g08.bks.cpg/sg48_2_cif.got.tgz:3352.got - 2010.06.03 20:39:00.
