data_PCOD9389479
_publ_section_title
;
Structure prediction by ZEFSAII (Michael W. Deem and Ramdas Pophale) SiO2 
 PCOD9389479
Probable space group: P N N N
;
_chemical_formula_sum "Si O2"
_cell_formula_units_Z 64
_cell_length_a 19.804859
_cell_length_b 33.577817
_cell_length_c 5.424156
_cell_angle_alpha 90.000000
_cell_angle_beta 90.000000
_cell_angle_gamma 90.000000
_cell_volume 3607.085064
_symmetry_space_group_name_H-M "P N N N"
_symmetry_group_IT_number 48
_space_group.IT_coordinate_system_code '2'
_symmetry_cell_setting 'orthorhombic'
loop_
_space_group_symop_operation_xyz
x,y,z
1/2-x,1/2-y,z
x,1/2-y,1/2-z
1/2-x,y,1/2-z
-x,-y,-z
1/2+x,1/2+y,-z
-x,1/2+y,1/2+z
1/2+x,-y,1/2+z
loop_
_atom_site_type_symbol
_atom_site_label
_atom_site_fract_x
_atom_site_fract_y
_atom_site_fract_z
Si Si1 0.004725 0.040427 0.250000
Si Si2 0.863959 0.482091 0.750000
Si Si3 0.675909 0.153391 0.250001
Si Si4 0.036857 0.702555 0.749999
Si Si5 0.051002 0.080512 0.750000
Si Si6 0.995917 0.838078 0.250001
Si Si7 0.638467 0.507443 0.250000
Si Si8 0.365011 0.887735 0.249999
O O1 0.064947 0.007498 0.250000
O O2 0.014099 0.066691 0.496160
O O3 0.932884 0.018225 0.250000
O O4 0.014099 0.066691 0.003840
O O5 0.827969 0.495149 0.501641
O O6 0.872045 0.434964 0.750000
O O7 0.827969 0.495149 0.998359
O O8 0.750000 0.172937 0.250000
O O9 0.612415 0.183495 0.250001
O O10 0.669615 0.126972 0.497499
O O11 0.669614 0.126972 0.002505
O O12 0.040977 0.750000 0.750000
O O13 0.000405 0.687159 0.500742
O O14 0.000405 0.687159 0.999256
O O15 0.060854 0.127754 0.750000
O O16 0.117943 0.053486 0.750000
O O17 0.062941 0.865775 0.250001
#
# Coordination Sequence:
#
# PCOD9389479 Si02
#       8
#     8   8   8   8   8   8   8   8
#     4  10  16  22  33  51  77 102 122 135 148 177
#     4  10  17  24  35  53  75  99 119 136 156 187
#     4  10  21  34  47  60  71  86 111 149 198 250
#     4  10  21  34  47  60  71  86 111 149 198 250
#     4  10  17  24  35  53  75  99 119 136 156 187
#     4  10  18  29  44  59  75  92 113 140 175 221
#     4  10  16  22  33  51  77 102 122 135 148 177
#     4  10  18  29  44  59  75  92 113 140 175 221
#
# _framework density 17.742857000000001
#
# number of rings (size 3 to 8) (size 9 to 14) (size 15 to 20)
#    0.000    2.000    0.000    8.250    0.000    2.250 
#    0.000    0.000    0.000    4.500    0.000    0.000 
#    0.000    0.000    0.000    0.000    0.000    0.000 
#
# Total GULP energy -357072.655252 kJ/mol
# GULP energy per Si atom -5579.260238 kJ/mol
# Density = 1.770247 g / cm^3
# Si number density = 17.742857 Si / 1000 Ang^3
#
#
#
# Elastic Constant Matrix: (Units=GPa)
#
#
# Indices 1 2 3 4 5 6 
#
# 1 25.5628 19.4594 13.4942 0.0000 0.0000 0.0000
# 2 19.4594 147.5693 73.7327 0.0000 0.0000 0.0000
# 3 13.4942 73.7327 199.5884 0.0000 0.0000 0.0000
# 4 0.0000 0.0000 0.0000 25.0810 0.0000 0.0000
# 5 0.0000 0.0000 0.0000 0.0000 1.3158 0.0000
# 6 0.0000 0.0000 0.0000 0.0000 0.0000 2.9257
#
#
#
# Elastic Compliance Matrix: (Units=1/GPa)
#
#
# Indices 1 2 3 4 5 6 
#
# 1 0.043650 -0.005251 -0.001012 0.000000 0.000000 0.000000
# 2 -0.005251 0.008942 -0.002948 0.000000 0.000000 0.000000
# 3 -0.001012 -0.002948 0.006168 0.000000 0.000000 0.000000
# 4 0.000000 0.000000 0.000000 0.039871 0.000000 0.000000
# 5 0.000000 0.000000 0.000000 0.000000 0.759971 0.000000
# 6 0.000000 0.000000 0.000000 0.000000 0.000000 0.341803
#
#
# Mechanical properties :
#
#
# Convention : Reuss Voigt Hill
#
# Bulk Modulus (GPa) = 24.78983 65.12146 44.95565
# Shear Modulus (GPa) = 4.05755 23.60013 13.82884
#
# Velocity S-wave (km/s) = 1.51388 3.65104 2.79481
# Velocity P-wave (km/s) = 4.13011 7.38621 5.98389
#
# Compressibility (1/GPa) = 0.04033912
#
# Stress axis : x y z
#
# Youngs Moduli (GPa) = 22.90941 111.83161 162.12956
#
# Poissons Ratio (x) = 0.58718 0.16399
# Poissons Ratio (y) = 0.12029 0.47802
# Poissons Ratio (z) = 0.02317 0.32972
#
# Static dielectric constant tensor:
#      x y z
#    x 1.626500 0.000000 0.000000 
#    y 0.000000 1.595080 0.000000 
#    z 0.000000 0.000000 1.697710 
# 
# From -- ./inp_files/6076.got.cif
#   From: 2010.05.17/outbox.cif.g08.bks.cpg/sg48_4_cif.got.tgz:6076.got - 2010.06.03 20:39:00.
