data_PCOD9389863
_publ_section_title
;
Structure prediction by ZEFSAII (Michael W. Deem and Ramdas Pophale) SiO2 
 PCOD9389863
Probable space group: P N N N
;
_chemical_formula_sum "Si O2"
_cell_formula_units_Z 60
_cell_length_a 16.672720
_cell_length_b 6.053139
_cell_length_c 30.178273
_cell_angle_alpha 90.000000
_cell_angle_beta 90.000000
_cell_angle_gamma 90.000000
_cell_volume 3045.660470
_symmetry_space_group_name_H-M "P N N N"
_symmetry_group_IT_number 48
_space_group.IT_coordinate_system_code '2'
_symmetry_cell_setting 'orthorhombic'
loop_
_space_group_symop_operation_xyz
x,y,z
1/2-x,1/2-y,z
x,1/2-y,1/2-z
1/2-x,y,1/2-z
-x,-y,-z
1/2+x,1/2+y,-z
-x,1/2+y,1/2+z
1/2+x,-y,1/2+z
loop_
_atom_site_type_symbol
_atom_site_label
_atom_site_fract_x
_atom_site_fract_y
_atom_site_fract_z
Si Si1 0.592833 0.750000 0.250000
Si Si2 0.517928 0.861872 0.791838
Si Si3 0.484009 0.907649 0.121405
Si Si4 0.590864 0.952497 0.491993
Si Si5 0.592444 0.522097 0.165837
Si Si6 0.127000 0.768936 0.590407
Si Si7 0.183330 0.435886 0.976507
Si Si8 0.663384 0.251146 0.939140
O O1 0.538305 0.554560 0.271051
O O2 0.634936 0.645154 0.206965
O O3 0.563363 0.750000 0.750000
O O4 0.465886 0.661382 0.812276
O O5 0.555571 0.980713 0.834581
O O6 0.538890 0.699919 0.138127
O O7 0.412734 0.831114 0.089018
O O8 0.545722 0.090378 0.101295
O O9 0.615443 0.104561 0.450854
O O10 0.638488 0.020059 0.536625
O O11 0.500000 0.000000 0.500000
O O12 0.601470 0.700618 0.478563
O O13 0.646192 0.380343 0.132546
O O14 0.189353 0.942565 0.570230
O O15 0.250000 0.250000 0.980242
O O16 0.180402 0.592841 0.018678
O O17 0.750000 0.250000 0.915009
#
# Coordination Sequence:
#
# PCOD9389863 Si02
#       8
#     4   8   8   8   8   8   8   8
#     4   8  14  26  48  72 111 138 161 202 272 328
#     4   8  15  28  48  76 105 137 168 208 273 332
#     4  10  19  32  51  78 105 136 177 231 273 327
#     4  11  21  35  54  73  99 141 183 231 274 320
#     4   9  16  29  47  78 105 137 167 213 272 331
#     4  10  20  31  51  74 102 136 184 222 269 325
#     4  11  22  37  51  69 101 148 186 230 276 322
#     4  11  22  36  50  72 102 139 191 231 274 324
#
# _framework density 19.700161000000001
#
# number of rings (size 3 to 8) (size 9 to 14) (size 15 to 20)
#    0.000    2.133    1.333    3.200    0.000    3.200 
#    0.000    0.000    0.000    0.000    0.000   21.467 
#    0.000    0.000    0.000 1490.400    0.000    0.000 
#
# Total GULP energy -334103.582302 kJ/mol
# GULP energy per Si atom -5568.393038 kJ/mol
# Density = 1.965532 g / cm^3
# Si number density = 19.700161 Si / 1000 Ang^3
#
#
#
# Elastic Constant Matrix: (Units=GPa)
#
#
# Indices 1 2 3 4 5 6 
#
# 1 31.8962 5.3419 12.3733 0.0000 0.0000 0.0000
# 2 5.3419 76.3512 32.4662 0.0000 0.0000 0.0000
# 3 12.3733 32.4662 121.0254 0.0000 0.0000 0.0000
# 4 0.0000 0.0000 0.0000 35.1156 0.0000 0.0000
# 5 0.0000 0.0000 0.0000 0.0000 9.2169 0.0000
# 6 0.0000 0.0000 0.0000 0.0000 0.0000 20.0621
#
#
#
# Elastic Compliance Matrix: (Units=1/GPa)
#
#
# Indices 1 2 3 4 5 6 
#
# 1 0.032711 -0.000978 -0.003082 0.000000 0.000000 0.000000
# 2 -0.000978 0.014813 -0.003874 0.000000 0.000000 0.000000
# 3 -0.003082 -0.003874 0.009617 0.000000 0.000000 0.000000
# 4 0.000000 0.000000 0.000000 0.028477 0.000000 0.000000
# 5 0.000000 0.000000 0.000000 0.000000 0.108496 0.000000
# 6 0.000000 0.000000 0.000000 0.000000 0.000000 0.049845
#
#
# Mechanical properties :
#
#
# Convention : Reuss Voigt Hill
#
# Bulk Modulus (GPa) = 24.22864 36.62621 30.42743
# Shear Modulus (GPa) = 18.27585 24.81835 21.54710
#
# Velocity S-wave (km/s) = 3.04912 3.55322 3.31078
# Velocity P-wave (km/s) = 4.97208 5.95534 5.48578
#
# Compressibility (1/GPa) = 0.04127346
#
# Stress axis : x y z
#
# Youngs Moduli (GPa) = 30.57073 67.50828 103.98280
#
# Poissons Ratio (x) = 0.06603 0.32046
# Poissons Ratio (y) = 0.02990 0.40280
# Poissons Ratio (z) = 0.09422 0.26151
#
# Static dielectric constant tensor:
#      x y z
#    x 1.764690 0.000000 0.000000 
#    y 0.000000 1.592940 0.000000 
#    z 0.000000 0.000000 1.743250 
# 
# From -- ./inp_files/39166.got.cif
#   From: 2010.05.17/outbox.cif.g08.bks.cpg/sg48_20_cif.got.tgz:39166.got - 2010.06.03 20:39:00.
