data_PCOD9389192
_publ_section_title
;
Structure prediction by ZEFSAII (Michael W. Deem and Ramdas Pophale) SiO2 
 PCOD9389192
Probable space group: P M M M
;
_chemical_formula_sum "Si O2"
_cell_formula_units_Z 64
_cell_length_a 18.256769
_cell_length_b 21.481538
_cell_length_c 7.434853
_cell_angle_alpha 90.000000
_cell_angle_beta 90.000000
_cell_angle_gamma 90.000000
_cell_volume 2915.826501
_symmetry_space_group_name_H-M "P M M M"
_symmetry_group_IT_number 47
_symmetry_cell_setting 'orthorhombic'
loop_
_space_group_symop_operation_xyz
x,y,z
-x,-y,z
x,-y,-z
-x,y,-z
-x,-y,-z
x,y,-z
-x,y,z
x,-y,z
loop_
_atom_site_type_symbol
_atom_site_label
_atom_site_fract_x
_atom_site_fract_y
_atom_site_fract_z
Si Si1 0.724238 0.427241 0.795806
Si Si2 0.380088 0.232745 0.786150
Si Si3 0.746629 0.066976 0.711584
Si Si4 0.213730 0.204164 0.284245
Si Si5 0.422116 0.366511 0.220682
Si Si6 0.580010 0.096630 0.781953
Si Si7 0.889420 0.569753 0.295224
Si Si8 0.080948 0.292520 0.280455
O O1 0.707730 0.500000 0.806328
O O2 0.652963 0.396242 0.714797
O O3 0.801682 0.421744 0.701012
O O4 0.735417 0.403253 0.000000
O O5 0.292978 0.234337 0.753158
O O6 0.417792 0.294970 0.721910
O O7 0.412459 0.168117 0.718843
O O8 0.391228 0.231205 0.000000
O O9 0.764104 0.066949 0.500000
O O10 0.778580 0.132494 0.784481
O O11 0.657967 0.068630 0.726682
O O12 0.771323 0.000000 0.787187
O O13 0.206102 0.200387 0.500000
O O14 0.147214 0.247822 0.218921
O O15 0.500000 0.394402 0.275567
O O16 0.419953 0.369659 0.000000
O O17 0.500000 0.072433 0.724069
O O18 0.580133 0.094011 0.000000
O O19 0.916455 0.567105 0.500000
O O20 0.903671 0.500000 0.215960
O O21 0.915409 0.635462 0.215712
O O22 0.086515 0.295671 0.500000
O O23 0.000000 0.267703 0.236316
#
# Coordination Sequence:
#
# PCOD9389192 Si02
#       8
#     8   8   8   8   8   8   8   8
#     4   9  17  28  42  60  82 110 144 180 215 251
#     4   9  16  27  44  63  83 110 144 179 215 255
#     4   9  18  31  45  62  85 114 147 180 215 256
#     4   9  17  30  48  66  85 112 143 175 211 252
#     4   9  16  25  39  59  81 107 142 183 222 256
#     4   9  17  28  42  62  88 115 144 181 221 257
#     4   9  17  29  46  67  90 116 143 171 205 248
#     4   9  17  29  47  71  94 114 139 172 209 250
#
# _framework density 21.949179999999998
#
# number of rings (size 3 to 8) (size 9 to 14) (size 15 to 20)
#    0.000    3.000    0.000    1.125    0.000    2.750 
#    0.000    3.750    0.000    4.125    0.000    6.125 
#    0.000    0.000    0.000    6.250    0.000    6.500 
#
# Total GULP energy -356789.351971 kJ/mol
# GULP energy per Si atom -5574.833625 kJ/mol
# Density = 2.189922 g / cm^3
# Si number density = 21.949180 Si / 1000 Ang^3
#
#
#
# Elastic Constant Matrix: (Units=GPa)
#
#
# Indices 1 2 3 4 5 6 
#
# 1 115.7338 65.1063 -6.8229 0.0000 0.0000 0.0000
# 2 65.1063 83.1071 -0.0428 0.0000 0.0000 0.0000
# 3 -6.8229 -0.0428 68.0181 0.0000 0.0000 0.0000
# 4 0.0000 0.0000 0.0000 2.7009 0.0000 0.0000
# 5 0.0000 0.0000 0.0000 0.0000 9.5236 0.0000
# 6 0.0000 0.0000 0.0000 0.0000 0.0000 -44.5098
#
#
#
# Elastic Compliance Matrix: (Units=1/GPa)
#
#
# Indices 1 2 3 4 5 6 
#
# 1 0.015612 -0.012230 0.001558 0.000000 0.000000 0.000000
# 2 -0.012230 0.021613 -0.001213 0.000000 0.000000 0.000000
# 3 0.001558 -0.001213 0.014858 0.000000 0.000000 0.000000
# 4 0.000000 0.000000 0.000000 0.370243 0.000000 0.000000
# 5 0.000000 0.000000 0.000000 0.000000 0.105003 0.000000
# 6 0.000000 0.000000 0.000000 0.000000 0.000000 -0.022467
#
#
# Mechanical properties :
#
#
# Convention : Reuss Voigt Hill
#
# Bulk Modulus (GPa) = 35.31898 42.59333 38.95616
# Shear Modulus (GPa) = 9.29248 7.45083 8.37166
#
# Velocity S-wave (km/s) = 2.05981 1.84444 1.95509
# Velocity P-wave (km/s) = 4.66726 4.89729 4.78366
#
# Compressibility (1/GPa) = 0.02831339
#
# Stress axis : x y z
#
# Youngs Moduli (GPa) = 64.05168 46.26836 67.30596
#
# Poissons Ratio (x) = 0.56586 -0.10489
# Poissons Ratio (y) = 0.78335 0.08165
# Poissons Ratio (z) = -0.09982 0.05613
#
# Static dielectric constant tensor:
#      x y z
#    x 1.790460 0.000000 0.000000 
#    y 0.000000 1.835460 0.000000 
#    z 0.000000 0.000000 1.878580 
# 
# From -- ./inp_files/10028.got.cif
#   From: 2010.05.17/outbox.cif.g08.bks.cpg/sg47_6_cif.got.tgz:10028.got - 2010.06.03 20:15:42.
