data_PCOD9389375
_publ_section_title
;
Structure prediction by ZEFSAII (Michael W. Deem and Ramdas Pophale) SiO2 
 PCOD9389375
Probable space group: P M M M
;
_chemical_formula_sum "Si O2"
_cell_formula_units_Z 64
_cell_length_a 9.000000
_cell_length_b 15.000000
_cell_length_c 24.000000
_cell_angle_alpha 90.000000
_cell_angle_beta 90.000000
_cell_angle_gamma 90.000000
_cell_volume 3240.000000
_symmetry_space_group_name_H-M "P M M M"
_symmetry_group_IT_number 47
_symmetry_cell_setting 'orthorhombic'
loop_
_space_group_symop_operation_xyz
x,y,z
-x,-y,z
x,-y,-z
-x,y,-z
-x,-y,-z
x,y,-z
-x,y,z
x,-y,z
loop_
_atom_site_type_symbol
_atom_site_label
_atom_site_fract_x
_atom_site_fract_y
_atom_site_fract_z
Si Si1 0.172554 0.789937 0.436858
Si Si2 0.677265 0.775135 0.245254
Si Si3 0.828817 0.599292 0.279379
Si Si4 0.673378 0.756353 0.874776
Si Si5 0.320740 0.100677 0.657268
Si Si6 0.835885 0.099515 0.933732
Si Si7 0.821762 0.397831 0.062855
Si Si8 0.174147 0.404577 0.586252
O O1 0.173123 0.820586 0.500000
O O2 0.265079 0.854057 0.398498
O O3 0.234996 0.689023 0.434333
O O4 0.000000 0.786263 0.417455
O O5 0.500000 0.784112 0.246611
O O6 0.721624 0.674408 0.257742
O O7 0.729930 0.795118 0.183532
O O8 0.738533 0.839480 0.292284
O O9 0.791872 0.500000 0.259620
O O10 0.821947 0.598690 0.346638
O O11 0.000000 0.618537 0.264037
O O12 0.500000 0.737999 0.870829
O O13 0.710201 0.831817 0.918674
O O14 0.755407 0.667136 0.892115
O O15 0.500000 0.101020 0.658169
O O16 0.269033 0.000000 0.662155
O O17 0.000000 0.131313 0.914897
O O18 0.810502 0.000000 0.911572
O O19 0.842667 0.093701 0.000000
O O20 0.776082 0.500000 0.070854
O O21 0.000000 0.394540 0.064658
O O22 0.776682 0.370094 0.000000
O O23 0.239885 0.500000 0.568727
O O24 0.000000 0.406015 0.569463
#
# Coordination Sequence:
#
# PCOD9389375 Si02
#       8
#     8   8   8   8   8   8   8   8
#     4  10  20  34  56  86 115 140 170 216 271 322
#     4  10  22  38  54  76 107 143 181 223 271 320
#     4   9  17  31  54  80 104 135 176 218 257 305
#     4  11  23  35  52  82 115 144 178 225 280 331
#     4  10  22  41  61  76  97 138 187 227 268 322
#     4   9  19  37  59  81 107 140 177 218 266 323
#     4   9  19  37  59  81 109 150 196 235 272 318
#     4   8  14  27  49  78 110 140 169 203 248 304
#
# _framework density 19.753086
#
# number of rings (size 3 to 8) (size 9 to 14) (size 15 to 20)
#    0.000    2.500    1.250    2.250    0.000    5.750 
#    0.000    7.500    0.000    0.375    0.000    0.875 
#    0.000    0.000    0.000    0.000    0.000    0.000 
#
# Total GULP energy -356518.417850 kJ/mol
# GULP energy per Si atom -5570.600279 kJ/mol
# Density = 1.970813 g / cm^3
# Si number density = 19.753086 Si / 1000 Ang^3
#
#
#
# Elastic Constant Matrix: (Units=GPa)
#
#
# Indices 1 2 3 4 5 6 
#
# 1 -3.5367 16.9176 17.7822 0.0000 0.0000 0.0000
# 2 16.9176 52.9799 27.1243 0.0000 0.0000 0.0000
# 3 17.7822 27.1243 29.6956 0.0000 0.0000 0.0000
# 4 0.0000 0.0000 0.0000 -37.2659 0.0000 0.0000
# 5 0.0000 0.0000 0.0000 0.0000 30.6990 0.0000
# 6 0.0000 0.0000 0.0000 0.0000 0.0000 51.5805
#
#
#
# Elastic Compliance Matrix: (Units=1/GPa)
#
#
# Indices 1 2 3 4 5 6 
#
# 1 -0.070417 0.001686 0.040627 0.000000 0.000000 0.000000
# 2 0.001686 0.035415 -0.033358 0.000000 0.000000 0.000000
# 3 0.040627 -0.033358 0.039817 0.000000 0.000000 0.000000
# 4 0.000000 0.000000 0.000000 -0.026834 0.000000 0.000000
# 5 0.000000 0.000000 0.000000 0.000000 0.032574 0.000000
# 6 0.000000 0.000000 0.000000 0.000000 0.000000 0.019387
#
#
# Mechanical properties :
#
#
# Convention : Reuss Voigt Hill
#
# Bulk Modulus (GPa) = 44.00618 22.53190 33.26904
# Shear Modulus (GPa) = 254.99173 10.15704 132.57439
#
# Velocity S-wave (km/s) = 11.37408 2.27006 8.20131
# Velocity P-wave (km/s) = 13.95778 4.27813 10.32284
#
# Compressibility (1/GPa) = 0.02272408
#
# Stress axis : x y z
#
# Youngs Moduli (GPa) = -14.20115 28.23636 25.11504
#
# Poissons Ratio (x) = -0.04760 -1.02035
# Poissons Ratio (y) = 0.02394 0.83779
# Poissons Ratio (z) = 0.57695 0.94191
#
# Static dielectric constant tensor:
#      x y z
#    x 1.680350 0.000000 0.000000 
#    y 0.000000 1.706550 0.000000 
#    z 0.000000 0.000000 1.737830 
# 
# From -- ./inp_files/25549.got.cif
#   From: 2010.05.17/outbox.ucp.g08.bks.cvg/sg47_13_cif.got.tgz:25549.got - 2010.06.11 16:36:43.
