data_PCOD9389790
_publ_section_title
;
Structure prediction by ZEFSAII (Michael W. Deem and Ramdas Pophale) SiO2 
 PCOD9389790
Probable space group: P N N N
;
_chemical_formula_sum "Si O2"
_cell_formula_units_Z 48
_cell_length_a 17.726278
_cell_length_b 9.231049
_cell_length_c 12.124507
_cell_angle_alpha 90.000000
_cell_angle_beta 90.000000
_cell_angle_gamma 90.000000
_cell_volume 1983.959037
_symmetry_space_group_name_H-M "P N N N"
_symmetry_group_IT_number 48
_space_group.IT_coordinate_system_code '2'
_symmetry_cell_setting 'orthorhombic'
loop_
_space_group_symop_operation_xyz
x,y,z
1/2-x,1/2-y,z
x,1/2-y,1/2-z
1/2-x,y,1/2-z
-x,-y,-z
1/2+x,1/2+y,-z
-x,1/2+y,1/2+z
1/2+x,-y,1/2+z
loop_
_atom_site_type_symbol
_atom_site_label
_atom_site_fract_x
_atom_site_fract_y
_atom_site_fract_z
Si Si1 0.372720 0.919747 0.728082
Si Si2 0.681798 0.836716 0.590284
Si Si3 0.447731 0.672449 0.457803
Si Si4 0.687498 0.367425 0.991690
Si Si5 0.486593 0.102923 0.391069
Si Si6 0.390347 0.109791 0.926554
O O1 0.357078 0.750000 0.750000
O O2 0.339190 0.938662 0.606575
O O3 0.461515 0.947415 0.707984
O O4 0.349583 0.026522 0.826131
O O5 0.750000 0.750000 0.641129
O O6 0.599690 0.872721 0.639949
O O7 0.656371 0.738120 0.483808
O O8 0.716189 0.995438 0.573036
O O9 0.380948 0.784177 0.429521
O O10 0.478156 0.742749 0.572565
O O11 0.411978 0.516860 0.485111
O O12 0.526123 0.668052 0.391757
O O13 0.750000 0.250000 0.015008
O O14 0.500000 0.000000 0.500000
#
# Coordination Sequence:
#
# PCOD9389790 Si02
#       6
#     8   8   8   8   8   8
#     4  11  21  38  62  90 117 157 198 247 299 361
#     4  11  23  38  59  89 122 160 204 254 299 361
#     4   9  18  36  59  82 115 157 200 238 287 363
#     4  11  22  39  57  84 124 167 199 234 311 373
#     4  10  18  38  62  81 117 157 203 242 291 359
#     4  10  20  36  60  91 118 150 204 250 295 352
#
# _framework density 24.194047000000001
#
# number of rings (size 3 to 8) (size 9 to 14) (size 15 to 20)
#    0.000    1.667    6.667    1.000    0.000    1.000 
#    0.000    0.833    0.000    0.500    0.000    1.167 
#    0.000    0.000    0.000    0.000    0.000    0.000 
#
# Total GULP energy -267756.681825 kJ/mol
# GULP energy per Si atom -5578.264205 kJ/mol
# Density = 2.413898 g / cm^3
# Si number density = 24.194047 Si / 1000 Ang^3
#
#
#
# Elastic Constant Matrix: (Units=GPa)
#
#
# Indices 1 2 3 4 5 6 
#
# 1 125.0161 38.9048 8.7493 0.0000 0.0000 0.0000
# 2 38.9048 143.8077 33.9880 0.0000 0.0000 0.0000
# 3 8.7493 33.9880 27.1078 0.0000 0.0000 0.0000
# 4 0.0000 0.0000 0.0000 12.2421 0.0000 0.0000
# 5 0.0000 0.0000 0.0000 0.0000 -9.4865 0.0000
# 6 0.0000 0.0000 0.0000 0.0000 0.0000 48.0642
#
#
#
# Elastic Compliance Matrix: (Units=1/GPa)
#
#
# Indices 1 2 3 4 5 6 
#
# 1 0.008735 -0.002411 0.000204 0.000000 0.000000 0.000000
# 2 -0.002411 0.010548 -0.012447 0.000000 0.000000 0.000000
# 3 0.000204 -0.012447 0.052430 0.000000 0.000000 0.000000
# 4 0.000000 0.000000 0.000000 0.081686 0.000000 0.000000
# 5 0.000000 0.000000 0.000000 0.000000 -0.105413 0.000000
# 6 0.000000 0.000000 0.000000 0.000000 0.000000 0.020806
#
#
# Mechanical properties :
#
#
# Convention : Reuss Voigt Hill
#
# Bulk Modulus (GPa) = 23.58230 51.02399 37.30314
# Shear Modulus (GPa) = 44.55012 24.44991 34.50002
#
# Velocity S-wave (km/s) = 4.29577 3.18240 3.78030
# Velocity P-wave (km/s) = 5.86286 5.88548 5.87418
#
# Compressibility (1/GPa) = 0.04240468
#
# Stress axis : x y z
#
# Youngs Moduli (GPa) = 114.48063 94.80682 19.07316
#
# Poissons Ratio (x) = 0.22861 -0.00389
# Poissons Ratio (y) = 0.27605 0.23740
# Poissons Ratio (z) = -0.02336 1.18003
#
# Static dielectric constant tensor:
#      x y z
#    x 2.029950 0.000000 0.000000 
#    y 0.000000 1.942510 0.000000 
#    z 0.000000 0.000000 1.965090 
# 
# From -- ./inp_files/27869.got.cif
#   From: 2010.05.17/outbox.cif.g08.bks.cpg/sg48_14_cif.got.tgz:27869.got - 2010.06.03 20:39:00.
