data_PCOD9389814
_publ_section_title
;
Structure prediction by ZEFSAII (Michael W. Deem and Ramdas Pophale) SiO2 
 PCOD9389814
Probable space group: P N N N
;
_chemical_formula_sum "Si O2"
_cell_formula_units_Z 64
_cell_length_a 26.094169
_cell_length_b 29.848491
_cell_length_c 5.279277
_cell_angle_alpha 90.000000
_cell_angle_beta 90.000000
_cell_angle_gamma 90.000000
_cell_volume 4111.878758
_symmetry_space_group_name_H-M "P N N N"
_symmetry_group_IT_number 48
_space_group.IT_coordinate_system_code '2'
_symmetry_cell_setting 'orthorhombic'
loop_
_space_group_symop_operation_xyz
x,y,z
1/2-x,1/2-y,z
x,1/2-y,1/2-z
1/2-x,y,1/2-z
-x,-y,-z
1/2+x,1/2+y,-z
-x,1/2+y,1/2+z
1/2+x,-y,1/2+z
loop_
_atom_site_type_symbol
_atom_site_label
_atom_site_fract_x
_atom_site_fract_y
_atom_site_fract_z
Si Si1 0.730890 0.421469 0.500661
Si Si2 0.885903 0.303461 0.723146
Si Si3 0.916932 0.016919 0.973507
Si Si4 0.524524 0.929129 0.478577
Si Si5 0.614737 0.436248 0.477665
Si Si6 0.561472 0.196146 0.227068
Si Si7 0.006814 0.617638 0.983504
Si Si8 0.224091 0.678520 0.495696
O O1 0.750000 0.446004 0.750000
O O2 0.670127 0.413084 0.503147
O O3 0.761479 0.374165 0.500565
O O4 0.750000 0.445674 0.250000
O O5 0.887615 0.250000 0.750000
O O6 0.928322 0.319606 0.516911
O O7 0.835095 0.316567 0.570584
O O8 0.893503 0.315330 0.019642
O O9 0.890572 0.028507 0.707544
O O10 0.971926 0.042103 0.958907
O O11 0.887717 0.039466 0.207299
O O12 0.929900 0.965262 0.027583
O O13 0.521958 0.905859 0.750607
O O14 0.520954 0.894734 0.244815
O O15 0.564451 0.404459 0.492998
O O16 0.555961 0.250000 0.250000
O O17 0.515330 0.169144 0.097058
O O18 0.250000 0.699273 0.250000
O O19 0.250000 0.696990 0.750000
#
# Coordination Sequence:
#
# PCOD9389814 Si02
#       8
#     8   8   8   8   8   8   8   8
#     4  10  21  31  42  61  83 106 140 181 213 252
#     4  10  21  35  48  59  76 103 142 179 233 277
#     4   9  17  30  46  62  92 104 125 164 206 278
#     4   9  17  30  44  70  85 105 126 161 214 254
#     4  10  19  29  44  66  80 114 138 164 222 264
#     4  10  21  34  48  64  84 110 139 182 217 266
#     4  10  19  28  48  66  83 107 138 169 206 281
#     4  10  21  33  46  60  72 101 123 186 223 261
#
# _framework density 15.56466
#
# number of rings (size 3 to 8) (size 9 to 14) (size 15 to 20)
#    0.000    2.250    0.000    3.000    7.000    3.250 
#    0.000    0.625    0.000    0.000    0.000    0.000 
#    0.000    0.000    0.000    0.000    0.000    0.000 
#
# Total GULP energy -356273.523896 kJ/mol
# GULP energy per Si atom -5566.773811 kJ/mol
# Density = 1.552923 g / cm^3
# Si number density = 15.564660 Si / 1000 Ang^3
#
#
#
# Elastic Constant Matrix: (Units=GPa)
#
#
# Indices 1 2 3 4 5 6 
#
# 1 10.5956 10.9968 13.4776 0.0000 0.0000 0.0000
# 2 10.9968 42.1585 34.1779 0.0000 0.0000 0.0000
# 3 13.4776 34.1779 110.3809 0.0000 0.0000 0.0000
# 4 0.0000 0.0000 0.0000 62.7153 0.0000 0.0000
# 5 0.0000 0.0000 0.0000 0.0000 14.4516 0.0000
# 6 0.0000 0.0000 0.0000 0.0000 0.0000 15.1552
#
#
#
# Elastic Compliance Matrix: (Units=1/GPa)
#
#
# Indices 1 2 3 4 5 6 
#
# 1 0.133773 -0.028909 -0.007383 0.000000 0.000000 0.000000
# 2 -0.028909 0.037917 -0.008211 0.000000 0.000000 0.000000
# 3 -0.007383 -0.008211 0.012503 0.000000 0.000000 0.000000
# 4 0.000000 0.000000 0.000000 0.015945 0.000000 0.000000
# 5 0.000000 0.000000 0.000000 0.000000 0.069197 0.000000
# 6 0.000000 0.000000 0.000000 0.000000 0.000000 0.065984
#
#
# Mechanical properties :
#
#
# Convention : Reuss Voigt Hill
#
# Bulk Modulus (GPa) = 10.50541 31.15995 20.83268
# Shear Modulus (GPa) = 10.96364 25.42991 18.19678
#
# Velocity S-wave (km/s) = 2.65692 4.04644 3.42293
# Velocity P-wave (km/s) = 4.02200 6.47262 5.38847
#
# Compressibility (1/GPa) = 0.09518908
#
# Stress axis : x y z
#
# Youngs Moduli (GPa) = 7.47536 26.37334 79.97896
#
# Poissons Ratio (x) = 0.76242 0.59045
# Poissons Ratio (y) = 0.21610 0.65668
# Poissons Ratio (z) = 0.05519 0.21654
#
# Static dielectric constant tensor:
#      x y z
#    x 1.514900 0.000000 0.000000 
#    y 0.000000 1.587610 0.000000 
#    z 0.000000 0.000000 1.476100 
# 
# From -- ./inp_files/6077.got.cif
#   From: 2010.05.17/outbox.cif.g08.bks.cpg/sg48_4_cif.got.tgz:6077.got - 2010.06.03 20:39:00.
