data_PCOD9389065
_publ_section_title
;
Structure prediction by ZEFSAII (Michael W. Deem and Ramdas Pophale) SiO2 
 PCOD9389065
Probable space group: P M M M
;
_chemical_formula_sum "Si O2"
_cell_formula_units_Z 48
_cell_length_a 13.959111
_cell_length_b 24.660214
_cell_length_c 9.502830
_cell_angle_alpha 90.000000
_cell_angle_beta 90.000000
_cell_angle_gamma 90.000000
_cell_volume 3271.203497
_symmetry_space_group_name_H-M "P M M M"
_symmetry_group_IT_number 47
_symmetry_cell_setting 'orthorhombic'
loop_
_space_group_symop_operation_xyz
x,y,z
-x,-y,z
x,-y,-z
-x,y,-z
-x,-y,-z
x,y,-z
-x,y,z
x,-y,z
loop_
_atom_site_type_symbol
_atom_site_label
_atom_site_fract_x
_atom_site_fract_y
_atom_site_fract_z
Si Si1 0.280341 0.223777 0.332252
Si Si2 0.610555 0.112337 0.332427
Si Si3 0.110284 0.170293 0.168827
Si Si4 0.781952 0.939229 0.168017
Si Si5 0.612875 0.666033 0.331524
Si Si6 0.383740 0.560182 0.835964
O O1 0.261470 0.224963 0.500000
O O2 0.354544 0.174225 0.307657
O O3 0.184566 0.209029 0.248229
O O4 0.327751 0.280699 0.290981
O O5 0.618731 0.102259 0.500000
O O6 0.500000 0.105351 0.291695
O O7 0.683905 0.074758 0.248246
O O8 0.143432 0.108623 0.202386
O O9 0.000000 0.178931 0.208265
O O10 0.118996 0.177088 0.000000
O O11 0.814871 0.000000 0.202987
O O12 0.765587 0.936801 0.000000
O O13 0.619470 0.659523 0.500000
O O14 0.500000 0.674322 0.297980
O O15 0.647375 0.611396 0.255375
O O16 0.500000 0.559688 0.829386
O O17 0.351647 0.500000 0.789139
O O18 0.357889 0.566876 0.000000
#
# Coordination Sequence:
#
# PCOD9389065 Si02
#       6
#     8   8   8   8   8   8
#     4   9  17  29  44  62  84 108 136 170 206 245
#     4   9  17  29  44  60  81 111 141 167 198 237
#     4   9  18  32  48  64  81 102 130 166 208 252
#     4   9  18  31  45  62  83 105 131 165 204 245
#     4   9  16  25  39  60  85 113 144 175 204 235
#     4   8  14  24  36  52  79 115 150 179 205 233
#
# _framework density 14.673500000000001
#
# number of rings (size 3 to 8) (size 9 to 14) (size 15 to 20)
#    0.000    3.167    0.000    1.000    0.000    4.667 
#    0.000    5.000    0.000    3.000    0.000    4.667 
#    0.000    0.667    0.000    7.333    0.000    5.667 
#
# Total GULP energy -267234.640511 kJ/mol
# GULP energy per Si atom -5567.388344 kJ/mol
# Density = 1.464010 g / cm^3
# Si number density = 14.673500 Si / 1000 Ang^3
#
#
#
# Elastic Constant Matrix: (Units=GPa)
#
#
# Indices 1 2 3 4 5 6 
#
# 1 69.5560 33.6309 25.1724 0.0000 0.0000 0.0000
# 2 33.6309 117.8120 37.7810 0.0000 0.0000 0.0000
# 3 25.1724 37.7810 18.5791 0.0000 0.0000 0.0000
# 4 0.0000 0.0000 0.0000 25.8336 0.0000 0.0000
# 5 0.0000 0.0000 0.0000 0.0000 20.7927 0.0000
# 6 0.0000 0.0000 0.0000 0.0000 0.0000 10.9556
#
#
#
# Elastic Compliance Matrix: (Units=1/GPa)
#
#
# Indices 1 2 3 4 5 6 
#
# 1 0.035805 0.015339 -0.079705 0.000000 0.000000 0.000000
# 2 0.015339 0.030971 -0.083764 0.000000 0.000000 0.000000
# 3 -0.079705 -0.083764 0.332150 0.000000 0.000000 0.000000
# 4 0.000000 0.000000 0.000000 0.038709 0.000000 0.000000
# 5 0.000000 0.000000 0.000000 0.000000 0.048094 0.000000
# 6 0.000000 0.000000 0.000000 0.000000 0.000000 0.091278
#
#
# Mechanical properties :
#
#
# Convention : Reuss Voigt Hill
#
# Bulk Modulus (GPa) = 9.74011 44.34617 27.04314
# Shear Modulus (GPa) = 5.50970 18.80722 12.15846
#
# Velocity S-wave (km/s) = 1.93985 3.58399 2.88166
# Velocity P-wave (km/s) = 3.41609 6.88579 5.43525
#
# Compressibility (1/GPa) = 0.10266824
#
# Stress axis : x y z
#
# Youngs Moduli (GPa) = 27.92871 32.28780 3.01068
#
# Poissons Ratio (x) = -0.49527 0.23997
# Poissons Ratio (y) = -0.42841 0.25219
# Poissons Ratio (z) = 2.22605 2.70456
#
# Static dielectric constant tensor:
#      x y z
#    x 1.454850 0.000000 0.000000 
#    y 0.000000 1.492180 0.000000 
#    z 0.000000 0.000000 1.486080 
# 
# From -- ./inp_files/4343.got.cif
#   From: 2010.05.17/outbox.cif.g08.bks.cpg/sg47_3_cif.got.tgz:4343.got - 2010.06.03 20:15:42.
