data_PCOD9389313
_publ_section_title
;
Structure prediction by ZEFSAII (Michael W. Deem and Ramdas Pophale) SiO2 
 PCOD9389313
Probable space group: P M M M
;
_chemical_formula_sum "Si O2"
_cell_formula_units_Z 44
_cell_length_a 9.000000
_cell_length_b 30.000000
_cell_length_c 9.000000
_cell_angle_alpha 90.000000
_cell_angle_beta 90.000000
_cell_angle_gamma 90.000000
_cell_volume 2430.000000
_symmetry_space_group_name_H-M "P M M M"
_symmetry_group_IT_number 47
_symmetry_cell_setting 'orthorhombic'
loop_
_space_group_symop_operation_xyz
x,y,z
-x,-y,z
x,-y,-z
-x,y,-z
-x,-y,-z
x,y,-z
-x,y,z
x,-y,z
loop_
_atom_site_type_symbol
_atom_site_label
_atom_site_fract_x
_atom_site_fract_y
_atom_site_fract_z
Si Si1 0.180015 0.548484 0.324567
Si Si2 0.676433 0.729790 0.174234
Si Si3 0.672766 0.096466 0.318403
Si Si4 0.829679 0.813432 0.320787
Si Si5 0.318688 0.000000 0.672677
Si Si6 0.175148 0.638784 0.822174
O O1 0.210243 0.551119 0.500000
O O2 0.233300 0.500000 0.269444
O O3 0.235237 0.592838 0.245326
O O4 0.000000 0.548350 0.307335
O O5 0.500000 0.727684 0.184813
O O6 0.736845 0.772435 0.259235
O O7 0.745125 0.683490 0.231010
O O8 0.717691 0.733961 0.000000
O O9 0.677149 0.094818 0.500000
O O10 0.500000 0.102343 0.277542
O O11 0.765392 0.139043 0.269932
O O12 0.726277 0.047897 0.263341
O O13 0.822874 0.813104 0.500000
O O14 0.000000 0.808523 0.274867
O O15 0.500000 0.000000 0.672450
O O16 0.271213 0.000000 0.500000
O O17 0.000000 0.642454 0.786593
O O18 0.189830 0.636345 0.000000
#
# Coordination Sequence:
#
# PCOD9389313 Si02
#       6
#     8   8   8   8   4   8
#     4   8  14  25  42  66  95 123 150 182 221 266
#     4  10  21  36  52  69  91 122 160 199 239 285
#     4   8  13  23  40  62  90 123 157 192 229 271
#     4  10  20  32  47  70  98 125 155 193 237 284
#     4   7  10  18  35  59  86 119 156 189 224 268
#     4   9  17  29  46  68  92 117 148 189 233 274
#
# _framework density 18.106995999999999
#
# number of rings (size 3 to 8) (size 9 to 14) (size 15 to 20)
#    0.000    3.182    0.000    2.727    0.000    3.273 
#    0.000    4.091    0.000    3.273    0.000    4.455 
#    0.000    5.091    0.000    0.000    0.000    0.000 
#
# Total GULP energy -244967.474172 kJ/mol
# GULP energy per Si atom -5567.442595 kJ/mol
# Density = 1.806578 g / cm^3
# Si number density = 18.106996 Si / 1000 Ang^3
#
#
#
# Elastic Constant Matrix: (Units=GPa)
#
#
# Indices 1 2 3 4 5 6 
#
# 1 9.3897 35.1045 17.7462 0.0000 0.0000 0.0000
# 2 35.1045 185.8109 29.9327 0.0000 0.0000 0.0000
# 3 17.7462 29.9327 -2.0133 0.0000 0.0000 0.0000
# 4 0.0000 0.0000 0.0000 76.2698 0.0000 0.0000
# 5 0.0000 0.0000 0.0000 0.0000 12.1973 0.0000
# 6 0.0000 0.0000 0.0000 0.0000 0.0000 30.6687
#
#
#
# Elastic Compliance Matrix: (Units=1/GPa)
#
#
# Indices 1 2 3 4 5 6 
#
# 1 0.041414 -0.019626 0.073260 0.000000 0.000000 0.000000
# 2 -0.019626 0.010886 -0.011149 0.000000 0.000000 0.000000
# 3 0.073260 -0.011149 -0.016708 0.000000 0.000000 0.000000
# 4 0.000000 0.000000 0.000000 0.013111 0.000000 0.000000
# 5 0.000000 0.000000 0.000000 0.000000 0.081985 0.000000
# 6 0.000000 0.000000 0.000000 0.000000 0.000000 0.032607
#
#
# Mechanical properties :
#
#
# Convention : Reuss Voigt Hill
#
# Bulk Modulus (GPa) = 8.29447 39.86159 24.07803
# Shear Modulus (GPa) = 42.18956 31.18742 36.68849
#
# Velocity S-wave (km/s) = 4.83226 4.15468 4.50622
# Velocity P-wave (km/s) = 5.97704 6.71397 6.35620
#
# Compressibility (1/GPa) = 0.12056227
#
# Stress axis : x y z
#
# Youngs Moduli (GPa) = 24.14622 91.86348 -59.85240
#
# Poissons Ratio (x) = 1.80290 4.38480
# Poissons Ratio (y) = 0.47389 -0.66731
# Poissons Ratio (z) = -1.76896 1.02421
#
# Static dielectric constant tensor:
#      x y z
#    x 1.613200 0.000000 0.000000 
#    y 0.000000 1.647480 0.000000 
#    z 0.000000 0.000000 1.616120 
# 
# From -- ./inp_files/2289.got.cif
#   From: 2010.05.17/outbox.ucp.g08.bks.cvg/sg47_2_cif.got.tgz:2289.got - 2010.06.11 16:36:43.
