data_PCOD9389737
_publ_section_title
;
Structure prediction by ZEFSAII (Michael W. Deem and Ramdas Pophale) SiO2 
 PCOD9389737
Probable space group: P N N N
;
_chemical_formula_sum "Si O2"
_cell_formula_units_Z 64
_cell_length_a 9.301276
_cell_length_b 12.873485
_cell_length_c 27.601793
_cell_angle_alpha 90.000000
_cell_angle_beta 90.000000
_cell_angle_gamma 90.000000
_cell_volume 3305.034197
_symmetry_space_group_name_H-M "P N N N"
_symmetry_group_IT_number 48
_space_group.IT_coordinate_system_code '2'
_symmetry_cell_setting 'orthorhombic'
loop_
_space_group_symop_operation_xyz
x,y,z
1/2-x,1/2-y,z
x,1/2-y,1/2-z
1/2-x,y,1/2-z
-x,-y,-z
1/2+x,1/2+y,-z
-x,1/2+y,1/2+z
1/2+x,-y,1/2+z
loop_
_atom_site_type_symbol
_atom_site_label
_atom_site_fract_x
_atom_site_fract_y
_atom_site_fract_z
Si Si1 0.499809 0.713724 0.364714
Si Si2 0.699454 0.527446 0.898261
Si Si3 0.008316 0.050835 0.821771
Si Si4 0.594079 0.719054 0.957487
Si Si5 0.751406 0.563694 0.390718
Si Si6 0.911449 0.364084 0.768309
Si Si7 0.503272 0.049965 0.054480
Si Si8 0.020894 0.649934 0.447458
O O1 0.503439 0.828947 0.341007
O O2 0.650335 0.654673 0.369657
O O3 0.413873 0.643808 0.326191
O O4 0.445290 0.742406 0.418652
O O5 0.630891 0.503899 0.845630
O O6 0.639537 0.639880 0.915241
O O7 0.867020 0.519379 0.911448
O O8 0.628576 0.439163 0.931837
O O9 0.152832 0.012246 0.848153
O O10 0.003637 0.055598 0.763679
O O11 0.750000 0.750000 0.980210
O O12 0.514299 0.826105 0.946813
O O13 0.494693 0.661771 0.995967
O O14 0.646982 0.487505 0.419335
O O15 0.865131 0.613554 0.427756
O O16 0.959671 0.250000 0.750000
O O17 0.750000 0.377267 0.750000
O O18 0.500000 0.000000 0.000000
#
# Coordination Sequence:
#
# PCOD9389737 Si02
#       8
#     8   8   8   8   8   8   8   8
#     4   9  17  30  52  74 105 145 175 208 267 326
#     4   9  20  35  53  73 102 144 184 219 270 329
#     4   9  19  35  51  75 105 146 175 217 270 327
#     4  10  19  34  53  73 106 145 182 225 272 326
#     4  10  19  32  50  74 106 140 181 220 268 327
#     4   9  18  31  49  78 110 140 178 222 267 327
#     4  11  22  34  50  77 104 139 186 235 273 322
#     4  10  18  35  54  76 105 149 180 220 272 330
#
# _framework density 19.364398999999999
#
# number of rings (size 3 to 8) (size 9 to 14) (size 15 to 20)
#    0.000    2.625    0.000    4.875    1.750    1.500 
#    2.250   10.000    0.000    0.000    0.000    0.875 
#    0.000    4.000    0.000    0.000    0.000    0.000 
#
# Total GULP energy -356433.568391 kJ/mol
# GULP energy per Si atom -5569.274506 kJ/mol
# Density = 1.932033 g / cm^3
# Si number density = 19.364399 Si / 1000 Ang^3
#
#
#
# Elastic Constant Matrix: (Units=GPa)
#
#
# Indices 1 2 3 4 5 6 
#
# 1 65.3718 29.5873 30.9620 0.0000 0.0000 0.0000
# 2 29.5873 57.8223 26.3742 0.0000 0.0000 0.0000
# 3 30.9620 26.3742 50.3843 0.0000 0.0000 0.0000
# 4 0.0000 0.0000 0.0000 17.9323 0.0000 0.0000
# 5 0.0000 0.0000 0.0000 0.0000 17.2820 0.0000
# 6 0.0000 0.0000 0.0000 0.0000 0.0000 20.2278
#
#
#
# Elastic Compliance Matrix: (Units=1/GPa)
#
#
# Indices 1 2 3 4 5 6 
#
# 1 0.023653 -0.007190 -0.010772 0.000000 0.000000 0.000000
# 2 -0.007190 0.024904 -0.008618 0.000000 0.000000 0.000000
# 3 -0.010772 -0.008618 0.030978 0.000000 0.000000 0.000000
# 4 0.000000 0.000000 0.000000 0.055765 0.000000 0.000000
# 5 0.000000 0.000000 0.000000 0.000000 0.057864 0.000000
# 6 0.000000 0.000000 0.000000 0.000000 0.000000 0.049437
#
#
# Mechanical properties :
#
#
# Convention : Reuss Voigt Hill
#
# Bulk Modulus (GPa) = 37.91295 38.60280 38.25787
# Shear Modulus (GPa) = 16.41755 16.86542 16.64148
#
# Velocity S-wave (km/s) = 2.91490 2.95439 2.93471
# Velocity P-wave (km/s) = 5.56327 5.62282 5.59312
#
# Compressibility (1/GPa) = 0.02637621
#
# Stress axis : x y z
#
# Youngs Moduli (GPa) = 42.27798 40.15364 32.28102
#
# Poissons Ratio (x) = 0.28870 0.34772
# Poissons Ratio (y) = 0.30398 0.27820
# Poissons Ratio (z) = 0.45540 0.34605
#
# Static dielectric constant tensor:
#      x y z
#    x 1.715220 0.000000 0.000000 
#    y 0.000000 1.707230 0.000000 
#    z 0.000000 0.000000 1.776040 
# 
# From -- ./inp_files/38821.got.cif
#   From: 2010.05.17/outbox.cif.g08.bks.cpg/sg48_20_cif.got.tgz:38821.got - 2010.06.03 20:39:00.
