data_PCOD9389513
_publ_section_title
;
Structure prediction by ZEFSAII (Michael W. Deem and Ramdas Pophale) SiO2 
 PCOD9389513
Probable space group: P N N N
;
_chemical_formula_sum "Si O2"
_cell_formula_units_Z 54
_cell_length_a 19.733614
_cell_length_b 6.920719
_cell_length_c 17.959802
_cell_angle_alpha 90.000000
_cell_angle_beta 90.000000
_cell_angle_gamma 90.000000
_cell_volume 2452.784479
_symmetry_space_group_name_H-M "P N N N"
_symmetry_group_IT_number 48
_space_group.IT_coordinate_system_code '2'
_symmetry_cell_setting 'orthorhombic'
loop_
_space_group_symop_operation_xyz
x,y,z
1/2-x,1/2-y,z
x,1/2-y,1/2-z
1/2-x,y,1/2-z
-x,-y,-z
1/2+x,1/2+y,-z
-x,1/2+y,1/2+z
1/2+x,-y,1/2+z
loop_
_atom_site_type_symbol
_atom_site_label
_atom_site_fract_x
_atom_site_fract_y
_atom_site_fract_z
Si Si1 0.630518 0.256869 0.117282
Si Si2 0.547449 0.899435 0.063779
Si Si3 0.880733 0.542025 0.511634
Si Si4 0.451991 0.968192 0.190441
Si Si5 0.750000 0.250000 0.250000
Si Si6 0.479395 0.091361 0.352687
Si Si7 0.188448 0.044318 0.295091
Si Si8 0.750000 0.750000 0.570298
O O1 0.606893 0.039934 0.094785
O O2 0.642740 0.361779 0.038264
O O3 0.688699 0.271697 0.182171
O O4 0.559358 0.363111 0.138372
O O5 0.500601 0.861450 0.134678
O O6 0.576151 0.700636 0.033677
O O7 0.500000 0.000000 0.000000
O O8 0.930747 0.505884 0.582407
O O9 0.810981 0.648555 0.529420
O O10 0.474326 0.981192 0.275087
O O11 0.450693 0.189786 0.159183
O O12 0.374819 0.909364 0.193240
O O13 0.172866 0.250000 0.250000
O O14 0.250000 0.959650 0.250000
O O15 0.214968 0.097687 0.375531
#
# Coordination Sequence:
#
# PCOD9389513 Si02
#       8
#     8   8   8   8   2   8   8   4
#     4  11  26  45  71  93 137 181 233 297 347 429
#     4  11  22  40  70 102 136 176 240 296 349 420
#     4  12  23  41  68 102 137 177 233 294 357 417
#     4  10  16  32  58  93 127 172 214 278 336 416
#     4  12  28  56  70 104 144 206 248 280 386 444
#     4  10  18  37  64  94 130 173 226 282 352 414
#     4   9  14  25  50  87 123 160 203 248 318 405
#     4  10  19  32  54  95 130 162 208 272 334 403
#
# _framework density 22.015794
#
# number of rings (size 3 to 8) (size 9 to 14) (size 15 to 20)
#    0.000    1.630    5.926    3.111    2.074    0.000 
#    0.000    3.704    0.000    0.000    0.000    0.000 
#    0.000    1.481    0.000    0.000    0.000    0.000 
#
# Total GULP energy -300697.771354 kJ/mol
# GULP energy per Si atom -5568.477247 kJ/mol
# Density = 2.196568 g / cm^3
# Si number density = 22.015794 Si / 1000 Ang^3
#
#
#
# Elastic Constant Matrix: (Units=GPa)
#
#
# Indices 1 2 3 4 5 6 
#
# 1 146.4956 24.6855 58.1591 0.0000 0.0000 0.0000
# 2 24.6855 63.7621 42.9149 0.0000 0.0000 0.0000
# 3 58.1591 42.9149 143.6048 0.0000 0.0000 0.0000
# 4 0.0000 0.0000 0.0000 53.1926 0.0000 0.0000
# 5 0.0000 0.0000 0.0000 0.0000 64.7112 0.0000
# 6 0.0000 0.0000 0.0000 0.0000 0.0000 33.2616
#
#
#
# Elastic Compliance Matrix: (Units=1/GPa)
#
#
# Indices 1 2 3 4 5 6 
#
# 1 0.008204 -0.001177 -0.002971 0.000000 0.000000 0.000000
# 2 -0.001177 0.019801 -0.005441 0.000000 0.000000 0.000000
# 3 -0.002971 -0.005441 0.009793 0.000000 0.000000 0.000000
# 4 0.000000 0.000000 0.000000 0.018800 0.000000 0.000000
# 5 0.000000 0.000000 0.000000 0.000000 0.015453 0.000000
# 6 0.000000 0.000000 0.000000 0.000000 0.000000 0.030065
#
#
# Mechanical properties :
#
#
# Convention : Reuss Voigt Hill
#
# Bulk Modulus (GPa) = 53.70344 67.26462 60.48403
# Shear Modulus (GPa) = 39.21624 45.43994 42.32809
#
# Velocity S-wave (km/s) = 4.22510 4.54802 4.38953
# Velocity P-wave (km/s) = 6.94608 7.62880 7.29543
#
# Compressibility (1/GPa) = 0.01862078
#
# Stress axis : x y z
#
# Youngs Moduli (GPa) = 121.89385 50.50331 102.11720
#
# Poissons Ratio (x) = 0.05942 0.30338
# Poissons Ratio (y) = 0.14342 0.55559
# Poissons Ratio (z) = 0.36214 0.27478
#
# Static dielectric constant tensor:
#      x y z
#    x 1.838480 0.000000 0.000000 
#    y 0.000000 1.570340 0.000000 
#    z 0.000000 0.000000 1.961750 
# 
# From -- ./inp_files/32207.got.cif
#   From: 2010.05.17/outbox.cif.g08.bks.cpg/sg48_17_cif.got.tgz:32207.got - 2010.06.03 20:39:00.
