data_PCOD9389427
_publ_section_title
;
Structure prediction by ZEFSAII (Michael W. Deem and Ramdas Pophale) SiO2 
 PCOD9389427
Probable space group: P M M M
;
_chemical_formula_sum "Si O2"
_cell_formula_units_Z 48
_cell_length_a 9.000000
_cell_length_b 15.000000
_cell_length_c 18.000000
_cell_angle_alpha 90.000000
_cell_angle_beta 90.000000
_cell_angle_gamma 90.000000
_cell_volume 2430.000000
_symmetry_space_group_name_H-M "P M M M"
_symmetry_group_IT_number 47
_symmetry_cell_setting 'orthorhombic'
loop_
_space_group_symop_operation_xyz
x,y,z
-x,-y,z
x,-y,-z
-x,y,-z
-x,-y,-z
x,y,-z
-x,y,z
x,-y,z
loop_
_atom_site_type_symbol
_atom_site_label
_atom_site_fract_x
_atom_site_fract_y
_atom_site_fract_z
Si Si1 0.678228 0.271601 0.783512
Si Si2 0.177346 0.895577 0.155279
Si Si3 0.668070 0.107498 0.000000
Si Si4 0.680561 0.398139 0.916703
Si Si5 0.820919 0.291989 0.364630
Si Si6 0.325607 0.606347 0.500000
Si Si7 0.178817 0.903946 0.588580
O O1 0.500000 0.269121 0.779325
O O2 0.744133 0.172393 0.789614
O O3 0.726002 0.326915 0.855999
O O4 0.749918 0.318838 0.713002
O O5 0.000000 0.884935 0.157396
O O6 0.210222 0.000000 0.169410
O O7 0.242709 0.871289 0.074298
O O8 0.500000 0.145436 0.000000
O O9 0.655202 0.000000 0.000000
O O10 0.500000 0.398280 0.917136
O O11 0.726562 0.500000 0.900073
O O12 0.730074 0.375179 0.000000
O O13 0.756299 0.352476 0.429257
O O14 0.769814 0.189606 0.379156
O O15 0.000000 0.294512 0.363873
O O16 0.315036 0.500000 0.500000
O O17 0.500000 0.631052 0.500000
O O18 0.205064 0.901337 0.500000
O O19 0.000000 0.905097 0.599064
O O20 0.235875 0.000000 0.617076
#
# Coordination Sequence:
#
# PCOD9389427 Si02
#       7
#     8   8   4   8   8   4   8
#     4  11  23  36  57  90 124 158 197 247 304 359
#     4  10  21  37  55  79 116 163 210 252 299 357
#     4   9  17  31  53  79 108 147 198 255 307 356
#     4   8  16  34  59  84 110 144 191 245 299 358
#     4  11  22  39  62  90 124 159 198 243 294 360
#     4  11  25  45  68  91 118 156 201 251 308 362
#     4   8  14  28  54  85 112 144 188 233 278 333
#
# _framework density 19.753086
#
# number of rings (size 3 to 8) (size 9 to 14) (size 15 to 20)
#    0.000    2.333    0.833    3.000    1.167    4.000 
#    0.000    3.333    0.000    3.500    0.000    4.667 
#    0.000    0.000    0.000    0.000    0.000    0.000 
#
# Total GULP energy -267825.961107 kJ/mol
# GULP energy per Si atom -5579.707523 kJ/mol
# Density = 1.970813 g / cm^3
# Si number density = 19.753086 Si / 1000 Ang^3
#
#
#
# Elastic Constant Matrix: (Units=GPa)
#
#
# Indices 1 2 3 4 5 6 
#
# 1 72.1350 41.8042 46.1771 0.0000 0.0000 0.0000
# 2 41.8042 86.8095 65.9643 0.0000 0.0000 0.0000
# 3 46.1771 65.9643 105.4987 0.0000 0.0000 0.0000
# 4 0.0000 0.0000 0.0000 474.3262 0.0000 0.0000
# 5 0.0000 0.0000 0.0000 0.0000 23.1303 0.0000
# 6 0.0000 0.0000 0.0000 0.0000 0.0000 21.0653
#
#
#
# Elastic Compliance Matrix: (Units=1/GPa)
#
#
# Indices 1 2 3 4 5 6 
#
# 1 0.020724 -0.005882 -0.005393 0.000000 0.000000 0.000000
# 2 -0.005882 0.023616 -0.012192 0.000000 0.000000 0.000000
# 3 -0.005393 -0.012192 0.019463 0.000000 0.000000 0.000000
# 4 0.000000 0.000000 0.000000 0.002108 0.000000 0.000000
# 5 0.000000 0.000000 0.000000 0.000000 0.043233 0.000000
# 6 0.000000 0.000000 0.000000 0.000000 0.000000 0.047472
#
#
# Mechanical properties :
#
#
# Convention : Reuss Voigt Hill
#
# Bulk Modulus (GPa) = 59.28035 63.59270 61.43653
# Shear Modulus (GPa) = 23.90370 111.07085 67.48727
#
# Velocity S-wave (km/s) = 3.48246 7.50678 5.85146
# Velocity P-wave (km/s) = 6.80043 10.36336 8.76485
#
# Compressibility (1/GPa) = 0.01686900
#
# Stress axis : x y z
#
# Youngs Moduli (GPa) = 48.25309 42.34406 51.38055
#
# Poissons Ratio (x) = 0.24905 0.27712
# Poissons Ratio (y) = 0.28380 0.62642
# Poissons Ratio (z) = 0.26025 0.51625
#
# Static dielectric constant tensor:
#      x y z
#    x 1.650580 0.000000 0.000000 
#    y 0.000000 1.713150 0.000000 
#    z 0.000000 0.000000 1.926290 
# 
# From -- ./inp_files/26546.got.cif
#   From: 2010.05.17/outbox.ucp.g08.bks.cvg/sg47_14_cif.got.tgz:26546.got - 2010.06.11 16:36:43.
