data_PCOD9389655
_publ_section_title
;
Structure prediction by ZEFSAII (Michael W. Deem and Ramdas Pophale) SiO2 
 PCOD9389655
Probable space group: P N N N
;
_chemical_formula_sum "Si O2"
_cell_formula_units_Z 64
_cell_length_a 12.244863
_cell_length_b 10.872846
_cell_length_c 26.694261
_cell_angle_alpha 90.000000
_cell_angle_beta 90.000000
_cell_angle_gamma 90.000000
_cell_volume 3553.980738
_symmetry_space_group_name_H-M "P N N N"
_symmetry_group_IT_number 48
_space_group.IT_coordinate_system_code '2'
_symmetry_cell_setting 'orthorhombic'
loop_
_space_group_symop_operation_xyz
x,y,z
1/2-x,1/2-y,z
x,1/2-y,1/2-z
1/2-x,y,1/2-z
-x,-y,-z
1/2+x,1/2+y,-z
-x,1/2+y,1/2+z
1/2+x,-y,1/2+z
loop_
_atom_site_type_symbol
_atom_site_label
_atom_site_fract_x
_atom_site_fract_y
_atom_site_fract_z
Si Si1 0.879486 0.250000 0.326639
Si Si2 0.118823 0.750000 0.036377
Si Si3 0.475640 0.009538 0.806807
Si Si4 0.975640 0.509538 0.306806
Si Si5 0.504198 0.250000 0.429240
Si Si6 0.750000 0.605683 0.306835
Si Si7 0.880233 0.497308 0.599057
Si Si8 0.880233 0.497308 0.900943
O O1 0.750000 0.250000 0.316129
O O2 0.940761 0.367821 0.305294
O O3 0.902567 0.250000 0.386246
O O4 0.940761 0.132179 0.305294
O O5 0.250000 0.750000 0.028542
O O6 0.092161 0.624398 0.066625
O O7 0.092162 0.875602 0.066625
O O8 0.056396 0.750000 0.983900
O O9 0.364919 0.068112 0.829829
O O10 0.574292 0.025195 0.844895
O O11 0.494453 0.055738 0.750000
O O12 0.864919 0.568112 0.329829
O O13 0.074292 0.525195 0.344895
O O14 0.435087 0.124320 0.420432
O O15 0.435087 0.375680 0.420432
O O16 0.750000 0.750000 0.302725
O O17 0.750000 0.551263 0.250000
O O18 0.750000 0.511707 0.599056
#
# Coordination Sequence:
#
# PCOD9389655 Si02
#       8
#     8   8   8   8   8   8   8   8
#     4  10  18  31  52  82 108 134 179 229 278 326
#     4  10  21  39  61  83 109 142 182 231 281 325
#     4  10  20  33  54  80 111 148 184 224 270 322
#     4  10  20  33  54  80 111 148 184 224 270 322
#     4  10  20  37  61  81 108 141 184 227 279 328
#     4   9  18  31  49  73 107 148 183 223 271 311
#     4  10  22  38  58  83 114 148 183 223 271 329
#     4  10  22  38  58  83 114 148 183 223 271 329
#
# _framework density 18.007975999999999
#
# number of rings (size 3 to 8) (size 9 to 14) (size 15 to 20)
#    0.000    2.125    1.250    1.875    1.750    1.000 
#    0.000    0.000    5.500    6.750    0.000    0.000 
#    0.000    0.000    0.000    0.000    0.000    0.000 
#
# Total GULP energy -356686.175535 kJ/mol
# GULP energy per Si atom -5573.221493 kJ/mol
# Density = 1.796699 g / cm^3
# Si number density = 18.007976 Si / 1000 Ang^3
#
#
#
# Elastic Constant Matrix: (Units=GPa)
#
#
# Indices 1 2 3 4 5 6 
#
# 1 53.8915 26.8358 47.4879 0.0000 0.0000 0.0000
# 2 26.8358 96.0881 34.7054 0.0000 0.0000 0.0000
# 3 47.4879 34.7054 122.5283 0.0000 0.0000 0.0000
# 4 0.0000 0.0000 0.0000 30.1670 0.0000 0.0000
# 5 0.0000 0.0000 0.0000 0.0000 8.9159 0.0000
# 6 0.0000 0.0000 0.0000 0.0000 0.0000 -37.3817
#
#
#
# Elastic Compliance Matrix: (Units=1/GPa)
#
#
# Indices 1 2 3 4 5 6 
#
# 1 0.029931 -0.004645 -0.010285 0.000000 0.000000 0.000000
# 2 -0.004645 0.012314 -0.001688 0.000000 0.000000 0.000000
# 3 -0.010285 -0.001688 0.012626 0.000000 0.000000 0.000000
# 4 0.000000 0.000000 0.000000 0.033149 0.000000 0.000000
# 5 0.000000 0.000000 0.000000 0.000000 0.112159 0.000000
# 6 0.000000 0.000000 0.000000 0.000000 0.000000 -0.026751
#
#
# Mechanical properties :
#
#
# Convention : Reuss Voigt Hill
#
# Bulk Modulus (GPa) = 46.21852 54.50736 50.36294
# Shear Modulus (GPa) = 23.37822 11.23881 17.30852
#
# Velocity S-wave (km/s) = 3.60698 2.50091 3.10362
# Velocity P-wave (km/s) = 6.56265 6.21881 6.39304
#
# Compressibility (1/GPa) = 0.02163635
#
# Stress axis : x y z
#
# Youngs Moduli (GPa) = 33.40967 81.20928 79.20477
#
# Poissons Ratio (x) = 0.37719 0.81461
# Poissons Ratio (y) = 0.15518 0.13368
# Poissons Ratio (z) = 0.34361 0.13706
#
# Static dielectric constant tensor:
#      x y z
#    x 1.602070 0.000000 0.000000 
#    y 0.000000 1.586800 0.000000 
#    z 0.000000 0.000000 1.623270 
# 
# From -- ./inp_files/36396.got.cif
#   From: 2010.05.17/outbox.cif.g08.bks.cpg/sg48_19_cif.got.tgz:36396.got - 2010.06.03 20:39:00.
