data_PCOD9389634
_publ_section_title
;
Structure prediction by ZEFSAII (Michael W. Deem and Ramdas Pophale) SiO2 
 PCOD9389634
Probable space group: P N N N
;
_chemical_formula_sum "Si O2"
_cell_formula_units_Z 64
_cell_length_a 12.109474
_cell_length_b 17.862874
_cell_length_c 15.093846
_cell_angle_alpha 90.000000
_cell_angle_beta 90.000000
_cell_angle_gamma 90.000000
_cell_volume 3264.949953
_symmetry_space_group_name_H-M "P N N N"
_symmetry_group_IT_number 48
_space_group.IT_coordinate_system_code '2'
_symmetry_cell_setting 'orthorhombic'
loop_
_space_group_symop_operation_xyz
x,y,z
1/2-x,1/2-y,z
x,1/2-y,1/2-z
1/2-x,y,1/2-z
-x,-y,-z
1/2+x,1/2+y,-z
-x,1/2+y,1/2+z
1/2+x,-y,1/2+z
loop_
_atom_site_type_symbol
_atom_site_label
_atom_site_fract_x
_atom_site_fract_y
_atom_site_fract_z
Si Si1 0.541249 0.279383 0.335713
Si Si2 0.766614 0.661582 0.522925
Si Si3 0.322239 0.816160 0.996626
Si Si4 0.942701 0.627538 0.644213
Si Si5 0.699112 0.414151 0.152495
Si Si6 0.116792 0.412830 0.174264
Si Si7 0.464905 0.552837 0.415555
Si Si8 0.206509 0.080457 0.653642
O O1 0.609011 0.250000 0.250000
O O2 0.598561 0.271628 0.429219
O O3 0.446402 0.216428 0.334089
O O4 0.498150 0.363996 0.330484
O O5 0.750000 0.750000 0.527332
O O6 0.885285 0.627401 0.549616
O O7 0.687497 0.627933 0.599068
O O8 0.738883 0.634876 0.425369
O O9 0.250000 0.750000 0.041814
O O10 0.250504 0.865280 0.926895
O O11 0.396311 0.874367 0.052929
O O12 0.866002 0.591719 0.720309
O O13 0.066550 0.595735 0.649093
O O14 0.750000 0.394710 0.250000
O O15 0.737316 0.499463 0.138081
O O16 0.106612 0.497665 0.144564
O O17 0.500000 0.500000 0.500000
O O18 0.574841 0.571307 0.359610
O O19 0.250000 0.105003 0.750000
#
# Coordination Sequence:
#
# PCOD9389634 Si02
#       8
#     8   8   8   8   8   8   8   8
#     4  10  18  30  50  85 126 163 203 259 329 399
#     4  12  24  39  60  88 130 174 217 269 337 410
#     4  12  22  32  55  93 132 174 218 270 339 408
#     4  11  23  34  58  94 132 166 205 274 349 399
#     4  11  21  36  57  90 128 164 212 266 333 406
#     4  11  20  38  60  89 126 174 221 260 329 426
#     4  12  21  40  67  92 125 180 226 269 335 421
#     4  11  24  43  67  92 124 169 231 281 325 395
#
# _framework density 19.602138
#
# number of rings (size 3 to 8) (size 9 to 14) (size 15 to 20)
#    0.000    0.750    6.250    3.375    0.000    1.250 
#    0.000    0.000    0.000    0.000    0.000    1.750 
#    3.750    0.000    0.000    0.000    0.000    0.000 
#
# Total GULP energy -356740.075521 kJ/mol
# GULP energy per Si atom -5574.063680 kJ/mol
# Density = 1.955752 g / cm^3
# Si number density = 19.602138 Si / 1000 Ang^3
#
#
#
# Elastic Constant Matrix: (Units=GPa)
#
#
# Indices 1 2 3 4 5 6 
#
# 1 85.6361 57.9442 40.4933 0.0000 0.0000 0.0000
# 2 57.9442 111.7764 65.2006 0.0000 0.0000 0.0000
# 3 40.4933 65.2006 101.0255 0.0000 0.0000 0.0000
# 4 0.0000 0.0000 0.0000 14.0795 0.0000 0.0000
# 5 0.0000 0.0000 0.0000 0.0000 29.9800 0.0000
# 6 0.0000 0.0000 0.0000 0.0000 0.0000 35.1990
#
#
#
# Elastic Compliance Matrix: (Units=1/GPa)
#
#
# Indices 1 2 3 4 5 6 
#
# 1 0.018219 -0.008315 -0.001936 0.000000 0.000000 0.000000
# 2 -0.008315 0.018143 -0.008376 0.000000 0.000000 0.000000
# 3 -0.001936 -0.008376 0.016080 0.000000 0.000000 0.000000
# 4 0.000000 0.000000 0.000000 0.071025 0.000000 0.000000
# 5 0.000000 0.000000 0.000000 0.000000 0.033356 0.000000
# 6 0.000000 0.000000 0.000000 0.000000 0.000000 0.028410
#
#
# Mechanical properties :
#
#
# Convention : Reuss Voigt Hill
#
# Bulk Modulus (GPa) = 65.84455 69.52380 67.68418
# Shear Modulus (GPa) = 21.97303 24.83837 23.40570
#
# Velocity S-wave (km/s) = 3.35169 3.56353 3.45923
# Velocity P-wave (km/s) = 6.97437 7.24404 7.11049
#
# Compressibility (1/GPa) = 0.01518729
#
# Stress axis : x y z
#
# Youngs Moduli (GPa) = 54.88695 55.11730 62.18722
#
# Poissons Ratio (x) = 0.45833 0.12040
# Poissons Ratio (y) = 0.45641 0.52090
# Poissons Ratio (z) = 0.10626 0.46168
#
# Static dielectric constant tensor:
#      x y z
#    x 1.811310 0.000000 0.000000 
#    y 0.000000 1.696950 0.000000 
#    z 0.000000 0.000000 1.732170 
# 
# From -- ./inp_files/26731.got.cif
#   From: 2010.05.17/outbox.cif.g08.bks.cpg/sg48_14_cif.got.tgz:26731.got - 2010.06.03 20:39:00.
