data_PCOD9389248
_publ_section_title
;
Structure prediction by ZEFSAII (Michael W. Deem and Ramdas Pophale) SiO2 
 PCOD9389248
Probable space group: P M M M
;
_chemical_formula_sum "Si O2"
_cell_formula_units_Z 64
_cell_length_a 18.000000
_cell_length_b 21.000000
_cell_length_c 9.000000
_cell_angle_alpha 90.000000
_cell_angle_beta 90.000000
_cell_angle_gamma 90.000000
_cell_volume 3402.000000
_symmetry_space_group_name_H-M "P M M M"
_symmetry_group_IT_number 47
_symmetry_cell_setting 'orthorhombic'
loop_
_space_group_symop_operation_xyz
x,y,z
-x,-y,z
x,-y,-z
-x,y,-z
-x,-y,-z
x,y,-z
-x,y,z
x,-y,z
loop_
_atom_site_type_symbol
_atom_site_label
_atom_site_fract_x
_atom_site_fract_y
_atom_site_fract_z
Si Si1 0.888447 0.927477 0.181008
Si Si2 0.629482 0.739070 0.326802
Si Si3 0.417100 0.406112 0.326574
Si Si4 0.578030 0.140090 0.820652
Si Si5 0.917063 0.792859 0.676278
Si Si6 0.213416 0.709097 0.820368
Si Si7 0.739942 0.431113 0.178332
Si Si8 0.280228 0.926425 0.169851
O O1 0.920099 0.864084 0.254446
O O2 0.802202 0.923484 0.230400
O O3 0.914011 0.000000 0.218714
O O4 0.894018 0.923480 0.000000
O O5 0.635827 0.757386 0.500000
O O6 0.591841 0.670102 0.321515
O O7 0.581791 0.788148 0.233216
O O8 0.710455 0.735600 0.250561
O O9 0.411588 0.424983 0.500000
O O10 0.500000 0.423894 0.272957
O O11 0.344240 0.428951 0.240128
O O12 0.500000 0.110151 0.773086
O O13 0.652527 0.109617 0.755995
O O14 0.580693 0.135919 0.000000
O O15 0.901153 0.797164 0.500000
O O16 0.855225 0.749444 0.756176
O O17 0.000000 0.765123 0.695022
O O18 0.216377 0.633500 0.778441
O O19 0.215091 0.714732 0.000000
O O20 0.772528 0.500000 0.223382
O O21 0.735936 0.429338 0.000000
O O22 0.301599 0.000000 0.162101
O O23 0.272561 0.902207 0.000000
#
# Coordination Sequence:
#
# PCOD9389248 Si02
#       8
#     8   8   8   8   8   8   8   8
#     4   9  18  34  57  82 108 143 186 225 259 305
#     4  10  19  32  50  70  96 132 172 213 261 315
#     4   9  18  31  46  68 101 140 179 216 256 307
#     4  10  19  28  42  67  95 125 168 221 269 311
#     4  11  24  39  56  82 115 146 175 211 257 310
#     4  10  20  36  59  82 105 136 174 217 263 315
#     4   9  19  35  54  78 106 136 174 221 272 322
#     4   8  15  29  47  66  90 122 162 208 255 301
#
# _framework density 18.812463000000001
#
# number of rings (size 3 to 8) (size 9 to 14) (size 15 to 20)
#    0.000    2.500    0.000    3.000    0.000    5.250 
#    0.000    3.750    0.000    1.500    0.000    3.500 
#    0.000    0.000    0.000    0.000    0.000    0.000 
#
# Total GULP energy -356444.439206 kJ/mol
# GULP energy per Si atom -5569.444363 kJ/mol
# Density = 1.876965 g / cm^3
# Si number density = 18.812463 Si / 1000 Ang^3
#
#
#
# Elastic Constant Matrix: (Units=GPa)
#
#
# Indices 1 2 3 4 5 6 
#
# 1 112.5658 66.4000 27.7747 0.0000 0.0000 0.0000
# 2 66.4000 69.7888 7.5832 0.0000 0.0000 0.0000
# 3 27.7747 7.5832 22.5296 0.0000 0.0000 0.0000
# 4 0.0000 0.0000 0.0000 6.7143 0.0000 0.0000
# 5 0.0000 0.0000 0.0000 0.0000 13.5004 0.0000
# 6 0.0000 0.0000 0.0000 0.0000 0.0000 11.2190
#
#
#
# Elastic Compliance Matrix: (Units=1/GPa)
#
#
# Indices 1 2 3 4 5 6 
#
# 1 0.033427 -0.028364 -0.031662 0.000000 0.000000 0.000000
# 2 -0.028364 0.038940 0.021860 0.000000 0.000000 0.000000
# 3 -0.031662 0.021860 0.076062 0.000000 0.000000 0.000000
# 4 0.000000 0.000000 0.000000 0.148936 0.000000 0.000000
# 5 0.000000 0.000000 0.000000 0.000000 0.074072 0.000000
# 6 0.000000 0.000000 0.000000 0.000000 0.000000 0.089135
#
#
# Mechanical properties :
#
#
# Convention : Reuss Voigt Hill
#
# Bulk Modulus (GPa) = 13.87017 45.37780 29.62398
# Shear Modulus (GPa) = 8.91368 13.16182 11.03775
#
# Velocity S-wave (km/s) = 2.17910 2.64793 2.42487
# Velocity P-wave (km/s) = 3.70407 5.78984 4.86016
#
# Compressibility (1/GPa) = 0.07209718
#
# Stress axis : x y z
#
# Youngs Moduli (GPa) = 29.91572 25.68053 13.14718
#
# Poissons Ratio (x) = 0.72839 0.41627
# Poissons Ratio (y) = 0.84852 -0.28740
# Poissons Ratio (z) = 0.94721 -0.56138
#
# Static dielectric constant tensor:
#      x y z
#    x 1.690340 0.000000 0.000000 
#    y 0.000000 1.698070 0.000000 
#    z 0.000000 0.000000 1.632420 
# 
# From -- ./inp_files/10004.got.cif
#   From: 2010.05.17/outbox.ucp.g08.bks.cvg/sg47_6_cif.got.tgz:10004.got - 2010.06.11 16:36:43.
