data_PCOD9389554
_publ_section_title
;
Structure prediction by ZEFSAII (Michael W. Deem and Ramdas Pophale) SiO2 
 PCOD9389554
Probable space group: P N N N
;
_chemical_formula_sum "Si O2"
_cell_formula_units_Z 64
_cell_length_a 9.585185
_cell_length_b 18.820982
_cell_length_c 21.392816
_cell_angle_alpha 90.000000
_cell_angle_beta 90.000000
_cell_angle_gamma 90.000000
_cell_volume 3859.319507
_symmetry_space_group_name_H-M "P N N N"
_symmetry_group_IT_number 48
_space_group.IT_coordinate_system_code '2'
_symmetry_cell_setting 'orthorhombic'
loop_
_space_group_symop_operation_xyz
x,y,z
1/2-x,1/2-y,z
x,1/2-y,1/2-z
1/2-x,y,1/2-z
-x,-y,-z
1/2+x,1/2+y,-z
-x,1/2+y,1/2+z
1/2+x,-y,1/2+z
loop_
_atom_site_type_symbol
_atom_site_label
_atom_site_fract_x
_atom_site_fract_y
_atom_site_fract_z
Si Si1 0.391372 0.947684 0.174875
Si Si2 0.066345 0.974415 0.186350
Si Si3 0.255129 0.834588 0.503636
Si Si4 0.093920 0.780386 0.313494
Si Si5 0.520700 0.163218 0.604310
Si Si6 0.493429 0.072692 0.962732
Si Si7 0.940691 0.061868 0.079647
Si Si8 0.825671 0.916278 0.017935
O O1 0.232909 0.977165 0.171120
O O2 0.453886 0.979463 0.239080
O O3 0.388815 0.863536 0.188243
O O4 0.472811 0.949120 0.109258
O O5 0.025757 0.896157 0.159061
O O6 0.980231 0.033902 0.148469
O O7 0.250000 0.750000 0.513756
O O8 0.344919 0.847018 0.440196
O O9 0.107999 0.871825 0.488331
O O10 0.336175 0.874573 0.560244
O O11 0.250000 0.750000 0.317952
O O12 0.030098 0.750000 0.250000
O O13 0.016100 0.742933 0.370294
O O14 0.394680 0.143827 0.560122
O O15 0.337157 0.097081 0.977395
O O16 0.500000 0.000000 0.000000
O O17 0.868527 0.992776 0.047589
O O18 0.089313 0.080373 0.046952
#
# Coordination Sequence:
#
# PCOD9389554 Si02
#       8
#     8   8   8   8   8   8   8   8
#     4  11  20  29  49  84 109 144 189 230 263 318
#     4  10  17  31  51  75 110 144 187 219 266 330
#     4  11  21  35  57  83 110 143 186 233 282 334
#     4  11  16  27  46  74 107 148 185 217 251 309
#     4  10  17  31  49  74 106 151 182 213 263 329
#     4  12  21  35  54  85 110 139 184 241 271 315
#     4   9  18  36  54  77 102 151 180 224 284 332
#     4   9  19  32  54  73 105 143 185 220 275 319
#
# _framework density 16.583234000000001
#
# number of rings (size 3 to 8) (size 9 to 14) (size 15 to 20)
#    0.000    1.625    5.000    3.375    0.000    0.000 
#    0.000    8.125    0.000    0.750    0.000    1.750 
#    0.000    2.000    0.000    0.000    0.000    0.000 
#
# Total GULP energy -356456.761673 kJ/mol
# GULP energy per Si atom -5569.636901 kJ/mol
# Density = 1.654549 g / cm^3
# Si number density = 16.583234 Si / 1000 Ang^3
#
#
#
# Elastic Constant Matrix: (Units=GPa)
#
#
# Indices 1 2 3 4 5 6 
#
# 1 112.9186 39.7437 39.4299 0.0000 0.0000 0.0000
# 2 39.7437 74.7775 45.1190 0.0000 0.0000 0.0000
# 3 39.4299 45.1190 90.9117 0.0000 0.0000 0.0000
# 4 0.0000 0.0000 0.0000 25.4146 0.0000 0.0000
# 5 0.0000 0.0000 0.0000 0.0000 13.0554 0.0000
# 6 0.0000 0.0000 0.0000 0.0000 0.0000 14.2136
#
#
#
# Elastic Compliance Matrix: (Units=1/GPa)
#
#
# Indices 1 2 3 4 5 6 
#
# 1 0.011358 -0.004374 -0.002755 0.000000 0.000000 0.000000
# 2 -0.004374 0.020774 -0.008413 0.000000 0.000000 0.000000
# 3 -0.002755 -0.008413 0.016370 0.000000 0.000000 0.000000
# 4 0.000000 0.000000 0.000000 0.039348 0.000000 0.000000
# 5 0.000000 0.000000 0.000000 0.000000 0.076597 0.000000
# 6 0.000000 0.000000 0.000000 0.000000 0.000000 0.070355
#
#
# Mechanical properties :
#
#
# Convention : Reuss Voigt Hill
#
# Bulk Modulus (GPa) = 57.41447 58.57698 57.99573
# Shear Modulus (GPa) = 18.40331 20.82440 19.61385
#
# Velocity S-wave (km/s) = 3.33491 3.54750 3.44285
# Velocity P-wave (km/s) = 7.03747 7.22353 7.13111
#
# Compressibility (1/GPa) = 0.01741721
#
# Stress axis : x y z
#
# Youngs Moduli (GPa) = 88.04733 48.13725 61.08773
#
# Poissons Ratio (x) = 0.21056 0.16830
# Poissons Ratio (y) = 0.38513 0.51392
# Poissons Ratio (z) = 0.24258 0.40497
#
# Static dielectric constant tensor:
#      x y z
#    x 1.397870 0.000000 0.000000 
#    y 0.000000 1.583640 0.000000 
#    z 0.000000 0.000000 1.598280 
# 
# From -- ./inp_files/33709.got.cif
#   From: 2010.05.17/outbox.cif.g08.bks.cpg/sg48_17_cif.got.tgz:33709.got - 2010.06.03 20:39:00.
