data_PCOD9389499
_publ_section_title
;
Structure prediction by ZEFSAII (Michael W. Deem and Ramdas Pophale) SiO2 
 PCOD9389499
Probable space group: P N N N
;
_chemical_formula_sum "Si O2"
_cell_formula_units_Z 48
_cell_length_a 16.816368
_cell_length_b 19.681235
_cell_length_c 5.556515
_cell_angle_alpha 90.000000
_cell_angle_beta 90.000000
_cell_angle_gamma 90.000000
_cell_volume 1839.022491
_symmetry_space_group_name_H-M "P N N N"
_symmetry_group_IT_number 48
_space_group.IT_coordinate_system_code '2'
_symmetry_cell_setting 'orthorhombic'
loop_
_space_group_symop_operation_xyz
x,y,z
1/2-x,1/2-y,z
x,1/2-y,1/2-z
1/2-x,y,1/2-z
-x,-y,-z
1/2+x,1/2+y,-z
-x,1/2+y,1/2+z
1/2+x,-y,1/2+z
loop_
_atom_site_type_symbol
_atom_site_label
_atom_site_fract_x
_atom_site_fract_y
_atom_site_fract_z
Si Si1 0.961978 0.209037 0.998246
Si Si2 0.334909 0.134426 0.201386
Si Si3 0.083393 0.991166 0.268612
Si Si4 0.781977 0.171172 0.005213
Si Si5 0.606457 0.497026 0.234948
Si Si6 0.622806 0.850205 0.313564
O O1 0.982152 0.250000 0.250000
O O2 0.876534 0.176725 0.037797
O O3 0.950474 0.250000 0.750000
O O4 0.032514 0.160015 0.904062
O O5 0.250000 0.099276 0.250000
O O6 0.398157 0.072336 0.214988
O O7 0.335146 0.177718 0.448034
O O8 0.355979 0.173677 0.954896
O O9 0.118784 0.960743 0.512462
O O10 0.120072 0.964719 0.022348
O O11 0.988340 0.985379 0.252001
O O12 0.750000 0.250000 0.005803
O O13 0.750000 0.137767 0.250000
O O14 0.750000 0.143741 0.750000
O O15 0.646928 0.570716 0.218928
#
# Coordination Sequence:
#
# PCOD9389499 Si02
#       6
#     8   8   8   8   8   8
#     4  12  21  33  53  76 105 136 176 223 259 315
#     4  10  19  34  53  75 101 136 179 225 269 313
#     4   8  14  25  47  71  92 124 156 196 246 308
#     4  10  16  30  49  74  97 123 159 204 245 311
#     4   8  14  27  44  69 100 120 153 199 251 303
#     4  10  21  33  50  78 104 134 177 224 272 308
#
# _framework density 26.100823999999999
#
# number of rings (size 3 to 8) (size 9 to 14) (size 15 to 20)
#    0.000    2.333    3.333    1.500    0.000    0.000 
#    0.000    0.000    0.000    8.500    0.000    9.333 
#    0.000    0.000    0.000    0.000    0.000    0.000 
#
# Total GULP energy -267383.441941 kJ/mol
# GULP energy per Si atom -5570.488374 kJ/mol
# Density = 2.604142 g / cm^3
# Si number density = 26.100824 Si / 1000 Ang^3
#
#
#
# Elastic Constant Matrix: (Units=GPa)
#
#
# Indices 1 2 3 4 5 6 
#
# 1 97.9692 8.7575 36.0134 0.0000 0.0000 0.0000
# 2 8.7575 67.3439 22.5516 0.0000 0.0000 0.0000
# 3 36.0134 22.5516 342.3148 0.0000 0.0000 0.0000
# 4 0.0000 0.0000 0.0000 3.0789 0.0000 0.0000
# 5 0.0000 0.0000 0.0000 0.0000 69.1057 0.0000
# 6 0.0000 0.0000 0.0000 0.0000 0.0000 12.3972
#
#
#
# Elastic Compliance Matrix: (Units=1/GPa)
#
#
# Indices 1 2 3 4 5 6 
#
# 1 0.010688 -0.001036 -0.001056 0.000000 0.000000 0.000000
# 2 -0.001036 0.015285 -0.000898 0.000000 0.000000 0.000000
# 3 -0.001056 -0.000898 0.003092 0.000000 0.000000 0.000000
# 4 0.000000 0.000000 0.000000 0.324787 0.000000 0.000000
# 5 0.000000 0.000000 0.000000 0.000000 0.014471 0.000000
# 6 0.000000 0.000000 0.000000 0.000000 0.000000 0.080663
#
#
# Mechanical properties :
#
#
# Convention : Reuss Voigt Hill
#
# Bulk Modulus (GPa) = 43.32070 71.36366 57.34218
# Shear Modulus (GPa) = 10.80706 46.27009 28.53857
#
# Velocity S-wave (km/s) = 2.03703 4.21496 3.31024
# Velocity P-wave (km/s) = 4.70809 7.14764 6.05206
#
# Compressibility (1/GPa) = 0.02308365
#
# Stress axis : x y z
#
# Youngs Moduli (GPa) = 93.56142 65.42539 323.46137
#
# Poissons Ratio (x) = 0.06779 0.34164
# Poissons Ratio (y) = 0.09695 0.29045
# Poissons Ratio (z) = 0.09882 0.05875
#
# Static dielectric constant tensor:
#      x y z
#    x 2.091290 0.000000 0.000000 
#    y 0.000000 2.019140 0.000000 
#    z 0.000000 0.000000 2.199220 
# 
# From -- ./inp_files/3535.got.cif
#   From: 2010.05.17/outbox.cif.g08.bks.cpg/sg48_2_cif.got.tgz:3535.got - 2010.06.03 20:39:00.
