data_PCOD9389404
_publ_section_title
;
Structure prediction by ZEFSAII (Michael W. Deem and Ramdas Pophale) SiO2 
 PCOD9389404
Probable space group: P M M M
;
_chemical_formula_sum "Si O2"
_cell_formula_units_Z 64
_cell_length_a 9.000000
_cell_length_b 24.000000
_cell_length_c 15.000000
_cell_angle_alpha 90.000000
_cell_angle_beta 90.000000
_cell_angle_gamma 90.000000
_cell_volume 3240.000000
_symmetry_space_group_name_H-M "P M M M"
_symmetry_group_IT_number 47
_symmetry_cell_setting 'orthorhombic'
loop_
_space_group_symop_operation_xyz
x,y,z
-x,-y,z
x,-y,-z
-x,y,-z
-x,-y,-z
x,y,-z
-x,y,z
x,-y,z
loop_
_atom_site_type_symbol
_atom_site_label
_atom_site_fract_x
_atom_site_fract_y
_atom_site_fract_z
Si Si1 0.678657 0.840928 0.101752
Si Si2 0.321439 0.778876 0.395746
Si Si3 0.332717 0.284126 0.107886
Si Si4 0.318941 0.346248 0.601363
Si Si5 0.663680 0.065640 0.400060
Si Si6 0.323341 0.559979 0.268007
Si Si7 0.175937 0.396801 0.898219
Si Si8 0.170855 0.130593 0.270090
O O1 0.500000 0.843550 0.103473
O O2 0.719167 0.777691 0.130629
O O3 0.750132 0.878877 0.176008
O O4 0.726629 0.850596 0.000000
O O5 0.281274 0.787196 0.500000
O O6 0.500000 0.782665 0.390206
O O7 0.277508 0.715991 0.371853
O O8 0.247870 0.820847 0.327711
O O9 0.500000 0.293621 0.143680
O O10 0.226712 0.334731 0.129927
O O11 0.343666 0.282949 0.000000
O O12 0.271123 0.356509 0.500000
O O13 0.500000 0.348312 0.600877
O O14 0.263225 0.391699 0.669573
O O15 0.685876 0.088151 0.500000
O O16 0.500000 0.086209 0.368621
O O17 0.795229 0.079438 0.334401
O O18 0.653218 0.000000 0.406886
O O19 0.500000 0.567314 0.257188
O O20 0.297447 0.500000 0.310306
O O21 0.251139 0.563108 0.171673
O O22 0.000000 0.401670 0.896085
O O23 0.226659 0.405824 0.000000
O O24 0.000000 0.142224 0.256453
#
# Coordination Sequence:
#
# PCOD9389404 Si02
#       8
#     8   8   8   8   8   8   8   8
#     4   9  19  36  56  77 105 146 193 234 271 317
#     4   9  18  34  55  77 105 143 185 225 265 320
#     4   8  15  30  52  75  97 126 169 218 264 310
#     4   8  16  33  56  79 101 129 168 216 269 319
#     4   9  19  38  63  87 112 148 196 243 280 320
#     4  10  21  35  53  78 102 127 168 221 270 319
#     4  10  21  35  51  72 101 136 170 208 259 321
#     4  12  24  33  50  84 122 155 184 223 277 332
#
# _framework density 19.753086
#
# number of rings (size 3 to 8) (size 9 to 14) (size 15 to 20)
#    0.000    2.625    0.000    3.750    1.750    4.500 
#    0.000    4.375    0.000    1.500    0.000    3.500 
#    0.000    0.000    0.000    0.000    0.000    0.000 
#
# Total GULP energy -356646.864572 kJ/mol
# GULP energy per Si atom -5572.607259 kJ/mol
# Density = 1.970813 g / cm^3
# Si number density = 19.753086 Si / 1000 Ang^3
#
#
#
# Elastic Constant Matrix: (Units=GPa)
#
#
# Indices 1 2 3 4 5 6 
#
# 1 8.6883 18.9409 23.7427 0.0000 0.0000 0.0000
# 2 18.9409 58.0661 40.9078 0.0000 0.0000 0.0000
# 3 23.7427 40.9078 68.8354 0.0000 0.0000 0.0000
# 4 0.0000 0.0000 0.0000 15.5093 0.0000 0.0000
# 5 0.0000 0.0000 0.0000 0.0000 -1.6868 0.0000
# 6 0.0000 0.0000 0.0000 0.0000 0.0000 3186.7526
#
#
#
# Elastic Compliance Matrix: (Units=1/GPa)
#
#
# Indices 1 2 3 4 5 6 
#
# 1 -5.195959 0.743641 1.350255 0.000000 0.000000 0.000000
# 2 0.743641 -0.076804 -0.210853 0.000000 0.000000 0.000000
# 3 1.350255 -0.210853 -0.325896 0.000000 0.000000 0.000000
# 4 0.000000 0.000000 0.000000 0.064477 0.000000 0.000000
# 5 0.000000 0.000000 0.000000 0.000000 -0.592835 0.000000
# 6 0.000000 0.000000 0.000000 0.000000 0.000000 0.000314
#
#
# Mechanical properties :
#
#
# Convention : Reuss Voigt Hill
#
# Bulk Modulus (GPa) = -0.54568 33.64143 16.54787
# Shear Modulus (GPa) = -0.47603 643.58158 321.55278
#
# Velocity S-wave (km/s) = -0.49144 18.06988 12.77261
# Velocity P-wave (km/s) = 0.77386 21.27037 15.03046
#
# Compressibility (1/GPa) = -1.83257335
#
# Stress axis : x y z
#
# Youngs Moduli (GPa) = -0.19246 -13.02015 -3.06847
#
# Poissons Ratio (x) = 9.68231 4.14321
# Poissons Ratio (y) = 0.14312 -0.64699
# Poissons Ratio (z) = 0.25987 -2.74534
#
# Static dielectric constant tensor:
#      x y z
#    x 1.693670 0.000000 0.000000 
#    y 0.000000 1.763480 0.000000 
#    z 0.000000 0.000000 1.709240 
# 
# From -- ./inp_files/21893.got.cif
#   From: 2010.05.17/outbox.ucp.g08.bks.cvg/sg47_11_cif.got.tgz:21893.got - 2010.06.11 16:36:43.
