data_PCOD9389016
_publ_section_title
;
Structure prediction by ZEFSAII (Michael W. Deem and Ramdas Pophale) SiO2 
 PCOD9389016
Probable space group: P M M M
;
_chemical_formula_sum "Si O2"
_cell_formula_units_Z 52
_cell_length_a 27.644027
_cell_length_b 7.588284
_cell_length_c 14.268968
_cell_angle_alpha 90.000000
_cell_angle_beta 90.000000
_cell_angle_gamma 90.000000
_cell_volume 2993.211802
_symmetry_space_group_name_H-M "P M M M"
_symmetry_group_IT_number 47
_symmetry_cell_setting 'orthorhombic'
loop_
_space_group_symop_operation_xyz
x,y,z
-x,-y,z
x,-y,-z
-x,y,-z
-x,-y,-z
x,y,-z
-x,y,z
x,-y,z
loop_
_atom_site_type_symbol
_atom_site_label
_atom_site_fract_x
_atom_site_fract_y
_atom_site_fract_z
Si Si1 0.500000 0.709469 0.606582
Si Si2 0.754216 0.787709 0.894778
Si Si3 0.796211 0.712779 0.605246
Si Si4 0.394345 0.209796 0.607331
Si Si5 0.851621 0.711188 0.214051
Si Si6 0.054427 0.715198 0.891762
Si Si7 0.698886 0.789516 0.713978
O O1 0.500000 0.500000 0.601579
O O2 0.500000 0.783872 0.500000
O O3 0.551779 0.762227 0.647442
O O4 0.808214 0.746801 0.858684
O O5 0.717754 0.720256 0.814242
O O6 0.750012 0.000000 0.896895
O O7 0.746214 0.721375 0.000000
O O8 0.804653 0.777508 0.500000
O O9 0.799331 0.500000 0.603790
O O10 0.833097 0.778397 0.685206
O O11 0.742534 0.758427 0.641181
O O12 0.392645 0.280527 0.500000
O O13 0.351006 0.280943 0.671189
O O14 0.387259 0.000000 0.600353
O O15 0.856023 0.500000 0.222158
O O16 0.902368 0.778534 0.174296
O O17 0.054936 0.500000 0.890503
O O18 0.000000 0.770031 0.865293
O O19 0.063031 0.766933 0.000000
O O20 0.693479 0.000000 0.724921
#
# Coordination Sequence:
#
# PCOD9389016 Si02
#       7
#     4   8   8   8   8   8   8
#     4   9  17  27  39  57  80 105 130 156 191 233
#     4   9  17  28  41  59  84 108 128 157 198 237
#     4   9  17  27  38  55  80 106 130 160 198 234
#     4   9  16  26  40  57  78 103 130 160 190 221
#     4   9  16  26  41  58  76 102 134 163 192 233
#     4   8  13  21  35  56  77  95 122 163 203 234
#     4   9  17  28  42  60  80 105 136 163 190 230
#
# _framework density 17.372641000000002
#
# number of rings (size 3 to 8) (size 9 to 14) (size 15 to 20)
#    0.000    3.154    0.000    1.615    0.000    3.385 
#    0.000    1.538    0.000    0.923    0.000    5.923 
#    0.000    4.308    0.000    7.692    0.000    8.308 
#
# Total GULP energy -289698.964279 kJ/mol
# GULP energy per Si atom -5571.133928 kJ/mol
# Density = 1.733310 g / cm^3
# Si number density = 17.372641 Si / 1000 Ang^3
#
#
#
# Elastic Constant Matrix: (Units=GPa)
#
#
# Indices 1 2 3 4 5 6 
#
# 1 174.8732 1.2182 92.9299 0.0000 0.0000 0.0000
# 2 1.2182 35.7713 3.6788 0.0000 0.0000 0.0000
# 3 92.9299 3.6788 131.0825 0.0000 0.0000 0.0000
# 4 0.0000 0.0000 0.0000 6.9564 0.0000 0.0000
# 5 0.0000 0.0000 0.0000 0.0000 14.9165 0.0000
# 6 0.0000 0.0000 0.0000 0.0000 0.0000 14.1901
#
#
#
# Elastic Compliance Matrix: (Units=1/GPa)
#
#
# Indices 1 2 3 4 5 6 
#
# 1 0.009180 0.000358 -0.006518 0.000000 0.000000 0.000000
# 2 0.000358 0.028050 -0.001041 0.000000 0.000000 0.000000
# 3 -0.006518 -0.001041 0.012279 0.000000 0.000000 0.000000
# 4 0.000000 0.000000 0.000000 0.143752 0.000000 0.000000
# 5 0.000000 0.000000 0.000000 0.000000 0.067040 0.000000
# 6 0.000000 0.000000 0.000000 0.000000 0.000000 0.070472
#
#
# Mechanical properties :
#
#
# Convention : Reuss Voigt Hill
#
# Bulk Modulus (GPa) = 28.48462 59.70896 44.09679
# Shear Modulus (GPa) = 14.01044 23.47260 18.74152
#
# Velocity S-wave (km/s) = 2.84291 3.67975 3.28806
# Velocity P-wave (km/s) = 5.21613 7.24557 6.31294
#
# Compressibility (1/GPa) = 0.03510666
#
# Stress axis : x y z
#
# Youngs Moduli (GPa) = 108.93710 35.65038 81.44134
#
# Poissons Ratio (x) = -0.01275 0.53082
# Poissons Ratio (y) = -0.03897 0.08476
# Poissons Ratio (z) = 0.71004 0.03710
#
# Static dielectric constant tensor:
#      x y z
#    x 1.593920 0.000000 0.000000 
#    y 0.000000 1.645760 0.000000 
#    z 0.000000 0.000000 1.599460 
# 
# From -- ./inp_files/25716.got.cif
#   From: 2010.05.17/outbox.cif.g08.bks.cpg/sg47_13_cif.got.tgz:25716.got - 2010.06.03 20:15:42.
