data_PCOD9389668
_publ_section_title
;
Structure prediction by ZEFSAII (Michael W. Deem and Ramdas Pophale) SiO2 
 PCOD9389668
Probable space group: P N N N
;
_chemical_formula_sum "Si O2"
_cell_formula_units_Z 40
_cell_length_a 10.817177
_cell_length_b 9.397504
_cell_length_c 20.686355
_cell_angle_alpha 90.000000
_cell_angle_beta 90.000000
_cell_angle_gamma 90.000000
_cell_volume 2102.860332
_symmetry_space_group_name_H-M "P N N N"
_symmetry_group_IT_number 48
_space_group.IT_coordinate_system_code '2'
_symmetry_cell_setting 'orthorhombic'
loop_
_space_group_symop_operation_xyz
x,y,z
1/2-x,1/2-y,z
x,1/2-y,1/2-z
1/2-x,y,1/2-z
-x,-y,-z
1/2+x,1/2+y,-z
-x,1/2+y,1/2+z
1/2+x,-y,1/2+z
loop_
_atom_site_type_symbol
_atom_site_label
_atom_site_fract_x
_atom_site_fract_y
_atom_site_fract_z
Si Si1 0.619457 0.708038 0.387829
Si Si2 0.871289 0.182950 0.820863
Si Si3 0.008881 0.933275 0.572056
Si Si4 0.438963 0.353421 0.022462
Si Si5 0.254069 0.406481 0.138372
O O1 0.750000 0.750000 0.357355
O O2 0.498922 0.777045 0.354601
O O3 0.605583 0.537250 0.392946
O O4 0.613984 0.774840 0.459640
O O5 0.750000 0.250000 0.855797
O O6 0.877639 0.250000 0.750000
O O7 0.668270 0.481442 0.819888
O O8 0.024939 0.764525 0.558801
O O9 0.883229 0.948485 0.614533
O O10 0.000000 0.000000 0.500000
O O11 0.331211 0.390575 0.072155
O O12 0.500000 0.500000 0.000000
O O13 0.250000 0.250000 0.168665
#
# Coordination Sequence:
#
# PCOD9389668 Si02
#       5
#     8   8   8   8   8
#     4  11  21  37  57  86 128 160 198 248 304 371
#     4  11  23  40  62  86 114 157 217 257 299 353
#     4   9  18  32  52  83 121 157 190 239 299 367
#     4  10  18  31  58  90 122 162 195 240 312 377
#     4  10  19  36  61  86 123 156 201 256 307 368
#
# _framework density 19.021709999999999
#
# number of rings (size 3 to 8) (size 9 to 14) (size 15 to 20)
#    0.000    1.800    4.000    3.000    0.000    0.400 
#    0.000    5.000    0.000    0.000    0.000    0.000 
#    0.000    0.000    0.000    0.000    0.000    0.000 
#
# Total GULP energy -222825.526870 kJ/mol
# GULP energy per Si atom -5570.638172 kJ/mol
# Density = 1.897842 g / cm^3
# Si number density = 19.021710 Si / 1000 Ang^3
#
#
#
# Elastic Constant Matrix: (Units=GPa)
#
#
# Indices 1 2 3 4 5 6 
#
# 1 120.2773 61.8780 26.7635 0.0000 0.0000 0.0000
# 2 61.8780 160.2174 23.6601 0.0000 0.0000 0.0000
# 3 26.7635 23.6601 61.6021 0.0000 0.0000 0.0000
# 4 0.0000 0.0000 0.0000 23.4426 0.0000 0.0000
# 5 0.0000 0.0000 0.0000 0.0000 17.1829 0.0000
# 6 0.0000 0.0000 0.0000 0.0000 0.0000 27.3619
#
#
#
# Elastic Compliance Matrix: (Units=1/GPa)
#
#
# Indices 1 2 3 4 5 6 
#
# 1 0.010985 -0.003751 -0.003332 0.000000 0.000000 0.000000
# 2 -0.003751 0.007897 -0.001404 0.000000 0.000000 0.000000
# 3 -0.003332 -0.001404 0.018220 0.000000 0.000000 0.000000
# 4 0.000000 0.000000 0.000000 0.042657 0.000000 0.000000
# 5 0.000000 0.000000 0.000000 0.000000 0.058197 0.000000
# 6 0.000000 0.000000 0.000000 0.000000 0.000000 0.036547
#
#
# Mechanical properties :
#
#
# Convention : Reuss Voigt Hill
#
# Bulk Modulus (GPa) = 49.67776 62.96667 56.32221
# Shear Modulus (GPa) = 25.22872 28.91715 27.07294
#
# Velocity S-wave (km/s) = 3.64581 3.90323 3.77671
# Velocity P-wave (km/s) = 6.62538 7.31355 6.97795
#
# Compressibility (1/GPa) = 0.02012973
#
# Stress axis : x y z
#
# Youngs Moduli (GPa) = 91.03296 126.62535 54.88480
#
# Poissons Ratio (x) = 0.47491 0.18288
# Poissons Ratio (y) = 0.34142 0.07705
# Poissons Ratio (z) = 0.30332 0.17775
#
# Static dielectric constant tensor:
#      x y z
#    x 1.682730 0.000000 0.000000 
#    y 0.000000 1.754350 0.000000 
#    z 0.000000 0.000000 1.667570 
# 
# From -- ./inp_files/37673.got.cif
#   From: 2010.05.17/outbox.cif.g08.bks.cpg/sg48_19_cif.got.tgz:37673.got - 2010.06.03 20:39:00.
