data_PCOD9389934
_publ_section_title
;
Structure prediction by ZEFSAII (Michael W. Deem and Ramdas Pophale) SiO2 
 PCOD9389934
Probable space group: P N N N
;
_chemical_formula_sum "Si O2"
_cell_formula_units_Z 48
_cell_length_a 5.626979
_cell_length_b 13.414678
_cell_length_c 20.185027
_cell_angle_alpha 90.000000
_cell_angle_beta 90.000000
_cell_angle_gamma 90.000000
_cell_volume 1523.648827
_symmetry_space_group_name_H-M "P N N N"
_symmetry_group_IT_number 48
_space_group.IT_coordinate_system_code '2'
_symmetry_cell_setting 'orthorhombic'
loop_
_space_group_symop_operation_xyz
x,y,z
1/2-x,1/2-y,z
x,1/2-y,1/2-z
1/2-x,y,1/2-z
-x,-y,-z
1/2+x,1/2+y,-z
-x,1/2+y,1/2+z
1/2+x,-y,1/2+z
loop_
_atom_site_type_symbol
_atom_site_label
_atom_site_fract_x
_atom_site_fract_y
_atom_site_fract_z
Si Si1 0.444732 0.193679 0.503858
Si Si2 0.938930 0.110792 0.164331
Si Si3 0.116929 0.611018 0.008739
Si Si4 0.391592 0.129149 0.656164
Si Si5 0.933143 0.618883 0.818494
Si Si6 0.614327 0.384246 0.669273
O O1 0.750000 0.250000 0.506218
O O2 0.125821 0.184395 0.488780
O O3 0.408462 0.167020 0.581100
O O4 0.609200 0.103178 0.475722
O O5 0.196587 0.147374 0.139914
O O6 0.677078 0.150016 0.146288
O O7 0.004898 0.141768 0.241426
O O8 0.905982 0.992196 0.158636
O O9 0.124161 0.615329 0.089101
O O10 0.000000 0.500000 0.000000
O O11 0.140166 0.158562 0.684732
O O12 0.634560 0.157180 0.690898
O O13 0.904419 0.500484 0.813151
#
# Coordination Sequence:
#
# PCOD9389934 Si02
#       6
#     8   8   8   8   8   8
#     4  10  19  34  51  69  95 128 161 211 261 307
#     4   8  13  21  35  59  81 113 152 197 226 273
#     4  10  21  34  50  72  95 124 168 216 260 314
#     4   9  16  27  45  63  89 120 160 195 245 289
#     4   8  13  21  36  56  84 112 152 194 238 266
#     4   9  16  28  43  64  88 122 156 205 247 289
#
# _framework density 31.503323999999999
#
# number of rings (size 3 to 8) (size 9 to 14) (size 15 to 20)
#    0.000    3.000    1.667    0.000    0.000    0.667 
#    0.000    0.000    0.000    1.000    0.000    7.000 
#    0.000    0.000    0.000    0.000    0.000   53.333 
#
# Total GULP energy -267554.134845 kJ/mol
# GULP energy per Si atom -5574.044476 kJ/mol
# Density = 3.143162 g / cm^3
# Si number density = 31.503324 Si / 1000 Ang^3
#
#
#
# Elastic Constant Matrix: (Units=GPa)
#
#
# Indices 1 2 3 4 5 6 
#
# 1 473.9852 102.3580 57.5909 0.0000 0.0000 0.0000
# 2 102.3580 184.1966 -5.2200 0.0000 0.0000 0.0000
# 3 57.5909 -5.2200 126.3793 0.0000 0.0000 0.0000
# 4 0.0000 0.0000 0.0000 44.5267 0.0000 0.0000
# 5 0.0000 0.0000 0.0000 0.0000 39.8736 0.0000
# 6 0.0000 0.0000 0.0000 0.0000 0.0000 -10.4103
#
#
#
# Elastic Compliance Matrix: (Units=1/GPa)
#
#
# Indices 1 2 3 4 5 6 
#
# 1 0.002577 -0.001467 -0.001235 0.000000 0.000000 0.000000
# 2 -0.001467 0.006270 0.000927 0.000000 0.000000 0.000000
# 3 -0.001235 0.000927 0.008514 0.000000 0.000000 0.000000
# 4 0.000000 0.000000 0.000000 0.022458 0.000000 0.000000
# 5 0.000000 0.000000 0.000000 0.000000 0.025079 0.000000
# 6 0.000000 0.000000 0.000000 0.000000 0.000000 -0.096058
#
#
# Mechanical properties :
#
#
# Convention : Reuss Voigt Hill
#
# Bulk Modulus (GPa) = 72.39883 121.55765 96.97824
# Shear Modulus (GPa) = -217.31602 56.78681 -80.26461
#
# Velocity S-wave (km/s) = -8.31455 4.25027 -5.05306
# Velocity P-wave (km/s) = 8.31531 7.92186 1.78725
#
# Compressibility (1/GPa) = 0.01381238
#
# Stress axis : x y z
#
# Youngs Moduli (GPa) = 388.11635 159.48066 117.45835
#
# Poissons Ratio (x) = 0.23392 0.14503
# Poissons Ratio (y) = 0.56928 -0.10893
# Poissons Ratio (z) = 0.47921 -0.14790
#
# Static dielectric constant tensor:
#      x y z
#    x 3.549230 0.000000 0.000000 
#    y 0.000000 1.201660 0.000000 
#    z 0.000000 0.000000 2.542960 
# 
# From -- ./inp_files/38304.got.cif
#   From: 2010.05.17/outbox.cif.g08.bks.cpg/sg48_20_cif.got.tgz:38304.got - 2010.06.03 20:39:00.
