data_PCOD9389191
_publ_section_title
;
Structure prediction by ZEFSAII (Michael W. Deem and Ramdas Pophale) SiO2 
 PCOD9389191
Probable space group: P M M M
;
_chemical_formula_sum "Si O2"
_cell_formula_units_Z 56
_cell_length_a 20.048406
_cell_length_b 7.450725
_cell_length_c 18.804064
_cell_angle_alpha 90.000000
_cell_angle_beta 90.000000
_cell_angle_gamma 90.000000
_cell_volume 2808.860065
_symmetry_space_group_name_H-M "P M M M"
_symmetry_group_IT_number 47
_symmetry_cell_setting 'orthorhombic'
loop_
_space_group_symop_operation_xyz
x,y,z
-x,-y,z
x,-y,-z
-x,y,-z
-x,-y,-z
x,y,-z
-x,y,z
x,-y,z
loop_
_atom_site_type_symbol
_atom_site_label
_atom_site_fract_x
_atom_site_fract_y
_atom_site_fract_z
Si Si1 0.217048 0.711205 0.357241
Si Si2 0.073539 0.288422 0.667192
Si Si3 0.203869 0.780582 0.080880
Si Si4 0.354896 0.282609 0.578909
Si Si5 0.073619 0.216948 0.834847
Si Si6 0.290174 0.217399 0.211327
Si Si7 0.426359 0.788854 0.723857
O O1 0.212732 0.500000 0.373936
O O2 0.142392 0.786836 0.365019
O O3 0.279984 0.782582 0.401726
O O4 0.240664 0.729244 0.275298
O O5 0.071718 0.500000 0.650082
O O6 0.080869 0.273159 0.752730
O O7 0.000000 0.213457 0.648809
O O8 0.133875 0.722291 0.115701
O O9 0.261229 0.724483 0.135891
O O10 0.203568 0.000000 0.080180
O O11 0.211880 0.720813 0.000000
O O12 0.374121 0.224721 0.500000
O O13 0.353356 0.500000 0.580162
O O14 0.404155 0.226916 0.641697
O O15 0.000000 0.274291 0.859240
O O16 0.075103 0.000000 0.834660
O O17 0.363833 0.284808 0.231478
O O18 0.291374 0.000000 0.212111
O O19 0.500000 0.711993 0.735210
O O20 0.429746 0.000000 0.740565
#
# Coordination Sequence:
#
# PCOD9389191 Si02
#       7
#     8   8   8   8   8   8   8
#     4   9  16  27  44  62  82 110 142 175 208 243
#     4   9  16  25  39  59  82 108 138 174 214 249
#     4   9  16  25  39  60  84 110 140 175 213 248
#     4   9  18  31  46  66  91 116 140 167 202 245
#     4   9  16  25  38  57  81 108 139 174 210 249
#     4   9  16  28  45  62  82 108 140 175 208 246
#     4   9  18  31  47  67  89 113 139 168 204 246
#
# _framework density 19.936913000000001
#
# number of rings (size 3 to 8) (size 9 to 14) (size 15 to 20)
#    0.000    3.000    1.429    0.000    0.000    1.143 
#    0.000    2.857    0.000    2.571    0.000    8.000 
#    0.000    0.000    0.000   17.857    0.000   18.571 
#
# Total GULP energy -312188.913067 kJ/mol
# GULP energy per Si atom -5574.802019 kJ/mol
# Density = 1.989154 g / cm^3
# Si number density = 19.936913 Si / 1000 Ang^3
#
#
#
# Elastic Constant Matrix: (Units=GPa)
#
#
# Indices 1 2 3 4 5 6 
#
# 1 154.4941 6.0903 7.8087 0.0000 0.0000 0.0000
# 2 6.0903 60.1025 -2.3886 0.0000 0.0000 0.0000
# 3 7.8087 -2.3886 12.3508 0.0000 0.0000 0.0000
# 4 0.0000 0.0000 0.0000 11.4367 0.0000 0.0000
# 5 0.0000 0.0000 0.0000 0.0000 11.9293 0.0000
# 6 0.0000 0.0000 0.0000 0.0000 0.0000 5.4677
#
#
#
# Elastic Compliance Matrix: (Units=1/GPa)
#
#
# Indices 1 2 3 4 5 6 
#
# 1 0.006730 -0.000858 -0.004421 0.000000 0.000000 0.000000
# 2 -0.000858 0.016876 0.003806 0.000000 0.000000 0.000000
# 3 -0.004421 0.003806 0.084498 0.000000 0.000000 0.000000
# 4 0.000000 0.000000 0.000000 0.087438 0.000000 0.000000
# 5 0.000000 0.000000 0.000000 0.000000 0.083827 0.000000
# 6 0.000000 0.000000 0.000000 0.000000 0.000000 0.182893
#
#
# Mechanical properties :
#
#
# Convention : Reuss Voigt Hill
#
# Bulk Modulus (GPa) = 9.50937 27.77424 18.64180
# Shear Modulus (GPa) = 9.99481 20.12920 15.06201
#
# Velocity S-wave (km/s) = 2.24145 3.18094 2.75159
# Velocity P-wave (km/s) = 3.38805 5.23951 4.41199
#
# Compressibility (1/GPa) = 0.10515949
#
# Stress axis : x y z
#
# Youngs Moduli (GPa) = 148.58845 59.25425 11.83462
#
# Poissons Ratio (x) = 0.05082 0.05232
# Poissons Ratio (y) = 0.12744 -0.04504
# Poissons Ratio (z) = 0.65689 -0.22553
#
# Static dielectric constant tensor:
#      x y z
#    x 1.743470 0.000000 0.000000 
#    y 0.000000 1.776100 0.000000 
#    z 0.000000 0.000000 1.659440 
# 
# From -- ./inp_files/9800.got.cif
#   From: 2010.05.17/outbox.cif.g08.bks.cpg/sg47_5_cif.got.tgz:9800.got - 2010.06.03 20:15:42.
