data_PCOD9389864
_publ_section_title
;
Structure prediction by ZEFSAII (Michael W. Deem and Ramdas Pophale) SiO2 
 PCOD9389864
Probable space group: P N N N
;
_chemical_formula_sum "Si O2"
_cell_formula_units_Z 56
_cell_length_a 20.453629
_cell_length_b 8.413842
_cell_length_c 15.561166
_cell_angle_alpha 90.000000
_cell_angle_beta 90.000000
_cell_angle_gamma 90.000000
_cell_volume 2677.977120
_symmetry_space_group_name_H-M "P N N N"
_symmetry_group_IT_number 48
_space_group.IT_coordinate_system_code '2'
_symmetry_cell_setting 'orthorhombic'
loop_
_space_group_symop_operation_xyz
x,y,z
1/2-x,1/2-y,z
x,1/2-y,1/2-z
1/2-x,y,1/2-z
-x,-y,-z
1/2+x,1/2+y,-z
-x,1/2+y,1/2+z
1/2+x,-y,1/2+z
loop_
_atom_site_type_symbol
_atom_site_label
_atom_site_fract_x
_atom_site_fract_y
_atom_site_fract_z
Si Si1 0.181768 0.065530 0.716273
Si Si2 0.891838 0.059348 0.645135
Si Si3 0.857092 0.544918 0.026054
Si Si4 0.515739 0.150793 0.084950
Si Si5 0.439057 0.950126 0.676811
Si Si6 0.418037 0.129563 0.499835
Si Si7 0.581351 0.070874 0.672142
O O1 0.177367 0.250000 0.750000
O O2 0.250000 0.000034 0.750000
O O3 0.183009 0.038986 0.613882
O O4 0.118543 0.982944 0.757147
O O5 0.908364 0.245589 0.649453
O O6 0.876201 0.020586 0.744614
O O7 0.841048 0.029186 0.567199
O O8 0.954873 0.951905 0.619482
O O9 0.926124 0.458869 0.051088
O O10 0.866187 0.731437 0.010312
O O11 0.542888 0.268553 0.157287
O O12 0.486048 0.272459 0.013690
O O13 0.418627 0.024088 0.584399
O O14 0.505986 0.041420 0.699911
O O15 0.407707 0.032958 0.412615
#
# Coordination Sequence:
#
# PCOD9389864 Si02
#       7
#     8   8   8   8   8   8   8
#     4  11  25  42  60  80 106 151 208 254 295 336
#     4  10  20  32  51  82 120 155 183 224 284 357
#     4  11  20  35  55  76 110 150 189 243 293 338
#     4  10  20  31  49  80 113 149 187 227 281 358
#     4  11  20  34  55  78 112 158 192 241 288 339
#     4  10  19  32  51  80 117 153 195 224 281 358
#     4  10  20  32  53  85 122 155 188 220 281 372
#
# _framework density 20.911307000000001
#
# number of rings (size 3 to 8) (size 9 to 14) (size 15 to 20)
#    0.000    1.571    1.429    6.857    2.000    8.000 
#    0.000    1.429    0.000    0.000    0.000    1.000 
#    0.000    2.286    0.000    0.286    0.000    0.000 
#
# Total GULP energy -312596.835733 kJ/mol
# GULP energy per Si atom -5582.086352 kJ/mol
# Density = 2.086371 g / cm^3
# Si number density = 20.911307 Si / 1000 Ang^3
#
#
#
# Elastic Constant Matrix: (Units=GPa)
#
#
# Indices 1 2 3 4 5 6 
#
# 1 30.0261 9.6986 32.9697 0.0000 0.0000 0.0000
# 2 9.6986 84.0869 36.3721 0.0000 0.0000 0.0000
# 3 32.9697 36.3721 190.7138 0.0000 0.0000 0.0000
# 4 0.0000 0.0000 0.0000 30.8090 0.0000 0.0000
# 5 0.0000 0.0000 0.0000 0.0000 13.2882 0.0000
# 6 0.0000 0.0000 0.0000 0.0000 0.0000 1.1093
#
#
#
# Elastic Compliance Matrix: (Units=1/GPa)
#
#
# Indices 1 2 3 4 5 6 
#
# 1 0.041364 -0.001829 -0.006802 0.000000 0.000000 0.000000
# 2 -0.001829 0.013043 -0.002171 0.000000 0.000000 0.000000
# 3 -0.006802 -0.002171 0.006833 0.000000 0.000000 0.000000
# 4 0.000000 0.000000 0.000000 0.032458 0.000000 0.000000
# 5 0.000000 0.000000 0.000000 0.000000 0.075255 0.000000
# 6 0.000000 0.000000 0.000000 0.000000 0.000000 0.901470
#
#
# Mechanical properties :
#
#
# Convention : Reuss Voigt Hill
#
# Bulk Modulus (GPa) = 25.22966 51.43420 38.33193
# Shear Modulus (GPa) = 4.52391 24.09371 14.30881
#
# Velocity S-wave (km/s) = 1.47244 3.39807 2.61868
# Velocity P-wave (km/s) = 3.87066 6.32816 5.24536
#
# Compressibility (1/GPa) = 0.03963588
#
# Stress axis : x y z
#
# Youngs Moduli (GPa) = 24.17568 76.67194 146.33871
#
# Poissons Ratio (x) = 0.14021 0.99540
# Poissons Ratio (y) = 0.04421 0.31774
# Poissons Ratio (z) = 0.16444 0.16648
#
# Static dielectric constant tensor:
#      x y z
#    x 1.740600 0.000000 0.000000 
#    y 0.000000 1.763800 0.000000 
#    z 0.000000 0.000000 1.855690 
# 
# From -- ./inp_files/28335.got.cif
#   From: 2010.05.17/outbox.cif.g08.bks.cpg/sg48_15_cif.got.tgz:28335.got - 2010.06.03 20:39:00.
