data_PCOD9389066
_publ_section_title
;
Structure prediction by ZEFSAII (Michael W. Deem and Ramdas Pophale) SiO2 
 PCOD9389066
Probable space group: P M M M
;
_chemical_formula_sum "Si O2"
_cell_formula_units_Z 56
_cell_length_a 21.147400
_cell_length_b 7.338183
_cell_length_c 15.935748
_cell_angle_alpha 90.000000
_cell_angle_beta 90.000000
_cell_angle_gamma 90.000000
_cell_volume 2472.965009
_symmetry_space_group_name_H-M "P M M M"
_symmetry_group_IT_number 47
_symmetry_cell_setting 'orthorhombic'
loop_
_space_group_symop_operation_xyz
x,y,z
-x,-y,z
x,-y,-z
-x,y,-z
-x,-y,-z
x,y,-z
-x,y,z
x,-y,z
loop_
_atom_site_type_symbol
_atom_site_label
_atom_site_fract_x
_atom_site_fract_y
_atom_site_fract_z
Si Si1 0.567962 0.289234 0.629472
Si Si2 0.432088 0.220940 0.825561
Si Si3 0.072848 0.277313 0.247563
Si Si4 0.839653 0.285657 0.903689
Si Si5 0.295112 0.294891 0.599496
Si Si6 0.158325 0.277110 0.402850
Si Si7 0.698851 0.780754 0.904199
O O1 0.500000 0.212598 0.600519
O O2 0.569613 0.500000 0.600235
O O3 0.566043 0.283048 0.729791
O O4 0.636203 0.206160 0.609262
O O5 0.500000 0.275002 0.865153
O O6 0.365939 0.285483 0.863155
O O7 0.430811 0.000000 0.826718
O O8 0.074262 0.500000 0.246967
O O9 0.111846 0.214058 0.165747
O O10 0.106972 0.222095 0.334184
O O11 0.000000 0.221459 0.244599
O O12 0.852603 0.500000 0.910995
O O13 0.767779 0.267812 0.869720
O O14 0.842604 0.211422 0.000000
O O15 0.286042 0.310937 0.500000
O O16 0.300110 0.500000 0.636538
O O17 0.228289 0.214549 0.627539
O O18 0.146543 0.221514 0.500000
O O19 0.160812 0.500000 0.403813
O O20 0.695979 0.000000 0.903530
O O21 0.699302 0.717095 0.000000
#
# Coordination Sequence:
#
# PCOD9389066 Si02
#       7
#     8   8   8   8   8   8   8
#     4   9  17  27  41  63  88 116 150 186 223 264
#     4   9  18  31  45  63  89 119 149 184 227 270
#     4   9  17  27  41  64  91 122 157 186 222 275
#     4   9  18  31  47  69  96 124 152 185 227 273
#     4   8  14  24  38  58  84 114 148 185 225 266
#     4   8  14  24  37  57  87 120 152 187 228 271
#     4   9  18  32  49  68  89 116 152 190 225 264
#
# _framework density 22.644883
#
# number of rings (size 3 to 8) (size 9 to 14) (size 15 to 20)
#    0.000    3.286    0.000    0.857    2.000    1.714 
#    0.000    5.714    0.000    0.857    0.000    8.000 
#    0.000    0.571    0.000    1.286    0.000    1.429 
#
# Total GULP energy -312080.749670 kJ/mol
# GULP energy per Si atom -5572.870530 kJ/mol
# Density = 2.259334 g / cm^3
# Si number density = 22.644883 Si / 1000 Ang^3
#
#
#
# Elastic Constant Matrix: (Units=GPa)
#
#
# Indices 1 2 3 4 5 6 
#
# 1 260.6082 7.8527 107.1906 0.0000 0.0000 0.0000
# 2 7.8527 88.2219 2.8744 0.0000 0.0000 0.0000
# 3 107.1906 2.8744 94.5727 0.0000 0.0000 0.0000
# 4 0.0000 0.0000 0.0000 0.2194 0.0000 0.0000
# 5 0.0000 0.0000 0.0000 0.0000 77.1274 0.0000
# 6 0.0000 0.0000 0.0000 0.0000 0.0000 -2.5280
#
#
#
# Elastic Compliance Matrix: (Units=1/GPa)
#
#
# Indices 1 2 3 4 5 6 
#
# 1 0.007201 -0.000375 -0.008150 0.000000 0.000000 0.000000
# 2 -0.000375 0.011366 0.000080 0.000000 0.000000 0.000000
# 3 -0.008150 0.000080 0.019809 0.000000 0.000000 0.000000
# 4 0.000000 0.000000 0.000000 4.558679 0.000000 0.000000
# 5 0.000000 0.000000 0.000000 0.000000 0.012966 0.000000
# 6 0.000000 0.000000 0.000000 0.000000 0.000000 -0.395574
#
#
# Mechanical properties :
#
#
# Convention : Reuss Voigt Hill
#
# Bulk Modulus (GPa) = 46.54486 75.47089 61.00788
# Shear Modulus (GPa) = 1.17966 36.66278 18.92122
#
# Velocity S-wave (km/s) = 0.72255 4.02808 2.89375
# Velocity P-wave (km/s) = 4.61465 7.41851 6.17775
#
# Compressibility (1/GPa) = 0.02148465
#
# Stress axis : x y z
#
# Youngs Moduli (GPa) = 138.87681 87.98278 50.48282
#
# Poissons Ratio (x) = 0.03303 0.41143
# Poissons Ratio (y) = 0.05213 -0.00404
# Poissons Ratio (z) = 1.13183 -0.00704
#
# Static dielectric constant tensor:
#      x y z
#    x 1.878740 0.000000 0.000000 
#    y 0.000000 1.795380 0.000000 
#    z 0.000000 0.000000 1.804510 
# 
# From -- ./inp_files/18723.got.cif
#   From: 2010.05.17/outbox.cif.g08.bks.cpg/sg47_10_cif.got.tgz:18723.got - 2010.06.03 20:15:42.
