data_PCOD9389242
_publ_section_title
;
Structure prediction by ZEFSAII (Michael W. Deem and Ramdas Pophale) SiO2 
 PCOD9389242
Probable space group: P M M M
;
_chemical_formula_sum "Si O2"
_cell_formula_units_Z 37
_cell_length_a 9.000000
_cell_length_b 18.000000
_cell_length_c 12.000000
_cell_angle_alpha 90.000000
_cell_angle_beta 90.000000
_cell_angle_gamma 90.000000
_cell_volume 1944.000000
_symmetry_space_group_name_H-M "P M M M"
_symmetry_group_IT_number 47
_symmetry_cell_setting 'orthorhombic'
loop_
_space_group_symop_operation_xyz
x,y,z
-x,-y,z
x,-y,-z
-x,y,-z
-x,-y,-z
x,y,-z
-x,y,z
x,-y,z
loop_
_atom_site_type_symbol
_atom_site_label
_atom_site_fract_x
_atom_site_fract_y
_atom_site_fract_z
Si Si1 0.826467 0.644567 0.723677
Si Si2 0.322859 0.500000 0.630782
Si Si3 0.166916 0.739929 0.500000
Si Si4 0.000000 0.000000 0.500000
Si Si5 0.333134 0.918686 0.754918
Si Si6 0.284647 0.104461 0.500000
Si Si7 0.820827 0.219427 0.129141
O O1 0.735238 0.571267 0.697505
O O2 0.818693 0.691226 0.609570
O O3 0.773241 0.701521 0.818743
O O4 0.000000 0.625782 0.744496
O O5 0.500000 0.500000 0.626578
O O6 0.269153 0.500000 0.500000
O O7 0.279311 0.806973 0.500000
O O8 0.000000 0.771396 0.500000
O O9 0.872462 0.064184 0.500000
O O10 0.500000 0.913917 0.801041
O O11 0.345636 0.916408 0.620989
O O12 0.240791 0.849438 0.799883
O O13 0.268367 0.000000 0.784511
O O14 0.000000 0.217964 0.136970
O O15 0.778062 0.212449 0.000000
#
# Coordination Sequence:
#
# PCOD9389242 Si02
#       7
#     8   4   4   1   8   4   8
#     4  10  20  37  61  86 118 152 187 236 295 357
#     4  11  23  37  56  91 128 152 185 230 285 354
#     4  10  18  30  55  88 115 146 192 237 291 354
#     4  12  24  28  62  92 130 162 194 256 312 354
#     4  11  24  39  57  83 122 163 199 243 299 364
#     4  12  21  35  55  91 124 155 196 245 303 363
#     4  10  23  42  64  88 114 150 204 260 300 342
#
# _framework density 19.032921999999999
#
# number of rings (size 3 to 8) (size 9 to 14) (size 15 to 20)
#    0.000    1.405    4.865    0.649    1.514    3.459 
#    0.000    2.703    0.000    3.243    0.000    0.000 
#    0.000    0.000    0.000    0.000    0.000    0.000 
#
# Total GULP energy -206015.093500 kJ/mol
# GULP energy per Si atom -5567.975500 kJ/mol
# Density = 1.898960 g / cm^3
# Si number density = 19.032922 Si / 1000 Ang^3
#
#
#
# Elastic Constant Matrix: (Units=GPa)
#
#
# Indices 1 2 3 4 5 6 
#
# 1 51.4903 48.4492 24.9078 0.0000 0.0000 0.0000
# 2 48.4492 161.0882 51.6208 0.0000 0.0000 0.0000
# 3 24.9078 51.6208 99.9455 0.0000 0.0000 0.0000
# 4 0.0000 0.0000 0.0000 -4.2716 0.0000 0.0000
# 5 0.0000 0.0000 0.0000 0.0000 17.1372 0.0000
# 6 0.0000 0.0000 0.0000 0.0000 0.0000 12.0506
#
#
#
# Elastic Compliance Matrix: (Units=1/GPa)
#
#
# Indices 1 2 3 4 5 6 
#
# 1 0.027884 -0.007381 -0.003137 0.000000 0.000000 0.000000
# 2 -0.007381 0.009393 -0.003012 0.000000 0.000000 0.000000
# 3 -0.003137 -0.003012 0.012343 0.000000 0.000000 0.000000
# 4 0.000000 0.000000 0.000000 -0.234104 0.000000 0.000000
# 5 0.000000 0.000000 0.000000 0.000000 0.058353 0.000000
# 6 0.000000 0.000000 0.000000 0.000000 0.000000 0.082984
#
#
# Mechanical properties :
#
#
# Convention : Reuss Voigt Hill
#
# Bulk Modulus (GPa) = 44.32642 62.49771 53.41206
# Shear Modulus (GPa) = -583.52290 17.48632 -283.01829
#
# Velocity S-wave (km/s) = -17.52860 3.03436 -12.20746
# Velocity P-wave (km/s) = 19.65525 6.72193 13.06033
#
# Compressibility (1/GPa) = 0.02255991
#
# Stress axis : x y z
#
# Youngs Moduli (GPa) = 35.86319 106.46331 81.01931
#
# Poissons Ratio (x) = 0.78583 0.25413
# Poissons Ratio (y) = 0.26471 0.24402
# Poissons Ratio (z) = 0.11249 0.32065
#
# Static dielectric constant tensor:
#      x y z
#    x 1.670060 0.000000 0.000000 
#    y 0.000000 1.669690 0.000000 
#    z 0.000000 0.000000 1.653400 
# 
# From -- ./inp_files/14930.got.cif
#   From: 2010.05.17/outbox.ucp.g08.bks.cvg/sg47_8_cif.got.tgz:14930.got - 2010.06.11 16:36:43.
