data_PCOD9389564
_publ_section_title
;
Structure prediction by ZEFSAII (Michael W. Deem and Ramdas Pophale) SiO2 
 PCOD9389564
Probable space group: P N N N
;
_chemical_formula_sum "Si O2"
_cell_formula_units_Z 58
_cell_length_a 6.859266
_cell_length_b 14.717002
_cell_length_c 20.823383
_cell_angle_alpha 90.000000
_cell_angle_beta 90.000000
_cell_angle_gamma 90.000000
_cell_volume 2102.075357
_symmetry_space_group_name_H-M "P N N N"
_symmetry_group_IT_number 48
_space_group.IT_coordinate_system_code '2'
_symmetry_cell_setting 'orthorhombic'
loop_
_space_group_symop_operation_xyz
x,y,z
1/2-x,1/2-y,z
x,1/2-y,1/2-z
1/2-x,y,1/2-z
-x,-y,-z
1/2+x,1/2+y,-z
-x,1/2+y,1/2+z
1/2+x,-y,1/2+z
loop_
_atom_site_type_symbol
_atom_site_label
_atom_site_fract_x
_atom_site_fract_y
_atom_site_fract_z
Si Si1 0.106905 0.916426 0.831061
Si Si2 0.481480 0.092725 0.735005
Si Si3 0.088152 0.371920 0.931624
Si Si4 0.093156 0.638063 0.539040
Si Si5 0.958051 0.516866 0.847771
Si Si6 0.750000 0.250000 0.250000
Si Si7 0.984453 0.174806 0.895628
Si Si8 0.053399 0.330037 0.070150
O O1 0.044208 0.932590 0.905114
O O2 0.328055 0.951830 0.824540
O O3 0.122368 0.816811 0.797069
O O4 0.985254 0.990920 0.793911
O O5 0.250000 0.113927 0.750000
O O6 0.559858 0.159120 0.679515
O O7 0.582786 0.070418 0.802838
O O8 0.984461 0.464805 0.914916
O O9 0.968462 0.281139 0.914114
O O10 0.289969 0.357869 0.894905
O O11 0.144252 0.369318 0.005703
O O12 0.954852 0.721708 0.562622
O O13 0.319136 0.654008 0.559611
O O14 0.090029 0.628032 0.462445
O O15 0.873184 0.615741 0.867138
#
# Coordination Sequence:
#
# PCOD9389564 Si02
#       8
#     8   8   8   8   8   2   8   8
#     4  10  18  28  47  76 104 135 162 219 263 308
#     4  10  18  32  46  75 106 130 172 218 261 301
#     4  10  19  32  52  75 106 135 177 209 260 310
#     4   9  19  33  51  76 109 131 171 212 271 307
#     4  10  17  32  48  75 104 132 174 213 259 307
#     4  12  16  28  52  76 110 138 176 218 276 326
#     4  10  20  34  50  77 106 137 173 217 259 317
#     4   9  18  33  52  77 101 137 168 218 260 314
#
# _framework density 27.59178
#
# number of rings (size 3 to 8) (size 9 to 14) (size 15 to 20)
#    0.000    2.207    4.828    2.069    0.000    1.103 
#    0.000    0.000    0.000    0.828    0.000    3.862 
#    0.000    0.000    0.000    0.000    0.000    0.000 
#
# Total GULP energy -323165.579520 kJ/mol
# GULP energy per Si atom -5571.820337 kJ/mol
# Density = 2.752898 g / cm^3
# Si number density = 27.591780 Si / 1000 Ang^3
#
#
#
# Elastic Constant Matrix: (Units=GPa)
#
#
# Indices 1 2 3 4 5 6 
#
# 1 67.6063 3.0670 4.7501 0.0000 0.0000 0.0000
# 2 3.0670 97.6428 33.3057 0.0000 0.0000 0.0000
# 3 4.7501 33.3057 158.0458 0.0000 0.0000 0.0000
# 4 0.0000 0.0000 0.0000 59.8184 0.0000 0.0000
# 5 0.0000 0.0000 0.0000 0.0000 29.4483 0.0000
# 6 0.0000 0.0000 0.0000 0.0000 0.0000 26.8061
#
#
#
# Elastic Compliance Matrix: (Units=1/GPa)
#
#
# Indices 1 2 3 4 5 6 
#
# 1 0.014833 -0.000338 -0.000375 0.000000 0.000000 0.000000
# 2 -0.000338 0.011042 -0.002317 0.000000 0.000000 0.000000
# 3 -0.000375 -0.002317 0.006827 0.000000 0.000000 0.000000
# 4 0.000000 0.000000 0.000000 0.016717 0.000000 0.000000
# 5 0.000000 0.000000 0.000000 0.000000 0.033958 0.000000
# 6 0.000000 0.000000 0.000000 0.000000 0.000000 0.037305
#
#
# Mechanical properties :
#
#
# Convention : Reuss Voigt Hill
#
# Bulk Modulus (GPa) = 37.53308 45.06007 41.29657
# Shear Modulus (GPa) = 36.86703 42.02601 39.44652
#
# Velocity S-wave (km/s) = 3.65932 3.90697 3.78517
# Velocity P-wave (km/s) = 5.61130 6.05962 5.83976
#
# Compressibility (1/GPa) = 0.02664316
#
# Stress axis : x y z
#
# Youngs Moduli (GPa) = 67.41640 90.56087 146.48207
#
# Poissons Ratio (x) = 0.03062 0.05487
# Poissons Ratio (y) = 0.02280 0.33937
# Poissons Ratio (z) = 0.02525 0.20981
#
# Static dielectric constant tensor:
#      x y z
#    x 2.419360 0.000000 0.000000 
#    y 0.000000 2.235750 0.000000 
#    z 0.000000 0.000000 2.291770 
# 
# From -- ./inp_files/31168.got.cif
#   From: 2010.05.17/outbox.cif.g08.bks.cpg/sg48_16_cif.got.tgz:31168.got - 2010.06.03 20:39:00.
