data_PCOD9389490
_publ_section_title
;
Structure prediction by ZEFSAII (Michael W. Deem and Ramdas Pophale) SiO2 
 PCOD9389490
Probable space group: P N N N
;
_chemical_formula_sum "Si O2"
_cell_formula_units_Z 36
_cell_length_a 11.517340
_cell_length_b 34.643464
_cell_length_c 5.328251
_cell_angle_alpha 90.000000
_cell_angle_beta 90.000000
_cell_angle_gamma 90.000000
_cell_volume 2125.975099
_symmetry_space_group_name_H-M "P N N N"
_symmetry_group_IT_number 48
_space_group.IT_coordinate_system_code '2'
_symmetry_cell_setting 'orthorhombic'
loop_
_space_group_symop_operation_xyz
x,y,z
1/2-x,1/2-y,z
x,1/2-y,1/2-z
1/2-x,y,1/2-z
-x,-y,-z
1/2+x,1/2+y,-z
-x,1/2+y,1/2+z
1/2+x,-y,1/2+z
loop_
_atom_site_type_symbol
_atom_site_label
_atom_site_fract_x
_atom_site_fract_y
_atom_site_fract_z
Si Si1 0.617140 0.733137 0.999311
Si Si2 0.250000 0.014182 0.750000
Si Si3 0.577602 0.037439 0.042305
Si Si4 0.032428 0.432729 0.562172
Si Si5 0.827264 0.643731 0.500491
O O1 0.750000 0.750000 0.999485
O O2 0.561028 0.750000 0.750000
O O3 0.623938 0.687179 0.994937
O O4 0.562066 0.750000 0.250000
O O5 0.352504 0.040782 0.630309
O O6 0.201625 0.983346 0.549298
O O7 0.548096 0.064867 0.809590
O O8 0.535647 0.053428 0.313101
O O9 0.500000 0.000000 0.000000
O O10 0.078622 0.389892 0.512509
O O11 0.750000 0.638378 0.750000
O O12 0.750000 0.640420 0.250000
#
# Coordination Sequence:
#
# PCOD9389490 Si02
#       5
#     8   4   8   8   8
#     4  10  16  28  42  64  92 122 170 185 209 284
#     4  10  20  36  56  64  93 130 161 206 260 272
#     4  10  22  36  49  71  92 120 165 212 243 293
#     4  11  23  34  48  74  96 121 172 202 237 295
#     4  12  20  30  47  66  97 135 159 194 236 271
#
# _framework density 16.933408
#
# number of rings (size 3 to 8) (size 9 to 14) (size 15 to 20)
#    0.000    1.333    5.556    4.000    3.111    4.444 
#    0.000    0.000    0.000    0.000    0.000    0.000 
#    0.000    0.000    0.000   15.000    0.000    2.889 
#
# Total GULP energy -200484.260826 kJ/mol
# GULP energy per Si atom -5569.007245 kJ/mol
# Density = 1.689487 g / cm^3
# Si number density = 16.933408 Si / 1000 Ang^3
#
#
#
# Elastic Constant Matrix: (Units=GPa)
#
#
# Indices 1 2 3 4 5 6 
#
# 1 23.6684 24.0359 9.0167 0.0000 0.0000 0.0000
# 2 24.0359 130.7996 33.2562 0.0000 0.0000 0.0000
# 3 9.0167 33.2562 142.3154 0.0000 0.0000 0.0000
# 4 0.0000 0.0000 0.0000 -232.5068 0.0000 0.0000
# 5 0.0000 0.0000 0.0000 0.0000 14.3789 0.0000
# 6 0.0000 0.0000 0.0000 0.0000 0.0000 17.3843
#
#
#
# Elastic Compliance Matrix: (Units=1/GPa)
#
#
# Indices 1 2 3 4 5 6 
#
# 1 0.052115 -0.009289 -0.001131 0.000000 0.000000 0.000000
# 2 -0.009289 0.009784 -0.001698 0.000000 0.000000 0.000000
# 3 -0.001131 -0.001698 0.007495 0.000000 0.000000 0.000000
# 4 0.000000 0.000000 0.000000 -0.004301 0.000000 0.000000
# 5 0.000000 0.000000 0.000000 0.000000 0.069546 0.000000
# 6 0.000000 0.000000 0.000000 0.000000 0.000000 0.057523
#
#
# Mechanical properties :
#
#
# Convention : Reuss Voigt Hill
#
# Bulk Modulus (GPa) = 22.14469 47.71124 34.92797
# Shear Modulus (GPa) = 21.60286 -24.78376 -1.59045
#
# Velocity S-wave (km/s) = 3.57564 -3.82985 -0.97019
# Velocity P-wave (km/s) = 5.49116 2.94617 4.40640
#
# Compressibility (1/GPa) = 0.04515755
#
# Stress axis : x y z
#
# Youngs Moduli (GPa) = 19.18848 102.20851 133.42136
#
# Poissons Ratio (x) = 0.94942 0.15092
# Poissons Ratio (y) = 0.17824 0.22652
# Poissons Ratio (z) = 0.02171 0.17353
#
# Static dielectric constant tensor:
#      x y z
#    x 1.280320 0.000000 0.000000 
#    y 0.000000 1.555320 0.000000 
#    z 0.000000 0.000000 1.609630 
# 
# From -- ./inp_files/2523.got.cif
#   From: 2010.05.17/outbox.cif.g08.bks.cpg/sg48_2_cif.got.tgz:2523.got - 2010.06.03 20:39:00.
