data_PCOD9389683
_publ_section_title
;
Structure prediction by ZEFSAII (Michael W. Deem and Ramdas Pophale) SiO2 
 PCOD9389683
Probable space group: P N N N
;
_chemical_formula_sum "Si O2"
_cell_formula_units_Z 54
_cell_length_a 17.458792
_cell_length_b 11.537600
_cell_length_c 14.090252
_cell_angle_alpha 90.000000
_cell_angle_beta 90.000000
_cell_angle_gamma 90.000000
_cell_volume 2838.235511
_symmetry_space_group_name_H-M "P N N N"
_symmetry_group_IT_number 48
_space_group.IT_coordinate_system_code '2'
_symmetry_cell_setting 'orthorhombic'
loop_
_space_group_symop_operation_xyz
x,y,z
1/2-x,1/2-y,z
x,1/2-y,1/2-z
1/2-x,y,1/2-z
-x,-y,-z
1/2+x,1/2+y,-z
-x,1/2+y,1/2+z
1/2+x,-y,1/2+z
loop_
_atom_site_type_symbol
_atom_site_label
_atom_site_fract_x
_atom_site_fract_y
_atom_site_fract_z
Si Si1 0.504758 0.767505 0.857819
Si Si2 0.943794 0.895126 0.472289
Si Si3 0.396439 0.608284 0.982878
Si Si4 0.865007 0.924678 0.161414
Si Si5 0.750000 0.250000 0.432064
Si Si6 0.978337 0.199313 0.843160
Si Si7 0.250000 0.250000 0.750000
Si Si8 0.641747 0.435869 0.344882
O O1 0.532195 0.750000 0.750000
O O2 0.461528 0.660015 0.910460
O O3 0.435102 0.859314 0.848508
O O4 0.566646 0.821614 0.930814
O O5 0.990278 0.807299 0.404781
O O6 0.873906 0.954650 0.415154
O O7 0.000000 0.000000 0.500000
O O8 0.372400 0.484212 0.940921
O O9 0.322335 0.692052 0.984284
O O10 0.431194 0.616565 0.087355
O O11 0.802175 0.827896 0.181371
O O12 0.946583 0.870181 0.188386
O O13 0.847750 0.022568 0.238418
O O14 0.711077 0.354397 0.374803
O O15 0.937987 0.250000 0.750000
#
# Coordination Sequence:
#
# PCOD9389683 Si02
#       8
#     8   8   8   8   4   8   2   8
#     4   9  16  30  51  82 111 143 192 240 291 353
#     4   9  18  32  53  78 112 152 190 235 294 347
#     4  10  22  35  56  81 113 159 194 246 295 349
#     4  12  21  36  53  82 121 155 196 234 307 365
#     4  10  22  37  55  86 120 150 207 238 291 362
#     4  11  21  38  58  84 117 152 201 245 289 357
#     4  12  24  32  52  82 116 166 194 236 308 386
#     4  10  18  32  52  79 116 158 185 236 294 360
#
# _framework density 19.025905999999999
#
# number of rings (size 3 to 8) (size 9 to 14) (size 15 to 20)
#    0.000    1.778    3.704    2.222    0.000    0.593 
#    0.000    0.370    0.000    0.000    0.000    0.000 
#    0.000    0.000    0.000    0.000    0.000    0.000 
#
# Total GULP energy -301207.371753 kJ/mol
# GULP energy per Si atom -5577.914292 kJ/mol
# Density = 1.898260 g / cm^3
# Si number density = 19.025906 Si / 1000 Ang^3
#
#
#
# Elastic Constant Matrix: (Units=GPa)
#
#
# Indices 1 2 3 4 5 6 
#
# 1 58.9130 20.9558 26.4475 0.0000 0.0000 0.0000
# 2 20.9558 65.6892 28.9621 0.0000 0.0000 0.0000
# 3 26.4475 28.9621 128.8061 0.0000 0.0000 0.0000
# 4 0.0000 0.0000 0.0000 12.8961 0.0000 0.0000
# 5 0.0000 0.0000 0.0000 0.0000 14.3314 0.0000
# 6 0.0000 0.0000 0.0000 0.0000 0.0000 21.2229
#
#
#
# Elastic Compliance Matrix: (Units=1/GPa)
#
#
# Indices 1 2 3 4 5 6 
#
# 1 0.020130 -0.005106 -0.002985 0.000000 0.000000 0.000000
# 2 -0.005106 0.018193 -0.003042 0.000000 0.000000 0.000000
# 3 -0.002985 -0.003042 0.009061 0.000000 0.000000 0.000000
# 4 0.000000 0.000000 0.000000 0.077543 0.000000 0.000000
# 5 0.000000 0.000000 0.000000 0.000000 0.069777 0.000000
# 6 0.000000 0.000000 0.000000 0.000000 0.000000 0.047119
#
#
# Mechanical properties :
#
#
# Convention : Reuss Voigt Hill
#
# Bulk Modulus (GPa) = 39.81273 45.12659 42.46966
# Shear Modulus (GPa) = 18.35116 21.49295 19.92206
#
# Velocity S-wave (km/s) = 3.10907 3.36470 3.23941
# Velocity P-wave (km/s) = 5.81888 6.23417 6.03010
#
# Compressibility (1/GPa) = 0.02511760
#
# Stress axis : x y z
#
# Youngs Moduli (GPa) = 49.67588 54.96501 110.36708
#
# Poissons Ratio (x) = 0.28063 0.32948
# Poissons Ratio (y) = 0.25363 0.33579
# Poissons Ratio (z) = 0.14830 0.16723
#
# Static dielectric constant tensor:
#      x y z
#    x 1.847790 0.000000 0.000000 
#    y 0.000000 2.071820 0.000000 
#    z 0.000000 0.000000 1.679520 
# 
# From -- ./inp_files/27346.got.cif
#   From: 2010.05.17/outbox.cif.g08.bks.cpg/sg48_14_cif.got.tgz:27346.got - 2010.06.03 20:39:00.
