data_PCOD9389303
_publ_section_title
;
Structure prediction by ZEFSAII (Michael W. Deem and Ramdas Pophale) SiO2 
 PCOD9389303
Probable space group: P M M M
;
_chemical_formula_sum "Si O2"
_cell_formula_units_Z 44
_cell_length_a 21.000000
_cell_length_b 15.000000
_cell_length_c 9.000000
_cell_angle_alpha 90.000000
_cell_angle_beta 90.000000
_cell_angle_gamma 90.000000
_cell_volume 2835.000000
_symmetry_space_group_name_H-M "P M M M"
_symmetry_group_IT_number 47
_symmetry_cell_setting 'orthorhombic'
loop_
_space_group_symop_operation_xyz
x,y,z
-x,-y,z
x,-y,-z
-x,y,-z
-x,-y,-z
x,y,-z
-x,y,z
x,-y,z
loop_
_atom_site_type_symbol
_atom_site_label
_atom_site_fract_x
_atom_site_fract_y
_atom_site_fract_z
Si Si1 0.929736 0.391955 0.827328
Si Si2 0.632329 0.102137 0.178621
Si Si3 0.200496 0.395537 0.322999
Si Si4 0.686747 0.284971 0.822423
Si Si5 0.500000 0.107861 0.332860
Si Si6 0.426334 0.605696 0.677297
O O1 0.931249 0.500000 0.823333
O O2 0.869399 0.365637 0.730521
O O3 0.000000 0.361048 0.778255
O O4 0.920773 0.366595 0.000000
O O5 0.681159 0.180382 0.219239
O O6 0.564467 0.129933 0.247342
O O7 0.647160 0.000000 0.225669
O O8 0.626375 0.101289 0.000000
O O9 0.205211 0.391369 0.500000
O O10 0.209298 0.500000 0.279021
O O11 0.253906 0.334960 0.249493
O O12 0.623533 0.335181 0.765609
O O13 0.690460 0.291147 0.000000
O O14 0.500000 0.144676 0.500000
O O15 0.500000 0.000000 0.341583
O O16 0.417415 0.618481 0.500000
O O17 0.500000 0.626882 0.712536
O O18 0.416431 0.500000 0.706798
#
# Coordination Sequence:
#
# PCOD9389303 Si02
#       6
#     8   8   8   8   4   8
#     4   8  14  26  45  68  94 124 156 189 222 255
#     4   9  19  35  50  64  87 116 144 181 232 286
#     4  10  20  32  46  66  95 129 159 187 223 267
#     4  11  22  32  47  68  88 115 153 192 230 272
#     4   9  17  29  47  69  86 103 134 177 225 276
#     4   9  19  35  50  63  84 116 150 185 229 275
#
# _framework density 15.520282
#
# number of rings (size 3 to 8) (size 9 to 14) (size 15 to 20)
#    0.000    2.636    0.000    3.000    1.273    6.909 
#    0.000    2.727    0.000    0.000    0.000    0.000 
#    0.000    0.727    0.000    8.364    0.000    2.727 
#
# Total GULP energy -245272.506114 kJ/mol
# GULP energy per Si atom -5574.375139 kJ/mol
# Density = 1.548496 g / cm^3
# Si number density = 15.520282 Si / 1000 Ang^3
#
#
#
# Elastic Constant Matrix: (Units=GPa)
#
#
# Indices 1 2 3 4 5 6 
#
# 1 109.4935 68.5219 46.8150 0.0000 0.0000 0.0000
# 2 68.5219 75.3490 39.6437 0.0000 0.0000 0.0000
# 3 46.8150 39.6437 33.8876 0.0000 0.0000 0.0000
# 4 0.0000 0.0000 0.0000 12.6396 0.0000 0.0000
# 5 0.0000 0.0000 0.0000 0.0000 38.7999 0.0000
# 6 0.0000 0.0000 0.0000 0.0000 0.0000 5.9071
#
#
#
# Elastic Compliance Matrix: (Units=1/GPa)
#
#
# Indices 1 2 3 4 5 6 
#
# 1 0.026117 -0.012400 -0.021574 0.000000 0.000000 0.000000
# 2 -0.012400 0.040404 -0.030137 0.000000 0.000000 0.000000
# 3 -0.021574 -0.030137 0.094569 0.000000 0.000000 0.000000
# 4 0.000000 0.000000 0.000000 0.079117 0.000000 0.000000
# 5 0.000000 0.000000 0.000000 0.000000 0.025773 0.000000
# 6 0.000000 0.000000 0.000000 0.000000 0.000000 0.169289
#
#
# Mechanical properties :
#
#
# Convention : Reuss Voigt Hill
#
# Bulk Modulus (GPa) = 30.42404 58.74348 44.58376
# Shear Modulus (GPa) = 8.70403 15.71928 12.21166
#
# Velocity S-wave (km/s) = 2.37073 3.18594 2.80807
# Velocity P-wave (km/s) = 5.20952 7.17393 6.26915
#
# Compressibility (1/GPa) = 0.03286874
#
# Stress axis : x y z
#
# Youngs Moduli (GPa) = 38.28911 24.75011 10.57427
#
# Poissons Ratio (x) = 0.30690 0.22813
# Poissons Ratio (y) = 0.47478 0.31867
# Poissons Ratio (z) = 0.82605 0.74589
#
# Static dielectric constant tensor:
#      x y z
#    x 1.511030 0.000000 0.000000 
#    y 0.000000 1.526690 0.000000 
#    z 0.000000 0.000000 1.519490 
# 
# From -- ./inp_files/10875.got.cif
#   From: 2010.05.17/outbox.ucp.g08.bks.cvg/sg47_6_cif.got.tgz:10875.got - 2010.06.11 16:36:43.
