data_PCOD9389707
_publ_section_title
;
Structure prediction by ZEFSAII (Michael W. Deem and Ramdas Pophale) SiO2 
 PCOD9389707
Probable space group: P N N N
;
_chemical_formula_sum "Si O2"
_cell_formula_units_Z 64
_cell_length_a 20.541483
_cell_length_b 9.120418
_cell_length_c 16.505764
_cell_angle_alpha 90.000000
_cell_angle_beta 90.000000
_cell_angle_gamma 90.000000
_cell_volume 3092.303904
_symmetry_space_group_name_H-M "P N N N"
_symmetry_group_IT_number 48
_space_group.IT_coordinate_system_code '2'
_symmetry_cell_setting 'orthorhombic'
loop_
_space_group_symop_operation_xyz
x,y,z
1/2-x,1/2-y,z
x,1/2-y,1/2-z
1/2-x,y,1/2-z
-x,-y,-z
1/2+x,1/2+y,-z
-x,1/2+y,1/2+z
1/2+x,-y,1/2+z
loop_
_atom_site_type_symbol
_atom_site_label
_atom_site_fract_x
_atom_site_fract_y
_atom_site_fract_z
Si Si1 0.614352 0.939130 0.398798
Si Si2 0.618904 0.547265 0.914196
Si Si3 0.091454 0.110184 0.426451
Si Si4 0.347658 0.351015 0.672322
Si Si5 0.261078 0.424455 0.448328
Si Si6 0.257699 0.577624 0.878741
Si Si7 0.019402 0.659577 0.333901
Si Si8 0.473873 0.059867 0.900339
O O1 0.605579 0.992444 0.490967
O O2 0.646583 0.774137 0.398595
O O3 0.548059 0.926395 0.349385
O O4 0.668273 0.038985 0.357906
O O5 0.596797 0.716384 0.913673
O O6 0.696318 0.536350 0.897758
O O7 0.578478 0.446139 0.854096
O O8 0.165728 0.055189 0.414474
O O9 0.065827 0.052086 0.514925
O O10 0.029398 0.054244 0.376187
O O11 0.340648 0.250000 0.750000
O O12 0.291741 0.469843 0.666695
O O13 0.417094 0.429242 0.665660
O O14 0.250000 0.250000 0.465631
O O15 0.254645 0.523081 0.528820
O O16 0.250000 0.750000 0.868670
O O17 0.023544 0.750000 0.250000
O O18 0.012424 0.786306 0.401963
#
# Coordination Sequence:
#
# PCOD9389707 Si02
#       8
#     8   8   8   8   8   8   8   8
#     4  10  20  37  60  84 120 169 220 252 306 397
#     4  10  19  36  62  91 122 165 213 263 313 382
#     4  10  18  33  62  94 126 149 206 271 320 375
#     4  11  21  39  60  79 122 184 218 243 310 406
#     4   9  18  37  61  91 129 164 209 252 319 398
#     4  11  22  34  55  93 126 160 211 272 311 360
#     4  11  23  39  58  87 124 165 221 259 320 394
#     4  10  20  34  59  91 119 160 207 260 325 372
#
# _framework density 20.696542000000001
#
# number of rings (size 3 to 8) (size 9 to 14) (size 15 to 20)
#    0.000    1.750    3.750    3.750    0.000    4.500 
#    0.000    1.875    0.000    8.250    0.000    2.625 
#    0.000    0.000    0.000    0.000    0.000    0.000 
#
# Total GULP energy -356678.673611 kJ/mol
# GULP energy per Si atom -5573.104275 kJ/mol
# Density = 2.064944 g / cm^3
# Si number density = 20.696542 Si / 1000 Ang^3
#
#
#
# Elastic Constant Matrix: (Units=GPa)
#
#
# Indices 1 2 3 4 5 6 
#
# 1 214.0074 100.8725 43.6241 0.0000 0.0000 0.0000
# 2 100.8725 78.6464 34.2438 0.0000 0.0000 0.0000
# 3 43.6241 34.2438 38.4148 0.0000 0.0000 0.0000
# 4 0.0000 0.0000 0.0000 20.2665 0.0000 0.0000
# 5 0.0000 0.0000 0.0000 0.0000 19.4108 0.0000
# 6 0.0000 0.0000 0.0000 0.0000 0.0000 43.0859
#
#
#
# Elastic Compliance Matrix: (Units=1/GPa)
#
#
# Indices 1 2 3 4 5 6 
#
# 1 0.011817 -0.015222 0.000149 0.000000 0.000000 0.000000
# 2 -0.015222 0.040388 -0.018717 0.000000 0.000000 0.000000
# 3 0.000149 -0.018717 0.042547 0.000000 0.000000 0.000000
# 4 0.000000 0.000000 0.000000 0.049342 0.000000 0.000000
# 5 0.000000 0.000000 0.000000 0.000000 0.051518 0.000000
# 6 0.000000 0.000000 0.000000 0.000000 0.000000 0.023209
#
#
# Mechanical properties :
#
#
# Convention : Reuss Voigt Hill
#
# Bulk Modulus (GPa) = 36.80084 76.50551 56.65317
# Shear Modulus (GPa) = 16.92287 26.70787 21.81537
#
# Velocity S-wave (km/s) = 2.86259 3.59618 3.25015
# Velocity P-wave (km/s) = 5.36150 7.36810 6.44339
#
# Compressibility (1/GPa) = 0.02717329
#
# Stress axis : x y z
#
# Youngs Moduli (GPa) = 84.62388 24.75967 23.50351
#
# Poissons Ratio (x) = 0.37688 -0.00351
# Poissons Ratio (y) = 1.28811 0.43992
# Poissons Ratio (z) = -0.01265 0.46343
#
# Static dielectric constant tensor:
#      x y z
#    x 1.791980 0.000000 0.000000 
#    y 0.000000 1.768700 0.000000 
#    z 0.000000 0.000000 1.868420 
# 
# From -- ./inp_files/32225.got.cif
#   From: 2010.05.17/outbox.cif.g08.bks.cpg/sg48_17_cif.got.tgz:32225.got - 2010.06.03 20:39:00.
