data_PCOD9389448
_publ_section_title
;
Structure prediction by ZEFSAII (Michael W. Deem and Ramdas Pophale) SiO2 
 PCOD9389448
Probable space group: P M M M
;
_chemical_formula_sum "Si O2"
_cell_formula_units_Z 64
_cell_length_a 9.000000
_cell_length_b 15.000000
_cell_length_c 24.000000
_cell_angle_alpha 90.000000
_cell_angle_beta 90.000000
_cell_angle_gamma 90.000000
_cell_volume 3240.000000
_symmetry_space_group_name_H-M "P M M M"
_symmetry_group_IT_number 47
_symmetry_cell_setting 'orthorhombic'
loop_
_space_group_symop_operation_xyz
x,y,z
-x,-y,z
x,-y,-z
-x,y,-z
-x,-y,-z
x,y,-z
-x,y,z
x,-y,z
loop_
_atom_site_type_symbol
_atom_site_label
_atom_site_fract_x
_atom_site_fract_y
_atom_site_fract_z
Si Si1 0.676180 0.404077 0.293742
Si Si2 0.168614 0.845562 0.833024
Si Si3 0.175128 0.231292 0.342817
Si Si4 0.334038 0.900427 0.734804
Si Si5 0.829714 0.607232 0.062477
Si Si6 0.673925 0.666178 0.826909
Si Si7 0.180936 0.900392 0.435772
Si Si8 0.334204 0.892635 0.936098
O O1 0.500000 0.399850 0.303530
O O2 0.734237 0.500000 0.312190
O O3 0.750110 0.322818 0.325559
O O4 0.694703 0.396072 0.226772
O O5 0.285963 0.903688 0.798893
O O6 0.213165 0.746532 0.816044
O O7 0.207347 0.854301 0.897549
O O8 0.000000 0.869332 0.821103
O O9 0.214307 0.160028 0.295177
O O10 0.233505 0.180664 0.397793
O O11 0.000000 0.244100 0.347421
O O12 0.500000 0.862497 0.728841
O O13 0.332909 0.000000 0.712247
O O14 0.834707 0.500000 0.060528
O O15 0.720022 0.631074 0.112523
O O16 0.000000 0.637962 0.074043
O O17 0.787365 0.638270 0.000000
O O18 0.500000 0.692858 0.827080
O O19 0.223373 0.889664 0.500000
O O20 0.000000 0.900244 0.433229
O O21 0.228066 0.000000 0.417433
O O22 0.500000 0.864709 0.917372
O O23 0.328772 0.000000 0.933816
O O24 0.317155 0.866159 0.000000
#
# Coordination Sequence:
#
# PCOD9389448 Si02
#       8
#     8   8   8   8   8   8   8   8
#     4  10  22  40  60  81 111 154 199 244 298 356
#     4  12  24  36  53  78 107 138 177 229 285 337
#     4  11  21  34  58  91 121 152 196 245 291 340
#     4  11  23  38  56  79 113 156 192 227 279 340
#     4   9  19  36  56  78 105 135 169 219 286 352
#     4  11  22  37  57  78 104 140 184 232 286 348
#     4   8  15  30  54  87 128 168 201 237 284 336
#     4   9  19  37  58  76  97 132 178 224 274 337
#
# _framework density 19.753086
#
# number of rings (size 3 to 8) (size 9 to 14) (size 15 to 20)
#    0.000    1.875    1.250    4.500    0.000    5.750 
#    0.000    1.250    0.000    1.875    0.000    7.000 
#    0.000    0.000    0.000    0.000    0.000    0.000 
#
# Total GULP energy -356907.501280 kJ/mol
# GULP energy per Si atom -5576.679708 kJ/mol
# Density = 1.970813 g / cm^3
# Si number density = 19.753086 Si / 1000 Ang^3
#
#
#
# Elastic Constant Matrix: (Units=GPa)
#
#
# Indices 1 2 3 4 5 6 
#
# 1 31.7570 19.6022 26.0160 0.0000 0.0000 0.0000
# 2 19.6022 102.2076 44.8183 0.0000 0.0000 0.0000
# 3 26.0160 44.8183 92.8637 0.0000 0.0000 0.0000
# 4 0.0000 0.0000 0.0000 22.5433 0.0000 0.0000
# 5 0.0000 0.0000 0.0000 0.0000 -93.7300 0.0000
# 6 0.0000 0.0000 0.0000 0.0000 0.0000 31.7718
#
#
#
# Elastic Compliance Matrix: (Units=1/GPa)
#
#
# Indices 1 2 3 4 5 6 
#
# 1 0.041925 -0.003666 -0.009976 0.000000 0.000000 0.000000
# 2 -0.003666 0.012731 -0.005117 0.000000 0.000000 0.000000
# 3 -0.009976 -0.005117 0.016033 0.000000 0.000000 0.000000
# 4 0.000000 0.000000 0.000000 0.044359 0.000000 0.000000
# 5 0.000000 0.000000 0.000000 0.000000 -0.010669 0.000000
# 6 0.000000 0.000000 0.000000 0.000000 0.000000 0.031474
#
#
# Mechanical properties :
#
#
# Convention : Reuss Voigt Hill
#
# Bulk Modulus (GPa) = 30.14777 45.30015 37.72396
# Shear Modulus (GPa) = 27.11081 1.20981 14.16031
#
# Velocity S-wave (km/s) = 3.70873 0.78345 2.68034
# Velocity P-wave (km/s) = 5.79957 4.87867 5.35893
#
# Compressibility (1/GPa) = 0.03316995
#
# Stress axis : x y z
#
# Youngs Moduli (GPa) = 23.85238 78.54810 62.37164
#
# Poissons Ratio (x) = 0.28797 0.62221
# Poissons Ratio (y) = 0.08745 0.31917
# Poissons Ratio (z) = 0.23795 0.40195
#
# Static dielectric constant tensor:
#      x y z
#    x 1.669540 0.000000 0.000000 
#    y 0.000000 1.755590 0.000000 
#    z 0.000000 0.000000 1.742600 
# 
# From -- ./inp_files/25555.got.cif
#   From: 2010.05.17/outbox.ucp.g08.bks.cvg/sg47_13_cif.got.tgz:25555.got - 2010.06.11 16:36:43.
