data_PCOD9389001
_publ_section_title
;
Structure prediction by ZEFSAII (Michael W. Deem and Ramdas Pophale) SiO2 
 PCOD9389001
Probable space group: P M M M
;
_chemical_formula_sum "Si O2"
_cell_formula_units_Z 48
_cell_length_a 7.508800
_cell_length_b 9.815700
_cell_length_c 32.251913
_cell_angle_alpha 90.000000
_cell_angle_beta 90.000000
_cell_angle_gamma 90.000000
_cell_volume 2377.099129
_symmetry_space_group_name_H-M "P M M M"
_symmetry_group_IT_number 47
_symmetry_cell_setting 'orthorhombic'
loop_
_space_group_symop_operation_xyz
x,y,z
-x,-y,z
x,-y,-z
-x,y,-z
-x,-y,-z
x,y,-z
-x,y,z
x,-y,z
loop_
_atom_site_type_symbol
_atom_site_label
_atom_site_fract_x
_atom_site_fract_y
_atom_site_fract_z
Si Si1 0.713099 0.155392 0.801950
Si Si2 0.281807 0.343389 0.122755
Si Si3 0.285937 0.341387 0.455429
Si Si4 0.213716 0.154738 0.291749
Si Si5 0.788648 0.654705 0.364756
Si Si6 0.282977 0.155575 0.952858
O O1 0.500000 0.147966 0.806710
O O2 0.778015 0.257937 0.837127
O O3 0.749450 0.202193 0.755054
O O4 0.782110 0.000000 0.806497
O O5 0.500000 0.343978 0.122862
O O6 0.224363 0.500000 0.123431
O O7 0.224789 0.262555 0.081575
O O8 0.225258 0.283052 0.500000
O O9 0.500000 0.341763 0.456189
O O10 0.225992 0.500000 0.454705
O O11 0.234458 0.283442 0.410827
O O12 0.283488 0.252552 0.327805
O O13 0.000000 0.148480 0.296099
O O14 0.282559 0.000000 0.295450
O O15 0.715128 0.500000 0.364397
O O16 0.000000 0.643591 0.358311
O O17 0.500000 0.156360 0.952754
O O18 0.229442 0.000000 0.942788
O O19 0.226863 0.186404 0.000000
#
# Coordination Sequence:
#
# PCOD9389001 Si02
#       6
#     8   8   8   8   8   8
#     4   9  17  29  44  60  79 106 139 171 204 246
#     4   9  16  24  35  54  80 107 135 171 213 251
#     4   8  14  25  41  62  88 115 141 170 205 244
#     4   9  18  32  47  62  83 111 140 171 209 251
#     4   9  17  28  43  64  86 107 135 172 210 245
#     4   8  13  21  33  49  72 106 144 175 205 246
#
# _framework density 20.192678999999998
#
# number of rings (size 3 to 8) (size 9 to 14) (size 15 to 20)
#    0.000    3.333    0.000    1.500    0.000    4.000 
#    0.000    3.333    0.000    0.500    0.000    3.500 
#    0.000    0.667    0.000    7.667    0.000    9.833 
#
# Total GULP energy -267510.817114 kJ/mol
# GULP energy per Si atom -5573.142023 kJ/mol
# Density = 2.014672 g / cm^3
# Si number density = 20.192679 Si / 1000 Ang^3
#
#
#
# Elastic Constant Matrix: (Units=GPa)
#
#
# Indices 1 2 3 4 5 6 
#
# 1 51.5628 4.9742 0.3319 0.0000 0.0000 0.0000
# 2 4.9742 103.1966 124.9751 0.0000 0.0000 0.0000
# 3 0.3319 124.9751 223.0565 0.0000 0.0000 0.0000
# 4 0.0000 0.0000 0.0000 39.6516 0.0000 0.0000
# 5 0.0000 0.0000 0.0000 0.0000 25.5083 0.0000
# 6 0.0000 0.0000 0.0000 0.0000 0.0000 -1.7156
#
#
#
# Elastic Compliance Matrix: (Units=1/GPa)
#
#
# Indices 1 2 3 4 5 6 
#
# 1 0.019658 -0.002837 0.001560 0.000000 0.000000 0.000000
# 2 -0.002837 0.030553 -0.017114 0.000000 0.000000 0.000000
# 3 0.001560 -0.017114 0.014070 0.000000 0.000000 0.000000
# 4 0.000000 0.000000 0.000000 0.025220 0.000000 0.000000
# 5 0.000000 0.000000 0.000000 0.000000 0.039203 0.000000
# 6 0.000000 0.000000 0.000000 0.000000 0.000000 -0.582893
#
#
# Mechanical properties :
#
#
# Convention : Reuss Voigt Hill
#
# Bulk Modulus (GPa) = 36.36613 70.93092 53.64853
# Shear Modulus (GPa) = -12.24759 29.19118 8.47179
#
# Velocity S-wave (km/s) = -2.46547 3.80627 2.05051
# Velocity P-wave (km/s) = 3.15340 7.38378 5.67733
#
# Compressibility (1/GPa) = 0.02749811
#
# Stress axis : x y z
#
# Youngs Moduli (GPa) = 50.87116 32.73038 71.07558
#
# Poissons Ratio (x) = 0.09286 -0.11091
# Poissons Ratio (y) = 0.14433 1.21638
# Poissons Ratio (z) = -0.07938 0.56015
#
# Static dielectric constant tensor:
#      x y z
#    x 1.766320 0.000000 0.000000 
#    y 0.000000 1.697720 0.000000 
#    z 0.000000 0.000000 1.723050 
# 
# From -- ./inp_files/4334.got.cif
#   From: 2010.05.17/outbox.cif.g08.bks.cpg/sg47_3_cif.got.tgz:4334.got - 2010.06.03 20:15:42.
