data_PCOD9389392
_publ_section_title
;
Structure prediction by ZEFSAII (Michael W. Deem and Ramdas Pophale) SiO2 
 PCOD9389392
Probable space group: P M M M
;
_chemical_formula_sum "Si O2"
_cell_formula_units_Z 48
_cell_length_a 18.000000
_cell_length_b 9.000000
_cell_length_c 15.000000
_cell_angle_alpha 90.000000
_cell_angle_beta 90.000000
_cell_angle_gamma 90.000000
_cell_volume 2430.000000
_symmetry_space_group_name_H-M "P M M M"
_symmetry_group_IT_number 47
_symmetry_cell_setting 'orthorhombic'
loop_
_space_group_symop_operation_xyz
x,y,z
-x,-y,z
x,-y,-z
-x,y,-z
-x,-y,-z
x,y,-z
-x,y,z
x,-y,z
loop_
_atom_site_type_symbol
_atom_site_label
_atom_site_fract_x
_atom_site_fract_y
_atom_site_fract_z
Si Si1 0.583065 0.819112 0.500000
Si Si2 0.697894 0.177090 0.352683
Si Si3 0.086201 0.833974 0.000000
Si Si4 0.669803 0.327888 0.165701
Si Si5 0.163795 0.658291 0.142914
Si Si6 0.000000 0.163764 0.605332
Si Si7 0.412959 0.673074 0.000000
Si Si8 0.151509 0.668790 0.644664
O O1 0.500000 0.761649 0.500000
O O2 0.630502 0.774747 0.585098
O O3 0.580225 0.000000 0.500000
O O4 0.679233 0.234376 0.254480
O O5 0.775271 0.245768 0.386665
O O6 0.704947 0.000000 0.353907
O O7 0.117676 0.774520 0.091290
O O8 0.000000 0.810946 0.000000
O O9 0.108699 0.000000 0.000000
O O10 0.650912 0.500000 0.189106
O O11 0.750109 0.330982 0.119431
O O12 0.615104 0.262268 0.092621
O O13 0.134166 0.500000 0.113085
O O14 0.159479 0.665520 0.248534
O O15 0.925384 0.251143 0.626895
O O16 0.000000 0.147532 0.500000
O O17 0.000000 0.000000 0.647844
O O18 0.385807 0.500000 0.000000
O O19 0.500000 0.670943 0.000000
O O20 0.150621 0.500000 0.611577
#
# Coordination Sequence:
#
# PCOD9389392 Si02
#       8
#     4   8   4   8   8   4   4   8
#     4   9  20  38  59  84 117 156 193 231 282 349
#     4  10  20  36  60  86 113 150 196 240 290 347
#     4  11  24  35  47  75 108 137 176 228 281 319
#     4   9  18  35  56  80 110 144 186 231 279 338
#     4   9  19  36  56  75 101 144 188 224 270 331
#     4  11  25  41  59  86 119 152 189 231 282 341
#     4   9  17  30  53  83 114 149 186 230 288 350
#     4  10  22  40  61  86 115 150 192 238 288 337
#
# _framework density 19.753086
#
# number of rings (size 3 to 8) (size 9 to 14) (size 15 to 20)
#    0.000    2.333    0.000    3.000    2.333    6.667 
#    0.000    1.667    0.000    4.000    0.000    0.000 
#    0.000    0.000    0.000    0.000    0.000    0.000 
#
# Total GULP energy -267267.032900 kJ/mol
# GULP energy per Si atom -5568.063185 kJ/mol
# Density = 1.970813 g / cm^3
# Si number density = 19.753086 Si / 1000 Ang^3
#
#
#
# Elastic Constant Matrix: (Units=GPa)
#
#
# Indices 1 2 3 4 5 6 
#
# 1 147.4175 65.9612 62.6075 0.0000 0.0000 0.0000
# 2 65.9612 91.9337 39.0342 0.0000 0.0000 0.0000
# 3 62.6075 39.0342 61.8486 0.0000 0.0000 0.0000
# 4 0.0000 0.0000 0.0000 61.6009 0.0000 0.0000
# 5 0.0000 0.0000 0.0000 0.0000 33.7489 0.0000
# 6 0.0000 0.0000 0.0000 0.0000 0.0000 14.6415
#
#
#
# Elastic Compliance Matrix: (Units=1/GPa)
#
#
# Indices 1 2 3 4 5 6 
#
# 1 0.013578 -0.005336 -0.010377 0.000000 0.000000 0.000000
# 2 -0.005336 0.016956 -0.005300 0.000000 0.000000 0.000000
# 3 -0.010377 -0.005300 0.030018 0.000000 0.000000 0.000000
# 4 0.000000 0.000000 0.000000 0.016234 0.000000 0.000000
# 5 0.000000 0.000000 0.000000 0.000000 0.029631 0.000000
# 6 0.000000 0.000000 0.000000 0.000000 0.000000 0.068299
#
#
# Mechanical properties :
#
#
# Convention : Reuss Voigt Hill
#
# Bulk Modulus (GPa) = 53.97794 70.71173 62.34483
# Shear Modulus (GPa) = 22.42991 30.90473 26.66732
#
# Velocity S-wave (km/s) = 3.37339 3.95973 3.67827
# Velocity P-wave (km/s) = 6.52370 7.53535 7.04770
#
# Compressibility (1/GPa) = 0.01852609
#
# Stress axis : x y z
#
# Youngs Moduli (GPa) = 73.64791 58.97500 33.31366
#
# Poissons Ratio (x) = 0.31470 0.34569
# Poissons Ratio (y) = 0.39300 0.17656
# Poissons Ratio (z) = 0.76424 0.31256
#
# Static dielectric constant tensor:
#      x y z
#    x 1.641010 0.000000 0.000000 
#    y 0.000000 1.722770 0.000000 
#    z 0.000000 0.000000 1.683130 
# 
# From -- ./inp_files/21181.got.cif
#   From: 2010.05.17/outbox.ucp.g08.bks.cvg/sg47_11_cif.got.tgz:21181.got - 2010.06.11 16:36:43.
