data_PCOD9389879
_publ_section_title
;
Structure prediction by ZEFSAII (Michael W. Deem and Ramdas Pophale) SiO2 
 PCOD9389879
Probable space group: P N N N
;
_chemical_formula_sum "Si O2"
_cell_formula_units_Z 48
_cell_length_a 26.675932
_cell_length_b 5.774592
_cell_length_c 14.518410
_cell_angle_alpha 90.000000
_cell_angle_beta 90.000000
_cell_angle_gamma 90.000000
_cell_volume 2236.453966
_symmetry_space_group_name_H-M "P N N N"
_symmetry_group_IT_number 48
_space_group.IT_coordinate_system_code '2'
_symmetry_cell_setting 'orthorhombic'
loop_
_space_group_symop_operation_xyz
x,y,z
1/2-x,1/2-y,z
x,1/2-y,1/2-z
1/2-x,y,1/2-z
-x,-y,-z
1/2+x,1/2+y,-z
-x,1/2+y,1/2+z
1/2+x,-y,1/2+z
loop_
_atom_site_type_symbol
_atom_site_label
_atom_site_fract_x
_atom_site_fract_y
_atom_site_fract_z
Si Si1 0.250000 0.250000 0.879225
Si Si2 0.520795 0.750000 0.250000
Si Si3 0.534306 0.618159 0.847099
Si Si4 0.156996 0.977796 0.886083
Si Si5 0.113403 0.162421 0.474368
Si Si6 0.295286 0.615730 0.474635
Si Si7 0.432179 0.860316 0.876993
O O1 0.204597 0.097283 0.832947
O O2 0.225520 0.438749 0.947811
O O3 0.482904 0.640153 0.175745
O O4 0.554581 0.557809 0.301175
O O5 0.542211 0.750000 0.750000
O O6 0.581486 0.672620 0.909517
O O7 0.483549 0.722694 0.888684
O O8 0.113802 0.808440 0.847636
O O9 0.130745 0.189198 0.937572
O O10 0.179826 0.820001 0.966849
O O11 0.161089 0.035197 0.427238
O O12 0.080715 0.966732 0.523911
O O13 0.250000 0.750000 0.423304
#
# Coordination Sequence:
#
# PCOD9389879 Si02
#       7
#     4   4   8   8   8   8   8
#     4   8  14  28  46  74 111 133 162 220 272 320
#     4  10  22  36  48  68 110 153 189 230 274 326
#     4  10  22  37  51  73 110 150 186 225 272 329
#     4   9  17  28  49  79 108 134 172 223 275 325
#     4  10  19  32  54  81 107 141 184 227 276 332
#     4   8  15  28  48  77 109 134 167 218 270 321
#     4  10  20  34  52  75 108 146 185 227 272 329
#
# _framework density 21.462547000000001
#
# number of rings (size 3 to 8) (size 9 to 14) (size 15 to 20)
#    0.000    2.667    0.000    1.500    0.000    8.000 
#    0.000    0.000    0.000    0.000    0.000   26.833 
#    0.000 2534.667    0.000    0.000    0.000    2.000 
#
# Total GULP energy -267257.762143 kJ/mol
# GULP energy per Si atom -5567.870045 kJ/mol
# Density = 2.141370 g / cm^3
# Si number density = 21.462547 Si / 1000 Ang^3
#
#
#
# Elastic Constant Matrix: (Units=GPa)
#
#
# Indices 1 2 3 4 5 6 
#
# 1 146.7899 56.6826 35.4189 0.0000 0.0000 0.0000
# 2 56.6826 85.1683 9.9150 0.0000 0.0000 0.0000
# 3 35.4189 9.9150 28.2651 0.0000 0.0000 0.0000
# 4 0.0000 0.0000 0.0000 31.2490 0.0000 0.0000
# 5 0.0000 0.0000 0.0000 0.0000 -16.0163 0.0000
# 6 0.0000 0.0000 0.0000 0.0000 0.0000 38.6571
#
#
#
# Elastic Compliance Matrix: (Units=1/GPa)
#
#
# Indices 1 2 3 4 5 6 
#
# 1 0.012750 -0.006908 -0.013554 0.000000 0.000000 0.000000
# 2 -0.006908 0.015984 0.003049 0.000000 0.000000 0.000000
# 3 -0.013554 0.003049 0.051295 0.000000 0.000000 0.000000
# 4 0.000000 0.000000 0.000000 0.032001 0.000000 0.000000
# 5 0.000000 0.000000 0.000000 0.000000 -0.062436 0.000000
# 6 0.000000 0.000000 0.000000 0.000000 0.000000 0.025868
#
#
# Mechanical properties :
#
#
# Convention : Reuss Voigt Hill
#
# Bulk Modulus (GPa) = 22.12235 51.58404 36.85320
# Shear Modulus (GPa) = 39.88645 21.32508 30.60577
#
# Velocity S-wave (km/s) = 4.31562 3.15555 3.78035
# Velocity P-wave (km/s) = 5.92980 6.11255 6.02187
#
# Compressibility (1/GPa) = 0.04520315
#
# Stress axis : x y z
#
# Youngs Moduli (GPa) = 78.42831 62.56269 19.49523
#
# Poissons Ratio (x) = 0.43218 0.26425
# Poissons Ratio (y) = 0.54178 -0.05945
# Poissons Ratio (z) = 1.06305 -0.19078
#
# Static dielectric constant tensor:
#      x y z
#    x -7.753550 0.000000 0.000000 
#    y 0.000000 1.562480 0.000000 
#    z 0.000000 0.000000 1.758570 
# 
# From -- ./inp_files/3574.got.cif
#   From: 2010.05.17/outbox.cif.g08.bks.cpg/sg48_2_cif.got.tgz:3574.got - 2010.06.03 20:39:00.
