data_PCOD9389678
_publ_section_title
;
Structure prediction by ZEFSAII (Michael W. Deem and Ramdas Pophale) SiO2 
 PCOD9389678
Probable space group: P N N N
;
_chemical_formula_sum "Si O2"
_cell_formula_units_Z 58
_cell_length_a 8.400380
_cell_length_b 11.478597
_cell_length_c 30.091431
_cell_angle_alpha 90.000000
_cell_angle_beta 90.000000
_cell_angle_gamma 90.000000
_cell_volume 2901.553495
_symmetry_space_group_name_H-M "P N N N"
_symmetry_group_IT_number 48
_space_group.IT_coordinate_system_code '2'
_symmetry_cell_setting 'orthorhombic'
loop_
_space_group_symop_operation_xyz
x,y,z
1/2-x,1/2-y,z
x,1/2-y,1/2-z
1/2-x,y,1/2-z
-x,-y,-z
1/2+x,1/2+y,-z
-x,1/2+y,1/2+z
1/2+x,-y,1/2+z
loop_
_atom_site_type_symbol
_atom_site_label
_atom_site_fract_x
_atom_site_fract_y
_atom_site_fract_z
Si Si1 0.249495 0.387477 0.302701
Si Si2 0.250000 0.750000 0.750000
Si Si3 0.253754 0.506981 0.500031
Si Si4 0.574261 0.247396 0.407368
Si Si5 0.492175 0.924000 0.438367
Si Si6 0.974597 0.798523 0.501183
Si Si7 0.901919 0.085073 0.324169
Si Si8 0.558914 0.015684 0.348897
O O1 0.250000 0.250000 0.319549
O O2 0.250000 0.378845 0.250000
O O3 0.415666 0.451722 0.315408
O O4 0.091823 0.459192 0.317186
O O5 0.142446 0.826140 0.716285
O O6 0.176310 0.519633 0.451491
O O7 0.380838 0.608971 0.502801
O O8 0.328214 0.381623 0.509318
O O9 0.117702 0.510215 0.537354
O O10 0.750000 0.250000 0.427756
O O11 0.456405 0.254927 0.448388
O O12 0.578543 0.351750 0.371803
O O13 0.556459 0.133783 0.377852
O O14 0.497204 0.802475 0.465445
O O15 0.526792 0.917861 0.386280
O O16 0.737621 0.009437 0.328093
#
# Coordination Sequence:
#
# PCOD9389678 Si02
#       8
#     8   2   8   8   8   8   8   8
#     4  11  21  34  55  84 117 161 209 253 314 392
#     4  12  16  36  54  80 112 166 206 248 334 364
#     4  10  22  38  59  83 113 164 204 260 310 360
#     4  10  18  32  51  77 113 156 206 243 298 363
#     4  11  22  38  56  82 120 159 209 258 301 369
#     4  11  22  38  61  84 116 166 210 256 310 366
#     4  11  20  33  53  78 118 156 208 257 301 392
#     4  11  22  34  52  80 115 165 195 250 307 357
#
# _framework density 19.989291000000001
#
# number of rings (size 3 to 8) (size 9 to 14) (size 15 to 20)
#    0.000    1.241    3.448    6.621    1.931    0.000 
#    0.000    0.000    0.000    0.000    0.000    0.000 
#    0.000    2.207    4.966    1.379    0.000    0.000 
#
# Total GULP energy -323252.354708 kJ/mol
# GULP energy per Si atom -5573.316460 kJ/mol
# Density = 1.994379 g / cm^3
# Si number density = 19.989291 Si / 1000 Ang^3
#
#
#
# Elastic Constant Matrix: (Units=GPa)
#
#
# Indices 1 2 3 4 5 6 
#
# 1 99.4351 17.4372 26.8793 0.0000 0.0000 0.0000
# 2 17.4372 61.3155 15.6464 0.0000 0.0000 0.0000
# 3 26.8793 15.6464 81.3357 0.0000 0.0000 0.0000
# 4 0.0000 0.0000 0.0000 8.7361 0.0000 0.0000
# 5 0.0000 0.0000 0.0000 0.0000 23.2301 0.0000
# 6 0.0000 0.0000 0.0000 0.0000 0.0000 8.5262
#
#
#
# Elastic Compliance Matrix: (Units=1/GPa)
#
#
# Indices 1 2 3 4 5 6 
#
# 1 0.011367 -0.002391 -0.003297 0.000000 0.000000 0.000000
# 2 -0.002391 0.017654 -0.002606 0.000000 0.000000 0.000000
# 3 -0.003297 -0.002606 0.013885 0.000000 0.000000 0.000000
# 4 0.000000 0.000000 0.000000 0.114468 0.000000 0.000000
# 5 0.000000 0.000000 0.000000 0.000000 0.043048 0.000000
# 6 0.000000 0.000000 0.000000 0.000000 0.000000 0.117285
#
#
# Mechanical properties :
#
#
# Convention : Reuss Voigt Hill
#
# Bulk Modulus (GPa) = 37.99503 40.22359 39.10931
# Shear Modulus (GPa) = 14.57434 20.24003 17.40719
#
# Velocity S-wave (km/s) = 2.70313 3.18550 2.95418
# Velocity P-wave (km/s) = 5.36577 5.80484 5.58962
#
# Compressibility (1/GPa) = 0.02631923
#
# Stress axis : x y z
#
# Youngs Moduli (GPa) = 87.97156 56.64399 72.01801
#
# Poissons Ratio (x) = 0.13546 0.23741
# Poissons Ratio (y) = 0.21038 0.18766
# Poissons Ratio (z) = 0.29000 0.14760
#
# Static dielectric constant tensor:
#      x y z
#    x 1.801570 0.000000 0.000000 
#    y 0.000000 1.737140 0.000000 
#    z 0.000000 0.000000 1.729440 
# 
# From -- ./inp_files/38789.got.cif
#   From: 2010.05.17/outbox.cif.g08.bks.cpg/sg48_20_cif.got.tgz:38789.got - 2010.06.03 20:39:00.
