data_PCOD9389320
_publ_section_title
;
Structure prediction by ZEFSAII (Michael W. Deem and Ramdas Pophale) SiO2 
 PCOD9389320
Probable space group: P M M M
;
_chemical_formula_sum "Si O2"
_cell_formula_units_Z 52
_cell_length_a 15.000000
_cell_length_b 9.000000
_cell_length_c 21.000000
_cell_angle_alpha 90.000000
_cell_angle_beta 90.000000
_cell_angle_gamma 90.000000
_cell_volume 2835.000000
_symmetry_space_group_name_H-M "P M M M"
_symmetry_group_IT_number 47
_symmetry_cell_setting 'orthorhombic'
loop_
_space_group_symop_operation_xyz
x,y,z
-x,-y,z
x,-y,-z
-x,y,-z
-x,-y,-z
x,y,-z
-x,y,z
x,-y,z
loop_
_atom_site_type_symbol
_atom_site_label
_atom_site_fract_x
_atom_site_fract_y
_atom_site_fract_z
Si Si1 0.211575 0.679874 0.428447
Si Si2 0.893603 0.826175 0.311876
Si Si3 0.895484 0.321624 0.174502
Si Si4 0.277320 0.178285 0.123114
Si Si5 0.395638 0.180461 0.000000
Si Si6 0.604440 0.676703 0.769092
Si Si7 0.598855 0.319879 0.620303
O O1 0.181261 0.718898 0.500000
O O2 0.206499 0.500000 0.422230
O O3 0.156533 0.753508 0.371491
O O4 0.315262 0.725099 0.419689
O O5 0.875776 0.741266 0.245475
O O6 0.000000 0.816862 0.322683
O O7 0.869517 0.000000 0.305079
O O8 0.887331 0.500000 0.174641
O O9 0.820882 0.251200 0.128304
O O10 0.000000 0.284721 0.160055
O O11 0.332023 0.231833 0.185006
O O12 0.268399 0.000000 0.122348
O O13 0.338044 0.223864 0.062291
O O14 0.500000 0.231570 0.000000
O O15 0.399499 0.000000 0.000000
O O16 0.500000 0.699478 0.785441
O O17 0.623370 0.500000 0.775188
O O18 0.614703 0.717256 0.694689
O O19 0.500000 0.265844 0.601367
O O20 0.595435 0.500000 0.617375
#
# Coordination Sequence:
#
# PCOD9389320 Si02
#       7
#     8   8   8   8   4   8   8
#     4  10  20  32  49  75 105 140 181 221 265 321
#     4  10  21  37  57  80 105 135 174 221 272 325
#     4  10  21  38  60  84 110 139 172 218 277 333
#     4  11  21  34  56  82 110 147 187 226 266 311
#     4   9  20  38  56  79 116 158 193 221 256 307
#     4   9  17  30  50  76 105 138 179 228 278 325
#     4   8  15  29  48  70  98 132 170 214 263 313
#
# _framework density 18.342151999999999
#
# number of rings (size 3 to 8) (size 9 to 14) (size 15 to 20)
#    0.000    2.385    0.000    3.692    0.000    4.923 
#    0.000    5.000    0.000    6.462    0.000    1.077 
#    0.000    0.000    0.000    0.000    0.000    0.000 
#
# Total GULP energy -290171.053346 kJ/mol
# GULP energy per Si atom -5580.212564 kJ/mol
# Density = 1.830040 g / cm^3
# Si number density = 18.342152 Si / 1000 Ang^3
#
#
#
# Elastic Constant Matrix: (Units=GPa)
#
#
# Indices 1 2 3 4 5 6 
#
# 1 111.0017 40.7206 63.5923 0.0000 0.0000 0.0000
# 2 40.7206 54.2599 26.5278 0.0000 0.0000 0.0000
# 3 63.5923 26.5278 66.6073 0.0000 0.0000 0.0000
# 4 0.0000 0.0000 0.0000 20.7475 0.0000 0.0000
# 5 0.0000 0.0000 0.0000 0.0000 27.7261 0.0000
# 6 0.0000 0.0000 0.0000 0.0000 0.0000 28.8187
#
#
#
# Elastic Compliance Matrix: (Units=1/GPa)
#
#
# Indices 1 2 3 4 5 6 
#
# 1 0.022289 -0.007852 -0.018153 0.000000 0.000000 0.000000
# 2 -0.007852 0.025653 -0.002720 0.000000 0.000000 0.000000
# 3 -0.018153 -0.002720 0.033428 0.000000 0.000000 0.000000
# 4 0.000000 0.000000 0.000000 0.048199 0.000000 0.000000
# 5 0.000000 0.000000 0.000000 0.000000 0.036067 0.000000
# 6 0.000000 0.000000 0.000000 0.000000 0.000000 0.034700
#
#
# Mechanical properties :
#
#
# Convention : Reuss Voigt Hill
#
# Bulk Modulus (GPa) = 41.80697 54.83893 48.32295
# Shear Modulus (GPa) = 18.81411 22.19368 20.50390
#
# Velocity S-wave (km/s) = 3.20618 3.48225 3.34706
# Velocity P-wave (km/s) = 6.04553 6.79197 6.42959
#
# Compressibility (1/GPa) = 0.02391945
#
# Stress axis : x y z
#
# Youngs Moduli (GPa) = 44.86473 38.98252 29.91528
#
# Poissons Ratio (x) = 0.30611 0.54305
# Poissons Ratio (y) = 0.35230 0.08136
# Poissons Ratio (z) = 0.81442 0.10602
#
# Static dielectric constant tensor:
#      x y z
#    x 1.652710 0.000000 0.000000 
#    y 0.000000 1.616490 0.000000 
#    z 0.000000 0.000000 1.618290 
# 
# From -- ./inp_files/30830.got.cif
#   From: 2010.05.17/outbox.ucp.g08.bks.cvg/sg47_16_cif.got.tgz:30830.got - 2010.06.11 16:36:43.
