data_PCOD9389216
_publ_section_title
;
Structure prediction by ZEFSAII (Michael W. Deem and Ramdas Pophale) SiO2 
 PCOD9389216
Probable space group: P M M M
;
_chemical_formula_sum "Si O2"
_cell_formula_units_Z 64
_cell_length_a 21.000000
_cell_length_b 9.000000
_cell_length_c 21.000000
_cell_angle_alpha 90.000000
_cell_angle_beta 90.000000
_cell_angle_gamma 90.000000
_cell_volume 3969.000000
_symmetry_space_group_name_H-M "P M M M"
_symmetry_group_IT_number 47
_symmetry_cell_setting 'orthorhombic'
loop_
_space_group_symop_operation_xyz
x,y,z
-x,-y,z
x,-y,-z
-x,y,-z
-x,-y,-z
x,y,-z
-x,y,z
x,-y,z
loop_
_atom_site_type_symbol
_atom_site_label
_atom_site_fract_x
_atom_site_fract_y
_atom_site_fract_z
Si Si1 0.685344 0.180271 0.661231
Si Si2 0.808943 0.180600 0.425761
Si Si3 0.270811 0.319128 0.794785
Si Si4 0.071935 0.819740 0.339172
Si Si5 0.871491 0.820053 0.200807
Si Si6 0.268107 0.179480 0.927953
Si Si7 0.126326 0.320911 0.071129
Si Si8 0.424787 0.321016 0.425272
O O1 0.746906 0.219104 0.616795
O O2 0.694552 0.255641 0.731098
O O3 0.623271 0.238871 0.622868
O O4 0.683579 0.000000 0.668091
O O5 0.805719 0.230228 0.500000
O O6 0.872676 0.230929 0.387933
O O7 0.810622 0.000000 0.427309
O O8 0.271008 0.500000 0.795565
O O9 0.198413 0.254523 0.791393
O O10 0.296283 0.254442 0.863302
O O11 0.090673 0.785891 0.265879
O O12 0.000000 0.767745 0.353483
O O13 0.071502 0.000000 0.343244
O O14 0.901339 0.753352 0.135475
O O15 0.865314 0.000000 0.195374
O O16 0.197182 0.249771 0.930910
O O17 0.265033 0.000000 0.919643
O O18 0.295683 0.206755 0.000000
O O19 0.129801 0.500000 0.078835
O O20 0.098003 0.292278 0.000000
O O21 0.411207 0.283718 0.500000
O O22 0.500000 0.287380 0.413852
O O23 0.417216 0.500000 0.418801
#
# Coordination Sequence:
#
# PCOD9389216 Si02
#       8
#     8   8   8   8   8   8   8   8
#     4  11  20  32  50  75 105 134 169 211 251 291
#     4   9  17  29  46  70  97 122 152 197 251 299
#     4  11  20  29  45  68  96 131 167 203 249 299
#     4   9  17  29  45  66  92 121 155 199 251 303
#     4  10  17  28  45  65  90 119 154 198 247 295
#     4   9  16  26  41  63  93 127 160 197 244 293
#     4   9  16  25  39  61  87 115 149 189 234 288
#     4   9  19  36  55  76 106 142 175 206 245 297
#
# _framework density 16.124969
#
# number of rings (size 3 to 8) (size 9 to 14) (size 15 to 20)
#    0.000    2.375    1.250    4.875    0.000    2.750 
#    0.000    1.875    0.000    1.875    0.000    2.625 
#    0.000    1.500    0.000    5.250    0.000    2.250 
#
# Total GULP energy -356471.147780 kJ/mol
# GULP energy per Si atom -5569.861684 kJ/mol
# Density = 1.608827 g / cm^3
# Si number density = 16.124969 Si / 1000 Ang^3
#
#
#
# Elastic Constant Matrix: (Units=GPa)
#
#
# Indices 1 2 3 4 5 6 
#
# 1 71.7264 21.1883 50.2093 0.0000 0.0000 0.0000
# 2 21.1883 80.4277 43.7964 0.0000 0.0000 0.0000
# 3 50.2093 43.7964 168.9532 0.0000 0.0000 0.0000
# 4 0.0000 0.0000 0.0000 29.4421 0.0000 0.0000
# 5 0.0000 0.0000 0.0000 0.0000 20.7782 0.0000
# 6 0.0000 0.0000 0.0000 0.0000 0.0000 13.4976
#
#
#
# Elastic Compliance Matrix: (Units=1/GPa)
#
#
# Indices 1 2 3 4 5 6 
#
# 1 0.017909 -0.002119 -0.004773 0.000000 0.000000 0.000000
# 2 -0.002119 0.014728 -0.003188 0.000000 0.000000 0.000000
# 3 -0.004773 -0.003188 0.008164 0.000000 0.000000 0.000000
# 4 0.000000 0.000000 0.000000 0.033965 0.000000 0.000000
# 5 0.000000 0.000000 0.000000 0.000000 0.048127 0.000000
# 6 0.000000 0.000000 0.000000 0.000000 0.000000 0.074087
#
#
# Mechanical properties :
#
#
# Convention : Reuss Voigt Hill
#
# Bulk Modulus (GPa) = 48.44845 61.27728 54.86286
# Shear Modulus (GPa) = 22.31946 26.47113 24.39530
#
# Velocity S-wave (km/s) = 3.72446 4.05609 3.89381
# Velocity P-wave (km/s) = 6.97182 7.74725 7.36974
#
# Compressibility (1/GPa) = 0.02064050
#
# Stress axis : x y z
#
# Youngs Moduli (GPa) = 55.83827 67.89877 122.49492
#
# Poissons Ratio (x) = 0.14388 0.58465
# Poissons Ratio (y) = 0.11832 0.39052
# Poissons Ratio (z) = 0.26651 0.21647
#
# Static dielectric constant tensor:
#      x y z
#    x 1.528900 0.000000 0.000000 
#    y 0.000000 1.537530 0.000000 
#    z 0.000000 0.000000 1.586140 
# 
# From -- ./inp_files/31502.got.cif
#   From: 2010.05.17/outbox.ucp.g08.bks.cvg/sg47_16_cif.got.tgz:31502.got - 2010.06.11 16:36:43.
