data_PCOD9389684
_publ_section_title
;
Structure prediction by ZEFSAII (Michael W. Deem and Ramdas Pophale) SiO2 
 PCOD9389684
Probable space group: P N N N
;
_chemical_formula_sum "Si O2"
_cell_formula_units_Z 40
_cell_length_a 17.992965
_cell_length_b 8.764265
_cell_length_c 10.424884
_cell_angle_alpha 90.000000
_cell_angle_beta 90.000000
_cell_angle_gamma 90.000000
_cell_volume 1643.953265
_symmetry_space_group_name_H-M "P N N N"
_symmetry_group_IT_number 48
_space_group.IT_coordinate_system_code '2'
_symmetry_cell_setting 'orthorhombic'
loop_
_space_group_symop_operation_xyz
x,y,z
1/2-x,1/2-y,z
x,1/2-y,1/2-z
1/2-x,y,1/2-z
-x,-y,-z
1/2+x,1/2+y,-z
-x,1/2+y,1/2+z
1/2+x,-y,1/2+z
loop_
_atom_site_type_symbol
_atom_site_label
_atom_site_fract_x
_atom_site_fract_y
_atom_site_fract_z
Si Si1 0.552052 0.500016 0.691052
Si Si2 0.825155 0.986960 0.323488
Si Si3 0.432093 0.213240 0.947978
Si Si4 0.063270 0.566545 0.602450
Si Si5 0.664964 0.204492 0.930688
O O1 0.492015 0.378285 0.637206
O O2 0.562677 0.630144 0.584124
O O3 0.514098 0.575692 0.814459
O O4 0.626982 0.397567 0.682978
O O5 0.750000 0.969100 0.250000
O O6 0.855595 0.828776 0.379411
O O7 0.879190 0.065262 0.220510
O O8 0.823100 0.094107 0.447140
O O9 0.442220 0.392390 0.946317
O O10 0.103706 0.673609 0.493088
O O11 0.750000 0.250000 0.898508
#
# Coordination Sequence:
#
# PCOD9389684 Si02
#       5
#     8   8   8   8   8
#     4   9  20  40  57  86 138 167 220 278 328 408
#     4  10  18  32  52  84 125 164 192 258 336 393
#     4   9  20  36  56  88 124 169 212 266 322 397
#     4  11  21  36  62  91 127 178 215 271 341 406
#     4  11  22  37  59  95 133 168 216 287 347 398
#
# _framework density 24.331592000000001
#
# number of rings (size 3 to 8) (size 9 to 14) (size 15 to 20)
#    0.000    2.000    2.000    4.200    0.000    2.400 
#    0.000    4.000    0.000    2.400    0.000    0.000 
#    0.000    6.800    0.000    0.000    0.000    0.000 
#
# Total GULP energy -223297.731418 kJ/mol
# GULP energy per Si atom -5582.443285 kJ/mol
# Density = 2.427621 g / cm^3
# Si number density = 24.331592 Si / 1000 Ang^3
#
#
#
# Elastic Constant Matrix: (Units=GPa)
#
#
# Indices 1 2 3 4 5 6 
#
# 1 160.6350 50.6063 76.2581 0.0000 0.0000 0.0000
# 2 50.6063 145.3083 55.0959 0.0000 0.0000 0.0000
# 3 76.2581 55.0959 96.9178 0.0000 0.0000 0.0000
# 4 0.0000 0.0000 0.0000 53.8833 0.0000 0.0000
# 5 0.0000 0.0000 0.0000 0.0000 48.3355 0.0000
# 6 0.0000 0.0000 0.0000 0.0000 0.0000 30.2213
#
#
#
# Elastic Compliance Matrix: (Units=1/GPa)
#
#
# Indices 1 2 3 4 5 6 
#
# 1 0.009983 -0.000635 -0.007494 0.000000 0.000000 0.000000
# 2 -0.000635 0.008813 -0.004510 0.000000 0.000000 0.000000
# 3 -0.007494 -0.004510 0.018778 0.000000 0.000000 0.000000
# 4 0.000000 0.000000 0.000000 0.018559 0.000000 0.000000
# 5 0.000000 0.000000 0.000000 0.000000 0.020689 0.000000
# 6 0.000000 0.000000 0.000000 0.000000 0.000000 0.033089
#
#
# Mechanical properties :
#
#
# Convention : Reuss Voigt Hill
#
# Bulk Modulus (GPa) = 81.32805 85.19796 83.26300
# Shear Modulus (GPa) = 35.89672 41.21475 38.55574
#
# Velocity S-wave (km/s) = 3.84515 4.12014 3.98502
# Velocity P-wave (km/s) = 7.29459 7.59773 7.44770
#
# Compressibility (1/GPa) = 0.01229588
#
# Stress axis : x y z
#
# Youngs Moduli (GPa) = 100.17095 113.46436 53.25297
#
# Poissons Ratio (x) = 0.07209 0.39906
# Poissons Ratio (y) = 0.06365 0.24018
# Poissons Ratio (z) = 0.75065 0.51175
#
# Static dielectric constant tensor:
#      x y z
#    x 2.016600 0.000000 0.000000 
#    y 0.000000 1.954360 0.000000 
#    z 0.000000 0.000000 1.964310 
# 
# From -- ./inp_files/21916.got.cif
#   From: 2010.05.17/outbox.cif.g08.bks.cpg/sg48_11_cif.got.tgz:21916.got - 2010.06.03 20:39:00.
