data_PCOD9389507
_publ_section_title
;
Structure prediction by ZEFSAII (Michael W. Deem and Ramdas Pophale) SiO2 
 PCOD9389507
Probable space group: P N N N
;
_chemical_formula_sum "Si O2"
_cell_formula_units_Z 56
_cell_length_a 9.574199
_cell_length_b 13.337077
_cell_length_c 29.459296
_cell_angle_alpha 90.000000
_cell_angle_beta 90.000000
_cell_angle_gamma 90.000000
_cell_volume 3761.711395
_symmetry_space_group_name_H-M "P N N N"
_symmetry_group_IT_number 48
_space_group.IT_coordinate_system_code '2'
_symmetry_cell_setting 'orthorhombic'
loop_
_space_group_symop_operation_xyz
x,y,z
1/2-x,1/2-y,z
x,1/2-y,1/2-z
1/2-x,y,1/2-z
-x,-y,-z
1/2+x,1/2+y,-z
-x,1/2+y,1/2+z
1/2+x,-y,1/2+z
loop_
_atom_site_type_symbol
_atom_site_label
_atom_site_fract_x
_atom_site_fract_y
_atom_site_fract_z
Si Si1 0.739142 0.442954 0.052505
Si Si2 0.777213 0.555199 0.588062
Si Si3 0.841904 0.651799 0.489464
Si Si4 0.668803 0.151856 0.539808
Si Si5 0.466536 0.860445 0.625506
Si Si6 0.238451 0.628443 0.801404
Si Si7 0.025109 0.619097 0.877739
O O1 0.713905 0.557909 0.039710
O O2 0.607719 0.401595 0.080376
O O3 0.869617 0.421189 0.084127
O O4 0.748541 0.382331 0.005906
O O5 0.812280 0.619268 0.542022
O O6 0.812436 0.441194 0.574076
O O7 0.623418 0.575201 0.607492
O O8 0.881429 0.593802 0.626507
O O9 0.750000 0.750000 0.480567
O O10 0.005818 0.665056 0.475599
O O11 0.750000 0.250000 0.556670
O O12 0.370103 0.896510 0.666816
O O13 0.475399 0.740396 0.621570
O O14 0.250000 0.750000 0.799710
O O15 0.250000 0.591012 0.750000
O O16 0.098985 0.596784 0.829018
#
# Coordination Sequence:
#
# PCOD9389507 Si02
#       7
#     8   8   8   8   8   8   8
#     4  10  19  33  47  65  94 130 170 200 235 280
#     4  11  21  33  46  70 100 126 168 208 235 280
#     4  11  22  33  47  66  97 130 171 209 242 268
#     4  11  22  34  48  64  97 132 169 205 247 275
#     4  10  16  32  49  69  96 133 156 194 242 284
#     4   8  16  31  50  72  98 126 156 190 235 294
#     4  10  20  28  51  74  94 129 165 192 233 291
#
# _framework density 14.886841
#
# number of rings (size 3 to 8) (size 9 to 14) (size 15 to 20)
#    0.000    1.857    2.857    4.286    4.000    1.143 
#    0.000    0.714    0.000    3.429    0.000    0.000 
#    0.000   21.714    0.000    0.000    0.000    0.000 
#
# Total GULP energy -311898.073500 kJ/mol
# GULP energy per Si atom -5569.608455 kJ/mol
# Density = 1.485296 g / cm^3
# Si number density = 14.886841 Si / 1000 Ang^3
#
#
#
# Elastic Constant Matrix: (Units=GPa)
#
#
# Indices 1 2 3 4 5 6 
#
# 1 131.9924 39.8127 42.8002 0.0000 0.0000 0.0000
# 2 39.8127 80.4284 28.1704 0.0000 0.0000 0.0000
# 3 42.8002 28.1704 78.2191 0.0000 0.0000 0.0000
# 4 0.0000 0.0000 0.0000 15.0653 0.0000 0.0000
# 5 0.0000 0.0000 0.0000 0.0000 14.6954 0.0000
# 6 0.0000 0.0000 0.0000 0.0000 0.0000 20.9825
#
#
#
# Elastic Compliance Matrix: (Units=1/GPa)
#
#
# Indices 1 2 3 4 5 6 
#
# 1 0.009990 -0.003468 -0.004217 0.000000 0.000000 0.000000
# 2 -0.003468 0.015432 -0.003660 0.000000 0.000000 0.000000
# 3 -0.004217 -0.003660 0.016410 0.000000 0.000000 0.000000
# 4 0.000000 0.000000 0.000000 0.066378 0.000000 0.000000
# 5 0.000000 0.000000 0.000000 0.000000 0.068048 0.000000
# 6 0.000000 0.000000 0.000000 0.000000 0.000000 0.047659
#
#
# Mechanical properties :
#
#
# Convention : Reuss Voigt Hill
#
# Bulk Modulus (GPa) = 52.24267 56.91184 54.57726
# Shear Modulus (GPa) = 19.76377 22.13909 20.95143
#
# Velocity S-wave (km/s) = 3.64758 3.86055 3.75557
# Velocity P-wave (km/s) = 7.27387 7.62787 7.45297
#
# Compressibility (1/GPa) = 0.01914144
#
# Stress axis : x y z
#
# Youngs Moduli (GPa) = 100.10311 64.80015 60.93679
#
# Poissons Ratio (x) = 0.22472 0.25699
# Poissons Ratio (y) = 0.34714 0.22304
# Poissons Ratio (z) = 0.42216 0.23719
#
# Static dielectric constant tensor:
#      x y z
#    x 1.560520 0.000000 0.000000 
#    y 0.000000 1.499500 0.000000 
#    z 0.000000 0.000000 1.485000 
# 
# From -- ./inp_files/38852.got.cif
#   From: 2010.05.17/outbox.cif.g08.bks.cpg/sg48_20_cif.got.tgz:38852.got - 2010.06.03 20:39:00.
