data_PCOD9389538
_publ_section_title
;
Structure prediction by ZEFSAII (Michael W. Deem and Ramdas Pophale) SiO2 
 PCOD9389538
Probable space group: P N N N
;
_chemical_formula_sum "Si O2"
_cell_formula_units_Z 56
_cell_length_a 7.099593
_cell_length_b 10.554591
_cell_length_c 28.690672
_cell_angle_alpha 90.000000
_cell_angle_beta 90.000000
_cell_angle_gamma 90.000000
_cell_volume 2149.886743
_symmetry_space_group_name_H-M "P N N N"
_symmetry_group_IT_number 48
_space_group.IT_coordinate_system_code '2'
_symmetry_cell_setting 'orthorhombic'
loop_
_space_group_symop_operation_xyz
x,y,z
1/2-x,1/2-y,z
x,1/2-y,1/2-z
1/2-x,y,1/2-z
-x,-y,-z
1/2+x,1/2+y,-z
-x,1/2+y,1/2+z
1/2+x,-y,1/2+z
loop_
_atom_site_type_symbol
_atom_site_label
_atom_site_fract_x
_atom_site_fract_y
_atom_site_fract_z
Si Si1 0.528873 0.255308 0.424330
Si Si2 0.498121 0.529376 0.088682
Si Si3 0.613953 0.873926 0.115408
Si Si4 0.974672 0.763494 0.472143
Si Si5 0.523041 0.232506 0.176991
Si Si6 0.994528 0.521717 0.307515
Si Si7 0.536295 0.966165 0.208966
O O1 0.750000 0.250000 0.416545
O O2 0.516688 0.308467 0.476259
O O3 0.459024 0.308661 0.375091
O O4 0.444438 0.112383 0.425663
O O5 0.727110 0.526182 0.098244
O O6 0.454282 0.627670 0.047348
O O7 0.440750 0.568967 0.141573
O O8 0.750000 0.750000 0.123552
O O9 0.482220 0.855333 0.070719
O O10 0.490152 0.898112 0.160815
O O11 0.750000 0.750000 0.471927
O O12 0.750000 0.250000 0.179340
O O13 0.453469 0.372541 0.189045
O O14 0.478918 0.113296 0.208623
O O15 0.041891 0.584176 0.257827
O O16 0.765188 0.531585 0.300098
#
# Coordination Sequence:
#
# PCOD9389538 Si02
#       7
#     8   8   8   8   8   8   8
#     4  10  17  27  45  64  80 105 143 176 202 240
#     4   8  15  28  41  56  80 111 139 168 203 245
#     4   8  15  26  36  52  81 111 137 166 203 243
#     4   9  18  31  42  56  85 116 137 166 210 247
#     4   8  14  22  34  56  82 101 124 166 210 240
#     4   8  13  20  35  56  76 103 136 159 193 250
#     4   9  13  21  34  52  81 110 127 156 206 251
#
# _framework density 26.047884
#
# number of rings (size 3 to 8) (size 9 to 14) (size 15 to 20)
#    0.000    3.714    0.000    3.429    0.000    1.714 
#    0.000   19.286    0.000    0.000    0.000    0.000 
#    0.000   16.000    0.000    0.000    0.000    0.000 
#
# Total GULP energy -311794.369616 kJ/mol
# GULP energy per Si atom -5567.756600 kJ/mol
# Density = 2.598860 g / cm^3
# Si number density = 26.047884 Si / 1000 Ang^3
#
#
#
# Elastic Constant Matrix: (Units=GPa)
#
#
# Indices 1 2 3 4 5 6 
#
# 1 84.1981 -11.9429 -14.7371 0.0000 0.0000 0.0000
# 2 -11.9429 38.8601 7.9617 0.0000 0.0000 0.0000
# 3 -14.7371 7.9617 201.7644 0.0000 0.0000 0.0000
# 4 0.0000 0.0000 0.0000 20.9459 0.0000 0.0000
# 5 0.0000 0.0000 0.0000 0.0000 3.0618 0.0000
# 6 0.0000 0.0000 0.0000 0.0000 0.0000 -14.0327
#
#
#
# Elastic Compliance Matrix: (Units=1/GPa)
#
#
# Indices 1 2 3 4 5 6 
#
# 1 0.012536 0.003695 0.000770 0.000000 0.000000 0.000000
# 2 0.003695 0.027032 -0.000797 0.000000 0.000000 0.000000
# 3 0.000770 -0.000797 0.005044 0.000000 0.000000 0.000000
# 4 0.000000 0.000000 0.000000 0.047742 0.000000 0.000000
# 5 0.000000 0.000000 0.000000 0.000000 0.326605 0.000000
# 6 0.000000 0.000000 0.000000 0.000000 0.000000 -0.071262
#
#
# Mechanical properties :
#
#
# Convention : Reuss Voigt Hill
#
# Bulk Modulus (GPa) = 19.25027 31.93179 25.59103
# Shear Modulus (GPa) = 13.97910 24.89773 19.43842
#
# Velocity S-wave (km/s) = 2.31913 3.09503 2.73473
# Velocity P-wave (km/s) = 3.81805 5.00577 4.45170
#
# Compressibility (1/GPa) = 0.05194733
#
# Stress axis : x y z
#
# Youngs Moduli (GPa) = 79.77296 36.99301 198.25749
#
# Poissons Ratio (x) = -0.13668 -0.15262
# Poissons Ratio (y) = -0.29475 0.15798
# Poissons Ratio (z) = -0.06141 0.02948
#
# Static dielectric constant tensor:
#      x y z
#    x 2.171250 0.000000 0.000000 
#    y 0.000000 2.089820 0.000000 
#    z 0.000000 0.000000 2.210520 
# 
# From -- ./inp_files/37789.got.cif
#   From: 2010.05.17/outbox.cif.g08.bks.cpg/sg48_19_cif.got.tgz:37789.got - 2010.06.03 20:39:00.
