data_PCOD9389391
_publ_section_title
;
Structure prediction by ZEFSAII (Michael W. Deem and Ramdas Pophale) SiO2 
 PCOD9389391
Probable space group: P M M M
;
_chemical_formula_sum "Si O2"
_cell_formula_units_Z 44
_cell_length_a 9.000000
_cell_length_b 30.000000
_cell_length_c 9.000000
_cell_angle_alpha 90.000000
_cell_angle_beta 90.000000
_cell_angle_gamma 90.000000
_cell_volume 2430.000000
_symmetry_space_group_name_H-M "P M M M"
_symmetry_group_IT_number 47
_symmetry_cell_setting 'orthorhombic'
loop_
_space_group_symop_operation_xyz
x,y,z
-x,-y,z
x,-y,-z
-x,y,-z
-x,-y,-z
x,y,-z
-x,y,z
x,-y,z
loop_
_atom_site_type_symbol
_atom_site_label
_atom_site_fract_x
_atom_site_fract_y
_atom_site_fract_z
Si Si1 0.822425 0.053661 0.000000
Si Si2 0.678179 0.186208 0.827186
Si Si3 0.820569 0.728438 0.326705
Si Si4 0.679486 0.092407 0.318503
Si Si5 0.821209 0.364139 0.826823
Si Si6 0.678325 0.550104 0.676077
O O1 0.751070 0.069435 0.164050
O O2 0.000000 0.065575 0.000000
O O3 0.809514 0.000000 0.000000
O O4 0.500000 0.191662 0.825785
O O5 0.753289 0.230987 0.767135
O O6 0.711666 0.144351 0.719196
O O7 0.721459 0.176832 0.000000
O O8 0.778336 0.732166 0.500000
O O9 0.774147 0.680301 0.261919
O O10 0.000000 0.730652 0.317088
O O11 0.718902 0.083090 0.500000
O O12 0.500000 0.084965 0.310199
O O13 0.752520 0.409232 0.761609
O O14 0.000000 0.367090 0.815159
O O15 0.782203 0.359119 0.000000
O O16 0.710728 0.554066 0.500000
O O17 0.500000 0.552541 0.693269
O O18 0.725073 0.500000 0.723743
#
# Coordination Sequence:
#
# PCOD9389391 Si02
#       6
#     4   8   8   8   8   8
#     4  11  25  43  63  91 129 169 207 255 312 367
#     4  10  20  36  59  86 117 152 191 237 288 343
#     4  10  21  36  54  78 109 146 187 229 276 333
#     4  10  21  40  66  93 123 162 209 259 308 362
#     4  10  21  36  53  75 105 140 178 221 269 325
#     4   9  19  36  56  77 101 131 170 217 269 326
#
# _framework density 18.106995999999999
#
# number of rings (size 3 to 8) (size 9 to 14) (size 15 to 20)
#    0.000    2.091    0.909    2.455    0.000    7.273 
#    0.000    4.545    0.000    0.000    0.000    0.000 
#    0.000    0.000    0.000    0.000    0.000    0.000 
#
# Total GULP energy -245081.271288 kJ/mol
# GULP energy per Si atom -5570.028893 kJ/mol
# Density = 1.806578 g / cm^3
# Si number density = 18.106996 Si / 1000 Ang^3
#
#
#
# Elastic Constant Matrix: (Units=GPa)
#
#
# Indices 1 2 3 4 5 6 
#
# 1 28.0109 25.8761 36.1483 0.0000 0.0000 0.0000
# 2 25.8761 111.7167 51.9998 0.0000 0.0000 0.0000
# 3 36.1483 51.9998 142.6159 0.0000 0.0000 0.0000
# 4 0.0000 0.0000 0.0000 42.6100 0.0000 0.0000
# 5 0.0000 0.0000 0.0000 0.0000 35.0797 0.0000
# 6 0.0000 0.0000 0.0000 0.0000 0.0000 35.7597
#
#
#
# Elastic Compliance Matrix: (Units=1/GPa)
#
#
# Indices 1 2 3 4 5 6 
#
# 1 0.058443 -0.007999 -0.011897 0.000000 0.000000 0.000000
# 2 -0.007999 0.011876 -0.002303 0.000000 0.000000 0.000000
# 3 -0.011897 -0.002303 0.010867 0.000000 0.000000 0.000000
# 4 0.000000 0.000000 0.000000 0.023469 0.000000 0.000000
# 5 0.000000 0.000000 0.000000 0.000000 0.028507 0.000000
# 6 0.000000 0.000000 0.000000 0.000000 0.000000 0.027964
#
#
# Mechanical properties :
#
#
# Convention : Reuss Voigt Hill
#
# Bulk Modulus (GPa) = 27.18242 56.71020 41.94631
# Shear Modulus (GPa) = 22.95847 33.91116 28.43481
#
# Velocity S-wave (km/s) = 3.56467 4.33230 3.96710
# Velocity P-wave (km/s) = 5.65572 7.51083 6.64830
#
# Compressibility (1/GPa) = 0.03678849
#
# Stress axis : x y z
#
# Youngs Moduli (GPa) = 17.11076 84.20514 92.02369
#
# Poissons Ratio (x) = 0.67358 1.09477
# Poissons Ratio (y) = 0.13687 0.21189
# Poissons Ratio (z) = 0.20356 0.19388
#
# Static dielectric constant tensor:
#      x y z
#    x 1.621210 0.000000 0.000000 
#    y 0.000000 1.612970 0.000000 
#    z 0.000000 0.000000 1.645770 
# 
# From -- ./inp_files/2320.got.cif
#   From: 2010.05.17/outbox.ucp.g08.bks.cvg/sg47_2_cif.got.tgz:2320.got - 2010.06.11 16:36:43.
