data_PCOD9389630
_publ_section_title
;
Structure prediction by ZEFSAII (Michael W. Deem and Ramdas Pophale) SiO2 
 PCOD9389630
Probable space group: P N N N
;
_chemical_formula_sum "Si O2"
_cell_formula_units_Z 34
_cell_length_a 14.668374
_cell_length_b 18.679928
_cell_length_c 5.163452
_cell_angle_alpha 90.000000
_cell_angle_beta 90.000000
_cell_angle_gamma 90.000000
_cell_volume 1414.807381
_symmetry_space_group_name_H-M "P N N N"
_symmetry_group_IT_number 48
_space_group.IT_coordinate_system_code '2'
_symmetry_cell_setting 'orthorhombic'
loop_
_space_group_symop_operation_xyz
x,y,z
1/2-x,1/2-y,z
x,1/2-y,1/2-z
1/2-x,y,1/2-z
-x,-y,-z
1/2+x,1/2+y,-z
-x,1/2+y,1/2+z
1/2+x,-y,1/2+z
loop_
_atom_site_type_symbol
_atom_site_label
_atom_site_fract_x
_atom_site_fract_y
_atom_site_fract_z
Si Si1 0.386864 0.046945 0.777238
Si Si2 0.750000 0.250000 0.250000
Si Si3 0.595345 0.800369 0.997640
Si Si4 0.392051 0.966350 0.275652
Si Si5 0.604177 0.320923 0.592633
O O1 0.497041 0.037917 0.743646
O O2 0.357012 0.020295 0.494355
O O3 0.361321 0.124747 0.895127
O O4 0.358771 0.991056 0.995505
O O5 0.686251 0.301992 0.411551
O O6 0.623262 0.750000 0.750000
O O7 0.601152 0.750000 0.250000
O O8 0.491846 0.829222 0.939530
O O9 0.370394 0.883065 0.292917
O O10 0.585878 0.250000 0.750000
#
# Coordination Sequence:
#
# PCOD9389630 Si02
#       5
#     8   2   8   8   8
#     4   9  17  29  46  69  91 121 161 202 257 304
#     4  12  22  36  48  66  92 136 184 232 266 308
#     4  10  18  30  49  72 100 129 162 208 257 320
#     4   9  18  30  47  65  90 122 165 213 248 301
#     4  10  22  33  48  65  94 130 181 221 260 299
#
# _framework density 24.031542000000002
#
# number of rings (size 3 to 8) (size 9 to 14) (size 15 to 20)
#    0.000    2.353    1.176    1.765    3.294    5.647 
#    0.000    0.000    0.000    0.000    0.000    0.000 
#    0.000    0.000    0.000    1.059    9.412    4.000 
#
# Total GULP energy -189456.251397 kJ/mol
# GULP energy per Si atom -5572.242688 kJ/mol
# Density = 2.397685 g / cm^3
# Si number density = 24.031542 Si / 1000 Ang^3
#
#
#
# Elastic Constant Matrix: (Units=GPa)
#
#
# Indices 1 2 3 4 5 6 
#
# 1 35.6441 -7.4939 -4.2750 0.0000 0.0000 0.0000
# 2 -7.4939 153.9590 48.8523 0.0000 0.0000 0.0000
# 3 -4.2750 48.8523 144.3123 0.0000 0.0000 0.0000
# 4 0.0000 0.0000 0.0000 46.9739 0.0000 0.0000
# 5 0.0000 0.0000 0.0000 0.0000 31.9144 0.0000
# 6 0.0000 0.0000 0.0000 0.0000 0.0000 24.9957
#
#
#
# Elastic Compliance Matrix: (Units=1/GPa)
#
#
# Indices 1 2 3 4 5 6 
#
# 1 0.028368 0.001248 0.000418 0.000000 0.000000 0.000000
# 2 0.001248 0.007332 -0.002445 0.000000 0.000000 0.000000
# 3 0.000418 -0.002445 0.007769 0.000000 0.000000 0.000000
# 4 0.000000 0.000000 0.000000 0.021288 0.000000 0.000000
# 5 0.000000 0.000000 0.000000 0.000000 0.031334 0.000000
# 6 0.000000 0.000000 0.000000 0.000000 0.000000 0.040007
#
#
# Mechanical properties :
#
#
# Convention : Reuss Voigt Hill
#
# Bulk Modulus (GPa) = 23.86009 45.34248 34.60129
# Shear Modulus (GPa) = 32.97583 40.56560 36.77072
#
# Velocity S-wave (km/s) = 3.70833 4.11300 3.91590
# Velocity P-wave (km/s) = 5.31844 6.43930 5.90552
#
# Compressibility (1/GPa) = 0.04191099
#
# Stress axis : x y z
#
# Youngs Moduli (GPa) = 35.25142 136.39219 128.70903
#
# Poissons Ratio (x) = -0.17025 -0.05377
# Poissons Ratio (y) = -0.04400 0.31469
# Poissons Ratio (z) = -0.01473 0.33348
#
# Static dielectric constant tensor:
#      x y z
#    x 2.333560 0.000000 0.000000 
#    y 0.000000 1.972350 0.000000 
#    z 0.000000 0.000000 1.915170 
# 
# From -- ./inp_files/4977.got.cif
#   From: 2010.05.17/outbox.cif.g08.bks.cpg/sg48_3_cif.got.tgz:4977.got - 2010.06.03 20:39:00.
