data_PCOD9389147
_publ_section_title
;
Structure prediction by ZEFSAII (Michael W. Deem and Ramdas Pophale) SiO2 
 PCOD9389147
Probable space group: P M M M
;
_chemical_formula_sum "Si O2"
_cell_formula_units_Z 44
_cell_length_a 9.694262
_cell_length_b 29.340071
_cell_length_c 9.315415
_cell_angle_alpha 90.000000
_cell_angle_beta 90.000000
_cell_angle_gamma 90.000000
_cell_volume 2649.586613
_symmetry_space_group_name_H-M "P M M M"
_symmetry_group_IT_number 47
_symmetry_cell_setting 'orthorhombic'
loop_
_space_group_symop_operation_xyz
x,y,z
-x,-y,z
x,-y,-z
-x,y,-z
-x,-y,-z
x,y,-z
-x,y,z
x,-y,z
loop_
_atom_site_type_symbol
_atom_site_label
_atom_site_fract_x
_atom_site_fract_y
_atom_site_fract_z
Si Si1 0.835907 0.817760 0.328879
Si Si2 0.168092 0.909468 0.165513
Si Si3 0.658799 0.268969 0.325357
Si Si4 0.831615 0.000000 0.665779
Si Si5 0.837765 0.448139 0.172161
Si Si6 0.664687 0.628785 0.329176
O O1 0.813570 0.824272 0.500000
O O2 0.790644 0.862944 0.244657
O O3 0.755055 0.772662 0.280705
O O4 0.000000 0.811639 0.307714
O O5 0.212931 0.954382 0.251664
O O6 0.000000 0.909965 0.166441
O O7 0.212338 0.910702 0.000000
O O8 0.659508 0.269631 0.500000
O O9 0.500000 0.261867 0.280755
O O10 0.703619 0.319808 0.280946
O O11 0.788085 0.000000 0.500000
O O12 0.000000 0.000000 0.666289
O O13 0.799300 0.500000 0.214181
O O14 0.747012 0.410186 0.248179
O O15 0.000000 0.441972 0.205548
O O16 0.823048 0.444900 0.000000
O O17 0.690122 0.625366 0.500000
O O18 0.500000 0.624325 0.307441
#
# Coordination Sequence:
#
# PCOD9389147 Si02
#       6
#     8   8   8   4   8   8
#     4   9  16  26  42  64  87 112 146 184 217 255
#     4   9  16  25  37  56  85 117 145 177 221 267
#     4   8  15  29  47  66  90 119 149 183 224 268
#     4   9  15  23  37  57  82 113 148 183 218 260
#     4   9  19  35  51  68  94 127 160 193 231 278
#     4   9  18  32  50  73  98 122 153 195 238 279
#
# _framework density 16.606363999999999
#
# number of rings (size 3 to 8) (size 9 to 14) (size 15 to 20)
#    0.000    3.182    0.000    2.455    0.000    5.455 
#    0.000    5.455    0.000    3.818    0.000    0.636 
#    0.000    5.091    0.000    0.000    0.000    0.000 
#
# Total GULP energy -245066.052288 kJ/mol
# GULP energy per Si atom -5569.683007 kJ/mol
# Density = 1.656857 g / cm^3
# Si number density = 16.606364 Si / 1000 Ang^3
#
#
#
# Elastic Constant Matrix: (Units=GPa)
#
#
# Indices 1 2 3 4 5 6 
#
# 1 29.0692 69.7080 35.5643 0.0000 0.0000 0.0000
# 2 69.7080 212.3934 83.1699 0.0000 0.0000 0.0000
# 3 35.5643 83.1699 64.8677 0.0000 0.0000 0.0000
# 4 0.0000 0.0000 0.0000 -17.9007 0.0000 0.0000
# 5 0.0000 0.0000 0.0000 0.0000 16.8090 0.0000
# 6 0.0000 0.0000 0.0000 0.0000 0.0000 -20.2889
#
#
#
# Elastic Compliance Matrix: (Units=1/GPa)
#
#
# Indices 1 2 3 4 5 6 
#
# 1 0.245426 -0.055949 -0.062822 0.000000 0.000000 0.000000
# 2 -0.055949 0.022210 0.002198 0.000000 0.000000 0.000000
# 3 -0.062822 0.002198 0.047040 0.000000 0.000000 0.000000
# 4 0.000000 0.000000 0.000000 -0.055864 0.000000 0.000000
# 5 0.000000 0.000000 0.000000 0.000000 0.059492 0.000000
# 6 0.000000 0.000000 0.000000 0.000000 0.000000 -0.049288
#
#
# Mechanical properties :
#
#
# Convention : Reuss Voigt Hill
#
# Bulk Modulus (GPa) = 12.26536 75.91274 44.08905
# Shear Modulus (GPa) = 9.44572 3.58307 6.51440
#
# Velocity S-wave (km/s) = 2.38754 1.47049 1.98276
# Velocity P-wave (km/s) = 3.87330 6.97821 5.64349
#
# Compressibility (1/GPa) = 0.08153043
#
# Stress axis : x y z
#
# Youngs Moduli (GPa) = 4.07455 45.02422 21.25828
#
# Poissons Ratio (x) = 2.51907 1.33548
# Poissons Ratio (y) = 0.22797 -0.04672
# Poissons Ratio (z) = 0.25597 -0.09896
#
# Static dielectric constant tensor:
#      x y z
#    x 1.541040 0.000000 0.000000 
#    y 0.000000 1.555470 0.000000 
#    z 0.000000 0.000000 1.551510 
# 
# From -- ./inp_files/2199.got.cif
#   From: 2010.05.17/outbox.cif.g08.bks.cpg/sg47_2_cif.got.tgz:2199.got - 2010.06.03 20:15:42.
