data_PCOD9389978
_publ_section_title
;
Structure prediction by ZEFSAII (Michael W. Deem and Ramdas Pophale) SiO2 
 PCOD9389978
Probable space group: P N N N
;
_chemical_formula_sum "Si O2"
_cell_formula_units_Z 48
_cell_length_a 16.822101
_cell_length_b 26.848868
_cell_length_c 5.254367
_cell_angle_alpha 90.000000
_cell_angle_beta 90.000000
_cell_angle_gamma 90.000000
_cell_volume 2373.157813
_symmetry_space_group_name_H-M "P N N N"
_symmetry_group_IT_number 48
_space_group.IT_coordinate_system_code '2'
_symmetry_cell_setting 'orthorhombic'
loop_
_space_group_symop_operation_xyz
x,y,z
1/2-x,1/2-y,z
x,1/2-y,1/2-z
1/2-x,y,1/2-z
-x,-y,-z
1/2+x,1/2+y,-z
-x,1/2+y,1/2+z
1/2+x,-y,1/2+z
loop_
_atom_site_type_symbol
_atom_site_label
_atom_site_fract_x
_atom_site_fract_y
_atom_site_fract_z
Si Si1 0.951798 0.449577 0.981263
Si Si2 0.427870 0.191184 0.773002
Si Si3 0.268062 0.945571 0.996389
Si Si4 0.837246 0.690935 0.715930
Si Si5 0.201035 0.055508 0.997872
Si Si6 0.481229 0.402652 0.012928
O O1 0.859270 0.460790 0.011112
O O2 0.983089 0.412967 0.206609
O O3 0.000000 0.500000 0.000000
O O4 0.968238 0.432077 0.695471
O O5 0.451840 0.250000 0.750000
O O6 0.353727 0.185402 0.582878
O O7 0.483249 0.152585 0.616202
O O8 0.400375 0.175831 0.060238
O O9 0.250000 0.914280 0.750000
O O10 0.250000 0.916805 0.250000
O O11 0.211079 0.994684 0.992344
O O12 0.835655 0.750000 0.750000
O O13 0.750000 0.670355 0.750000
O O14 0.250000 0.068344 0.250000
O O15 0.250000 0.072931 0.750000
O O16 0.110559 0.075916 0.008010
#
# Coordination Sequence:
#
# PCOD9389978 Si02
#       6
#     8   8   8   8   8   8
#     4  12  23  38  58  83 116 151 192 242 293 348
#     4  10  21  36  53  76 110 149 190 242 291 340
#     4  10  19  35  55  77 107 146 182 222 280 340
#     4   9  17  31  50  72 100 140 189 238 289 335
#     4  10  20  35  51  74 107 146 191 232 278 334
#     4  12  24  38  57  84 114 153 199 241 290 350
#
# _framework density 20.226216999999998
#
# number of rings (size 3 to 8) (size 9 to 14) (size 15 to 20)
#    0.000    1.500    0.000    8.000    0.000    4.000 
#    0.000    0.000    0.000    0.000    0.000    0.000 
#    0.000   10.000    0.000    0.000    0.000    0.000 
#
# Total GULP energy -267302.355972 kJ/mol
# GULP energy per Si atom -5568.799083 kJ/mol
# Density = 2.018018 g / cm^3
# Si number density = 20.226217 Si / 1000 Ang^3
#
#
#
# Elastic Constant Matrix: (Units=GPa)
#
#
# Indices 1 2 3 4 5 6 
#
# 1 75.2298 6.9418 29.4442 0.0000 0.0000 0.0000
# 2 6.9418 63.6351 1.6005 0.0000 0.0000 0.0000
# 3 29.4442 1.6005 148.8131 0.0000 0.0000 0.0000
# 4 0.0000 0.0000 0.0000 12.7929 0.0000 0.0000
# 5 0.0000 0.0000 0.0000 0.0000 37.0124 0.0000
# 6 0.0000 0.0000 0.0000 0.0000 0.0000 65.1902
#
#
#
# Elastic Compliance Matrix: (Units=1/GPa)
#
#
# Indices 1 2 3 4 5 6 
#
# 1 0.014553 -0.001516 -0.002863 0.000000 0.000000 0.000000
# 2 -0.001516 0.015877 0.000129 0.000000 0.000000 0.000000
# 3 -0.002863 0.000129 0.007285 0.000000 0.000000 0.000000
# 4 0.000000 0.000000 0.000000 0.078168 0.000000 0.000000
# 5 0.000000 0.000000 0.000000 0.000000 0.027018 0.000000
# 6 0.000000 0.000000 0.000000 0.000000 0.000000 0.015340
#
#
# Mechanical properties :
#
#
# Convention : Reuss Voigt Hill
#
# Bulk Modulus (GPa) = 34.22842 40.40568 37.31705
# Shear Modulus (GPa) = 28.33204 39.64518 33.98861
#
# Velocity S-wave (km/s) = 3.74673 4.43209 4.10374
# Velocity P-wave (km/s) = 5.97301 6.79790 6.39876
#
# Compressibility (1/GPa) = 0.02921548
#
# Stress axis : x y z
#
# Youngs Moduli (GPa) = 68.71401 62.98550 137.26918
#
# Poissons Ratio (x) = 0.09546 0.39303
# Poissons Ratio (y) = 0.10414 -0.01772
# Poissons Ratio (z) = 0.19674 -0.00813
#
# Static dielectric constant tensor:
#      x y z
#    x 0.648240 0.000000 0.000000 
#    y 0.000000 1.825680 0.000000 
#    z 0.000000 0.000000 1.868190 
# 
# From -- ./inp_files/3679.got.cif
#   From: 2010.05.17/outbox.cif.g08.bks.cpg/sg48_2_cif.got.tgz:3679.got - 2010.06.03 20:39:00.
