data_PCOD9389082
_publ_section_title
;
Structure prediction by ZEFSAII (Michael W. Deem and Ramdas Pophale) SiO2 
 PCOD9389082
Probable space group: P M M M
;
_chemical_formula_sum "Si O2"
_cell_formula_units_Z 64
_cell_length_a 9.717099
_cell_length_b 7.455790
_cell_length_c 42.831955
_cell_angle_alpha 90.000000
_cell_angle_beta 90.000000
_cell_angle_gamma 90.000000
_cell_volume 3103.117297
_symmetry_space_group_name_H-M "P M M M"
_symmetry_group_IT_number 47
_symmetry_cell_setting 'orthorhombic'
loop_
_space_group_symop_operation_xyz
x,y,z
-x,-y,z
x,-y,-z
-x,y,-z
-x,-y,-z
x,y,-z
-x,y,z
x,-y,z
loop_
_atom_site_type_symbol
_atom_site_label
_atom_site_fract_x
_atom_site_fract_y
_atom_site_fract_z
Si Si1 0.659714 0.718638 0.837369
Si Si2 0.841143 0.280873 0.779072
Si Si3 0.842677 0.713822 0.662153
Si Si4 0.156324 0.214807 0.965799
Si Si5 0.658783 0.719348 0.719622
Si Si6 0.345752 0.286145 0.093123
Si Si7 0.156409 0.215269 0.591735
Si Si8 0.340922 0.781192 0.465315
O O1 0.500000 0.770518 0.831707
O O2 0.661516 0.500000 0.836658
O O3 0.763413 0.778245 0.810522
O O4 0.698953 0.778028 0.872455
O O5 0.842950 0.500000 0.779123
O O6 0.749570 0.226342 0.749424
O O7 0.000000 0.222893 0.777203
O O8 0.851494 0.500000 0.666444
O O9 0.738179 0.780031 0.688436
O O10 0.794006 0.745780 0.626781
O O11 0.000000 0.784273 0.665161
O O12 0.248336 0.254167 0.936030
O O13 0.000000 0.281263 0.961698
O O14 0.149825 0.000000 0.967468
O O15 0.207255 0.278206 0.000000
O O16 0.500000 0.777697 0.721223
O O17 0.656239 0.500000 0.719538
O O18 0.500000 0.216842 0.087072
O O19 0.355179 0.500000 0.096182
O O20 0.250034 0.282513 0.563540
O O21 0.000000 0.283546 0.589405
O O22 0.151487 0.000000 0.588931
O O23 0.292932 0.726585 0.500000
O O24 0.500000 0.727656 0.461837
O O25 0.338884 0.000000 0.464968
#
# Coordination Sequence:
#
# PCOD9389082 Si02
#       8
#     8   8   8   8   8   8   8   8
#     4   8  14  25  39  57  86 119 145 174 216 262
#     4   9  15  22  35  57  84 113 145 179 214 253
#     4   9  17  29  43  59  83 113 141 171 209 251
#     4   9  19  35  51  67  90 121 157 195 232 271
#     4   9  16  25  38  57  81 110 144 179 213 249
#     4   9  18  31  47  70  98 124 151 186 229 276
#     4   9  17  28  43  64  86 107 135 171 208 246
#     4   8  14  25  41  61  84 108 134 167 207 247
#
# _framework density 20.624424000000001
#
# number of rings (size 3 to 8) (size 9 to 14) (size 15 to 20)
#    0.000    3.250    0.000    2.250    0.000    5.250 
#    0.000    4.375    0.000    0.375    0.000    3.500 
#    0.000    5.000    0.000    0.000    0.000    0.000 
#
# Total GULP energy -356949.958757 kJ/mol
# GULP energy per Si atom -5577.343106 kJ/mol
# Density = 2.057748 g / cm^3
# Si number density = 20.624424 Si / 1000 Ang^3
#
#
#
# Elastic Constant Matrix: (Units=GPa)
#
#
# Indices 1 2 3 4 5 6 
#
# 1 144.2993 4.6249 151.0653 0.0000 0.0000 0.0000
# 2 4.6249 59.0192 3.5515 0.0000 0.0000 0.0000
# 3 151.0653 3.5515 249.1483 0.0000 0.0000 0.0000
# 4 0.0000 0.0000 0.0000 13.2234 0.0000 0.0000
# 5 0.0000 0.0000 0.0000 0.0000 44.5873 0.0000
# 6 0.0000 0.0000 0.0000 0.0000 0.0000 4.6197
#
#
#
# Elastic Compliance Matrix: (Units=1/GPa)
#
#
# Indices 1 2 3 4 5 6 
#
# 1 0.019011 -0.000797 -0.011516 0.000000 0.000000 0.000000
# 2 -0.000797 0.016992 0.000241 0.000000 0.000000 0.000000
# 3 -0.011516 0.000241 0.010992 0.000000 0.000000 0.000000
# 4 0.000000 0.000000 0.000000 0.075623 0.000000 0.000000
# 5 0.000000 0.000000 0.000000 0.000000 0.022428 0.000000
# 6 0.000000 0.000000 0.000000 0.000000 0.000000 0.216465
#
#
# Mechanical properties :
#
#
# Convention : Reuss Voigt Hill
#
# Bulk Modulus (GPa) = 43.75949 85.66113 64.71031
# Shear Modulus (GPa) = 12.71386 32.03443 22.37414
#
# Velocity S-wave (km/s) = 2.48553 3.94538 3.29726
# Velocity P-wave (km/s) = 5.43144 7.89802 6.77787
#
# Compressibility (1/GPa) = 0.02285219
#
# Stress axis : x y z
#
# Youngs Moduli (GPa) = 52.60076 58.85266 90.97148
#
# Poissons Ratio (x) = 0.04690 1.04759
# Poissons Ratio (y) = 0.04191 -0.02192
# Poissons Ratio (z) = 0.60573 -0.01418
#
# Static dielectric constant tensor:
#      x y z
#    x 1.706300 0.000000 0.000000 
#    y 0.000000 1.823620 0.000000 
#    z 0.000000 0.000000 1.725610 
# 
# From -- ./inp_files/34369.got.cif
#   From: 2010.05.17/outbox.cif.g08.bks.cpg/sg47_18_cif.got.tgz:34369.got - 2010.06.03 20:15:42.
