data_PCOD9389671
_publ_section_title
;
Structure prediction by ZEFSAII (Michael W. Deem and Ramdas Pophale) SiO2 
 PCOD9389671
Probable space group: P N N N
;
_chemical_formula_sum "Si O2"
_cell_formula_units_Z 56
_cell_length_a 4.963201
_cell_length_b 20.966392
_cell_length_c 23.260905
_cell_angle_alpha 90.000000
_cell_angle_beta 90.000000
_cell_angle_gamma 90.000000
_cell_volume 2420.539491
_symmetry_space_group_name_H-M "P N N N"
_symmetry_group_IT_number 48
_space_group.IT_coordinate_system_code '2'
_symmetry_cell_setting 'orthorhombic'
loop_
_space_group_symop_operation_xyz
x,y,z
1/2-x,1/2-y,z
x,1/2-y,1/2-z
1/2-x,y,1/2-z
-x,-y,-z
1/2+x,1/2+y,-z
-x,1/2+y,1/2+z
1/2+x,-y,1/2+z
loop_
_atom_site_type_symbol
_atom_site_label
_atom_site_fract_x
_atom_site_fract_y
_atom_site_fract_z
Si Si1 0.811816 0.054843 0.333840
Si Si2 0.671718 0.681221 0.936928
Si Si3 0.812046 0.638183 0.689641
Si Si4 0.828719 0.398586 0.040552
Si Si5 0.489577 0.707359 0.352080
Si Si6 0.705976 0.401051 0.914980
Si Si7 0.179338 0.420326 0.843104
O O1 0.731169 0.984663 0.313056
O O2 0.607092 0.108214 0.311667
O O3 0.787651 0.057781 0.403653
O O4 0.104613 0.079168 0.316264
O O5 0.750000 0.750000 0.960008
O O6 0.722861 0.678190 0.868394
O O7 0.365429 0.662218 0.948548
O O8 0.866282 0.626526 0.962193
O O9 0.750000 0.670892 0.750000
O O10 0.735929 0.424754 0.979440
O O11 0.750000 0.750000 0.366191
O O12 0.343422 0.669331 0.405166
O O13 0.594612 0.646798 0.314554
O O14 0.250000 0.750000 0.326462
O O15 0.408300 0.401700 0.889360
O O16 0.901994 0.441507 0.874175
#
# Coordination Sequence:
#
# PCOD9389671 Si02
#       7
#     8   8   8   8   8   8   8
#     4  10  21  37  56  75 109 132 169 223 263 328
#     4  10  21  36  52  76 107 141 183 224 264 311
#     4  10  21  38  60  81 103 134 169 219 284 329
#     4  10  21  35  48  75 103 145 183 217 265 295
#     4  10  18  32  46  69 104 137 175 216 245 289
#     4  10  20  31  48  74 100 145 186 214 257 292
#     4  10  20  33  50  75 101 143 176 220 258 302
#
# _framework density 23.135338000000001
#
# number of rings (size 3 to 8) (size 9 to 14) (size 15 to 20)
#    0.857    1.143    1.429    2.571    0.000    3.143 
#    0.000    0.000    0.000    5.143    0.000    0.000 
#    0.000    8.571    0.000    0.000    0.000    0.000 
#
# Total GULP energy -312240.732323 kJ/mol
# GULP energy per Si atom -5575.727363 kJ/mol
# Density = 2.308268 g / cm^3
# Si number density = 23.135338 Si / 1000 Ang^3
#
#
#
# Elastic Constant Matrix: (Units=GPa)
#
#
# Indices 1 2 3 4 5 6 
#
# 1 97.4060 7.0678 -1.6162 0.0000 0.0000 0.0000
# 2 7.0678 81.2271 -6.1280 0.0000 0.0000 0.0000
# 3 -1.6162 -6.1280 50.3624 0.0000 0.0000 0.0000
# 4 0.0000 0.0000 0.0000 -22.8568 0.0000 0.0000
# 5 0.0000 0.0000 0.0000 0.0000 13.6480 0.0000
# 6 0.0000 0.0000 0.0000 0.0000 0.0000 -0.3932
#
#
#
# Elastic Compliance Matrix: (Units=1/GPa)
#
#
# Indices 1 2 3 4 5 6 
#
# 1 0.010334 -0.000882 0.000224 0.000000 0.000000 0.000000
# 2 -0.000882 0.012501 0.001493 0.000000 0.000000 0.000000
# 3 0.000224 0.001493 0.020045 0.000000 0.000000 0.000000
# 4 0.000000 0.000000 0.000000 -0.043751 0.000000 0.000000
# 5 0.000000 0.000000 0.000000 0.000000 0.073271 0.000000
# 6 0.000000 0.000000 0.000000 0.000000 0.000000 -2.543555
#
#
# Mechanical properties :
#
#
# Convention : Reuss Voigt Hill
#
# Bulk Modulus (GPa) = 22.44721 25.29364 23.87042
# Shear Modulus (GPa) = -2.03419 13.39106 5.67843
#
# Velocity S-wave (km/s) = -0.93871 2.40847 1.56837
# Velocity P-wave (km/s) = 2.92382 4.32330 3.69050
#
# Compressibility (1/GPa) = 0.04454897
#
# Stress axis : x y z
#
# Youngs Moduli (GPa) = 96.76747 79.99652 49.88800
#
# Poissons Ratio (x) = 0.07058 -0.01119
# Poissons Ratio (y) = 0.08538 -0.07447
# Poissons Ratio (z) = -0.02170 -0.11941
#
# Static dielectric constant tensor:
#      x y z
#    x 1.822490 0.000000 0.000000 
#    y 0.000000 1.910640 0.000000 
#    z 0.000000 0.000000 1.910930 
# 
# From -- ./inp_files/37214.got.cif
#   From: 2010.05.17/outbox.cif.g08.bks.cpg/sg48_19_cif.got.tgz:37214.got - 2010.06.03 20:39:00.
