data_PCOD9389608
_publ_section_title
;
Structure prediction by ZEFSAII (Michael W. Deem and Ramdas Pophale) SiO2 
 PCOD9389608
Probable space group: P N N N
;
_chemical_formula_sum "Si O2"
_cell_formula_units_Z 56
_cell_length_a 29.455992
_cell_length_b 10.770961
_cell_length_c 9.187497
_cell_angle_alpha 90.000000
_cell_angle_beta 90.000000
_cell_angle_gamma 90.000000
_cell_volume 2914.911119
_symmetry_space_group_name_H-M "P N N N"
_symmetry_group_IT_number 48
_space_group.IT_coordinate_system_code '2'
_symmetry_cell_setting 'orthorhombic'
loop_
_space_group_symop_operation_xyz
x,y,z
1/2-x,1/2-y,z
x,1/2-y,1/2-z
1/2-x,y,1/2-z
-x,-y,-z
1/2+x,1/2+y,-z
-x,1/2+y,1/2+z
1/2+x,-y,1/2+z
loop_
_atom_site_type_symbol
_atom_site_label
_atom_site_fract_x
_atom_site_fract_y
_atom_site_fract_z
Si Si1 0.978106 0.189218 0.568994
Si Si2 0.533478 0.925670 0.831056
Si Si3 0.137293 0.015657 0.049178
Si Si4 0.302105 0.252373 0.072509
Si Si5 0.630858 0.533690 0.594603
Si Si6 0.460852 0.397398 0.003585
Si Si7 0.375184 0.753655 0.078033
O O1 0.929842 0.256961 0.562873
O O2 0.989982 0.124138 0.415598
O O3 0.019794 0.282517 0.586405
O O4 0.972647 0.075171 0.680047
O O5 0.579670 0.915184 0.925418
O O6 0.540133 0.864978 0.675236
O O7 0.173938 0.121788 0.018162
O O8 0.132886 0.021234 0.227472
O O9 0.089530 0.053953 0.975520
O O10 0.146480 0.871186 0.012390
O O11 0.250000 0.250000 0.024173
O O12 0.301944 0.250000 0.250000
O O13 0.332577 0.131660 0.037486
O O14 0.636229 0.394584 0.531209
O O15 0.500000 0.500000 0.000000
O O16 0.364700 0.750000 0.250000
#
# Coordination Sequence:
#
# PCOD9389608 Si02
#       7
#     8   8   8   8   8   8   8
#     4  10  18  28  43  59  84 118 155 189 220 259
#     4   9  19  30  41  62  87 119 158 185 218 269
#     4   9  16  27  39  59  82 109 147 187 215 261
#     4   9  16  26  41  59  79 108 146 184 224 268
#     4   8  15  27  42  54  81 113 143 183 216 266
#     4  11  19  27  44  64  87 121 158 183 222 263
#     4   9  16  27  42  59  81 114 152 180 217 261
#
# _framework density 19.211565
#
# number of rings (size 3 to 8) (size 9 to 14) (size 15 to 20)
#    0.000    2.714    1.429    2.143    0.000    2.286 
#    0.000    0.714    0.000    4.286    0.000    0.000 
#    0.000    0.000    0.000   41.143   32.000   18.286 
#
# Total GULP energy -311800.505407 kJ/mol
# GULP energy per Si atom -5567.866168 kJ/mol
# Density = 1.916784 g / cm^3
# Si number density = 19.211565 Si / 1000 Ang^3
#
#
#
# Elastic Constant Matrix: (Units=GPa)
#
#
# Indices 1 2 3 4 5 6 
#
# 1 101.4345 72.6724 6.6699 0.0000 0.0000 0.0000
# 2 72.6724 142.5674 9.3383 0.0000 0.0000 0.0000
# 3 6.6699 9.3383 10.0428 0.0000 0.0000 0.0000
# 4 0.0000 0.0000 0.0000 18.3207 0.0000 0.0000
# 5 0.0000 0.0000 0.0000 0.0000 12.4407 0.0000
# 6 0.0000 0.0000 0.0000 0.0000 0.0000 26.2742
#
#
#
# Elastic Compliance Matrix: (Units=1/GPa)
#
#
# Indices 1 2 3 4 5 6 
#
# 1 0.015624 -0.007757 -0.003164 0.000000 0.000000 0.000000
# 2 -0.007757 0.011320 -0.005374 0.000000 0.000000 0.000000
# 3 -0.003164 -0.005374 0.106672 0.000000 0.000000 0.000000
# 4 0.000000 0.000000 0.000000 0.054583 0.000000 0.000000
# 5 0.000000 0.000000 0.000000 0.000000 0.080382 0.000000
# 6 0.000000 0.000000 0.000000 0.000000 0.000000 0.038060
#
#
# Mechanical properties :
#
#
# Convention : Reuss Voigt Hill
#
# Bulk Modulus (GPa) = 9.89844 47.93400 28.91622
# Shear Modulus (GPa) = 13.40817 22.43138 17.91978
#
# Velocity S-wave (km/s) = 2.64469 3.42072 3.05742
# Velocity P-wave (km/s) = 3.80649 6.37233 5.24861
#
# Compressibility (1/GPa) = 0.10102598
#
# Stress axis : x y z
#
# Youngs Moduli (GPa) = 64.00362 88.33673 9.37453
#
# Poissons Ratio (x) = 0.68523 0.02966
# Poissons Ratio (y) = 0.49648 0.05038
# Poissons Ratio (z) = 0.20250 0.47475
#
# Static dielectric constant tensor:
#      x y z
#    x 1.653850 0.000000 0.000000 
#    y 0.000000 1.764920 0.000000 
#    z 0.000000 0.000000 1.738810 
# 
# From -- ./inp_files/23689.got.cif
#   From: 2010.05.17/outbox.cif.g08.bks.cpg/sg48_12_cif.got.tgz:23689.got - 2010.06.03 20:39:00.
