data_PCOD9389438
_publ_section_title
;
Structure prediction by ZEFSAII (Michael W. Deem and Ramdas Pophale) SiO2 
 PCOD9389438
Probable space group: P M M M
;
_chemical_formula_sum "Si O2"
_cell_formula_units_Z 52
_cell_length_a 27.000000
_cell_length_b 9.000000
_cell_length_c 12.000000
_cell_angle_alpha 90.000000
_cell_angle_beta 90.000000
_cell_angle_gamma 90.000000
_cell_volume 2916.000000
_symmetry_space_group_name_H-M "P M M M"
_symmetry_group_IT_number 47
_symmetry_cell_setting 'orthorhombic'
loop_
_space_group_symop_operation_xyz
x,y,z
-x,-y,z
x,-y,-z
-x,y,-z
-x,-y,-z
x,y,-z
-x,y,z
x,-y,z
loop_
_atom_site_type_symbol
_atom_site_label
_atom_site_fract_x
_atom_site_fract_y
_atom_site_fract_z
Si Si1 0.219009 0.320263 0.500000
Si Si2 0.671097 0.819712 0.500000
Si Si3 0.156526 0.822643 0.298415
Si Si4 0.773569 0.672652 0.866172
Si Si5 0.670351 0.826826 0.133900
Si Si6 0.604208 0.678511 0.694840
Si Si7 0.500000 0.824990 0.365548
Si Si8 0.943361 0.675637 0.365961
O O1 0.221465 0.500000 0.500000
O O2 0.273722 0.248434 0.500000
O O3 0.188391 0.259881 0.605851
O O4 0.640547 0.756572 0.605218
O O5 0.672251 0.000000 0.500000
O O6 0.181054 0.762649 0.185483
O O7 0.099781 0.771381 0.311145
O O8 0.160985 0.000000 0.309202
O O9 0.773736 0.500000 0.829717
O O10 0.722482 0.752714 0.831220
O O11 0.775434 0.674954 0.000000
O O12 0.626502 0.732326 0.187939
O O13 0.668407 0.000000 0.168821
O O14 0.668016 0.822354 0.000000
O O15 0.605021 0.500000 0.682870
O O16 0.549359 0.743034 0.676388
O O17 0.500000 0.818049 0.500000
O O18 0.500000 0.000000 0.334174
O O19 0.939561 0.693447 0.500000
O O20 0.935709 0.500000 0.342603
O O21 0.000000 0.713865 0.334277
#
# Coordination Sequence:
#
# PCOD9389438 Si02
#       8
#     4   4   8   8   8   8   4   8
#     4  12  24  38  54  78 114 152 188 230 281 337
#     4  12  24  39  57  81 115 150 189 231 280 340
#     4  12  23  35  54  83 117 149 185 233 288 340
#     4  10  21  38  60  84 112 151 196 236 279 336
#     4  10  21  39  62  87 117 152 190 234 284 338
#     4  12  24  39  61  88 117 150 189 234 282 337
#     4  11  23  41  64  87 115 152 192 236 282 335
#     4   9  18  34  56  80 109 149 192 233 280 337
#
# _framework density 17.832647000000001
#
# number of rings (size 3 to 8) (size 9 to 14) (size 15 to 20)
#    0.000    1.154    1.538    6.692    0.000    2.462 
#    0.000    1.154    0.000    2.769    0.000    3.231 
#    0.000    0.000    0.000    0.000    0.000    0.000 
#
# Total GULP energy -290673.363565 kJ/mol
# GULP energy per Si atom -5589.872376 kJ/mol
# Density = 1.779206 g / cm^3
# Si number density = 17.832647 Si / 1000 Ang^3
#
#
#
# Elastic Constant Matrix: (Units=GPa)
#
#
# Indices 1 2 3 4 5 6 
#
# 1 156.6866 86.2217 33.0167 0.0000 0.0000 0.0000
# 2 86.2217 192.7642 35.6620 0.0000 0.0000 0.0000
# 3 33.0167 35.6620 31.5297 0.0000 0.0000 0.0000
# 4 0.0000 0.0000 0.0000 25.8973 0.0000 0.0000
# 5 0.0000 0.0000 0.0000 0.0000 22.7333 0.0000
# 6 0.0000 0.0000 0.0000 0.0000 0.0000 35.2645
#
#
#
# Elastic Compliance Matrix: (Units=1/GPa)
#
#
# Indices 1 2 3 4 5 6 
#
# 1 0.009395 -0.003013 -0.006431 0.000000 0.000000 0.000000
# 2 -0.003013 0.007526 -0.005358 0.000000 0.000000 0.000000
# 3 -0.006431 -0.005358 0.044511 0.000000 0.000000 0.000000
# 4 0.000000 0.000000 0.000000 0.038614 0.000000 0.000000
# 5 0.000000 0.000000 0.000000 0.000000 0.043988 0.000000
# 6 0.000000 0.000000 0.000000 0.000000 0.000000 0.028357
#
#
# Mechanical properties :
#
#
# Convention : Reuss Voigt Hill
#
# Bulk Modulus (GPa) = 31.41780 76.75347 54.08563
# Shear Modulus (GPa) = 23.51785 31.85102 27.68444
#
# Velocity S-wave (km/s) = 3.63548 4.23082 3.94440
# Velocity P-wave (km/s) = 5.93959 8.18541 7.15121
#
# Compressibility (1/GPa) = 0.03182909
#
# Stress axis : x y z
#
# Youngs Moduli (GPa) = 106.43949 132.86410 22.46655
#
# Poissons Ratio (x) = 0.40027 0.14448
# Poissons Ratio (y) = 0.32066 0.12038
# Poissons Ratio (z) = 0.68448 0.71192
#
# Static dielectric constant tensor:
#      x y z
#    x 1.589580 0.000000 0.000000 
#    y 0.000000 1.594170 0.000000 
#    z 0.000000 0.000000 1.641630 
# 
# From -- ./inp_files/19888.got.cif
#   From: 2010.05.17/outbox.ucp.g08.bks.cvg/sg47_10_cif.got.tgz:19888.got - 2010.06.11 16:36:43.
