data_PCOD9389765
_publ_section_title
;
Structure prediction by ZEFSAII (Michael W. Deem and Ramdas Pophale) SiO2 
 PCOD9389765
Probable space group: P N N N
;
_chemical_formula_sum "Si O2"
_cell_formula_units_Z 64
_cell_length_a 11.547713
_cell_length_b 17.176740
_cell_length_c 16.655033
_cell_angle_alpha 90.000000
_cell_angle_beta 90.000000
_cell_angle_gamma 90.000000
_cell_volume 3303.560168
_symmetry_space_group_name_H-M "P N N N"
_symmetry_group_IT_number 48
_space_group.IT_coordinate_system_code '2'
_symmetry_cell_setting 'orthorhombic'
loop_
_space_group_symop_operation_xyz
x,y,z
1/2-x,1/2-y,z
x,1/2-y,1/2-z
1/2-x,y,1/2-z
-x,-y,-z
1/2+x,1/2+y,-z
-x,1/2+y,1/2+z
1/2+x,-y,1/2+z
loop_
_atom_site_type_symbol
_atom_site_label
_atom_site_fract_x
_atom_site_fract_y
_atom_site_fract_z
Si Si1 0.896290 0.804676 0.491968
Si Si2 0.255687 0.397315 0.382858
Si Si3 0.206778 0.174330 0.886591
Si Si4 0.141604 0.832756 0.706475
Si Si5 0.167825 0.678662 0.983232
Si Si6 0.333433 0.538338 0.010683
Si Si7 0.920027 0.573904 0.743808
Si Si8 0.961873 0.957819 0.127833
O O1 0.834353 0.831395 0.574780
O O2 0.862303 0.717520 0.461200
O O3 0.826132 0.856451 0.425835
O O4 0.033408 0.814542 0.491715
O O5 0.206543 0.457378 0.448523
O O6 0.147715 0.375770 0.324925
O O7 0.336178 0.442231 0.318531
O O8 0.250000 0.250000 0.838304
O O9 0.124068 0.111590 0.848768
O O10 0.128441 0.750000 0.750000
O O11 0.250000 0.873194 0.750000
O O12 0.165809 0.821228 0.613364
O O13 0.026633 0.879760 0.721052
O O14 0.250000 0.750000 0.010257
O O15 0.229453 0.599065 0.009491
O O16 0.440340 0.569335 0.064282
O O17 0.384737 0.519628 0.922766
O O18 0.970053 0.498479 0.699478
#
# Coordination Sequence:
#
# PCOD9389765 Si02
#       8
#     8   8   8   8   8   8   8   8
#     4   9  19  34  55  79 116 146 190 241 294 340
#     4  10  19  40  53  85 113 152 194 251 287 346
#     4   8  18  33  55  82 115 141 190 250 290 332
#     4  11  22  37  46  76 120 162 185 221 279 362
#     4  12  22  35  54  79 116 153 188 233 288 350
#     4  10  21  33  57  80 114 146 198 238 290 339
#     4  10  22  35  58  77 120 157 199 227 296 368
#     4  10  18  36  56  84 109 155 194 241 286 355
#
# _framework density 19.37304
#
# number of rings (size 3 to 8) (size 9 to 14) (size 15 to 20)
#    0.750    1.125    3.750    1.500    0.000    2.500 
#    0.000    0.625    0.000    0.000    0.000   14.875 
#    7.500    0.000    0.000    0.000    0.000    0.000 
#
# Total GULP energy -356322.547329 kJ/mol
# GULP energy per Si atom -5567.539802 kJ/mol
# Density = 1.932895 g / cm^3
# Si number density = 19.373040 Si / 1000 Ang^3
#
#
#
# Elastic Constant Matrix: (Units=GPa)
#
#
# Indices 1 2 3 4 5 6 
#
# 1 132.9206 23.2029 9.7469 0.0000 0.0000 0.0000
# 2 23.2029 34.3415 4.5381 0.0000 0.0000 0.0000
# 3 9.7469 4.5381 44.8968 0.0000 0.0000 0.0000
# 4 0.0000 0.0000 0.0000 9.3822 0.0000 0.0000
# 5 0.0000 0.0000 0.0000 0.0000 16.8821 0.0000
# 6 0.0000 0.0000 0.0000 0.0000 0.0000 20.4781
#
#
#
# Elastic Compliance Matrix: (Units=1/GPa)
#
#
# Indices 1 2 3 4 5 6 
#
# 1 0.008603 -0.005641 -0.001298 0.000000 0.000000 0.000000
# 2 -0.005641 0.033213 -0.002132 0.000000 0.000000 0.000000
# 3 -0.001298 -0.002132 0.022771 0.000000 0.000000 0.000000
# 4 0.000000 0.000000 0.000000 0.106584 0.000000 0.000000
# 5 0.000000 0.000000 0.000000 0.000000 0.059234 0.000000
# 6 0.000000 0.000000 0.000000 0.000000 0.000000 0.048833
#
#
# Mechanical properties :
#
#
# Convention : Reuss Voigt Hill
#
# Bulk Modulus (GPa) = 21.53130 31.90383 26.71756
# Shear Modulus (GPa) = 15.98153 20.99323 18.48738
#
# Velocity S-wave (km/s) = 2.87529 3.29543 3.09250
# Velocity P-wave (km/s) = 4.70757 5.56630 5.15485
#
# Compressibility (1/GPa) = 0.04644402
#
# Stress axis : x y z
#
# Youngs Moduli (GPa) = 116.23598 30.10904 43.91639
#
# Poissons Ratio (x) = 0.16985 0.05698
# Poissons Ratio (y) = 0.65572 0.09365
# Poissons Ratio (z) = 0.15082 0.06420
#
# Static dielectric constant tensor:
#      x y z
#    x 1.717810 0.000000 0.000000 
#    y 0.000000 1.683480 0.000000 
#    z 0.000000 0.000000 1.704960 
# 
# From -- ./inp_files/26724.got.cif
#   From: 2010.05.17/outbox.cif.g08.bks.cpg/sg48_14_cif.got.tgz:26724.got - 2010.06.03 20:39:00.
