data_PCOD9389441
_publ_section_title
;
Structure prediction by ZEFSAII (Michael W. Deem and Ramdas Pophale) SiO2 
 PCOD9389441
Probable space group: P M M M
;
_chemical_formula_sum "Si O2"
_cell_formula_units_Z 56
_cell_length_a 21.000000
_cell_length_b 9.000000
_cell_length_c 15.000000
_cell_angle_alpha 90.000000
_cell_angle_beta 90.000000
_cell_angle_gamma 90.000000
_cell_volume 2835.000000
_symmetry_space_group_name_H-M "P M M M"
_symmetry_group_IT_number 47
_symmetry_cell_setting 'orthorhombic'
loop_
_space_group_symop_operation_xyz
x,y,z
-x,-y,z
x,-y,-z
-x,y,-z
-x,-y,-z
x,y,-z
-x,y,z
x,-y,z
loop_
_atom_site_type_symbol
_atom_site_label
_atom_site_fract_x
_atom_site_fract_y
_atom_site_fract_z
Si Si1 0.261108 0.323648 0.639604
Si Si2 0.838480 0.173378 0.099042
Si Si3 0.392959 0.820932 0.595433
Si Si4 0.872105 0.826965 0.400554
Si Si5 0.431673 0.819918 0.793899
Si Si6 0.929264 0.325611 0.236033
Si Si7 0.707412 0.176782 0.175452
O O1 0.263508 0.500000 0.628950
O O2 0.322392 0.246567 0.596238
O O3 0.194690 0.259649 0.605471
O O4 0.268270 0.273327 0.741947
O O5 0.875310 0.272814 0.168741
O O6 0.762281 0.193898 0.103186
O O7 0.850101 0.000000 0.121179
O O8 0.861760 0.203123 0.000000
O O9 0.423358 0.780597 0.500000
O O10 0.424349 0.775872 0.689332
O O11 0.389404 0.000000 0.598564
O O12 0.898099 0.812668 0.500000
O O13 0.918470 0.761869 0.327098
O O14 0.858986 0.000000 0.382314
O O15 0.500000 0.764998 0.827964
O O16 0.365710 0.778943 0.842361
O O17 0.433767 0.000000 0.796344
O O18 0.922900 0.500000 0.253416
O O19 0.000000 0.296137 0.199974
O O20 0.706387 0.000000 0.200469
#
# Coordination Sequence:
#
# PCOD9389441 Si02
#       7
#     8   8   8   8   8   8   8
#     4  11  20  30  49  76 106 141 184 233 286 334
#     4  10  21  38  63  91 116 148 191 236 284 342
#     4   9  17  28  42  63  95 136 183 234 285 334
#     4  11  23  38  58  83 113 152 196 237 278 329
#     4   8  14  25  44  71 101 138 184 230 278 331
#     4  11  25  43  62  87 120 154 187 231 286 338
#     4   9  17  32  54  78 108 143 182 230 281 332
#
# _framework density 19.753086
#
# number of rings (size 3 to 8) (size 9 to 14) (size 15 to 20)
#    0.000    2.143    1.429    3.429    0.000    5.429 
#    0.000    4.286    0.000    7.286    0.000    7.000 
#    0.000    0.000    0.000    6.429    0.000    7.143 
#
# Total GULP energy -312146.744249 kJ/mol
# GULP energy per Si atom -5574.049004 kJ/mol
# Density = 1.970813 g / cm^3
# Si number density = 19.753086 Si / 1000 Ang^3
#
#
#
# Elastic Constant Matrix: (Units=GPa)
#
#
# Indices 1 2 3 4 5 6 
#
# 1 78.0047 23.5826 -9.9824 0.0000 0.0000 0.0000
# 2 23.5826 17.2903 21.0375 0.0000 0.0000 0.0000
# 3 -9.9824 21.0375 -22.6633 0.0000 0.0000 0.0000
# 4 0.0000 0.0000 0.0000 69.0935 0.0000 0.0000
# 5 0.0000 0.0000 0.0000 0.0000 -39.2974 0.0000
# 6 0.0000 0.0000 0.0000 0.0000 0.0000 34.8163
#
#
#
# Elastic Compliance Matrix: (Units=1/GPa)
#
#
# Indices 1 2 3 4 5 6 
#
# 1 0.013015 -0.005061 -0.010430 0.000000 0.000000 0.000000
# 2 -0.005061 0.029128 0.029267 0.000000 0.000000 0.000000
# 3 -0.010430 0.029267 -0.012362 0.000000 0.000000 0.000000
# 4 0.000000 0.000000 0.000000 0.014473 0.000000 0.000000
# 5 0.000000 0.000000 0.000000 0.000000 -0.025447 0.000000
# 6 0.000000 0.000000 0.000000 0.000000 0.000000 0.028722
#
#
# Mechanical properties :
#
#
# Convention : Reuss Voigt Hill
#
# Bulk Modulus (GPa) = 17.44176 15.76747 16.60461
# Shear Modulus (GPa) = 127.91937 15.45541 71.68739
#
# Velocity S-wave (km/s) = 8.05604 2.80023 6.03080
# Velocity P-wave (km/s) = 9.76637 4.29589 7.54443
#
# Compressibility (1/GPa) = 0.05733367
#
# Stress axis : x y z
#
# Youngs Moduli (GPa) = 76.83494 34.33132 -80.89154
#
# Poissons Ratio (x) = 0.17374 -0.84372
# Poissons Ratio (y) = 0.38883 2.36749
# Poissons Ratio (z) = 0.80141 -1.00479
#
# Static dielectric constant tensor:
#      x y z
#    x 1.753250 0.000000 0.000000 
#    y 0.000000 1.659910 0.000000 
#    z 0.000000 0.000000 1.721560 
# 
# From -- ./inp_files/7367.got.cif
#   From: 2010.05.17/outbox.ucp.g08.bks.cvg/sg47_4_cif.got.tgz:7367.got - 2010.06.11 16:36:43.
