data_PCOD9389889
_publ_section_title
;
Structure prediction by ZEFSAII (Michael W. Deem and Ramdas Pophale) SiO2 
 PCOD9389889
Probable space group: P N N N
;
_chemical_formula_sum "Si O2"
_cell_formula_units_Z 46
_cell_length_a 11.605751
_cell_length_b 9.803097
_cell_length_c 17.756484
_cell_angle_alpha 90.000000
_cell_angle_beta 90.000000
_cell_angle_gamma 90.000000
_cell_volume 2020.196075
_symmetry_space_group_name_H-M "P N N N"
_symmetry_group_IT_number 48
_space_group.IT_coordinate_system_code '2'
_symmetry_cell_setting 'orthorhombic'
loop_
_space_group_symop_operation_xyz
x,y,z
1/2-x,1/2-y,z
x,1/2-y,1/2-z
1/2-x,y,1/2-z
-x,-y,-z
1/2+x,1/2+y,-z
-x,1/2+y,1/2+z
1/2+x,-y,1/2+z
loop_
_atom_site_type_symbol
_atom_site_label
_atom_site_fract_x
_atom_site_fract_y
_atom_site_fract_z
Si Si1 0.250000 0.250000 0.250000
Si Si2 0.838820 0.878236 0.042409
Si Si3 0.470518 0.494622 0.410395
Si Si4 0.717395 0.551598 0.875535
Si Si5 0.700396 0.491607 0.328691
Si Si6 0.900782 0.750000 0.250000
Si Si7 0.059995 0.809914 0.126745
O O1 0.317232 0.354013 0.194579
O O2 0.750000 0.750000 0.050063
O O3 0.789445 0.989672 0.102141
O O4 0.971181 0.850578 0.061417
O O5 0.836378 0.915315 0.955705
O O6 0.500000 0.500000 0.500000
O O7 0.352634 0.419752 0.390240
O O8 0.581458 0.439039 0.365242
O O9 0.437806 0.647485 0.382768
O O10 0.675906 0.395497 0.864925
O O11 0.750000 0.430704 0.250000
O O12 0.666665 0.646113 0.302974
O O13 0.983969 0.842230 0.200234
#
# Coordination Sequence:
#
# PCOD9389889 Si02
#       7
#     2   8   8   8   8   4   8
#     4  12  32  44  70  84 148 208 232 298 352 466
#     4  12  19  40  68  97 135 170 231 286 353 432
#     4  11  23  43  72  99 138 181 226 299 372 435
#     4  12  27  47  60  99 136 192 241 281 365 437
#     4  11  19  34  66 100 129 165 223 287 351 415
#     4  10  19  32  61 100 126 159 207 290 344 394
#     4  11  24  39  68 103 133 175 230 300 346 433
#
# _framework density 22.770066
#
# number of rings (size 3 to 8) (size 9 to 14) (size 15 to 20)
#    0.000    0.696    7.826    1.304    4.870    0.000 
#    0.000    0.000    0.000    0.000    0.000    0.000 
#    0.000    0.000    0.000    0.000    0.000    0.000 
#
# Total GULP energy -256439.901248 kJ/mol
# GULP energy per Si atom -5574.780462 kJ/mol
# Density = 2.271824 g / cm^3
# Si number density = 22.770066 Si / 1000 Ang^3
#
#
#
# Elastic Constant Matrix: (Units=GPa)
#
#
# Indices 1 2 3 4 5 6 
#
# 1 83.9461 -2.5207 14.0297 0.0000 0.0000 0.0000
# 2 -2.5207 44.0222 15.1621 0.0000 0.0000 0.0000
# 3 14.0297 15.1621 147.5964 0.0000 0.0000 0.0000
# 4 0.0000 0.0000 0.0000 5.5560 0.0000 0.0000
# 5 0.0000 0.0000 0.0000 0.0000 11.8359 0.0000
# 6 0.0000 0.0000 0.0000 0.0000 0.0000 18.2441
#
#
#
# Elastic Compliance Matrix: (Units=1/GPa)
#
#
# Indices 1 2 3 4 5 6 
#
# 1 0.012159 0.001134 -0.001272 0.000000 0.000000 0.000000
# 2 0.001134 0.023655 -0.002538 0.000000 0.000000 0.000000
# 3 -0.001272 -0.002538 0.007157 0.000000 0.000000 0.000000
# 4 0.000000 0.000000 0.000000 0.179986 0.000000 0.000000
# 5 0.000000 0.000000 0.000000 0.000000 0.084488 0.000000
# 6 0.000000 0.000000 0.000000 0.000000 0.000000 0.054812
#
#
# Mechanical properties :
#
#
# Convention : Reuss Voigt Hill
#
# Bulk Modulus (GPa) = 26.58198 36.54518 31.56358
# Shear Modulus (GPa) = 13.15275 23.72011 18.43643
#
# Velocity S-wave (km/s) = 2.40601 3.23108 2.84857
# Velocity P-wave (km/s) = 4.40658 5.47762 4.97103
#
# Compressibility (1/GPa) = 0.03761947
#
# Stress axis : x y z
#
# Youngs Moduli (GPa) = 82.24288 42.27463 139.72580
#
# Poissons Ratio (x) = -0.04796 0.17777
# Poissons Ratio (y) = -0.09330 0.35460
# Poissons Ratio (z) = 0.10464 0.10729
#
# Static dielectric constant tensor:
#      x y z
#    x 1.932680 0.000000 0.000000 
#    y 0.000000 1.923830 0.000000 
#    z 0.000000 0.000000 1.918340 
# 
# From -- ./inp_files/31047.got.cif
#   From: 2010.05.17/outbox.cif.g08.bks.cpg/sg48_16_cif.got.tgz:31047.got - 2010.06.03 20:39:00.
