data_PCOD9389262
_publ_section_title
;
Structure prediction by ZEFSAII (Michael W. Deem and Ramdas Pophale) SiO2 
 PCOD9389262
Probable space group: P M M M
;
_chemical_formula_sum "Si O2"
_cell_formula_units_Z 64
_cell_length_a 9.000000
_cell_length_b 21.000000
_cell_length_c 18.000000
_cell_angle_alpha 90.000000
_cell_angle_beta 90.000000
_cell_angle_gamma 90.000000
_cell_volume 3402.000000
_symmetry_space_group_name_H-M "P M M M"
_symmetry_group_IT_number 47
_symmetry_cell_setting 'orthorhombic'
loop_
_space_group_symop_operation_xyz
x,y,z
-x,-y,z
x,-y,-z
-x,y,-z
-x,-y,-z
x,y,-z
-x,y,z
x,-y,z
loop_
_atom_site_type_symbol
_atom_site_label
_atom_site_fract_x
_atom_site_fract_y
_atom_site_fract_z
Si Si1 0.674035 0.405096 0.082338
Si Si2 0.672946 0.740775 0.874558
Si Si3 0.822384 0.795981 0.419469
Si Si4 0.323431 0.927753 0.616806
Si Si5 0.821507 0.431383 0.761113
Si Si6 0.169075 0.074396 0.227710
Si Si7 0.819816 0.708623 0.719061
Si Si8 0.178572 0.863634 0.921991
O O1 0.500000 0.422892 0.088805
O O2 0.681510 0.328626 0.088938
O O3 0.761240 0.428338 0.154546
O O4 0.726602 0.424369 0.000000
O O5 0.500000 0.759193 0.871262
O O6 0.743234 0.736165 0.792567
O O7 0.767237 0.791684 0.919008
O O8 0.790271 0.766315 0.500000
O O9 0.751258 0.866078 0.418624
O O10 0.774779 0.750439 0.351986
O O11 0.000000 0.803877 0.412826
O O12 0.500000 0.925379 0.606764
O O13 0.275373 0.919494 0.702411
O O14 0.274222 0.000000 0.594473
O O15 0.774416 0.500000 0.728920
O O16 0.776986 0.366482 0.718774
O O17 0.000000 0.430291 0.763883
O O18 0.232075 0.106027 0.154197
O O19 0.000000 0.098748 0.244817
O O20 0.154606 0.000000 0.212005
O O21 0.000000 0.712364 0.726141
O O22 0.000000 0.867352 0.919411
O O23 0.227794 0.893517 0.000000
#
# Coordination Sequence:
#
# PCOD9389262 Si02
#       8
#     8   8   8   8   8   8   8   8
#     4   9  18  31  45  64  94 130 164 200 244 290
#     4  10  19  31  48  69  93 123 162 203 243 291
#     4  10  21  36  55  79 105 133 164 198 238 287
#     4  10  21  36  54  77 105 135 165 199 241 290
#     4   9  18  32  50  72  97 128 166 205 246 292
#     4   9  18  33  51  68  89 122 163 203 242 288
#     4   9  18  34  54  74  99 130 163 201 244 291
#     4  10  20  31  44  65  92 122 159 205 254 297
#
# _framework density 18.812463000000001
#
# number of rings (size 3 to 8) (size 9 to 14) (size 15 to 20)
#    0.000    2.500    0.000    1.875    0.000    7.500 
#    0.000    3.750    0.000    0.375    0.000    5.250 
#    0.000    0.000    0.000    7.375    0.000    7.750 
#
# Total GULP energy -356656.644404 kJ/mol
# GULP energy per Si atom -5572.760069 kJ/mol
# Density = 1.876965 g / cm^3
# Si number density = 18.812463 Si / 1000 Ang^3
#
#
#
# Elastic Constant Matrix: (Units=GPa)
#
#
# Indices 1 2 3 4 5 6 
#
# 1 -4.7450 6.9682 10.8164 0.0000 0.0000 0.0000
# 2 6.9682 69.6673 67.6041 0.0000 0.0000 0.0000
# 3 10.8164 67.6041 106.5737 0.0000 0.0000 0.0000
# 4 0.0000 0.0000 0.0000 -224.6185 0.0000 0.0000
# 5 0.0000 0.0000 0.0000 0.0000-1402.6450 0.0000
# 6 0.0000 0.0000 0.0000 0.0000 0.0000 9.7560
#
#
#
# Elastic Compliance Matrix: (Units=1/GPa)
#
#
# Indices 1 2 3 4 5 6 
#
# 1 -0.171138 0.000683 0.016936 0.000000 0.000000 0.000000
# 2 0.000683 0.037334 -0.023752 0.000000 0.000000 0.000000
# 3 0.016936 -0.023752 0.022731 0.000000 0.000000 0.000000
# 4 0.000000 0.000000 0.000000 -0.004452 0.000000 0.000000
# 5 0.000000 0.000000 0.000000 0.000000 -0.000713 0.000000
# 6 0.000000 0.000000 0.000000 0.000000 0.000000 0.102501
#
#
# Mechanical properties :
#
#
# Convention : Reuss Voigt Hill
#
# Bulk Modulus (GPa) = -8.10777 38.03035 14.96129
# Shear Modulus (GPa) = -117.41478 -317.76102 -217.58790
#
# Velocity S-wave (km/s) = -7.90878 -13.01063 -10.76627
# Velocity P-wave (km/s) = 9.36576 14.33327 12.10703
#
# Compressibility (1/GPa) = -0.12333846
#
# Stress axis : x y z
#
# Youngs Moduli (GPa) = -5.84324 26.78523 43.99250
#
# Poissons Ratio (x) = -0.01831 -0.74504
# Poissons Ratio (y) = 0.00399 1.04490
# Poissons Ratio (z) = 0.09896 0.63620
#
# Static dielectric constant tensor:
#      x y z
#    x 1.633980 0.000000 0.000000 
#    y 0.000000 1.694570 0.000000 
#    z 0.000000 0.000000 1.689810 
# 
# From -- ./inp_files/9975.got.cif
#   From: 2010.05.17/outbox.ucp.g08.bks.cvg/sg47_5_cif.got.tgz:9975.got - 2010.06.11 16:36:43.
