data_PCOD9389131
_publ_section_title
;
Structure prediction by ZEFSAII (Michael W. Deem and Ramdas Pophale) SiO2 
 PCOD9389131
Probable space group: P M M M
;
_chemical_formula_sum "Si O2"
_cell_formula_units_Z 56
_cell_length_a 14.432844
_cell_length_b 7.509274
_cell_length_c 24.512600
_cell_angle_alpha 90.000000
_cell_angle_beta 90.000000
_cell_angle_gamma 90.000000
_cell_volume 2656.680005
_symmetry_space_group_name_H-M "P M M M"
_symmetry_group_IT_number 47
_symmetry_cell_setting 'orthorhombic'
loop_
_space_group_symop_operation_xyz
x,y,z
-x,-y,z
x,-y,-z
-x,y,-z
-x,-y,-z
x,y,-z
-x,y,z
x,-y,z
loop_
_atom_site_type_symbol
_atom_site_label
_atom_site_fract_x
_atom_site_fract_y
_atom_site_fract_z
Si Si1 0.895589 0.718161 0.669098
Si Si2 0.803754 0.292174 0.561659
Si Si3 0.290339 0.215510 0.938959
Si Si4 0.396959 0.289187 0.829990
Si Si5 0.212482 0.714696 0.226384
Si Si6 0.400836 0.214187 0.564359
Si Si7 0.103643 0.787914 0.117261
O O1 0.892392 0.500000 0.668157
O O2 0.868287 0.782910 0.608862
O O3 0.824610 0.778190 0.715582
O O4 0.000000 0.769222 0.683355
O O5 0.807811 0.215335 0.500000
O O6 0.827062 0.500000 0.556394
O O7 0.698051 0.281701 0.583693
O O8 0.362551 0.268413 0.892262
O O9 0.187990 0.279549 0.920340
O O10 0.288163 0.000000 0.939001
O O11 0.312653 0.275578 0.000000
O O12 0.500000 0.214773 0.821984
O O13 0.401721 0.500000 0.818976
O O14 0.312830 0.216566 0.793035
O O15 0.217971 0.500000 0.228524
O O16 0.138827 0.758431 0.178945
O O17 0.402460 0.261473 0.500000
O O18 0.500000 0.275149 0.587970
O O19 0.398842 0.000000 0.567916
O O20 0.000000 0.716089 0.108603
O O21 0.099142 0.000000 0.108173
#
# Coordination Sequence:
#
# PCOD9389131 Si02
#       7
#     8   8   8   8   8   8   8
#     4   9  17  29  46  68  92 118 149 185 226 272
#     4   9  17  28  43  66  94 121 151 187 224 264
#     4   9  18  31  46  67  95 125 156 186 217 261
#     4   9  18  32  49  68  90 117 149 187 230 270
#     4   9  17  31  50  68  87 114 151 191 228 271
#     4   8  14  26  44  63  84 114 148 178 213 259
#     4   9  17  29  46  68  93 120 150 187 230 269
#
# _framework density 21.078939999999999
#
# number of rings (size 3 to 8) (size 9 to 14) (size 15 to 20)
#    0.000    3.143    0.000    0.857    0.000    2.571 
#    0.000    7.143    0.000    3.857    0.000    6.000 
#    0.000    0.000    0.000    0.000    0.000    0.000 
#
# Total GULP energy -312137.539741 kJ/mol
# GULP energy per Si atom -5573.884638 kJ/mol
# Density = 2.103096 g / cm^3
# Si number density = 21.078940 Si / 1000 Ang^3
#
#
#
# Elastic Constant Matrix: (Units=GPa)
#
#
# Indices 1 2 3 4 5 6 
#
# 1 134.4276 -0.2249 51.6864 0.0000 0.0000 0.0000
# 2 -0.2249 53.9363 -4.0518 0.0000 0.0000 0.0000
# 3 51.6864 -4.0518 96.3944 0.0000 0.0000 0.0000
# 4 0.0000 0.0000 0.0000 28.3190 0.0000 0.0000
# 5 0.0000 0.0000 0.0000 0.0000 10.3770 0.0000
# 6 0.0000 0.0000 0.0000 0.0000 0.0000 31.9765
#
#
#
# Elastic Compliance Matrix: (Units=1/GPa)
#
#
# Indices 1 2 3 4 5 6 
#
# 1 0.009377 -0.000340 -0.005042 0.000000 0.000000 0.000000
# 2 -0.000340 0.018611 0.000964 0.000000 0.000000 0.000000
# 3 -0.005042 0.000964 0.013118 0.000000 0.000000 0.000000
# 4 0.000000 0.000000 0.000000 0.035312 0.000000 0.000000
# 5 0.000000 0.000000 0.000000 0.000000 0.096367 0.000000
# 6 0.000000 0.000000 0.000000 0.000000 0.000000 0.031273
#
#
# Mechanical properties :
#
#
# Convention : Reuss Voigt Hill
#
# Bulk Modulus (GPa) = 30.98684 42.17528 36.58106
# Shear Modulus (GPa) = 22.35630 29.95776 26.15703
#
# Velocity S-wave (km/s) = 3.26022 3.77399 3.52647
# Velocity P-wave (km/s) = 5.37627 6.24839 5.82867
#
# Compressibility (1/GPa) = 0.03227177
#
# Stress axis : x y z
#
# Youngs Moduli (GPa) = 106.64301 53.73047 76.22989
#
# Poissons Ratio (x) = 0.01825 0.38437
# Poissons Ratio (y) = 0.03622 -0.07352
# Poissons Ratio (z) = 0.53772 -0.05182
#
# Static dielectric constant tensor:
#      x y z
#    x 1.771430 0.000000 0.000000 
#    y 0.000000 1.802650 0.000000 
#    z 0.000000 0.000000 1.738260 
# 
# From -- ./inp_files/32468.got.cif
#   From: 2010.05.17/outbox.cif.g08.bks.cpg/sg47_17_cif.got.tgz:32468.got - 2010.06.03 20:15:42.
