data_PCOD9389340
_publ_section_title
;
Structure prediction by ZEFSAII (Michael W. Deem and Ramdas Pophale) SiO2 
 PCOD9389340
Probable space group: P M M M
;
_chemical_formula_sum "Si O2"
_cell_formula_units_Z 52
_cell_length_a 24.000000
_cell_length_b 15.000000
_cell_length_c 9.000000
_cell_angle_alpha 90.000000
_cell_angle_beta 90.000000
_cell_angle_gamma 90.000000
_cell_volume 3240.000000
_symmetry_space_group_name_H-M "P M M M"
_symmetry_group_IT_number 47
_symmetry_cell_setting 'orthorhombic'
loop_
_space_group_symop_operation_xyz
x,y,z
-x,-y,z
x,-y,-z
-x,y,-z
-x,-y,-z
x,y,-z
-x,y,z
x,-y,z
loop_
_atom_site_type_symbol
_atom_site_label
_atom_site_fract_x
_atom_site_fract_y
_atom_site_fract_z
Si Si1 0.112295 0.601074 0.677290
Si Si2 0.728128 0.214579 0.320768
Si Si3 0.842655 0.895608 0.323249
Si Si4 0.564061 0.892647 0.500000
Si Si5 0.626802 0.892197 0.820208
Si Si6 0.764908 0.602547 0.821293
Si Si7 0.063963 0.225215 0.823586
O O1 0.120136 0.613396 0.500000
O O2 0.090385 0.500000 0.700668
O O3 0.171990 0.606432 0.759066
O O4 0.075676 0.680696 0.742516
O O5 0.715895 0.212774 0.500000
O O6 0.786724 0.162525 0.299609
O O7 0.682739 0.161204 0.223371
O O8 0.733666 0.316178 0.261333
O O9 0.854207 0.892711 0.500000
O O10 0.892765 0.847426 0.237860
O O11 0.835254 0.000000 0.281921
O O12 0.500000 0.861811 0.500000
O O13 0.589769 0.869857 0.667174
O O14 0.565762 0.000000 0.500000
O O15 0.633764 0.000000 0.815846
O O16 0.611500 0.873119 0.000000
O O17 0.745049 0.500000 0.792326
O O18 0.764265 0.615973 0.000000
O O19 0.000000 0.198198 0.797491
O O20 0.072298 0.236852 0.000000
#
# Coordination Sequence:
#
# PCOD9389340 Si02
#       7
#     8   8   8   4   8   8   8
#     4  10  20  35  55  77  99 126 163 205 255 318
#     4  11  20  33  55  80 109 142 179 223 270 322
#     4  10  22  38  56  77  98 129 171 212 261 318
#     4   9  18  34  54  78 115 159 198 238 278 313
#     4  10  20  33  52  81 115 153 196 235 274 322
#     4  10  20  33  51  77 108 139 171 210 261 324
#     4  11  24  39  54  73  97 126 164 211 263 321
#
# _framework density 16.049382999999999
#
# number of rings (size 3 to 8) (size 9 to 14) (size 15 to 20)
#    0.000    1.769    2.308    2.308    0.000    5.538 
#    0.000    4.615    0.000    0.000    0.000    0.000 
#    0.000    1.231    0.000    3.231    0.000    0.154 
#
# Total GULP energy -289636.555962 kJ/mol
# GULP energy per Si atom -5569.933768 kJ/mol
# Density = 1.601285 g / cm^3
# Si number density = 16.049383 Si / 1000 Ang^3
#
#
#
# Elastic Constant Matrix: (Units=GPa)
#
#
# Indices 1 2 3 4 5 6 
#
# 1 69.3679 31.7493 46.1476 0.0000 0.0000 0.0000
# 2 31.7493 96.1488 42.7969 0.0000 0.0000 0.0000
# 3 46.1476 42.7969 116.7392 0.0000 0.0000 0.0000
# 4 0.0000 0.0000 0.0000 33.4569 0.0000 0.0000
# 5 0.0000 0.0000 0.0000 0.0000 26.1043 0.0000
# 6 0.0000 0.0000 0.0000 0.0000 0.0000 15.6854
#
#
#
# Elastic Compliance Matrix: (Units=1/GPa)
#
#
# Indices 1 2 3 4 5 6 
#
# 1 0.020665 -0.003809 -0.006772 0.000000 0.000000 0.000000
# 2 -0.003809 0.013131 -0.003308 0.000000 0.000000 0.000000
# 3 -0.006772 -0.003308 0.012456 0.000000 0.000000 0.000000
# 4 0.000000 0.000000 0.000000 0.029889 0.000000 0.000000
# 5 0.000000 0.000000 0.000000 0.000000 0.038308 0.000000
# 6 0.000000 0.000000 0.000000 0.000000 0.000000 0.063753
#
#
# Mechanical properties :
#
#
# Convention : Reuss Voigt Hill
#
# Bulk Modulus (GPa) = 54.13512 58.18263 56.15887
# Shear Modulus (GPa) = 23.56947 25.82013 24.69480
#
# Velocity S-wave (km/s) = 3.83634 4.01533 3.92685
# Velocity P-wave (km/s) = 7.30937 7.60448 7.45838
#
# Compressibility (1/GPa) = 0.01847230
#
# Stress axis : x y z
#
# Youngs Moduli (GPa) = 48.39157 76.15673 80.28263
#
# Poissons Ratio (x) = 0.29010 0.54371
# Poissons Ratio (y) = 0.18433 0.26557
# Poissons Ratio (z) = 0.32773 0.25193
#
# Static dielectric constant tensor:
#      x y z
#    x 1.535950 0.000000 0.000000 
#    y 0.000000 1.534830 0.000000 
#    z 0.000000 0.000000 1.559170 
# 
# From -- ./inp_files/12570.got.cif
#   From: 2010.05.17/outbox.ucp.g08.bks.cvg/sg47_7_cif.got.tgz:12570.got - 2010.06.11 16:36:43.
