data_PCOD9389324
_publ_section_title
;
Structure prediction by ZEFSAII (Michael W. Deem and Ramdas Pophale) SiO2 
 PCOD9389324
Probable space group: P M M M
;
_chemical_formula_sum "Si O2"
_cell_formula_units_Z 52
_cell_length_a 21.000000
_cell_length_b 15.000000
_cell_length_c 9.000000
_cell_angle_alpha 90.000000
_cell_angle_beta 90.000000
_cell_angle_gamma 90.000000
_cell_volume 2835.000000
_symmetry_space_group_name_H-M "P M M M"
_symmetry_group_IT_number 47
_symmetry_cell_setting 'orthorhombic'
loop_
_space_group_symop_operation_xyz
x,y,z
-x,-y,z
x,-y,-z
-x,y,-z
-x,-y,-z
x,y,-z
-x,y,z
x,-y,z
loop_
_atom_site_type_symbol
_atom_site_label
_atom_site_fract_x
_atom_site_fract_y
_atom_site_fract_z
Si Si1 0.800472 0.766929 0.178279
Si Si2 0.570530 0.786054 0.677372
Si Si3 0.927459 0.312787 0.178114
Si Si4 0.077393 0.500000 0.669441
Si Si5 0.402021 0.400727 0.822303
Si Si6 0.686664 0.103884 0.820795
Si Si7 0.736111 0.401972 0.675876
O O1 0.875954 0.764351 0.211135
O O2 0.754141 0.848923 0.217747
O O3 0.774820 0.680892 0.264165
O O4 0.793584 0.754107 0.000000
O O5 0.579375 0.782506 0.500000
O O6 0.500000 0.825169 0.708203
O O7 0.570465 0.685723 0.741922
O O8 0.628378 0.841194 0.749283
O O9 0.906798 0.407251 0.249419
O O10 0.000000 0.292996 0.226013
O O11 0.928090 0.325122 0.000000
O O12 0.101164 0.500000 0.500000
O O13 0.000000 0.500000 0.665573
O O14 0.427338 0.500000 0.784575
O O15 0.328945 0.401548 0.769137
O O16 0.407032 0.389992 0.000000
O O17 0.685404 0.000000 0.777004
O O18 0.680070 0.108511 0.000000
O O19 0.722612 0.392444 0.500000
O O20 0.766364 0.500000 0.697488
#
# Coordination Sequence:
#
# PCOD9389324 Si02
#       7
#     8   8   8   4   8   8   8
#     4  10  20  34  55  80 106 143 186 228 275 327
#     4  11  24  40  59  85 116 148 183 226 276 330
#     4   9  18  32  49  72 106 147 188 225 265 319
#     4   9  17  29  45  69 105 147 188 227 268 313
#     4  10  20  35  56  82 114 152 191 227 265 317
#     4  10  22  41  63  85 108 137 180 234 288 341
#     4  10  20  32  49  77 112 147 183 227 274 321
#
# _framework density 18.342151999999999
#
# number of rings (size 3 to 8) (size 9 to 14) (size 15 to 20)
#    0.000    2.077    1.538    1.615    1.077    5.538 
#    0.000    3.077    0.000    0.462    0.000    3.231 
#    0.000    0.000    0.000    6.615    0.000    7.077 
#
# Total GULP energy -290016.234668 kJ/mol
# GULP energy per Si atom -5577.235282 kJ/mol
# Density = 1.830040 g / cm^3
# Si number density = 18.342152 Si / 1000 Ang^3
#
#
#
# Elastic Constant Matrix: (Units=GPa)
#
#
# Indices 1 2 3 4 5 6 
#
# 1 131.5967 70.2901 31.6923 0.0000 0.0000 0.0000
# 2 70.2901 120.4058 33.9321 0.0000 0.0000 0.0000
# 3 31.6923 33.9321 32.5943 0.0000 0.0000 0.0000
# 4 0.0000 0.0000 0.0000 13.8418 0.0000 0.0000
# 5 0.0000 0.0000 0.0000 0.0000 33.5472 0.0000
# 6 0.0000 0.0000 0.0000 0.0000 0.0000 1.4973
#
#
#
# Elastic Compliance Matrix: (Units=1/GPa)
#
#
# Indices 1 2 3 4 5 6 
#
# 1 0.011844 -0.005192 -0.006111 0.000000 0.000000 0.000000
# 2 -0.005192 0.014030 -0.009557 0.000000 0.000000 0.000000
# 3 -0.006111 -0.009557 0.046571 0.000000 0.000000 0.000000
# 4 0.000000 0.000000 0.000000 0.072245 0.000000 0.000000
# 5 0.000000 0.000000 0.000000 0.000000 0.029809 0.000000
# 6 0.000000 0.000000 0.000000 0.000000 0.000000 0.667861
#
#
# Mechanical properties :
#
#
# Convention : Reuss Voigt Hill
#
# Bulk Modulus (GPa) = 32.54711 61.82511 47.18611
# Shear Modulus (GPa) = 5.59083 19.68940 12.64011
#
# Velocity S-wave (km/s) = 1.74777 3.27991 2.62798
# Velocity P-wave (km/s) = 4.67503 6.93711 5.91521
#
# Compressibility (1/GPa) = 0.03072469
#
# Stress axis : x y z
#
# Youngs Moduli (GPa) = 84.43150 71.27824 21.47240
#
# Poissons Ratio (x) = 0.37008 0.13122
# Poissons Ratio (y) = 0.43837 0.20521
# Poissons Ratio (z) = 0.51597 0.68121
#
# Static dielectric constant tensor:
#      x y z
#    x 1.702030 0.000000 0.000000 
#    y 0.000000 1.612690 0.000000 
#    z 0.000000 0.000000 1.606750 
# 
# From -- ./inp_files/10976.got.cif
#   From: 2010.05.17/outbox.ucp.g08.bks.cvg/sg47_6_cif.got.tgz:10976.got - 2010.06.11 16:36:43.
