data_PCOD9389780
_publ_section_title
;
Structure prediction by ZEFSAII (Michael W. Deem and Ramdas Pophale) SiO2 
 PCOD9389780
Probable space group: P N N N
;
_chemical_formula_sum "Si O2"
_cell_formula_units_Z 32
_cell_length_a 15.959407
_cell_length_b 9.557810
_cell_length_c 10.135035
_cell_angle_alpha 90.000000
_cell_angle_beta 90.000000
_cell_angle_gamma 90.000000
_cell_volume 1545.967629
_symmetry_space_group_name_H-M "P N N N"
_symmetry_group_IT_number 48
_space_group.IT_coordinate_system_code '2'
_symmetry_cell_setting 'orthorhombic'
loop_
_space_group_symop_operation_xyz
x,y,z
1/2-x,1/2-y,z
x,1/2-y,1/2-z
1/2-x,y,1/2-z
-x,-y,-z
1/2+x,1/2+y,-z
-x,1/2+y,1/2+z
1/2+x,-y,1/2+z
loop_
_atom_site_type_symbol
_atom_site_label
_atom_site_fract_x
_atom_site_fract_y
_atom_site_fract_z
Si Si1 0.891762 0.704568 0.961168
Si Si2 0.326550 0.946280 0.661946
Si Si3 0.472717 0.750000 0.750000
Si Si4 0.884828 0.750000 0.250000
Si Si5 0.230886 0.033692 0.099293
O O1 0.838189 0.840418 0.909094
O O2 0.819402 0.588269 0.958106
O O3 0.967257 0.686432 0.861358
O O4 0.926908 0.713741 0.110183
O O5 0.250000 0.895565 0.750000
O O6 0.412499 0.869310 0.693354
O O7 0.335999 0.110729 0.701914
O O8 0.304540 0.927494 0.508225
O O9 0.250000 0.994185 0.250000
#
# Coordination Sequence:
#
# PCOD9389780 Si02
#       5
#     8   8   4   4   8
#     4  10  19  37  61  96 126 164 210 276 313 370
#     4  11  23  41  64  91 124 175 213 260 324 396
#     4  12  25  39  60  96 140 164 198 273 355 366
#     4  10  21  38  68  88 119 162 234 255 298 382
#     4  10  18  36  67  92 120 163 229 261 302 378
#
# _framework density 20.699009
#
# number of rings (size 3 to 8) (size 9 to 14) (size 15 to 20)
#    0.000    1.500    5.000    1.500    0.000    5.000 
#    0.000    0.000    0.000    1.500    0.000    0.000 
#    0.000    0.000    0.000    0.000    0.000    0.000 
#
# Total GULP energy -178352.961282 kJ/mol
# GULP energy per Si atom -5573.530040 kJ/mol
# Density = 2.065190 g / cm^3
# Si number density = 20.699009 Si / 1000 Ang^3
#
#
#
# Elastic Constant Matrix: (Units=GPa)
#
#
# Indices 1 2 3 4 5 6 
#
# 1 115.8501 15.7291 59.5923 0.0000 0.0000 0.0000
# 2 15.7291 48.1164 13.0682 0.0000 0.0000 0.0000
# 3 59.5923 13.0682 220.8587 0.0000 0.0000 0.0000
# 4 0.0000 0.0000 0.0000 -15.5551 0.0000 0.0000
# 5 0.0000 0.0000 0.0000 0.0000 38.1161 0.0000
# 6 0.0000 0.0000 0.0000 0.0000 0.0000 2.3486
#
#
#
# Elastic Compliance Matrix: (Units=1/GPa)
#
#
# Indices 1 2 3 4 5 6 
#
# 1 0.010349 -0.002668 -0.002635 0.000000 0.000000 0.000000
# 2 -0.002668 0.021810 -0.000571 0.000000 0.000000 0.000000
# 3 -0.002635 -0.000571 0.005272 0.000000 0.000000 0.000000
# 4 0.000000 0.000000 0.000000 -0.064287 0.000000 0.000000
# 5 0.000000 0.000000 0.000000 0.000000 0.026236 0.000000
# 6 0.000000 0.000000 0.000000 0.000000 0.000000 0.425782
#
#
# Mechanical properties :
#
#
# Convention : Reuss Voigt Hill
#
# Bulk Modulus (GPa) = 38.93204 62.40050 50.66627
# Shear Modulus (GPa) = 11.22412 24.74429 17.98420
#
# Velocity S-wave (km/s) = 2.33116 3.46125 2.95081
# Velocity P-wave (km/s) = 5.10835 6.79601 6.01170
#
# Compressibility (1/GPa) = 0.02568579
#
# Stress axis : x y z
#
# Youngs Moduli (GPa) = 96.62545 45.85064 189.66617
#
# Poissons Ratio (x) = 0.12231 0.49969
# Poissons Ratio (y) = 0.25776 0.10825
# Poissons Ratio (z) = 0.25457 0.02617
#
# Static dielectric constant tensor:
#      x y z
#    x 1.691790 0.000000 0.000000 
#    y 0.000000 1.799730 0.000000 
#    z 0.000000 0.000000 1.778440 
# 
# From -- ./inp_files/19484.got.cif
#   From: 2010.05.17/outbox.cif.g08.bks.cpg/sg48_10_cif.got.tgz:19484.got - 2010.06.03 20:39:00.
