data_PCOD9389202
_publ_section_title
;
Structure prediction by ZEFSAII (Michael W. Deem and Ramdas Pophale) SiO2 
 PCOD9389202
Probable space group: P M M M
;
_chemical_formula_sum "Si O2"
_cell_formula_units_Z 40
_cell_length_a 13.274019
_cell_length_b 7.518134
_cell_length_c 20.603020
_cell_angle_alpha 90.000000
_cell_angle_beta 90.000000
_cell_angle_gamma 90.000000
_cell_volume 2056.095967
_symmetry_space_group_name_H-M "P M M M"
_symmetry_group_IT_number 47
_symmetry_cell_setting 'orthorhombic'
loop_
_space_group_symop_operation_xyz
x,y,z
-x,-y,z
x,-y,-z
-x,y,-z
-x,-y,-z
x,y,-z
-x,y,z
x,-y,z
loop_
_atom_site_type_symbol
_atom_site_label
_atom_site_fract_x
_atom_site_fract_y
_atom_site_fract_z
Si Si1 0.380608 0.295833 0.500000
Si Si2 0.612121 0.286009 0.779971
Si Si3 0.323284 0.295403 0.637875
Si Si4 0.888716 0.784089 0.685186
Si Si5 0.827692 0.788311 0.828744
Si Si6 0.000000 0.781801 0.074407
O O1 0.338692 0.500000 0.500000
O O2 0.500000 0.306153 0.500000
O O3 0.351048 0.212443 0.568947
O O4 0.500000 0.225826 0.799742
O O5 0.610482 0.500000 0.776519
O O6 0.635742 0.219515 0.706342
O O7 0.707535 0.243416 0.825699
O O8 0.360533 0.500000 0.636015
O O9 0.203236 0.289938 0.644480
O O10 0.870266 0.724142 0.759463
O O11 0.000000 0.732216 0.663948
O O12 0.882561 0.000000 0.684187
O O13 0.899652 0.723102 0.886443
O O14 0.840485 0.000000 0.828603
O O15 0.000000 0.000000 0.073751
O O16 0.000000 0.723355 0.000000
#
# Coordination Sequence:
#
# PCOD9389202 Si02
#       6
#     4   8   8   8   8   4
#     4   9  16  28  46  63  82 110 143 181 226 273
#     4   9  17  29  45  67  94 120 149 188 230 268
#     4   9  17  28  44  66  86 110 147 187 225 265
#     4   9  16  28  45  63  87 117 145 176 218 266
#     4   9  16  28  47  70  93 118 150 184 221 266
#     4   9  16  28  49  75  99 120 145 182 226 267
#
# _framework density 19.454345
#
# number of rings (size 3 to 8) (size 9 to 14) (size 15 to 20)
#    0.000    3.000    1.000    0.600    0.000    3.200 
#    0.000    1.500    0.000    7.200    0.000    4.200 
#    0.000    0.000    0.000    0.000    0.000    0.000 
#
# Total GULP energy -222827.192075 kJ/mol
# GULP energy per Si atom -5570.679802 kJ/mol
# Density = 1.941007 g / cm^3
# Si number density = 19.454345 Si / 1000 Ang^3
#
#
#
# Elastic Constant Matrix: (Units=GPa)
#
#
# Indices 1 2 3 4 5 6 
#
# 1 155.1588 -3.0030 72.5921 0.0000 0.0000 0.0000
# 2 -3.0030 48.7044 6.7690 0.0000 0.0000 0.0000
# 3 72.5921 6.7690 124.8883 0.0000 0.0000 0.0000
# 4 0.0000 0.0000 0.0000 -4.4304 0.0000 0.0000
# 5 0.0000 0.0000 0.0000 0.0000 27.5257 0.0000
# 6 0.0000 0.0000 0.0000 0.0000 0.0000 20.3480
#
#
#
# Elastic Compliance Matrix: (Units=1/GPa)
#
#
# Indices 1 2 3 4 5 6 
#
# 1 0.008931 0.001282 -0.005261 0.000000 0.000000 0.000000
# 2 0.001282 0.020872 -0.001876 0.000000 0.000000 0.000000
# 3 -0.005261 -0.001876 0.011167 0.000000 0.000000 0.000000
# 4 0.000000 0.000000 0.000000 -0.225711 0.000000 0.000000
# 5 0.000000 0.000000 0.000000 0.000000 0.036330 0.000000
# 6 0.000000 0.000000 0.000000 0.000000 0.000000 0.049145
#
#
# Mechanical properties :
#
#
# Convention : Reuss Voigt Hill
#
# Bulk Modulus (GPa) = 34.17736 53.49642 43.83689
# Shear Modulus (GPa) = -64.26478 25.51488 -19.37495
#
# Velocity S-wave (km/s) = -5.75372 3.62543 -3.15924
# Velocity P-wave (km/s) = 5.15115 6.71440 3.04539
#
# Compressibility (1/GPa) = 0.02925914
#
# Stress axis : x y z
#
# Youngs Moduli (GPa) = 111.96854 47.91144 89.55216
#
# Poissons Ratio (x) = -0.06141 0.47111
# Poissons Ratio (y) = -0.14352 0.16803
# Poissons Ratio (z) = 0.58904 0.08990
#
# Static dielectric constant tensor:
#      x y z
#    x 1.690520 0.000000 0.000000 
#    y 0.000000 1.763070 0.000000 
#    z 0.000000 0.000000 1.671830 
# 
# From -- ./inp_files/30329.got.cif
#   From: 2010.05.17/outbox.cif.g08.bks.cpg/sg47_16_cif.got.tgz:30329.got - 2010.06.03 20:15:42.
