data_PCOD9389003
_publ_section_title
;
Structure prediction by ZEFSAII (Michael W. Deem and Ramdas Pophale) SiO2 
 PCOD9389003
Probable space group: P M M M
;
_chemical_formula_sum "Si O2"
_cell_formula_units_Z 64
_cell_length_a 42.808615
_cell_length_b 7.543590
_cell_length_c 9.889074
_cell_angle_alpha 90.000000
_cell_angle_beta 90.000000
_cell_angle_gamma 90.000000
_cell_volume 3193.484996
_symmetry_space_group_name_H-M "P M M M"
_symmetry_group_IT_number 47
_symmetry_cell_setting 'orthorhombic'
loop_
_space_group_symop_operation_xyz
x,y,z
-x,-y,z
x,-y,-z
-x,y,-z
-x,-y,-z
x,y,-z
-x,y,z
x,-y,z
loop_
_atom_site_type_symbol
_atom_site_label
_atom_site_fract_x
_atom_site_fract_y
_atom_site_fract_z
Si Si1 0.964367 0.216044 0.153933
Si Si2 0.343538 0.787465 0.654017
Si Si3 0.147934 0.787988 0.845822
Si Si4 0.908139 0.782776 0.344421
Si Si5 0.533584 0.286808 0.842419
Si Si6 0.273480 0.287130 0.346114
Si Si7 0.218670 0.713006 0.846427
Si Si8 0.398028 0.210423 0.153849
O O1 0.939045 0.273775 0.263038
O O2 0.000000 0.271876 0.181892
O O3 0.964273 0.000000 0.154569
O O4 0.956171 0.269448 0.000000
O O5 0.345877 0.718522 0.500000
O O6 0.308444 0.751689 0.704301
O O7 0.370630 0.717623 0.751524
O O8 0.347031 0.000000 0.647000
O O9 0.121944 0.723184 0.741523
O O10 0.183396 0.752455 0.800939
O O11 0.144124 0.000000 0.853373
O O12 0.144199 0.718985 0.000000
O O13 0.907644 0.725294 0.500000
O O14 0.908041 0.000000 0.345492
O O15 0.500000 0.226490 0.784466
O O16 0.533128 0.500000 0.842052
O O17 0.567169 0.233854 0.785810
O O18 0.534029 0.228041 0.000000
O O19 0.271124 0.218923 0.500000
O O20 0.270561 0.500000 0.351999
O O21 0.245821 0.219316 0.251207
O O22 0.221528 0.500000 0.851562
O O23 0.221925 0.780711 0.000000
O O24 0.393102 0.000000 0.142869
O O25 0.397439 0.283379 0.000000
#
# Coordination Sequence:
#
# PCOD9389003 Si02
#       8
#     8   8   8   8   8   8   8   8
#     4   8  13  21  33  49  72 106 144 176 210 256
#     4   9  18  32  47  63  87 118 146 172 208 254
#     4   9  17  29  44  61  83 112 142 170 205 251
#     4   9  16  24  35  54  80 108 139 177 216 250
#     4   8  14  25  41  62  88 115 142 175 216 258
#     4   9  18  32  48  65  85 110 140 172 207 249
#     4   9  18  32  48  66  88 112 139 174 214 252
#     4   9  17  28  43  65  89 111 140 178 214 247
#
# _framework density 20.040801999999999
#
# number of rings (size 3 to 8) (size 9 to 14) (size 15 to 20)
#    0.000    3.250    0.000    1.125    0.000    4.000 
#    0.000    2.500    0.000    0.375    0.000    2.625 
#    0.000    0.500    0.000    5.750    0.000    7.375 
#
# Total GULP energy -356726.431133 kJ/mol
# GULP energy per Si atom -5573.850486 kJ/mol
# Density = 1.999519 g / cm^3
# Si number density = 20.040802 Si / 1000 Ang^3
#
#
#
# Elastic Constant Matrix: (Units=GPa)
#
#
# Indices 1 2 3 4 5 6 
#
# 1 216.9929 -0.8864 123.8476 0.0000 0.0000 0.0000
# 2 -0.8864 47.2891 4.8634 0.0000 0.0000 0.0000
# 3 123.8476 4.8634 102.7063 0.0000 0.0000 0.0000
# 4 0.0000 0.0000 0.0000 -2.3842 0.0000 0.0000
# 5 0.0000 0.0000 0.0000 0.0000 -55.1747 0.0000
# 6 0.0000 0.0000 0.0000 0.0000 0.0000 17.7870
#
#
#
# Elastic Compliance Matrix: (Units=1/GPa)
#
#
# Indices 1 2 3 4 5 6 
#
# 1 0.014996 0.002151 -0.018185 0.000000 0.000000 0.000000
# 2 0.002151 0.021559 -0.003615 0.000000 0.000000 0.000000
# 3 -0.018185 -0.003615 0.031836 0.000000 0.000000 0.000000
# 4 0.000000 0.000000 0.000000 -0.419428 0.000000 0.000000
# 5 0.000000 0.000000 0.000000 0.000000 -0.018124 0.000000
# 6 0.000000 0.000000 0.000000 0.000000 0.000000 0.056221
#
#
# Mechanical properties :
#
#
# Convention : Reuss Voigt Hill
#
# Bulk Modulus (GPa) = 34.37203 69.18195 51.77699
# Shear Modulus (GPa) = -18.94332 7.98985 -5.47674
#
# Velocity S-wave (km/s) = -3.07781 1.99886 -1.65491
# Velocity P-wave (km/s) = 2.13488 6.31845 4.71596
#
# Compressibility (1/GPa) = 0.02909342
#
# Stress axis : x y z
#
# Youngs Moduli (GPa) = 66.68366 46.38518 31.41116
#
# Poissons Ratio (x) = -0.09979 0.57121
# Poissons Ratio (y) = -0.14346 0.11355
# Poissons Ratio (z) = 1.21264 0.16768
#
# Static dielectric constant tensor:
#      x y z
#    x 1.706710 0.000000 0.000000 
#    y 0.000000 1.770240 0.000000 
#    z 0.000000 0.000000 1.695970 
# 
# From -- ./inp_files/14190.got.cif
#   From: 2010.05.17/outbox.cif.g08.bks.cpg/sg47_8_cif.got.tgz:14190.got - 2010.06.03 20:15:42.
