data_PCOD9389465
_publ_section_title
;
Structure prediction by ZEFSAII (Michael W. Deem and Ramdas Pophale) SiO2 
 PCOD9389465
Probable space group: P M M M
;
_chemical_formula_sum "Si O2"
_cell_formula_units_Z 44
_cell_length_a 9.000000
_cell_length_b 30.000000
_cell_length_c 9.000000
_cell_angle_alpha 90.000000
_cell_angle_beta 90.000000
_cell_angle_gamma 90.000000
_cell_volume 2430.000000
_symmetry_space_group_name_H-M "P M M M"
_symmetry_group_IT_number 47
_symmetry_cell_setting 'orthorhombic'
loop_
_space_group_symop_operation_xyz
x,y,z
-x,-y,z
x,-y,-z
-x,y,-z
-x,-y,-z
x,y,-z
-x,y,z
x,-y,z
loop_
_atom_site_type_symbol
_atom_site_label
_atom_site_fract_x
_atom_site_fract_y
_atom_site_fract_z
Si Si1 0.176844 0.771091 0.323437
Si Si2 0.670591 0.409971 0.818596
Si Si3 0.675851 0.138288 0.677346
Si Si4 0.170393 0.500000 0.181522
Si Si5 0.319952 0.048361 0.824606
Si Si6 0.175121 0.319530 0.822074
O O1 0.203473 0.768159 0.500000
O O2 0.248892 0.816610 0.266736
O O3 0.233595 0.726067 0.248023
O O4 0.000000 0.773538 0.299267
O O5 0.500000 0.411132 0.774984
O O6 0.751394 0.454776 0.768299
O O7 0.746081 0.364303 0.768490
O O8 0.677459 0.409858 0.000000
O O9 0.695387 0.136176 0.500000
O O10 0.500000 0.140996 0.708165
O O11 0.736473 0.092621 0.745954
O O12 0.000000 0.500000 0.226002
O O13 0.175719 0.500000 0.000000
O O14 0.500000 0.048280 0.807247
O O15 0.266649 0.000000 0.768816
O O16 0.290051 0.050838 0.000000
O O17 0.000000 0.323104 0.788025
O O18 0.190541 0.316871 0.000000
#
# Coordination Sequence:
#
# PCOD9389465 Si02
#       6
#     8   8   8   4   8   8
#     4   9  18  32  47  62  84 115 146 175 212 259
#     4   9  16  25  38  59  87 115 143 178 219 259
#     4   9  17  28  43  64  86 107 137 178 216 249
#     4   9  15  23  37  57  84 119 152 179 212 256
#     4   8  14  25  41  62  88 115 141 171 210 255
#     4   9  17  29  44  62  84 110 142 178 213 252
#
# _framework density 18.106995999999999
#
# number of rings (size 3 to 8) (size 9 to 14) (size 15 to 20)
#    0.000    3.182    0.000    1.364    0.000    5.091 
#    0.000    1.818    0.000    0.545    0.000    4.455 
#    0.000    5.091    0.000    0.000    0.000    0.000 
#
# Total GULP energy -244998.921729 kJ/mol
# GULP energy per Si atom -5568.157312 kJ/mol
# Density = 1.806578 g / cm^3
# Si number density = 18.106996 Si / 1000 Ang^3
#
#
#
# Elastic Constant Matrix: (Units=GPa)
#
#
# Indices 1 2 3 4 5 6 
#
# 1 38.3883 83.1435 31.3672 0.0000 0.0000 0.0000
# 2 83.1435 249.8719 39.0001 0.0000 0.0000 0.0000
# 3 31.3672 39.0001 -12.7384 0.0000 0.0000 0.0000
# 4 0.0000 0.0000 0.0000 75.5893 0.0000 0.0000
# 5 0.0000 0.0000 0.0000 0.0000 6.6737 0.0000
# 6 0.0000 0.0000 0.0000 0.0000 0.0000 32.3483
#
#
#
# Elastic Compliance Matrix: (Units=1/GPa)
#
#
# Indices 1 2 3 4 5 6 
#
# 1 0.034858 -0.016914 0.034052 0.000000 0.000000 0.000000
# 2 -0.016914 0.010915 -0.008232 0.000000 0.000000 0.000000
# 3 0.034052 -0.008232 -0.019855 0.000000 0.000000 0.000000
# 4 0.000000 0.000000 0.000000 0.013229 0.000000 0.000000
# 5 0.000000 0.000000 0.000000 0.000000 0.149841 0.000000
# 6 0.000000 0.000000 0.000000 0.000000 0.000000 0.030914
#
#
# Mechanical properties :
#
#
# Convention : Reuss Voigt Hill
#
# Bulk Modulus (GPa) = 22.86669 64.72702 43.79686
# Shear Modulus (GPa) = 23.07693 31.05633 27.06663
#
# Velocity S-wave (km/s) = 3.57385 4.14594 3.87048
# Velocity P-wave (km/s) = 5.44848 7.66440 6.64940
#
# Compressibility (1/GPa) = 0.04373174
#
# Stress axis : x y z
#
# Youngs Moduli (GPa) = 28.68748 91.61833 -50.36564
#
# Poissons Ratio (x) = 1.54962 1.71506
# Poissons Ratio (y) = 0.48521 -0.41460
# Poissons Ratio (z) = -0.97687 0.75418
#
# Static dielectric constant tensor:
#      x y z
#    x 1.615240 0.000000 0.000000 
#    y 0.000000 1.638790 0.000000 
#    z 0.000000 0.000000 1.606940 
# 
# From -- ./inp_files/2154.got.cif
#   From: 2010.05.17/outbox.ucp.g08.bks.cvg/sg47_2_cif.got.tgz:2154.got - 2010.06.11 16:36:43.
