data_PCOD9389615
_publ_section_title
;
Structure prediction by ZEFSAII (Michael W. Deem and Ramdas Pophale) SiO2 
 PCOD9389615
Probable space group: P N N N
;
_chemical_formula_sum "Si O2"
_cell_formula_units_Z 64
_cell_length_a 5.422192
_cell_length_b 20.134111
_cell_length_c 26.049005
_cell_angle_alpha 90.000000
_cell_angle_beta 90.000000
_cell_angle_gamma 90.000000
_cell_volume 2843.796331
_symmetry_space_group_name_H-M "P N N N"
_symmetry_group_IT_number 48
_space_group.IT_coordinate_system_code '2'
_symmetry_cell_setting 'orthorhombic'
loop_
_space_group_symop_operation_xyz
x,y,z
1/2-x,1/2-y,z
x,1/2-y,1/2-z
1/2-x,y,1/2-z
-x,-y,-z
1/2+x,1/2+y,-z
-x,1/2+y,1/2+z
1/2+x,-y,1/2+z
loop_
_atom_site_type_symbol
_atom_site_label
_atom_site_fract_x
_atom_site_fract_y
_atom_site_fract_z
Si Si1 0.750017 0.178194 0.068097
Si Si2 0.750014 0.116223 0.175475
Si Si3 0.249896 0.035267 0.834120
Si Si4 0.749986 0.671531 0.662499
Si Si5 0.249998 0.673403 0.084922
Si Si6 0.749997 0.907849 0.441602
Si Si7 0.250104 0.884932 0.192122
Si Si8 0.250015 0.369403 0.453655
O O1 0.750000 0.250000 0.093801
O O2 0.750021 0.125096 0.113346
O O3 0.501740 0.170092 0.036929
O O4 0.998303 0.170099 0.036931
O O5 0.498799 0.151955 0.191078
O O6 0.001235 0.151952 0.191079
O O7 0.750015 0.039079 0.186730
O O8 0.249962 0.036953 0.896847
O O9 0.500356 0.071745 0.816277
O O10 0.999317 0.071697 0.816293
O O11 0.750000 0.750000 0.649861
O O12 0.749981 0.628324 0.608811
O O13 0.250000 0.750000 0.068170
O O14 0.500414 0.634599 0.068797
O O15 0.249967 0.668877 0.147029
O O16 0.999604 0.634589 0.068794
O O17 0.749995 0.926230 0.502574
O O18 0.250000 0.859032 0.250000
#
# Coordination Sequence:
#
# PCOD9389615 Si02
#       8
#     8   8   8   8   8   8   8   8
#     4  10  19  30  45  70 100 130 174 219 251 284
#     4  10  18  32  51  72 103 137 168 214 255 294
#     4  10  21  37  55  78 104 133 168 204 251 308
#     4  10  19  31  48  75 107 136 176 221 254 284
#     4  10  21  34  52  77 101 131 169 209 257 308
#     4  10  21  34  48  71 106 139 173 216 253 290
#     4  10  21  39  59  78 103 129 158 206 257 304
#     4  10  18  29  44  65  94 138 177 206 251 287
#
# _framework density 22.505130000000001
#
# number of rings (size 3 to 8) (size 9 to 14) (size 15 to 20)
#    0.000    2.000    0.000    6.000    0.000    4.250 
#    0.000    5.000    0.000    4.500    0.000    0.000 
#    0.000   58.000    0.000    0.000    0.000    0.000 
#
# Total GULP energy -356599.063591 kJ/mol
# GULP energy per Si atom -5571.860369 kJ/mol
# Density = 2.245391 g / cm^3
# Si number density = 22.505130 Si / 1000 Ang^3
#
#
#
# Elastic Constant Matrix: (Units=GPa)
#
#
# Indices 1 2 3 4 5 6 
#
# 1 230.9434 19.8511 2.5169 0.0000 0.0000 0.0000
# 2 19.8511 36.5242 0.7873 0.0000 0.0000 0.0000
# 3 2.5169 0.7873 132.4679 0.0000 0.0000 0.0000
# 4 0.0000 0.0000 0.0000 13.9869 0.0000 0.0000
# 5 0.0000 0.0000 0.0000 0.0000 -187.2710 0.0000
# 6 0.0000 0.0000 0.0000 0.0000 0.0000 17.7870
#
#
#
# Elastic Compliance Matrix: (Units=1/GPa)
#
#
# Indices 1 2 3 4 5 6 
#
# 1 0.004543 -0.002468 -0.000072 0.000000 0.000000 0.000000
# 2 -0.002468 0.028723 -0.000124 0.000000 0.000000 0.000000
# 3 -0.000072 -0.000124 0.007551 0.000000 0.000000 0.000000
# 4 0.000000 0.000000 0.000000 0.071496 0.000000 0.000000
# 5 0.000000 0.000000 0.000000 0.000000 -0.005340 0.000000
# 6 0.000000 0.000000 0.000000 0.000000 0.000000 0.056221
#
#
# Mechanical properties :
#
#
# Convention : Reuss Voigt Hill
#
# Bulk Modulus (GPa) = 28.17628 49.58291 38.87959
# Shear Modulus (GPa) = 27.72390 -5.98072 10.87159
#
# Velocity S-wave (km/s) = 3.51364 -1.63195 2.20027
# Velocity P-wave (km/s) = 5.38591 4.30449 4.87528
#
# Compressibility (1/GPa) = 0.03549085
#
# Stress axis : x y z
#
# Youngs Moduli (GPa) = 220.12135 34.81542 132.43113
#
# Poissons Ratio (x) = 0.08591 0.00949
# Poissons Ratio (y) = 0.54316 0.01640
# Poissons Ratio (z) = 0.01577 0.00431
#
# Static dielectric constant tensor:
#      x y z
#    x 1.877480 0.000000 0.000000 
#    y 0.000000 1.738130 0.000000 
#    z 0.000000 0.000000 1.892090 
# 
# From -- ./inp_files/37242.got.cif
#   From: 2010.05.17/outbox.cif.g08.bks.cpg/sg48_19_cif.got.tgz:37242.got - 2010.06.03 20:39:00.
