data_PCOD9389049
_publ_section_title
;
Structure prediction by ZEFSAII (Michael W. Deem and Ramdas Pophale) SiO2 
 PCOD9389049
Probable space group: P M M M
;
_chemical_formula_sum "Si O2"
_cell_formula_units_Z 52
_cell_length_a 14.089559
_cell_length_b 29.712928
_cell_length_c 7.596239
_cell_angle_alpha 90.000000
_cell_angle_beta 90.000000
_cell_angle_gamma 90.000000
_cell_volume 3180.105083
_symmetry_space_group_name_H-M "P M M M"
_symmetry_group_IT_number 47
_symmetry_cell_setting 'orthorhombic'
loop_
_space_group_symop_operation_xyz
x,y,z
-x,-y,z
x,-y,-z
-x,y,-z
-x,-y,-z
x,y,-z
-x,y,z
x,-y,z
loop_
_atom_site_type_symbol
_atom_site_label
_atom_site_fract_x
_atom_site_fract_y
_atom_site_fract_z
Si Si1 0.607095 0.902765 0.713281
Si Si2 0.703984 0.189133 0.290751
Si Si3 0.609842 0.279959 0.284907
Si Si4 0.615732 0.551584 0.000000
Si Si5 0.202058 0.950571 0.791410
Si Si6 0.615571 0.620358 0.702041
Si Si7 0.106468 0.859180 0.787343
O O1 0.606835 0.902100 0.500000
O O2 0.500000 0.911990 0.772448
O O3 0.643198 0.853603 0.776375
O O4 0.687317 0.938080 0.768317
O O5 0.687217 0.190242 0.500000
O O6 0.670091 0.237340 0.222499
O O7 0.813476 0.176852 0.261249
O O8 0.610676 0.280986 0.500000
O O9 0.500000 0.273838 0.232094
O O10 0.643555 0.329776 0.232067
O O11 0.645380 0.580321 0.170278
O O12 0.647893 0.500000 0.000000
O O13 0.500000 0.550823 0.000000
O O14 0.143252 0.907937 0.720892
O O15 0.181143 0.000000 0.717611
O O16 0.182645 0.952223 0.000000
O O17 0.646135 0.613990 0.500000
O O18 0.500000 0.621285 0.701113
O O19 0.000000 0.849737 0.726047
O O20 0.105123 0.861154 0.000000
#
# Coordination Sequence:
#
# PCOD9389049 Si02
#       7
#     8   8   8   4   8   8   8
#     4   9  17  28  42  60  82 106 128 153 189 235
#     4   9  16  27  44  63  80 100 130 162 193 236
#     4   8  13  23  40  59  80 106 133 164 202 241
#     4   9  16  24  34  50  74 106 147 191 224 249
#     4   9  18  31  45  60  76  97 128 162 195 233
#     4   8  14  24  36  51  74 105 141 180 219 254
#     4   9  18  32  46  59  78 100 123 158 200 241
#
# _framework density 16.351659999999999
#
# number of rings (size 3 to 8) (size 9 to 14) (size 15 to 20)
#    0.000    3.308    0.000    1.385    0.000    3.692 
#    1.385    4.615    0.000    0.923    0.000    4.308 
#    0.000    0.000    0.000    0.000    0.000    1.538 
#
# Total GULP energy -289664.839059 kJ/mol
# GULP energy per Si atom -5570.477674 kJ/mol
# Density = 1.631444 g / cm^3
# Si number density = 16.351660 Si / 1000 Ang^3
#
#
#
# Elastic Constant Matrix: (Units=GPa)
#
#
# Indices 1 2 3 4 5 6 
#
# 1 44.0209 26.3349 -4.9405 0.0000 0.0000 0.0000
# 2 26.3349 138.5875 25.7343 0.0000 0.0000 0.0000
# 3 -4.9405 25.7343 43.4452 0.0000 0.0000 0.0000
# 4 0.0000 0.0000 0.0000 19.1679 0.0000 0.0000
# 5 0.0000 0.0000 0.0000 0.0000 13.2119 0.0000
# 6 0.0000 0.0000 0.0000 0.0000 0.0000 9.6777
#
#
#
# Elastic Compliance Matrix: (Units=1/GPa)
#
#
# Indices 1 2 3 4 5 6 
#
# 1 0.027384 -0.006496 0.006962 0.000000 0.000000 0.000000
# 2 -0.006496 0.009649 -0.006454 0.000000 0.000000 0.000000
# 3 0.006962 -0.006454 0.027632 0.000000 0.000000 0.000000
# 4 0.000000 0.000000 0.000000 0.052171 0.000000 0.000000
# 5 0.000000 0.000000 0.000000 0.000000 0.075689 0.000000
# 6 0.000000 0.000000 0.000000 0.000000 0.000000 0.103331
#
#
# Mechanical properties :
#
#
# Convention : Reuss Voigt Hill
#
# Bulk Modulus (GPa) = 18.97947 35.59011 27.28479
# Shear Modulus (GPa) = 15.36594 20.33981 17.85288
#
# Velocity S-wave (km/s) = 3.06881 3.53072 3.30784
# Velocity P-wave (km/s) = 4.91823 6.19952 5.59567
#
# Compressibility (1/GPa) = 0.05268850
#
# Stress axis : x y z
#
# Youngs Moduli (GPa) = 36.51729 103.64212 36.18965
#
# Poissons Ratio (x) = 0.67331 -0.25196
# Poissons Ratio (y) = 0.23723 0.23357
# Poissons Ratio (z) = -0.25424 0.66891
#
# Static dielectric constant tensor:
#      x y z
#    x 1.522570 0.000000 0.000000 
#    y 0.000000 1.562440 0.000000 
#    z 0.000000 0.000000 1.623920 
# 
# From -- ./inp_files/8024.got.cif
#   From: 2010.05.17/outbox.cif.g08.bks.cpg/sg47_5_cif.got.tgz:8024.got - 2010.06.03 20:15:42.
