data_PCOD9389909
_publ_section_title
;
Structure prediction by ZEFSAII (Michael W. Deem and Ramdas Pophale) SiO2 
 PCOD9389909
Probable space group: P N N N
;
_chemical_formula_sum "Si O2"
_cell_formula_units_Z 40
_cell_length_a 20.256920
_cell_length_b 15.061871
_cell_length_c 5.512850
_cell_angle_alpha 90.000000
_cell_angle_beta 90.000000
_cell_angle_gamma 90.000000
_cell_volume 1682.009764
_symmetry_space_group_name_H-M "P N N N"
_symmetry_group_IT_number 48
_space_group.IT_coordinate_system_code '2'
_symmetry_cell_setting 'orthorhombic'
loop_
_space_group_symop_operation_xyz
x,y,z
1/2-x,1/2-y,z
x,1/2-y,1/2-z
1/2-x,y,1/2-z
-x,-y,-z
1/2+x,1/2+y,-z
-x,1/2+y,1/2+z
1/2+x,-y,1/2+z
loop_
_atom_site_type_symbol
_atom_site_label
_atom_site_fract_x
_atom_site_fract_y
_atom_site_fract_z
Si Si1 0.750000 0.998670 0.250000
Si Si2 0.750000 0.392294 0.750000
Si Si3 0.053780 0.412021 0.250000
Si Si4 0.366136 0.750000 0.250000
Si Si5 0.050018 0.750000 0.750000
Si Si6 0.599601 0.938830 0.250000
Si Si7 0.640632 0.750000 0.250000
Si Si8 0.655235 0.750000 0.750000
O O1 0.750000 0.052765 0.501363
O O2 0.678590 0.951151 0.250000
O O3 0.683935 0.333177 0.750000
O O4 0.992760 0.342253 0.250000
O O5 0.933380 0.532070 0.502917
O O6 0.114097 0.341109 0.250000
O O7 0.066619 0.467930 0.002917
O O8 0.408019 0.750000 0.499691
O O9 0.591202 0.832763 0.250000
O O10 0.684097 0.750000 0.487063
#
# Coordination Sequence:
#
# PCOD9389909 Si02
#       8
#     4   4   8   4   4   8   4   4
#     4  12  24  40  66  90 130 186 218 252 324 386
#     4  11  26  48  68  95 124 152 214 293 334 386
#     4   9  17  31  53  89 130 158 200 254 300 365
#     4  11  24  45  76  98 114 150 212 288 356 393
#     4  11  20  37  72 105 124 160 210 269 338 389
#     4  10  19  33  55  88 132 180 215 250 296 359
#     4   8  14  26  42  70 110 151 204 239 258 320
#     4   7  12  22  40  63 102 149 180 229 274 299
#
# _framework density 23.781075000000001
#
# number of rings (size 3 to 8) (size 9 to 14) (size 15 to 20)
#    0.000    2.200    0.000    4.800    0.000    3.600 
#    0.000    0.000    0.000   36.000    0.000    0.000 
#    0.000    0.000    0.000    0.000    0.000    0.000 
#
# Total GULP energy -222966.712315 kJ/mol
# GULP energy per Si atom -5574.167808 kJ/mol
# Density = 2.372695 g / cm^3
# Si number density = 23.781075 Si / 1000 Ang^3
#
#
#
# Elastic Constant Matrix: (Units=GPa)
#
#
# Indices 1 2 3 4 5 6 
#
# 1 155.3799 29.5075 78.4758 0.0000 0.0000 0.0000
# 2 29.5075 46.7879 23.3923 0.0000 0.0000 0.0000
# 3 78.4758 23.3923 312.1828 0.0000 0.0000 0.0000
# 4 0.0000 0.0000 0.0000 -4.8699 0.0000 0.0000
# 5 0.0000 0.0000 0.0000 0.0000 24.9176 0.0000
# 6 0.0000 0.0000 0.0000 0.0000 0.0000 61.3265
#
#
#
# Elastic Compliance Matrix: (Units=1/GPa)
#
#
# Indices 1 2 3 4 5 6 
#
# 1 0.008113 -0.004256 -0.001721 0.000000 0.000000 0.000000
# 2 -0.004256 0.024438 -0.000761 0.000000 0.000000 0.000000
# 3 -0.001721 -0.000761 0.003693 0.000000 0.000000 0.000000
# 4 0.000000 0.000000 0.000000 -0.205344 0.000000 0.000000
# 5 0.000000 0.000000 0.000000 0.000000 0.040132 0.000000
# 6 0.000000 0.000000 0.000000 0.000000 0.000000 0.016306
#
#
# Mechanical properties :
#
#
# Convention : Reuss Voigt Hill
#
# Bulk Modulus (GPa) = 43.92207 86.34463 65.13335
# Shear Modulus (GPa) = -54.58739 41.80651 -6.39044
#
# Velocity S-wave (km/s) = -4.79624 4.19737 -1.64105
# Velocity P-wave (km/s) = 3.48748 7.73805 4.88441
#
# Compressibility (1/GPa) = 0.02276760
#
# Stress axis : x y z
#
# Youngs Moduli (GPa) = 123.25702 40.91979 270.79812
#
# Poissons Ratio (x) = 0.17417 0.46591
# Poissons Ratio (y) = 0.52464 0.20613
# Poissons Ratio (z) = 0.21207 0.03115
#
# Static dielectric constant tensor:
#      x y z
#    x 1.873670 0.000000 0.000000 
#    y 0.000000 1.955940 0.000000 
#    z 0.000000 0.000000 2.114010 
# 
# From -- ./inp_files/5125.got.cif
#   From: 2010.05.17/outbox.cif.g08.bks.cpg/sg48_3_cif.got.tgz:5125.got - 2010.06.03 20:39:00.
