data_PCOD9389883
_publ_section_title
;
Structure prediction by ZEFSAII (Michael W. Deem and Ramdas Pophale) SiO2 
 PCOD9389883
Probable space group: P N N N
;
_chemical_formula_sum "Si O2"
_cell_formula_units_Z 56
_cell_length_a 7.414914
_cell_length_b 15.825162
_cell_length_c 20.130713
_cell_angle_alpha 90.000000
_cell_angle_beta 90.000000
_cell_angle_gamma 90.000000
_cell_volume 2362.182458
_symmetry_space_group_name_H-M "P N N N"
_symmetry_group_IT_number 48
_space_group.IT_coordinate_system_code '2'
_symmetry_cell_setting 'orthorhombic'
loop_
_space_group_symop_operation_xyz
x,y,z
1/2-x,1/2-y,z
x,1/2-y,1/2-z
1/2-x,y,1/2-z
-x,-y,-z
1/2+x,1/2+y,-z
-x,1/2+y,1/2+z
1/2+x,-y,1/2+z
loop_
_atom_site_type_symbol
_atom_site_label
_atom_site_fract_x
_atom_site_fract_y
_atom_site_fract_z
Si Si1 0.513498 0.128755 0.034419
Si Si2 0.449403 0.576094 0.128341
Si Si3 0.857519 0.895686 0.913880
Si Si4 0.952857 0.973385 0.266655
Si Si5 0.459445 0.158981 0.271975
Si Si6 0.544520 0.789503 0.462795
Si Si7 0.141831 0.029256 0.592155
O O1 0.346095 0.140076 0.084863
O O2 0.651098 0.069136 0.072274
O O3 0.559423 0.216698 0.002014
O O4 0.434751 0.076758 0.971509
O O5 0.350597 0.497202 0.093074
O O6 0.426522 0.564161 0.207372
O O7 0.436289 0.669699 0.098370
O O8 0.660038 0.557516 0.112068
O O9 0.960613 0.857322 0.850983
O O10 0.935164 0.864540 0.983499
O O11 0.750000 0.944417 0.250000
O O12 0.983400 0.953618 0.343687
O O13 0.957068 0.075026 0.259955
O O14 0.532686 0.250000 0.250000
O O15 0.250000 0.157048 0.250000
O O16 0.750000 0.750000 0.448495
#
# Coordination Sequence:
#
# PCOD9389883 Si02
#       7
#     8   8   8   8   8   8   8
#     4  10  21  33  57  79 109 140 175 228 267 320
#     4  10  19  37  56  77 106 145 181 221 262 329
#     4  10  20  33  55  77 106 143 175 218 268 312
#     4   9  20  35  53  72 107 144 173 216 267 323
#     4  10  21  31  51  79 106 135 179 216 258 322
#     4  10  19  32  55  79 106 136 180 225 264 308
#     4  10  19  35  54  78 109 141 177 214 279 319
#
# _framework density 23.706890000000001
#
# number of rings (size 3 to 8) (size 9 to 14) (size 15 to 20)
#    0.000    2.143    2.857    1.286    8.000    0.286 
#    0.000    1.429    0.000    0.000    0.000    0.000 
#    0.000    3.714    0.000    0.000    0.000    0.000 
#
# Total GULP energy -312781.629211 kJ/mol
# GULP energy per Si atom -5585.386236 kJ/mol
# Density = 2.365293 g / cm^3
# Si number density = 23.706890 Si / 1000 Ang^3
#
#
#
# Elastic Constant Matrix: (Units=GPa)
#
#
# Indices 1 2 3 4 5 6 
#
# 1 37.6068 6.5875 11.0276 0.0000 0.0000 0.0000
# 2 6.5875 87.7597 34.8662 0.0000 0.0000 0.0000
# 3 11.0276 34.8662 105.9484 0.0000 0.0000 0.0000
# 4 0.0000 0.0000 0.0000 15.5831 0.0000 0.0000
# 5 0.0000 0.0000 0.0000 0.0000 16.3189 0.0000
# 6 0.0000 0.0000 0.0000 0.0000 0.0000 41.4402
#
#
#
# Elastic Compliance Matrix: (Units=1/GPa)
#
#
# Indices 1 2 3 4 5 6 
#
# 1 0.027515 -0.001067 -0.002513 0.000000 0.000000 0.000000
# 2 -0.001067 0.013150 -0.004216 0.000000 0.000000 0.000000
# 3 -0.002513 -0.004216 0.011088 0.000000 0.000000 0.000000
# 4 0.000000 0.000000 0.000000 0.064172 0.000000 0.000000
# 5 0.000000 0.000000 0.000000 0.000000 0.061279 0.000000
# 6 0.000000 0.000000 0.000000 0.000000 0.000000 0.024131
#
#
# Mechanical properties :
#
#
# Convention : Reuss Voigt Hill
#
# Bulk Modulus (GPa) = 27.65491 37.36418 32.50954
# Shear Modulus (GPa) = 21.83599 26.59068 24.21334
#
# Velocity S-wave (km/s) = 3.03823 3.35273 3.19934
# Velocity P-wave (km/s) = 4.89882 5.54823 5.23361
#
# Compressibility (1/GPa) = 0.03615995
#
# Stress axis : x y z
#
# Youngs Moduli (GPa) = 36.34429 76.04565 90.19039
#
# Poissons Ratio (x) = 0.08114 0.22662
# Poissons Ratio (y) = 0.03878 0.38028
# Poissons Ratio (z) = 0.09132 0.32064
#
# Static dielectric constant tensor:
#      x y z
#    x 1.990590 0.000000 0.000000 
#    y 0.000000 1.948940 0.000000 
#    z 0.000000 0.000000 -6.013230 
# 
# From -- ./inp_files/33668.got.cif
#   From: 2010.05.17/outbox.cif.g08.bks.cpg/sg48_17_cif.got.tgz:33668.got - 2010.06.03 20:39:00.
