data_PCOD9389388
_publ_section_title
;
Structure prediction by ZEFSAII (Michael W. Deem and Ramdas Pophale) SiO2 
 PCOD9389388
Probable space group: P M M M
;
_chemical_formula_sum "Si O2"
_cell_formula_units_Z 48
_cell_length_a 9.000000
_cell_length_b 30.000000
_cell_length_c 9.000000
_cell_angle_alpha 90.000000
_cell_angle_beta 90.000000
_cell_angle_gamma 90.000000
_cell_volume 2430.000000
_symmetry_space_group_name_H-M "P M M M"
_symmetry_group_IT_number 47
_symmetry_cell_setting 'orthorhombic'
loop_
_space_group_symop_operation_xyz
x,y,z
-x,-y,z
x,-y,-z
-x,y,-z
-x,-y,-z
x,y,-z
-x,y,z
x,-y,z
loop_
_atom_site_type_symbol
_atom_site_label
_atom_site_fract_x
_atom_site_fract_y
_atom_site_fract_z
Si Si1 0.324774 0.744206 0.835321
Si Si2 0.671179 0.086614 0.326588
Si Si3 0.828952 0.500000 0.181473
Si Si4 0.169424 0.668638 0.672178
Si Si5 0.176208 0.180092 0.332369
Si Si6 0.331462 0.589365 0.178558
Si Si7 0.325322 0.000000 0.174967
O O1 0.500000 0.749736 0.832632
O O2 0.273950 0.709207 0.713661
O O3 0.247079 0.789748 0.792921
O O4 0.280999 0.728246 0.000000
O O5 0.666285 0.074572 0.500000
O O6 0.500000 0.095808 0.278925
O O7 0.768202 0.130264 0.310743
O O8 0.737493 0.045332 0.238711
O O9 0.738520 0.456891 0.229927
O O10 0.000000 0.500000 0.230775
O O11 0.831386 0.500000 0.000000
O O12 0.180265 0.656887 0.500000
O O13 0.223099 0.627722 0.769145
O O14 0.000000 0.681440 0.704873
O O15 0.224967 0.194077 0.500000
O O16 0.000000 0.183325 0.327795
O O17 0.500000 0.596292 0.232480
O O18 0.336784 0.588786 0.000000
O O19 0.500000 0.000000 0.222753
O O20 0.320075 0.000000 0.000000
#
# Coordination Sequence:
#
# PCOD9389388 Si02
#       7
#     8   8   4   8   8   8   4
#     4  11  24  40  59  84 111 141 180 224 270 323
#     4   9  17  31  52  76 103 138 178 218 264 319
#     4   9  17  31  54  83 114 149 186 226 276 329
#     4  11  24  40  58  82 112 146 184 226 273 325
#     4  10  21  37  57  82 111 143 180 222 270 324
#     4  10  20  35  57  85 115 147 186 230 274 324
#     4   9  17  29  48  75 104 134 174 225 272 313
#
# _framework density 19.753086
#
# number of rings (size 3 to 8) (size 9 to 14) (size 15 to 20)
#    0.000    2.000    0.000    3.500    0.000   11.333 
#    0.000    2.500    0.000    5.000    0.000    0.000 
#    0.000    0.000    0.000    0.000    0.000    0.000 
#
# Total GULP energy -267749.845151 kJ/mol
# GULP energy per Si atom -5578.121774 kJ/mol
# Density = 1.970813 g / cm^3
# Si number density = 19.753086 Si / 1000 Ang^3
#
#
#
# Elastic Constant Matrix: (Units=GPa)
#
#
# Indices 1 2 3 4 5 6 
#
# 1 43.0556 9.1798 26.5376 0.0000 0.0000 0.0000
# 2 9.1798 55.9407 31.3890 0.0000 0.0000 0.0000
# 3 26.5376 31.3890 -0.9425 0.0000 0.0000 0.0000
# 4 0.0000 0.0000 0.0000 53.7688 0.0000 0.0000
# 5 0.0000 0.0000 0.0000 0.0000 15.0309 0.0000
# 6 0.0000 0.0000 0.0000 0.0000 0.0000 118.3457
#
#
#
# Elastic Compliance Matrix: (Units=1/GPa)
#
#
# Indices 1 2 3 4 5 6 
#
# 1 0.015106 -0.012248 0.017411 0.000000 0.000000 0.000000
# 2 -0.012248 0.010839 0.016123 0.000000 0.000000 0.000000
# 3 0.017411 0.016123 -0.033825 0.000000 0.000000 0.000000
# 4 0.000000 0.000000 0.000000 0.018598 0.000000 0.000000
# 5 0.000000 0.000000 0.000000 0.000000 0.066530 0.000000
# 6 0.000000 0.000000 0.000000 0.000000 0.000000 0.008450
#
#
# Mechanical properties :
#
#
# Convention : Reuss Voigt Hill
#
# Bulk Modulus (GPa) = 28.82633 25.80742 27.31688
# Shear Modulus (GPa) = 91.42334 39.49223 65.45779
#
# Velocity S-wave (km/s) = 6.81055 4.47620 5.76281
# Velocity P-wave (km/s) = 8.74470 6.30940 7.62490
#
# Compressibility (1/GPa) = 0.03469050
#
# Stress axis : x y z
#
# Youngs Moduli (GPa) = 66.19951 92.25624 -29.56369
#
# Poissons Ratio (x) = 1.12999 0.51473
# Poissons Ratio (y) = 0.81084 0.47665
# Poissons Ratio (z) = -1.15260 -1.48742
#
# Static dielectric constant tensor:
#      x y z
#    x 1.683440 0.000000 0.000000 
#    y 0.000000 1.632520 0.000000 
#    z 0.000000 0.000000 1.710360 
# 
# From -- ./inp_files/2549.got.cif
#   From: 2010.05.17/outbox.ucp.g08.bks.cvg/sg47_2_cif.got.tgz:2549.got - 2010.06.11 16:36:43.
