data_PCOD9389353
_publ_section_title
;
Structure prediction by ZEFSAII (Michael W. Deem and Ramdas Pophale) SiO2 
 PCOD9389353
Probable space group: P M M M
;
_chemical_formula_sum "Si O2"
_cell_formula_units_Z 40
_cell_length_a 9.000000
_cell_length_b 27.000000
_cell_length_c 9.000000
_cell_angle_alpha 90.000000
_cell_angle_beta 90.000000
_cell_angle_gamma 90.000000
_cell_volume 2187.000000
_symmetry_space_group_name_H-M "P M M M"
_symmetry_group_IT_number 47
_symmetry_cell_setting 'orthorhombic'
loop_
_space_group_symop_operation_xyz
x,y,z
-x,-y,z
x,-y,-z
-x,y,-z
-x,-y,-z
x,y,-z
-x,y,z
x,-y,z
loop_
_atom_site_type_symbol
_atom_site_label
_atom_site_fract_x
_atom_site_fract_y
_atom_site_fract_z
Si Si1 0.324031 0.392792 0.320469
Si Si2 0.673211 0.803304 0.822142
Si Si3 0.173867 0.699918 0.179130
Si Si4 0.000000 0.441942 0.678777
Si Si5 0.175760 0.897735 0.677071
Si Si6 0.180806 0.000000 0.171050
O O1 0.324676 0.394412 0.500000
O O2 0.500000 0.406191 0.277166
O O3 0.284079 0.338524 0.258334
O O4 0.166709 0.421441 0.273326
O O5 0.500000 0.794254 0.786381
O O6 0.772452 0.755356 0.785009
O O7 0.734344 0.851683 0.741401
O O8 0.684156 0.810682 0.000000
O O9 0.000000 0.692110 0.221582
O O10 0.183722 0.693509 0.000000
O O11 0.000000 0.500000 0.714415
O O12 0.000000 0.435199 0.500000
O O13 0.189486 0.900250 0.500000
O O14 0.227163 0.949619 0.747961
O O15 0.000000 0.891257 0.713118
O O16 0.000000 0.000000 0.174567
O O17 0.228221 0.000000 0.000000
#
# Coordination Sequence:
#
# PCOD9389353 Si02
#       6
#     8   8   8   4   8   4
#     4  10  20  34  55  83 113 147 187 232 283 336
#     4  10  21  36  53  75 104 138 177 220 266 321
#     4  10  20  35  57  82 108 143 184 226 276 333
#     4   9  18  34  55  81 115 151 189 236 283 330
#     4  10  20  34  53  78 106 136 172 217 269 323
#     4   9  17  31  54  79 102 133 174 220 268 321
#
# _framework density 18.289895000000001
#
# number of rings (size 3 to 8) (size 9 to 14) (size 15 to 20)
#    0.000    2.200    1.000    2.100    0.000    6.000 
#    0.000    2.500    0.000    4.200    0.000    1.400 
#    0.000    0.000    0.000    0.000    0.000    0.000 
#
# Total GULP energy -222823.156269 kJ/mol
# GULP energy per Si atom -5570.578907 kJ/mol
# Density = 1.824827 g / cm^3
# Si number density = 18.289895 Si / 1000 Ang^3
#
#
#
# Elastic Constant Matrix: (Units=GPa)
#
#
# Indices 1 2 3 4 5 6 
#
# 1 128.6655 46.9678 23.1014 0.0000 0.0000 0.0000
# 2 46.9678 98.2584 17.0201 0.0000 0.0000 0.0000
# 3 23.1014 17.0201 12.8782 0.0000 0.0000 0.0000
# 4 0.0000 0.0000 0.0000 26.0341 0.0000 0.0000
# 5 0.0000 0.0000 0.0000 0.0000 27.4780 0.0000
# 6 0.0000 0.0000 0.0000 0.0000 0.0000 26.0678
#
#
#
# Elastic Compliance Matrix: (Units=1/GPa)
#
#
# Indices 1 2 3 4 5 6 
#
# 1 0.011953 -0.002593 -0.018015 0.000000 0.000000 0.000000
# 2 -0.002593 0.013761 -0.013536 0.000000 0.000000 0.000000
# 3 -0.018015 -0.013536 0.127855 0.000000 0.000000 0.000000
# 4 0.000000 0.000000 0.000000 0.038411 0.000000 0.000000
# 5 0.000000 0.000000 0.000000 0.000000 0.036393 0.000000
# 6 0.000000 0.000000 0.000000 0.000000 0.000000 0.038362
#
#
# Mechanical properties :
#
#
# Convention : Reuss Voigt Hill
#
# Bulk Modulus (GPa) = 11.72579 45.99785 28.86182
# Shear Modulus (GPa) = 13.75709 26.09682 19.92696
#
# Velocity S-wave (km/s) = 2.74555 3.78146 3.30435
# Velocity P-wave (km/s) = 4.05902 6.65356 5.51115
#
# Compressibility (1/GPa) = 0.08528213
#
# Stress axis : x y z
#
# Youngs Moduli (GPa) = 83.65974 72.66708 7.82139
#
# Poissons Ratio (x) = 0.18844 0.14090
# Poissons Ratio (y) = 0.21695 0.10587
# Poissons Ratio (z) = 1.50711 0.98359
#
# Static dielectric constant tensor:
#      x y z
#    x 1.657440 0.000000 0.000000 
#    y 0.000000 1.621800 0.000000 
#    z 0.000000 0.000000 1.613020 
# 
# From -- ./inp_files/1870.got.cif
#   From: 2010.05.17/outbox.ucp.g08.bks.cvg/sg47_1_cif.got.tgz:1870.got - 2010.06.11 16:36:43.
