data_PCOD9389581
_publ_section_title
;
Structure prediction by ZEFSAII (Michael W. Deem and Ramdas Pophale) SiO2 
 PCOD9389581
Probable space group: P N N N
;
_chemical_formula_sum "Si O2"
_cell_formula_units_Z 42
_cell_length_a 7.953280
_cell_length_b 25.823995
_cell_length_c 9.894987
_cell_angle_alpha 90.000000
_cell_angle_beta 90.000000
_cell_angle_gamma 90.000000
_cell_volume 2032.286486
_symmetry_space_group_name_H-M "P N N N"
_symmetry_group_IT_number 48
_space_group.IT_coordinate_system_code '2'
_symmetry_cell_setting 'orthorhombic'
loop_
_space_group_symop_operation_xyz
x,y,z
1/2-x,1/2-y,z
x,1/2-y,1/2-z
1/2-x,y,1/2-z
-x,-y,-z
1/2+x,1/2+y,-z
-x,1/2+y,1/2+z
1/2+x,-y,1/2+z
loop_
_atom_site_type_symbol
_atom_site_label
_atom_site_fract_x
_atom_site_fract_y
_atom_site_fract_z
Si Si1 0.750000 0.750000 0.250000
Si Si2 0.451578 0.431768 0.782598
Si Si3 0.060034 0.471302 0.133065
Si Si4 0.635479 0.896736 0.555786
Si Si5 0.073943 0.162416 0.585729
Si Si6 0.925855 0.363923 0.193839
O O1 0.875609 0.785850 0.337324
O O2 0.250000 0.440641 0.750000
O O3 0.548269 0.483647 0.742644
O O4 0.495351 0.382113 0.687804
O O5 0.483525 0.420691 0.940962
O O6 0.234552 0.440918 0.106372
O O7 0.927832 0.425176 0.159543
O O8 0.000000 0.500000 0.000000
O O9 0.747393 0.858595 0.466872
O O10 0.556420 0.865914 0.680694
O O11 0.971916 0.164771 0.445368
O O12 0.750000 0.345674 0.250000
#
# Coordination Sequence:
#
# PCOD9389581 Si02
#       6
#     2   8   8   8   8   8
#     4  12  20  40  82 110 112 160 222 290 364 396
#     4  10  17  33  58  87 129 166 212 272 316 379
#     4  11  18  32  59  85 130 179 216 261 315 381
#     4  10  21  39  58  91 135 172 221 269 317 392
#     4  10  20  39  69  97 124 158 213 282 327 399
#     4  11  24  41  60  91 142 180 214 263 323 391
#
# _framework density 20.666376
#
# number of rings (size 3 to 8) (size 9 to 14) (size 15 to 20)
#    0.000    1.524    8.571    2.857    0.000    0.762 
#    3.429    2.857    0.000    3.429    0.000    0.000 
#    0.000    0.000    0.000    0.000    0.000    0.000 
#
# Total GULP energy -234161.226040 kJ/mol
# GULP energy per Si atom -5575.267287 kJ/mol
# Density = 2.061934 g / cm^3
# Si number density = 20.666376 Si / 1000 Ang^3
#
#
#
# Elastic Constant Matrix: (Units=GPa)
#
#
# Indices 1 2 3 4 5 6 
#
# 1 55.4159 25.8618 39.4163 0.0000 0.0000 0.0000
# 2 25.8618 107.1489 60.6854 0.0000 0.0000 0.0000
# 3 39.4163 60.6854 154.6767 0.0000 0.0000 0.0000
# 4 0.0000 0.0000 0.0000 42.7339 0.0000 0.0000
# 5 0.0000 0.0000 0.0000 0.0000 31.9087 0.0000
# 6 0.0000 0.0000 0.0000 0.0000 0.0000 13.8550
#
#
#
# Elastic Compliance Matrix: (Units=1/GPa)
#
#
# Indices 1 2 3 4 5 6 
#
# 1 0.022689 -0.002831 -0.004671 0.000000 0.000000 0.000000
# 2 -0.002831 0.012352 -0.004125 0.000000 0.000000 0.000000
# 3 -0.004671 -0.004125 0.009274 0.000000 0.000000 0.000000
# 4 0.000000 0.000000 0.000000 0.023401 0.000000 0.000000
# 5 0.000000 0.000000 0.000000 0.000000 0.031339 0.000000
# 6 0.000000 0.000000 0.000000 0.000000 0.000000 0.072176
#
#
# Mechanical properties :
#
#
# Convention : Reuss Voigt Hill
#
# Bulk Modulus (GPa) = 47.48023 63.24093 55.36058
# Shear Modulus (GPa) = 24.81322 30.45137 27.63230
#
# Velocity S-wave (km/s) = 3.46881 3.84275 3.66056
# Velocity P-wave (km/s) = 6.25044 7.09622 6.68671
#
# Compressibility (1/GPa) = 0.02106140
#
# Stress axis : x y z
#
# Youngs Moduli (GPa) = 44.07429 80.95710 107.83036
#
# Poissons Ratio (x) = 0.22916 0.50370
# Poissons Ratio (y) = 0.12476 0.44479
# Poissons Ratio (z) = 0.20588 0.33394
#
# Static dielectric constant tensor:
#      x y z
#    x 1.777670 0.000000 0.000000 
#    y 0.000000 1.713350 0.000000 
#    z 0.000000 0.000000 1.914340 
# 
# From -- ./inp_files/18769.got.cif
#   From: 2010.05.17/outbox.cif.g08.bks.cpg/sg48_10_cif.got.tgz:18769.got - 2010.06.03 20:39:00.
