data_PCOD9389942
_publ_section_title
;
Structure prediction by ZEFSAII (Michael W. Deem and Ramdas Pophale) SiO2 
 PCOD9389942
Probable space group: P N N N
;
_chemical_formula_sum "Si O2"
_cell_formula_units_Z 64
_cell_length_a 24.104010
_cell_length_b 12.689395
_cell_length_c 12.075832
_cell_angle_alpha 90.000000
_cell_angle_beta 90.000000
_cell_angle_gamma 90.000000
_cell_volume 3693.578025
_symmetry_space_group_name_H-M "P N N N"
_symmetry_group_IT_number 48
_space_group.IT_coordinate_system_code '2'
_symmetry_cell_setting 'orthorhombic'
loop_
_space_group_symop_operation_xyz
x,y,z
1/2-x,1/2-y,z
x,1/2-y,1/2-z
1/2-x,y,1/2-z
-x,-y,-z
1/2+x,1/2+y,-z
-x,1/2+y,1/2+z
1/2+x,-y,1/2+z
loop_
_atom_site_type_symbol
_atom_site_label
_atom_site_fract_x
_atom_site_fract_y
_atom_site_fract_z
Si Si1 0.088747 0.367910 0.761951
Si Si2 0.891961 0.364443 0.695794
Si Si3 0.312903 0.876381 0.498647
Si Si4 0.812231 0.023872 0.236867
Si Si5 0.478710 0.157865 0.987893
Si Si6 0.085634 0.970875 0.425392
Si Si7 0.314991 0.636177 0.542299
Si Si8 0.994814 0.888241 0.061547
O O1 0.111395 0.250000 0.750000
O O2 0.139269 0.446752 0.774279
O O3 0.047470 0.362064 0.866112
O O4 0.052545 0.396859 0.654797
O O5 0.878618 0.250000 0.750000
O O6 0.844277 0.406668 0.613700
O O7 0.904548 0.438827 0.799272
O O8 0.947871 0.358799 0.623279
O O9 0.324333 0.940890 0.611162
O O10 0.331903 0.755716 0.518028
O O11 0.246209 0.878192 0.490820
O O12 0.750000 0.977543 0.250000
O O13 0.811310 0.118873 0.325762
O O14 0.539428 0.105535 0.981645
O O15 0.481019 0.282836 0.009284
O O16 0.439413 0.087700 0.065444
O O17 0.142257 0.946040 0.489919
O O18 0.000000 0.000000 0.000000
#
# Coordination Sequence:
#
# PCOD9389942 Si02
#       8
#     8   8   8   8   8   8   8   8
#     4  10  19  34  56  79 103 139 184 231 286 340
#     4  12  20  36  55  82 117 155 192 239 287 344
#     4  10  21  33  52  81 115 150 193 232 291 339
#     4  10  20  35  53  77 113 144 185 237 292 340
#     4  10  20  36  56  80 109 149 186 225 291 347
#     4  11  20  34  59  78 114 152 189 230 280 352
#     4  10  19  34  53  81 112 153 186 236 285 345
#     4  11  21  36  57  83 114 144 189 242 290 344
#
# _framework density 17.327370999999999
#
# number of rings (size 3 to 8) (size 9 to 14) (size 15 to 20)
#    0.000    1.500    5.000    1.500    0.000    2.250 
#    0.000    0.625    0.000    0.000    0.000    0.000 
#    0.000    2.000    0.000    0.000    0.000    0.000 
#
# Total GULP energy -356865.938614 kJ/mol
# GULP energy per Si atom -5576.030291 kJ/mol
# Density = 1.728793 g / cm^3
# Si number density = 17.327371 Si / 1000 Ang^3
#
#
#
# Elastic Constant Matrix: (Units=GPa)
#
#
# Indices 1 2 3 4 5 6 
#
# 1 74.2895 30.8319 26.3638 0.0000 0.0000 0.0000
# 2 30.8319 97.2149 42.2762 0.0000 0.0000 0.0000
# 3 26.3638 42.2762 76.9290 0.0000 0.0000 0.0000
# 4 0.0000 0.0000 0.0000 27.3789 0.0000 0.0000
# 5 0.0000 0.0000 0.0000 0.0000 25.6144 0.0000
# 6 0.0000 0.0000 0.0000 0.0000 0.0000 23.4380
#
#
#
# Elastic Compliance Matrix: (Units=1/GPa)
#
#
# Indices 1 2 3 4 5 6 
#
# 1 0.016222 -0.003584 -0.003590 0.000000 0.000000 0.000000
# 2 -0.003584 0.014308 -0.006635 0.000000 0.000000 0.000000
# 3 -0.003590 -0.006635 0.017876 0.000000 0.000000 0.000000
# 4 0.000000 0.000000 0.000000 0.036525 0.000000 0.000000
# 5 0.000000 0.000000 0.000000 0.000000 0.039040 0.000000
# 6 0.000000 0.000000 0.000000 0.000000 0.000000 0.042666
#
#
# Mechanical properties :
#
#
# Convention : Reuss Voigt Hill
#
# Bulk Modulus (GPa) = 48.10289 49.70857 48.90573
# Shear Modulus (GPa) = 24.85287 25.21703 25.03495
#
# Velocity S-wave (km/s) = 3.79134 3.81902 3.80520
# Velocity P-wave (km/s) = 6.85472 6.94238 6.89869
#
# Compressibility (1/GPa) = 0.02078877
#
# Stress axis : x y z
#
# Youngs Moduli (GPa) = 61.64399 69.88861 55.94230
#
# Poissons Ratio (x) = 0.25046 0.20083
# Poissons Ratio (y) = 0.22091 0.37118
# Poissons Ratio (z) = 0.22130 0.46371
#
# Static dielectric constant tensor:
#      x y z
#    x 1.595150 0.000000 0.000000 
#    y 0.000000 1.592760 0.000000 
#    z 0.000000 0.000000 1.608260 
# 
# From -- ./inp_files/23432.got.cif
#   From: 2010.05.17/outbox.cif.g08.bks.cpg/sg48_12_cif.got.tgz:23432.got - 2010.06.03 20:39:00.
