data_PCOD9389284
_publ_section_title
;
Structure prediction by ZEFSAII (Michael W. Deem and Ramdas Pophale) SiO2 
 PCOD9389284
Probable space group: P M M M
;
_chemical_formula_sum "Si O2"
_cell_formula_units_Z 52
_cell_length_a 24.000000
_cell_length_b 15.000000
_cell_length_c 9.000000
_cell_angle_alpha 90.000000
_cell_angle_beta 90.000000
_cell_angle_gamma 90.000000
_cell_volume 3240.000000
_symmetry_space_group_name_H-M "P M M M"
_symmetry_group_IT_number 47
_symmetry_cell_setting 'orthorhombic'
loop_
_space_group_symop_operation_xyz
x,y,z
-x,-y,z
x,-y,-z
-x,y,-z
-x,-y,-z
x,y,-z
-x,y,z
x,-y,z
loop_
_atom_site_type_symbol
_atom_site_label
_atom_site_fract_x
_atom_site_fract_y
_atom_site_fract_z
Si Si1 0.774587 0.602529 0.821638
Si Si2 0.383555 0.103686 0.674898
Si Si3 0.500000 0.841488 0.175189
Si Si4 0.379740 0.400988 0.669149
Si Si5 0.000000 0.390951 0.829135
Si Si6 0.500000 0.661433 0.337576
Si Si7 0.316246 0.743408 0.825486
Si Si8 0.889334 0.392409 0.667442
O O1 0.762520 0.500000 0.769634
O O2 0.735795 0.683879 0.769165
O O3 0.836390 0.624387 0.769155
O O4 0.770284 0.600352 0.000000
O O5 0.389606 0.123520 0.500000
O O6 0.443187 0.120789 0.753003
O O7 0.336477 0.168218 0.742709
O O8 0.368991 0.000000 0.693052
O O9 0.500000 0.736723 0.213440
O O10 0.500000 0.858202 0.000000
O O11 0.360805 0.377348 0.500000
O O12 0.359712 0.500000 0.704013
O O13 0.445829 0.398018 0.666526
O O14 0.363735 0.328887 0.790480
O O15 0.945417 0.359738 0.743491
O O16 0.000000 0.500000 0.828464
O O17 0.000000 0.363537 0.000000
O O18 0.500000 0.709162 0.500000
O O19 0.310224 0.761283 0.000000
O O20 0.881942 0.359159 0.500000
O O21 0.894229 0.500000 0.658993
#
# Coordination Sequence:
#
# PCOD9389284 Si02
#       8
#     8   8   4   8   4   4   8   8
#     4   9  18  32  47  65  94 131 165 196 234 279
#     4  11  24  41  59  76  95 121 150 185 236 296
#     4  12  23  36  57  81  99 116 143 185 237 289
#     4  10  20  33  50  70  94 126 159 189 226 275
#     4   9  15  23  37  57  85 123 162 201 246 287
#     4  10  19  33  51  69  95 125 151 183 225 274
#     4  11  22  35  52  73  97 123 155 198 240 279
#     4   9  16  25  39  61  88 120 163 209 242 271
#
# _framework density 16.049382999999999
#
# number of rings (size 3 to 8) (size 9 to 14) (size 15 to 20)
#    0.000    1.923    1.538    3.231    0.000    8.000 
#    0.000    1.538    0.000    1.385    0.000    0.000 
#    0.000    0.000    0.000    0.692    0.000   13.000 
#
# Total GULP energy -289622.673719 kJ/mol
# GULP energy per Si atom -5569.666802 kJ/mol
# Density = 1.601285 g / cm^3
# Si number density = 16.049383 Si / 1000 Ang^3
#
#
#
# Elastic Constant Matrix: (Units=GPa)
#
#
# Indices 1 2 3 4 5 6 
#
# 1 104.7184 34.0668 22.2260 0.0000 0.0000 0.0000
# 2 34.0668 75.2676 33.8333 0.0000 0.0000 0.0000
# 3 22.2260 33.8333 40.2326 0.0000 0.0000 0.0000
# 4 0.0000 0.0000 0.0000 -14.0736 0.0000 0.0000
# 5 0.0000 0.0000 0.0000 0.0000 25.4543 0.0000
# 6 0.0000 0.0000 0.0000 0.0000 0.0000 -6.4425
#
#
#
# Elastic Compliance Matrix: (Units=1/GPa)
#
#
# Indices 1 2 3 4 5 6 
#
# 1 0.011443 -0.003758 -0.003161 0.000000 0.000000 0.000000
# 2 -0.003758 0.022595 -0.016925 0.000000 0.000000 0.000000
# 3 -0.003161 -0.016925 0.040834 0.000000 0.000000 0.000000
# 4 0.000000 0.000000 0.000000 -0.071055 0.000000 0.000000
# 5 0.000000 0.000000 0.000000 0.000000 0.039286 0.000000
# 6 0.000000 0.000000 0.000000 0.000000 0.000000 -0.155219
#
#
# Mechanical properties :
#
#
# Convention : Reuss Voigt Hill
#
# Bulk Modulus (GPa) = 36.78613 44.49676 40.64144
# Shear Modulus (GPa) = -90.30659 9.66047 -40.32306
#
# Velocity S-wave (km/s) = -7.50933 2.45607 -5.01786
# Velocity P-wave (km/s) = 7.22610 5.98566 2.86254
#
# Compressibility (1/GPa) = 0.02718416
#
# Stress axis : x y z
#
# Youngs Moduli (GPa) = 87.38987 44.25817 24.48922
#
# Poissons Ratio (x) = 0.16634 0.07741
# Poissons Ratio (y) = 0.32844 0.41447
# Poissons Ratio (z) = 0.27624 0.74905
#
# Static dielectric constant tensor:
#      x y z
#    x 1.578770 0.000000 0.000000 
#    y 0.000000 1.522350 0.000000 
#    z 0.000000 0.000000 1.570140 
# 
# From -- ./inp_files/12609.got.cif
#   From: 2010.05.17/outbox.ucp.g08.bks.cvg/sg47_7_cif.got.tgz:12609.got - 2010.06.11 16:36:43.
