data_PCOD9389746
_publ_section_title
;
Structure prediction by ZEFSAII (Michael W. Deem and Ramdas Pophale) SiO2 
 PCOD9389746
Probable space group: P N N N
;
_chemical_formula_sum "Si O2"
_cell_formula_units_Z 64
_cell_length_a 11.695842
_cell_length_b 19.755421
_cell_length_c 12.512339
_cell_angle_alpha 90.000000
_cell_angle_beta 90.000000
_cell_angle_gamma 90.000000
_cell_volume 2891.054537
_symmetry_space_group_name_H-M "P N N N"
_symmetry_group_IT_number 48
_space_group.IT_coordinate_system_code '2'
_symmetry_cell_setting 'orthorhombic'
loop_
_space_group_symop_operation_xyz
x,y,z
1/2-x,1/2-y,z
x,1/2-y,1/2-z
1/2-x,y,1/2-z
-x,-y,-z
1/2+x,1/2+y,-z
-x,1/2+y,1/2+z
1/2+x,-y,1/2+z
loop_
_atom_site_type_symbol
_atom_site_label
_atom_site_fract_x
_atom_site_fract_y
_atom_site_fract_z
Si Si1 0.468932 0.831168 0.944134
Si Si2 0.973174 0.313984 0.819099
Si Si3 0.338154 0.511926 0.084717
Si Si4 0.895678 0.952924 0.539767
Si Si5 0.251338 0.847362 0.420907
Si Si6 0.072606 0.552097 0.651061
Si Si7 0.137313 0.706646 0.615985
Si Si8 0.135555 0.431166 0.799216
O O1 0.518266 0.809105 0.059230
O O2 0.545709 0.890773 0.899946
O O3 0.343934 0.861977 0.982324
O O4 0.456796 0.764943 0.873467
O O5 0.004066 0.250000 0.750000
O O6 0.836510 0.318655 0.835006
O O7 0.027547 0.383363 0.776543
O O8 0.321013 0.589153 0.121837
O O9 0.438293 0.466117 0.134080
O O10 0.210537 0.483714 0.100872
O O11 0.368962 0.523562 0.958462
O O12 0.845828 0.932516 0.425133
O O13 0.000000 0.000000 0.500000
O O14 0.341766 0.803192 0.487270
O O15 0.107530 0.631911 0.659655
O O16 0.115066 0.505280 0.748441
O O17 0.250000 0.750000 0.647344
O O18 0.250000 0.401456 0.750000
#
# Coordination Sequence:
#
# PCOD9389746 Si02
#       8
#     8   8   8   8   8   8   8   8
#     4   8  17  31  52  81 103 148 199 236 281 358
#     4   9  19  33  51  80 118 161 195 238 309 364
#     4  10  18  35  56  84 115 151 201 241 305 360
#     4  11  19  37  63  84 114 161 203 240 296 377
#     4   8  16  32  51  81 104 151 195 243 285 346
#     4  10  22  34  56  85 119 161 186 263 315 352
#     4   9  17  35  56  78 115 148 205 256 299 363
#     4  11  22  38  55  86 124 157 201 248 314 373
#
# _framework density 22.137250000000002
#
# number of rings (size 3 to 8) (size 9 to 14) (size 15 to 20)
#    0.750    1.750    2.500    0.000    0.000    3.250 
#    0.000    8.125    0.000    2.625    0.000    0.000 
#    0.000    8.000    0.250    0.000    0.000    0.000 
#
# Total GULP energy -356467.040160 kJ/mol
# GULP energy per Si atom -5569.797502 kJ/mol
# Density = 2.208686 g / cm^3
# Si number density = 22.137250 Si / 1000 Ang^3
#
#
#
# Elastic Constant Matrix: (Units=GPa)
#
#
# Indices 1 2 3 4 5 6 
#
# 1 88.9951 46.8500 9.7181 0.0000 0.0000 0.0000
# 2 46.8500 161.2338 29.1732 0.0000 0.0000 0.0000
# 3 9.7181 29.1732 35.4476 0.0000 0.0000 0.0000
# 4 0.0000 0.0000 0.0000 21.9822 0.0000 0.0000
# 5 0.0000 0.0000 0.0000 0.0000 -16.7674 0.0000
# 6 0.0000 0.0000 0.0000 0.0000 0.0000 38.2971
#
#
#
# Elastic Compliance Matrix: (Units=1/GPa)
#
#
# Indices 1 2 3 4 5 6 
#
# 1 0.013275 -0.003758 -0.000546 0.000000 0.000000 0.000000
# 2 -0.003758 0.008351 -0.005843 0.000000 0.000000 0.000000
# 3 -0.000546 -0.005843 0.033169 0.000000 0.000000 0.000000
# 4 0.000000 0.000000 0.000000 0.045491 0.000000 0.000000
# 5 0.000000 0.000000 0.000000 0.000000 -0.059639 0.000000
# 6 0.000000 0.000000 0.000000 0.000000 0.000000 0.026112
#
#
# Mechanical properties :
#
#
# Convention : Reuss Voigt Hill
#
# Bulk Modulus (GPa) = 28.98514 50.79546 39.89030
# Shear Modulus (GPa) = 50.73361 22.03137 36.38249
#
# Velocity S-wave (km/s) = 4.79244 3.15813 4.05840
# Velocity P-wave (km/s) = 6.61401 6.02444 6.32610
#
# Compressibility (1/GPa) = 0.03450043
#
# Stress axis : x y z
#
# Youngs Moduli (GPa) = 75.33074 119.73946 30.14859
#
# Poissons Ratio (x) = 0.45004 0.01647
# Poissons Ratio (y) = 0.28313 0.17615
# Poissons Ratio (z) = 0.04114 0.69962
#
# Static dielectric constant tensor:
#      x y z
#    x 1.850720 0.000000 0.000000 
#    y 0.000000 1.841410 0.000000 
#    z 0.000000 0.000000 1.872990 
# 
# From -- ./inp_files/26720.got.cif
#   From: 2010.05.17/outbox.cif.g08.bks.cpg/sg48_14_cif.got.tgz:26720.got - 2010.06.03 20:39:00.
