data_PCOD9389238
_publ_section_title
;
Structure prediction by ZEFSAII (Michael W. Deem and Ramdas Pophale) SiO2 
 PCOD9389238
Probable space group: P M M M
;
_chemical_formula_sum "Si O2"
_cell_formula_units_Z 52
_cell_length_a 15.000000
_cell_length_b 21.000000
_cell_length_c 9.000000
_cell_angle_alpha 90.000000
_cell_angle_beta 90.000000
_cell_angle_gamma 90.000000
_cell_volume 2835.000000
_symmetry_space_group_name_H-M "P M M M"
_symmetry_group_IT_number 47
_symmetry_cell_setting 'orthorhombic'
loop_
_space_group_symop_operation_xyz
x,y,z
-x,-y,z
x,-y,-z
-x,y,-z
-x,-y,-z
x,y,-z
-x,y,z
x,-y,z
loop_
_atom_site_type_symbol
_atom_site_label
_atom_site_fract_x
_atom_site_fract_y
_atom_site_fract_z
Si Si1 0.397054 0.812033 0.179955
Si Si2 0.897387 0.500000 0.181227
Si Si3 0.600487 0.332985 0.819003
Si Si4 0.099718 0.124847 0.821491
Si Si5 0.104178 0.262533 0.675989
Si Si6 0.283287 0.931034 0.819091
Si Si7 0.787628 0.376139 0.820205
O O1 0.500000 0.825728 0.214202
O O2 0.378275 0.739787 0.229187
O O3 0.335595 0.868968 0.236040
O O4 0.388567 0.810798 0.000000
O O5 0.843679 0.562595 0.228302
O O6 0.000000 0.500000 0.231307
O O7 0.898658 0.500000 0.000000
O O8 0.500000 0.349434 0.769233
O O9 0.683582 0.376592 0.775352
O O10 0.597811 0.332593 0.000000
O O11 0.116595 0.192821 0.745725
O O12 0.179518 0.077967 0.782228
O O13 0.000000 0.103148 0.781792
O O14 0.102374 0.133917 0.000000
O O15 0.120448 0.260924 0.500000
O O16 0.166199 0.313590 0.755296
O O17 0.000000 0.279839 0.700352
O O18 0.316551 0.000000 0.767865
O O19 0.290349 0.930670 0.000000
O O20 0.790933 0.373062 0.000000
#
# Coordination Sequence:
#
# PCOD9389238 Si02
#       7
#     8   4   8   8   8   8   8
#     4   8  13  21  33  52  82 116 144 175 221 271
#     4   9  18  30  44  68 100 129 159 193 226 267
#     4   8  14  25  43  68  94 119 152 194 234 270
#     4   9  17  29  45  64  86 115 150 186 229 279
#     4  10  20  32  47  69  94 118 150 196 242 278
#     4   9  16  24  36  58  86 114 147 185 221 263
#     4  10  18  30  50  71  94 127 160 188 225 274
#
# _framework density 18.342151999999999
#
# number of rings (size 3 to 8) (size 9 to 14) (size 15 to 20)
#    0.000    3.000    0.000    2.769    0.000    4.615 
#    0.000    3.846    0.000    4.615    0.000    2.154 
#    0.000    1.231    0.000    5.538    0.000    4.923 
#
# Total GULP energy -289652.532857 kJ/mol
# GULP energy per Si atom -5570.241016 kJ/mol
# Density = 1.830040 g / cm^3
# Si number density = 18.342152 Si / 1000 Ang^3
#
#
#
# Elastic Constant Matrix: (Units=GPa)
#
#
# Indices 1 2 3 4 5 6 
#
# 1 117.3131 69.9780 9.6743 0.0000 0.0000 0.0000
# 2 69.9780 51.6363 1.7036 0.0000 0.0000 0.0000
# 3 9.6743 1.7036 -2.4662 0.0000 0.0000 0.0000
# 4 0.0000 0.0000 0.0000 -3.3708 0.0000 0.0000
# 5 0.0000 0.0000 0.0000 0.0000 5.4753 0.0000
# 6 0.0000 0.0000 0.0000 0.0000 0.0000 17.3472
#
#
#
# Elastic Compliance Matrix: (Units=1/GPa)
#
#
# Indices 1 2 3 4 5 6 
#
# 1 0.022735 -0.033001 0.066386 0.000000 0.000000 0.000000
# 2 -0.033001 0.066837 -0.083282 0.000000 0.000000 0.000000
# 3 0.066386 -0.083282 -0.202598 0.000000 0.000000 0.000000
# 4 0.000000 0.000000 0.000000 -0.296662 0.000000 0.000000
# 5 0.000000 0.000000 0.000000 0.000000 0.182640 0.000000
# 6 0.000000 0.000000 0.000000 0.000000 0.000000 0.057646
#
#
# Mechanical properties :
#
#
# Convention : Reuss Voigt Hill
#
# Bulk Modulus (GPa) = -4.69879 36.57722 15.93922
# Shear Modulus (GPa) = -35.57498 9.56547 -13.00475
#
# Velocity S-wave (km/s) = -4.40878 2.28612 -2.66561
# Velocity P-wave (km/s) = 5.33701 5.19166 0.87474
#
# Compressibility (1/GPa) = -0.21282086
#
# Stress axis : x y z
#
# Youngs Moduli (GPa) = 43.98570 14.96186 -4.93588
#
# Poissons Ratio (x) = 0.49375 0.32767
# Poissons Ratio (y) = 1.45155 -0.41107
# Poissons Ratio (z) = -2.92003 1.24606
#
# Static dielectric constant tensor:
#      x y z
#    x 1.662290 0.000000 0.000000 
#    y 0.000000 1.627420 0.000000 
#    z 0.000000 0.000000 1.594270 
# 
# From -- ./inp_files/7042.got.cif
#   From: 2010.05.17/outbox.ucp.g08.bks.cvg/sg47_4_cif.got.tgz:7042.got - 2010.06.11 16:36:43.
