data_PCOD9389342
_publ_section_title
;
Structure prediction by ZEFSAII (Michael W. Deem and Ramdas Pophale) SiO2 
 PCOD9389342
Probable space group: P M M M
;
_chemical_formula_sum "Si O2"
_cell_formula_units_Z 52
_cell_length_a 9.000000
_cell_length_b 21.000000
_cell_length_c 15.000000
_cell_angle_alpha 90.000000
_cell_angle_beta 90.000000
_cell_angle_gamma 90.000000
_cell_volume 2835.000000
_symmetry_space_group_name_H-M "P M M M"
_symmetry_group_IT_number 47
_symmetry_cell_setting 'orthorhombic'
loop_
_space_group_symop_operation_xyz
x,y,z
-x,-y,z
x,-y,-z
-x,y,-z
-x,-y,-z
x,y,-z
-x,y,z
x,-y,z
loop_
_atom_site_type_symbol
_atom_site_label
_atom_site_fract_x
_atom_site_fract_y
_atom_site_fract_z
Si Si1 0.178486 0.571362 0.785663
Si Si2 0.674548 0.768431 0.394602
Si Si3 0.325395 0.686396 0.106091
Si Si4 0.178165 0.881625 0.287837
Si Si5 0.679211 0.000000 0.606320
Si Si6 0.821028 0.823650 0.102809
Si Si7 0.822921 0.631543 0.600781
O O1 0.226827 0.500000 0.811587
O O2 0.252843 0.628327 0.840452
O O3 0.209243 0.583474 0.680870
O O4 0.000000 0.575071 0.797697
O O5 0.689913 0.784069 0.500000
O O6 0.500000 0.772641 0.371703
O O7 0.769636 0.817139 0.336621
O O8 0.734207 0.696842 0.383064
O O9 0.500000 0.690830 0.127082
O O10 0.248907 0.754585 0.124285
O O11 0.308942 0.674926 0.000000
O O12 0.256867 0.938872 0.340958
O O13 0.218287 0.872381 0.182754
O O14 0.000000 0.889250 0.293695
O O15 0.500000 0.000000 0.610248
O O16 0.719910 0.000000 0.500000
O O17 0.000000 0.817397 0.104193
O O18 0.778172 0.840551 0.000000
O O19 0.789556 0.608973 0.500000
O O20 0.000000 0.645530 0.604091
#
# Coordination Sequence:
#
# PCOD9389342 Si02
#       7
#     8   8   8   8   4   8   8
#     4  10  21  35  51  73 101 136 178 220 266 323
#     4  10  20  33  51  77 108 140 174 216 268 322
#     4  10  21  36  55  80 108 138 174 219 270 320
#     4  11  22  36  58  85 111 143 182 222 263 307
#     4  11  25  43  60  81 114 154 189 219 258 309
#     4   9  19  37  60  85 112 141 175 217 266 318
#     4   9  18  33  52  74 101 133 172 220 270 319
#
# _framework density 18.342151999999999
#
# number of rings (size 3 to 8) (size 9 to 14) (size 15 to 20)
#    0.000    2.077    0.000    3.000    0.000   10.769 
#    0.000    3.462    0.000    2.308    0.000    3.231 
#    0.000    0.000    0.000    0.000    0.000    0.000 
#
# Total GULP energy -290304.865593 kJ/mol
# GULP energy per Si atom -5582.785877 kJ/mol
# Density = 1.830040 g / cm^3
# Si number density = 18.342152 Si / 1000 Ang^3
#
#
#
# Elastic Constant Matrix: (Units=GPa)
#
#
# Indices 1 2 3 4 5 6 
#
# 1 49.4583 30.1031 45.8205 0.0000 0.0000 0.0000
# 2 30.1031 73.5444 67.2309 0.0000 0.0000 0.0000
# 3 45.8205 67.2309 112.7671 0.0000 0.0000 0.0000
# 4 0.0000 0.0000 0.0000 27.0772 0.0000 0.0000
# 5 0.0000 0.0000 0.0000 0.0000 24.7328 0.0000
# 6 0.0000 0.0000 0.0000 0.0000 0.0000 -0.4094
#
#
#
# Elastic Compliance Matrix: (Units=1/GPa)
#
#
# Indices 1 2 3 4 5 6 
#
# 1 0.032671 -0.002719 -0.011654 0.000000 0.000000 0.000000
# 2 -0.002719 0.030111 -0.016847 0.000000 0.000000 0.000000
# 3 -0.011654 -0.016847 0.023647 0.000000 0.000000 0.000000
# 4 0.000000 0.000000 0.000000 0.036931 0.000000 0.000000
# 5 0.000000 0.000000 0.000000 0.000000 0.040432 0.000000
# 6 0.000000 0.000000 0.000000 0.000000 0.000000 -2.442839
#
#
# Mechanical properties :
#
#
# Convention : Reuss Voigt Hill
#
# Bulk Modulus (GPa) = 41.68645 58.00876 49.84761
# Shear Modulus (GPa) = -2.26387 16.45449 7.09531
#
# Velocity S-wave (km/s) = -1.11217 2.99839 1.96894
# Velocity P-wave (km/s) = 4.59644 6.60921 5.69249
#
# Compressibility (1/GPa) = 0.02398861
#
# Stress axis : x y z
#
# Youngs Moduli (GPa) = 30.60832 33.21037 42.28842
#
# Poissons Ratio (x) = 0.09031 0.49282
# Poissons Ratio (y) = 0.08324 0.71243
# Poissons Ratio (z) = 0.35670 0.55949
#
# Static dielectric constant tensor:
#      x y z
#    x 1.611870 0.000000 0.000000 
#    y 0.000000 1.602920 0.000000 
#    z 0.000000 0.000000 1.659050 
# 
# From -- ./inp_files/21489.got.cif
#   From: 2010.05.17/outbox.ucp.g08.bks.cvg/sg47_11_cif.got.tgz:21489.got - 2010.06.11 16:36:43.
