data_PCOD9389470
_publ_section_title
;
Structure prediction by ZEFSAII (Michael W. Deem and Ramdas Pophale) SiO2 
 PCOD9389470
Probable space group: P N N N
;
_chemical_formula_sum "Si O2"
_cell_formula_units_Z 60
_cell_length_a 10.769631
_cell_length_b 19.302119
_cell_length_c 13.283718
_cell_angle_alpha 90.000000
_cell_angle_beta 90.000000
_cell_angle_gamma 90.000000
_cell_volume 2761.375450
_symmetry_space_group_name_H-M "P N N N"
_symmetry_group_IT_number 48
_space_group.IT_coordinate_system_code '2'
_symmetry_cell_setting 'orthorhombic'
loop_
_space_group_symop_operation_xyz
x,y,z
1/2-x,1/2-y,z
x,1/2-y,1/2-z
1/2-x,y,1/2-z
-x,-y,-z
1/2+x,1/2+y,-z
-x,1/2+y,1/2+z
1/2+x,-y,1/2+z
loop_
_atom_site_type_symbol
_atom_site_label
_atom_site_fract_x
_atom_site_fract_y
_atom_site_fract_z
Si Si1 0.961296 0.272596 0.363502
Si Si2 0.814938 0.595144 0.147448
Si Si3 0.849809 0.896236 0.820046
Si Si4 0.486024 0.527492 0.678663
Si Si5 0.516151 0.855184 0.985535
Si Si6 0.240099 0.851387 0.973225
Si Si7 0.250000 0.603099 0.750000
Si Si8 0.350905 0.493451 0.997229
O O1 0.916240 0.250000 0.250000
O O2 0.033523 0.205700 0.404250
O O3 0.868325 0.294558 0.456877
O O4 0.046108 0.340241 0.348325
O O5 0.750000 0.621225 0.250000
O O6 0.940411 0.549815 0.163783
O O7 0.870977 0.647046 0.064417
O O8 0.715341 0.541450 0.099285
O O9 0.750000 0.858835 0.750000
O O10 0.810532 0.938641 0.917769
O O11 0.897505 0.957352 0.746780
O O12 0.504982 0.571836 0.576333
O O13 0.374216 0.559020 0.745847
O O14 0.374361 0.843426 0.025136
O O15 0.264056 0.856508 0.852936
O O16 0.194125 0.927372 0.006409
O O17 0.500000 0.500000 0.000000
#
# Coordination Sequence:
#
# PCOD9389470 Si02
#       8
#     8   8   8   8   8   8   4   8
#     4  12  23  43  65  99 150 188 224 281 371 452
#     4  12  24  42  68  94 138 188 240 290 333 412
#     4  12  26  41  65 103 144 183 221 281 364 428
#     4  11  19  40  62  98 136 173 230 282 343 411
#     4  11  24  38  68 102 136 184 230 285 351 421
#     4  11  21  38  63 102 135 173 225 286 351 422
#     4  10  14  32  61  90 128 167 212 272 338 402
#     4  12  23  41  66  99 135 177 228 292 351 398
#
# _framework density 21.728303
#
# number of rings (size 3 to 8) (size 9 to 14) (size 15 to 20)
#    0.000    0.533    7.333    3.200    1.867    0.800 
#    0.000    0.000    0.000    1.600    0.000    0.000 
#    0.000    0.000    0.000    0.000    0.000    0.000 
#
# Total GULP energy -334228.589506 kJ/mol
# GULP energy per Si atom -5570.476492 kJ/mol
# Density = 2.167885 g / cm^3
# Si number density = 21.728303 Si / 1000 Ang^3
#
#
#
# Elastic Constant Matrix: (Units=GPa)
#
#
# Indices 1 2 3 4 5 6 
#
# 1 100.2513 18.2848 37.5701 0.0000 0.0000 0.0000
# 2 18.2848 80.5222 30.7248 0.0000 0.0000 0.0000
# 3 37.5701 30.7248 79.4846 0.0000 0.0000 0.0000
# 4 0.0000 0.0000 0.0000 36.0252 0.0000 0.0000
# 5 0.0000 0.0000 0.0000 0.0000 45.1142 0.0000
# 6 0.0000 0.0000 0.0000 0.0000 0.0000 18.2030
#
#
#
# Elastic Compliance Matrix: (Units=1/GPa)
#
#
# Indices 1 2 3 4 5 6 
#
# 1 0.012153 -0.000666 -0.005487 0.000000 0.000000 0.000000
# 2 -0.000666 0.014604 -0.005330 0.000000 0.000000 0.000000
# 3 -0.005487 -0.005330 0.017235 0.000000 0.000000 0.000000
# 4 0.000000 0.000000 0.000000 0.027758 0.000000 0.000000
# 5 0.000000 0.000000 0.000000 0.000000 0.022166 0.000000
# 6 0.000000 0.000000 0.000000 0.000000 0.000000 0.054936
#
#
# Mechanical properties :
#
#
# Convention : Reuss Voigt Hill
#
# Bulk Modulus (GPa) = 47.56172 48.15751 47.85962
# Shear Modulus (GPa) = 27.96000 31.44704 29.70352
#
# Velocity S-wave (km/s) = 3.59109 3.80845 3.70137
# Velocity P-wave (km/s) = 6.25551 6.44598 6.35146
#
# Compressibility (1/GPa) = 0.02102531
#
# Stress axis : x y z
#
# Youngs Moduli (GPa) = 82.28674 68.47396 58.02156
#
# Poissons Ratio (x) = 0.04560 0.31835
# Poissons Ratio (y) = 0.05480 0.30928
# Poissons Ratio (z) = 0.45149 0.36500
#
# Static dielectric constant tensor:
#      x y z
#    x 1.966660 0.000000 0.000000 
#    y 0.000000 1.857670 0.000000 
#    z 0.000000 0.000000 -2.281410 
# 
# From -- ./inp_files/20313.got.cif
#   From: 2010.05.17/outbox.cif.g08.bks.cpg/sg48_11_cif.got.tgz:20313.got - 2010.06.03 20:39:00.
