data_PCOD9389134
_publ_section_title
;
Structure prediction by ZEFSAII (Michael W. Deem and Ramdas Pophale) SiO2 
 PCOD9389134
Probable space group: P M M M
;
_chemical_formula_sum "Si O2"
_cell_formula_units_Z 36
_cell_length_a 15.165422
_cell_length_b 7.659121
_cell_length_c 14.315940
_cell_angle_alpha 90.000000
_cell_angle_beta 90.000000
_cell_angle_gamma 90.000000
_cell_volume 1662.850862
_symmetry_space_group_name_H-M "P M M M"
_symmetry_group_IT_number 47
_symmetry_cell_setting 'orthorhombic'
loop_
_space_group_symop_operation_xyz
x,y,z
-x,-y,z
x,-y,-z
-x,y,-z
-x,-y,-z
x,y,-z
-x,y,z
x,-y,z
loop_
_atom_site_type_symbol
_atom_site_label
_atom_site_fract_x
_atom_site_fract_y
_atom_site_fract_z
Si Si1 0.769347 0.700116 0.387642
Si Si2 0.099473 0.000000 0.613943
Si Si3 0.599026 0.713337 0.276010
Si Si4 0.289548 0.293197 0.895043
Si Si5 0.095077 0.209654 0.111129
O O1 0.767768 0.702437 0.500000
O O2 0.784461 0.500000 0.357438
O O3 0.846148 0.830178 0.356679
O O4 0.674386 0.759914 0.350124
O O5 0.096548 0.000000 0.500000
O O6 0.000000 0.000000 0.649062
O O7 0.500000 0.774499 0.294254
O O8 0.596229 0.500000 0.275240
O O9 0.637860 0.774482 0.176681
O O10 0.304260 0.500000 0.902306
O O11 0.190512 0.271221 0.855132
O O12 0.293376 0.218489 0.000000
O O13 0.000000 0.272860 0.148972
O O14 0.095410 0.000000 0.118526
O O15 0.095060 0.254180 0.000000
#
# Coordination Sequence:
#
# PCOD9389134 Si02
#       5
#     8   4   8   8   8
#     4   9  18  34  57  83 111 144 180 220 268 320
#     4   9  18  34  57  85 116 147 179 217 263 321
#     4   9  18  33  52  74 102 136 175 220 268 319
#     4   9  17  29  47  71  98 130 168 212 262 314
#     4   8  14  26  44  64  88 122 161 200 247 302
#
# _framework density 21.649567000000001
#
# number of rings (size 3 to 8) (size 9 to 14) (size 15 to 20)
#    0.000    3.222    0.000    0.667    0.000    1.778 
#    2.000   10.556    0.000    6.000    0.000    3.111 
#    0.000    0.000    0.000    0.000    0.000    0.000 
#
# Total GULP energy -200845.564105 kJ/mol
# GULP energy per Si atom -5579.043447 kJ/mol
# Density = 2.160029 g / cm^3
# Si number density = 21.649567 Si / 1000 Ang^3
#
#
#
# Elastic Constant Matrix: (Units=GPa)
#
#
# Indices 1 2 3 4 5 6 
#
# 1 208.7167 58.6198 30.6403 0.0000 0.0000 0.0000
# 2 58.6198 65.3731 24.9657 0.0000 0.0000 0.0000
# 3 30.6403 24.9657 48.9939 0.0000 0.0000 0.0000
# 4 0.0000 0.0000 0.0000 6.1160 0.0000 0.0000
# 5 0.0000 0.0000 0.0000 0.0000 40.9691 0.0000
# 6 0.0000 0.0000 0.0000 0.0000 0.0000 33.7239
#
#
#
# Elastic Compliance Matrix: (Units=1/GPa)
#
#
# Indices 1 2 3 4 5 6 
#
# 1 0.006476 -0.005289 -0.001354 0.000000 0.000000 0.000000
# 2 -0.005289 0.023313 -0.008572 0.000000 0.000000 0.000000
# 3 -0.001354 -0.008572 0.025626 0.000000 0.000000 0.000000
# 4 0.000000 0.000000 0.000000 0.163505 0.000000 0.000000
# 5 0.000000 0.000000 0.000000 0.000000 0.024409 0.000000
# 6 0.000000 0.000000 0.000000 0.000000 0.000000 0.029653
#
#
# Mechanical properties :
#
#
# Convention : Reuss Voigt Hill
#
# Bulk Modulus (GPa) = 40.02676 61.28170 50.65423
# Shear Modulus (GPa) = 16.03899 30.08566 23.06233
#
# Velocity S-wave (km/s) = 2.72480 3.73187 3.26737
# Velocity P-wave (km/s) = 5.33179 6.85104 6.13860
#
# Compressibility (1/GPa) = 0.02498329
#
# Stress axis : x y z
#
# Youngs Moduli (GPa) = 154.42625 42.89401 39.02336
#
# Poissons Ratio (x) = 0.22688 0.05286
# Poissons Ratio (y) = 0.81682 0.33450
# Poissons Ratio (z) = 0.20917 0.36768
#
# Static dielectric constant tensor:
#      x y z
#    x 1.773980 0.000000 0.000000 
#    y 0.000000 1.800920 0.000000 
#    z 0.000000 0.000000 1.832880 
# 
# From -- ./inp_files/20554.got.cif
#   From: 2010.05.17/outbox.cif.g08.bks.cpg/sg47_11_cif.got.tgz:20554.got - 2010.06.03 20:15:42.
