data_PCOD9389543
_publ_section_title
;
Structure prediction by ZEFSAII (Michael W. Deem and Ramdas Pophale) SiO2 
 PCOD9389543
Probable space group: P N N N
;
_chemical_formula_sum "Si O2"
_cell_formula_units_Z 34
_cell_length_a 4.931082
_cell_length_b 13.873992
_cell_length_c 19.455199
_cell_angle_alpha 90.000000
_cell_angle_beta 90.000000
_cell_angle_gamma 90.000000
_cell_volume 1331.003942
_symmetry_space_group_name_H-M "P N N N"
_symmetry_group_IT_number 48
_space_group.IT_coordinate_system_code '2'
_symmetry_cell_setting 'orthorhombic'
loop_
_space_group_symop_operation_xyz
x,y,z
1/2-x,1/2-y,z
x,1/2-y,1/2-z
1/2-x,y,1/2-z
-x,-y,-z
1/2+x,1/2+y,-z
-x,1/2+y,1/2+z
1/2+x,-y,1/2+z
loop_
_atom_site_type_symbol
_atom_site_label
_atom_site_fract_x
_atom_site_fract_y
_atom_site_fract_z
Si Si1 0.100926 0.888332 0.858172
Si Si2 0.750000 0.250000 0.250000
Si Si3 0.836083 0.605373 0.327820
Si Si4 0.821376 0.113324 0.577166
Si Si5 0.627135 0.890247 0.946427
O O1 0.068692 0.816909 0.796476
O O2 0.406527 0.887963 0.886112
O O3 0.910084 0.851237 0.919289
O O4 0.050423 0.995781 0.829259
O O5 0.750000 0.635584 0.250000
O O6 0.551745 0.606700 0.365908
O O7 0.057146 0.652432 0.381487
O O8 0.980774 0.156845 0.511697
O O9 0.782062 0.004239 0.546006
#
# Coordination Sequence:
#
# PCOD9389543 Si02
#       5
#     8   2   8   8   8
#     4  10  21  32  48  62  96 126 178 207 256 294
#     4  12  24  38  48  74  96 150 170 230 256 308
#     4  10  17  29  44  72  96 128 153 207 253 325
#     4   9  17  28  49  64  92 118 164 202 264 299
#     4   9  18  33  46  67  82 125 167 219 243 307
#
# _framework density 25.544629
#
# number of rings (size 3 to 8) (size 9 to 14) (size 15 to 20)
#    0.000    2.353    1.176    2.118    0.000    8.471 
#    0.000    0.000    0.000    0.000    0.000    0.000 
#    0.000    0.000    0.000   29.647    0.000    1.882 
#
# Total GULP energy -189646.539271 kJ/mol
# GULP energy per Si atom -5577.839390 kJ/mol
# Density = 2.548649 g / cm^3
# Si number density = 25.544629 Si / 1000 Ang^3
#
#
#
# Elastic Constant Matrix: (Units=GPa)
#
#
# Indices 1 2 3 4 5 6 
#
# 1 131.9968 3.9677 26.7374 0.0000 0.0000 0.0000
# 2 3.9677 69.1125 23.2010 0.0000 0.0000 0.0000
# 3 26.7374 23.2010 135.4832 0.0000 0.0000 0.0000
# 4 0.0000 0.0000 0.0000 23.2873 0.0000 0.0000
# 5 0.0000 0.0000 0.0000 0.0000 -0.1862 0.0000
# 6 0.0000 0.0000 0.0000 0.0000 0.0000 7.4413
#
#
#
# Elastic Compliance Matrix: (Units=1/GPa)
#
#
# Indices 1 2 3 4 5 6 
#
# 1 0.007892 0.000074 -0.001570 0.000000 0.000000 0.000000
# 2 0.000074 0.015352 -0.002644 0.000000 0.000000 0.000000
# 3 -0.001570 -0.002644 0.008144 0.000000 0.000000 0.000000
# 4 0.000000 0.000000 0.000000 0.042942 0.000000 0.000000
# 5 0.000000 0.000000 0.000000 0.000000 -5.371202 0.000000
# 6 0.000000 0.000000 0.000000 0.000000 0.000000 0.134386
#
#
# Mechanical properties :
#
#
# Convention : Reuss Voigt Hill
#
# Bulk Modulus (GPa) = 43.27460 49.37830 46.32645
# Shear Modulus (GPa) = -0.97153 24.95424 11.99135
#
# Velocity S-wave (km/s) = -0.61738 3.12891 2.16898
# Velocity P-wave (km/s) = 4.05825 5.69435 4.94444
#
# Compressibility (1/GPa) = 0.02310824
#
# Stress axis : x y z
#
# Youngs Moduli (GPa) = 126.71453 65.13648 122.79638
#
# Poissons Ratio (x) = -0.00482 0.19280
# Poissons Ratio (y) = -0.00938 0.32463
# Poissons Ratio (z) = 0.19895 0.17220
#
# Static dielectric constant tensor:
#      x y z
#    x 1.975960 0.000000 0.000000 
#    y 0.000000 2.289400 0.000000 
#    z 0.000000 0.000000 2.055030 
# 
# From -- ./inp_files/4050.got.cif
#   From: 2010.05.17/outbox.cif.g08.bks.cpg/sg48_3_cif.got.tgz:4050.got - 2010.06.03 20:39:00.
