data_PCOD9389117
_publ_section_title
;
Structure prediction by ZEFSAII (Michael W. Deem and Ramdas Pophale) SiO2 
 PCOD9389117
Probable space group: P M M M
;
_chemical_formula_sum "Si O2"
_cell_formula_units_Z 64
_cell_length_a 43.066308
_cell_length_b 9.807441
_cell_length_c 7.549535
_cell_angle_alpha 90.000000
_cell_angle_beta 90.000000
_cell_angle_gamma 90.000000
_cell_volume 3188.699173
_symmetry_space_group_name_H-M "P M M M"
_symmetry_group_IT_number 47
_symmetry_cell_setting 'orthorhombic'
loop_
_space_group_symop_operation_xyz
x,y,z
-x,-y,z
x,-y,-z
-x,y,-z
-x,-y,-z
x,y,-z
-x,y,z
x,-y,z
loop_
_atom_site_type_symbol
_atom_site_label
_atom_site_fract_x
_atom_site_fract_y
_atom_site_fract_z
Si Si1 0.215059 0.154823 0.287221
Si Si2 0.533361 0.159097 0.713108
Si Si3 0.840084 0.655111 0.712386
Si Si4 0.965284 0.842642 0.216249
Si Si5 0.398323 0.844033 0.209559
Si Si6 0.714764 0.844315 0.211836
Si Si7 0.090738 0.655394 0.212527
Si Si8 0.341865 0.657163 0.782653
O O1 0.212157 0.149433 0.500000
O O2 0.187802 0.251696 0.219262
O O3 0.250073 0.201638 0.248401
O O4 0.212115 0.000000 0.219233
O O5 0.533033 0.160730 0.500000
O O6 0.500000 0.217796 0.773420
O O7 0.566833 0.213763 0.767771
O O8 0.533631 0.000000 0.770237
O O9 0.836933 0.648312 0.500000
O O10 0.838429 0.500000 0.781583
O O11 0.874695 0.708948 0.749076
O O12 0.937322 0.748129 0.279331
O O13 0.000000 0.798391 0.270139
O O14 0.961030 0.000000 0.269463
O O15 0.964921 0.840909 0.000000
O O16 0.371877 0.743226 0.277650
O O17 0.396888 0.000000 0.282427
O O18 0.392943 0.856053 0.000000
O O19 0.688671 0.740084 0.275734
O O20 0.711046 0.000000 0.280645
O O21 0.711191 0.851998 0.000000
O O22 0.088971 0.500000 0.280689
O O23 0.087812 0.649537 0.000000
O O24 0.342173 0.500000 0.725460
O O25 0.341988 0.655353 0.000000
#
# Coordination Sequence:
#
# PCOD9389117 Si02
#       8
#     8   8   8   8   8   8   8   8
#     4   9  18  32  48  66  88 113 142 176 213 253
#     4   8  14  25  41  62  88 115 142 175 216 258
#     4   9  18  32  47  62  85 118 148 173 209 257
#     4   8  14  25  41  62  88 115 141 172 214 260
#     4   9  16  26  43  66  88 111 142 179 214 248
#     4   9  17  30  48  68  89 113 142 176 213 253
#     4   9  17  28  43  65  89 111 141 181 216 246
#     4   9  17  29  45  65  89 116 144 174 211 255
#
# _framework density 20.070879999999999
#
# number of rings (size 3 to 8) (size 9 to 14) (size 15 to 20)
#    0.000    3.250    0.000    1.125    0.000    3.500 
#    0.000    3.125    0.000    4.875    0.000    5.250 
#    0.000    0.000    0.000    0.000    0.000    0.000 
#
# Total GULP energy -356700.599916 kJ/mol
# GULP energy per Si atom -5573.446874 kJ/mol
# Density = 2.002520 g / cm^3
# Si number density = 20.070880 Si / 1000 Ang^3
#
#
#
# Elastic Constant Matrix: (Units=GPa)
#
#
# Indices 1 2 3 4 5 6 
#
# 1 238.9191 118.2918 -0.2447 0.0000 0.0000 0.0000
# 2 118.2918 90.9500 5.0715 0.0000 0.0000 0.0000
# 3 -0.2447 5.0715 46.2251 0.0000 0.0000 0.0000
# 4 0.0000 0.0000 0.0000 0.6653 0.0000 0.0000
# 5 0.0000 0.0000 0.0000 0.0000 27.1610 0.0000
# 6 0.0000 0.0000 0.0000 0.0000 0.0000 -128.9911
#
#
#
# Elastic Compliance Matrix: (Units=1/GPa)
#
#
# Indices 1 2 3 4 5 6 
#
# 1 0.011898 -0.015574 0.001772 0.000000 0.000000 0.000000
# 2 -0.015574 0.031448 -0.003533 0.000000 0.000000 0.000000
# 3 0.001772 -0.003533 0.022030 0.000000 0.000000 0.000000
# 4 0.000000 0.000000 0.000000 1.502999 0.000000 0.000000
# 5 0.000000 0.000000 0.000000 0.000000 0.036817 0.000000
# 6 0.000000 0.000000 0.000000 0.000000 0.000000 -0.007752
#
#
# Mechanical properties :
#
#
# Convention : Reuss Voigt Hill
#
# Bulk Modulus (GPa) = 32.56652 69.14795 50.85724
# Shear Modulus (GPa) = 3.04443 -3.36791 -0.16174
#
# Velocity S-wave (km/s) = 1.23294 -1.29678 -0.28418
# Velocity P-wave (km/s) = 4.27643 5.68194 5.02853
#
# Compressibility (1/GPa) = 0.03070638
#
# Stress axis : x y z
#
# Youngs Moduli (GPa) = 84.04725 31.79895 45.39222
#
# Poissons Ratio (x) = 0.49523 -0.08042
# Poissons Ratio (y) = 1.30893 0.16035
# Poissons Ratio (z) = -0.14890 0.11233
#
# Static dielectric constant tensor:
#      x y z
#    x 1.711940 0.000000 0.000000 
#    y 0.000000 1.692280 0.000000 
#    z 0.000000 0.000000 1.755550 
# 
# From -- ./inp_files/20113.got.cif
#   From: 2010.05.17/outbox.cif.g08.bks.cpg/sg47_11_cif.got.tgz:20113.got - 2010.06.03 20:15:42.
