data_PCOD9389243
_publ_section_title
;
Structure prediction by ZEFSAII (Michael W. Deem and Ramdas Pophale) SiO2 
 PCOD9389243
Probable space group: P M M M
;
_chemical_formula_sum "Si O2"
_cell_formula_units_Z 64
_cell_length_a 21.000000
_cell_length_b 9.000000
_cell_length_c 21.000000
_cell_angle_alpha 90.000000
_cell_angle_beta 90.000000
_cell_angle_gamma 90.000000
_cell_volume 3969.000000
_symmetry_space_group_name_H-M "P M M M"
_symmetry_group_IT_number 47
_symmetry_cell_setting 'orthorhombic'
loop_
_space_group_symop_operation_xyz
x,y,z
-x,-y,z
x,-y,-z
-x,y,-z
-x,-y,-z
x,y,-z
-x,y,z
x,-y,z
loop_
_atom_site_type_symbol
_atom_site_label
_atom_site_fract_x
_atom_site_fract_y
_atom_site_fract_z
Si Si1 0.071994 0.678162 0.126566
Si Si2 0.198250 0.179092 0.072562
Si Si3 0.789500 0.820709 0.315368
Si Si4 0.928003 0.821376 0.733400
Si Si5 0.571481 0.820361 0.229291
Si Si6 0.429015 0.678916 0.630507
Si Si7 0.293494 0.320543 0.572799
Si Si8 0.710580 0.819658 0.812167
O O1 0.077870 0.500000 0.126961
O O2 0.129771 0.749355 0.087639
O O3 0.077007 0.741100 0.198448
O O4 0.000000 0.715212 0.103628
O O5 0.249916 0.228614 0.125500
O O6 0.192074 0.000000 0.078168
O O7 0.217420 0.213508 0.000000
O O8 0.864501 0.781211 0.306544
O O9 0.754423 0.749387 0.375820
O O10 0.750146 0.776556 0.251404
O O11 0.785771 0.000000 0.320280
O O12 0.000000 0.789185 0.707873
O O13 0.924733 0.000000 0.743475
O O14 0.500000 0.779083 0.204779
O O15 0.576341 0.754481 0.300367
O O16 0.636296 0.772588 0.192910
O O17 0.572997 0.000000 0.232673
O O18 0.500000 0.716080 0.604528
O O19 0.427201 0.500000 0.638041
O O20 0.366744 0.721011 0.590136
O O21 0.279419 0.276690 0.500000
O O22 0.289408 0.500000 0.576896
O O23 0.710196 0.000000 0.813194
#
# Coordination Sequence:
#
# PCOD9389243 Si02
#       8
#     8   8   8   8   8   8   8   8
#     4  10  20  32  47  70 101 132 159 192 236 285
#     4  10  20  34  51  69  93 129 168 203 240 283
#     4  10  18  31  52  74  96 123 157 200 243 281
#     4   9  17  31  52  75  98 124 158 199 239 282
#     4   9  16  27  46  69  94 124 154 189 237 286
#     4   9  17  29  45  66  93 124 159 195 230 273
#     4  10  21  34  47  68  99 131 162 196 236 285
#     4   9  16  29  48  72  96 119 156 202 240 276
#
# _framework density 16.124969
#
# number of rings (size 3 to 8) (size 9 to 14) (size 15 to 20)
#    0.000    2.500    2.500    0.375    0.000    2.250 
#    0.000    3.125    0.000    0.750    0.000    7.875 
#    0.000    0.000    0.000    4.250    0.000    4.500 
#
# Total GULP energy -356524.782732 kJ/mol
# GULP energy per Si atom -5570.699730 kJ/mol
# Density = 1.608827 g / cm^3
# Si number density = 16.124969 Si / 1000 Ang^3
#
#
#
# Elastic Constant Matrix: (Units=GPa)
#
#
# Indices 1 2 3 4 5 6 
#
# 1 163.2302 24.6274 79.2702 0.0000 0.0000 0.0000
# 2 24.6274 10.4576 20.8600 0.0000 0.0000 0.0000
# 3 79.2702 20.8600 110.5048 0.0000 0.0000 0.0000
# 4 0.0000 0.0000 0.0000 12.0746 0.0000 0.0000
# 5 0.0000 0.0000 0.0000 0.0000 25.7787 0.0000
# 6 0.0000 0.0000 0.0000 0.0000 0.0000 22.6336
#
#
#
# Elastic Compliance Matrix: (Units=1/GPa)
#
#
# Indices 1 2 3 4 5 6 
#
# 1 0.010865 -0.016103 -0.004754 0.000000 0.000000 0.000000
# 2 -0.016103 0.177245 -0.021907 0.000000 0.000000 0.000000
# 3 -0.004754 -0.021907 0.016595 0.000000 0.000000 0.000000
# 4 0.000000 0.000000 0.000000 0.082819 0.000000 0.000000
# 5 0.000000 0.000000 0.000000 0.000000 0.038792 0.000000
# 6 0.000000 0.000000 0.000000 0.000000 0.000000 0.044182
#
#
# Mechanical properties :
#
#
# Convention : Reuss Voigt Hill
#
# Bulk Modulus (GPa) = 8.39094 59.30087 33.84591
# Shear Modulus (GPa) = 10.08574 22.72637 16.40605
#
# Velocity S-wave (km/s) = 2.50366 3.75826 3.19318
# Velocity P-wave (km/s) = 3.68412 7.46246 5.88477
#
# Compressibility (1/GPa) = 0.11917618
#
# Stress axis : x y z
#
# Youngs Moduli (GPa) = 92.04286 5.64192 60.25955
#
# Poissons Ratio (x) = 0.09085 0.28646
# Poissons Ratio (y) = 1.48218 1.32010
# Poissons Ratio (z) = 0.43756 0.12360
#
# Static dielectric constant tensor:
#      x y z
#    x 1.570910 0.000000 0.000000 
#    y 0.000000 1.535680 0.000000 
#    z 0.000000 0.000000 1.518870 
# 
# From -- ./inp_files/9926.got.cif
#   From: 2010.05.17/outbox.ucp.g08.bks.cvg/sg47_5_cif.got.tgz:9926.got - 2010.06.11 16:36:43.
