data_PCOD9389275
_publ_section_title
;
Structure prediction by ZEFSAII (Michael W. Deem and Ramdas Pophale) SiO2 
 PCOD9389275
Probable space group: P M M M
;
_chemical_formula_sum "Si O2"
_cell_formula_units_Z 56
_cell_length_a 15.000000
_cell_length_b 21.000000
_cell_length_c 9.000000
_cell_angle_alpha 90.000000
_cell_angle_beta 90.000000
_cell_angle_gamma 90.000000
_cell_volume 2835.000000
_symmetry_space_group_name_H-M "P M M M"
_symmetry_group_IT_number 47
_symmetry_cell_setting 'orthorhombic'
loop_
_space_group_symop_operation_xyz
x,y,z
-x,-y,z
x,-y,-z
-x,y,-z
-x,-y,-z
x,y,-z
-x,y,z
x,-y,z
loop_
_atom_site_type_symbol
_atom_site_label
_atom_site_fract_x
_atom_site_fract_y
_atom_site_fract_z
Si Si1 0.647011 0.799358 0.332344
Si Si2 0.597344 0.662906 0.680652
Si Si3 0.392445 0.930601 0.172915
Si Si4 0.892785 0.068479 0.672757
Si Si5 0.241973 0.573403 0.679495
Si Si6 0.855931 0.207827 0.330008
Si Si7 0.897767 0.337085 0.831027
O O1 0.611975 0.808002 0.500000
O O2 0.604570 0.735773 0.263539
O O3 0.638108 0.866690 0.252277
O O4 0.750696 0.782142 0.339926
O O5 0.605456 0.668057 0.500000
O O6 0.500000 0.637290 0.715297
O O7 0.673401 0.615013 0.730951
O O8 0.500000 0.930250 0.178599
O O9 0.363050 0.000000 0.234257
O O10 0.366217 0.928089 0.000000
O O11 0.861559 0.069766 0.500000
O O12 0.868540 0.137133 0.737492
O O13 0.000000 0.067078 0.670467
O O14 0.863020 0.000000 0.737720
O O15 0.242208 0.573060 0.500000
O O16 0.243531 0.500000 0.729407
O O17 0.158130 0.612996 0.736554
O O18 0.891913 0.207623 0.500000
O O19 0.893410 0.266475 0.238559
O O20 0.000000 0.357222 0.832796
O O21 0.863698 0.334626 0.000000
#
# Coordination Sequence:
#
# PCOD9389275 Si02
#       7
#     8   8   8   8   8   8   8
#     4  10  19  31  51  79 110 142 181 234 288 334
#     4   9  17  32  55  85 120 150 179 223 279 333
#     4   9  19  35  51  69 100 144 192 239 285 336
#     4   8  14  25  43  70 102 135 174 222 275 324
#     4  10  21  39  63  90 118 148 186 229 274 330
#     4  10  19  33  55  81 109 143 187 236 280 329
#     4  11  24  40  59  84 116 154 191 230 281 336
#
# _framework density 19.753086
#
# number of rings (size 3 to 8) (size 9 to 14) (size 15 to 20)
#    0.000    2.429    1.429    2.143    0.000    4.857 
#    0.000    5.000    0.000    0.857    0.000    3.000 
#    0.000    0.000    0.000    0.000    0.000    0.000 
#
# Total GULP energy -311996.831026 kJ/mol
# GULP energy per Si atom -5571.371983 kJ/mol
# Density = 1.970813 g / cm^3
# Si number density = 19.753086 Si / 1000 Ang^3
#
#
#
# Elastic Constant Matrix: (Units=GPa)
#
#
# Indices 1 2 3 4 5 6 
#
# 1 78.6196 43.1369 9.4296 0.0000 0.0000 0.0000
# 2 43.1369 170.0523 29.7164 0.0000 0.0000 0.0000
# 3 9.4296 29.7164 17.8834 0.0000 0.0000 0.0000
# 4 0.0000 0.0000 0.0000 2.2978 0.0000 0.0000
# 5 0.0000 0.0000 0.0000 0.0000 26.0088 0.0000
# 6 0.0000 0.0000 0.0000 0.0000 0.0000 49.3093
#
#
#
# Elastic Compliance Matrix: (Units=1/GPa)
#
#
# Indices 1 2 3 4 5 6 
#
# 1 0.014838 -0.003377 -0.002211 0.000000 0.000000 0.000000
# 2 -0.003377 0.009056 -0.013267 0.000000 0.000000 0.000000
# 3 -0.002211 -0.013267 0.079129 0.000000 0.000000 0.000000
# 4 0.000000 0.000000 0.000000 0.435191 0.000000 0.000000
# 5 0.000000 0.000000 0.000000 0.000000 0.038448 0.000000
# 6 0.000000 0.000000 0.000000 0.000000 0.000000 0.020280
#
#
# Mechanical properties :
#
#
# Convention : Reuss Voigt Hill
#
# Bulk Modulus (GPa) = 15.31138 47.90235 31.60686
# Shear Modulus (GPa) = 7.61704 27.80804 17.71254
#
# Velocity S-wave (km/s) = 1.96583 3.75611 2.99774
# Velocity P-wave (km/s) = 3.59456 6.56615 5.29317
#
# Compressibility (1/GPa) = 0.06531092
#
# Stress axis : x y z
#
# Youngs Moduli (GPa) = 67.39525 110.42869 12.63766
#
# Poissons Ratio (x) = 0.37297 0.02795
# Poissons Ratio (y) = 0.22762 0.16766
# Poissons Ratio (z) = 0.14904 1.46502
#
# Static dielectric constant tensor:
#      x y z
#    x 1.728200 0.000000 0.000000 
#    y 0.000000 1.716180 0.000000 
#    z 0.000000 0.000000 1.688050 
# 
# From -- ./inp_files/7209.got.cif
#   From: 2010.05.17/outbox.ucp.g08.bks.cvg/sg47_4_cif.got.tgz:7209.got - 2010.06.11 16:36:43.
