data_PCOD9389906
_publ_section_title
;
Structure prediction by ZEFSAII (Michael W. Deem and Ramdas Pophale) SiO2 
 PCOD9389906
Probable space group: P N N N
;
_chemical_formula_sum "Si O2"
_cell_formula_units_Z 40
_cell_length_a 23.083746
_cell_length_b 4.923417
_cell_length_c 18.531569
_cell_angle_alpha 90.000000
_cell_angle_beta 90.000000
_cell_angle_gamma 90.000000
_cell_volume 2106.129634
_symmetry_space_group_name_H-M "P N N N"
_symmetry_group_IT_number 48
_space_group.IT_coordinate_system_code '2'
_symmetry_cell_setting 'orthorhombic'
loop_
_space_group_symop_operation_xyz
x,y,z
1/2-x,1/2-y,z
x,1/2-y,1/2-z
1/2-x,y,1/2-z
-x,-y,-z
1/2+x,1/2+y,-z
-x,1/2+y,1/2+z
1/2+x,-y,1/2+z
loop_
_atom_site_type_symbol
_atom_site_label
_atom_site_fract_x
_atom_site_fract_y
_atom_site_fract_z
Si Si1 0.934749 0.731197 0.557910
Si Si2 0.908688 0.999529 0.203138
Si Si3 0.994703 0.716795 0.093905
Si Si4 0.187687 0.830399 0.907877
Si Si5 0.311769 0.328153 0.487108
O O1 0.954852 0.425641 0.571153
O O2 0.866646 0.775798 0.563358
O O3 0.952014 0.804032 0.475096
O O4 0.974707 0.929214 0.605538
O O5 0.932055 0.250000 0.250000
O O6 0.862998 0.148471 0.150127
O O7 0.881841 0.750000 0.250000
O O8 0.958129 0.847175 0.157682
O O9 0.250000 0.750000 0.874898
O O10 0.181853 0.621351 0.975104
O O11 0.187280 0.123175 0.945095
O O12 0.250000 0.250000 0.452109
#
# Coordination Sequence:
#
# PCOD9389906 Si02
#       5
#     8   8   8   8   8
#     4  10  19  33  56  77 103 131 172 223 262 334
#     4  12  24  37  54  72 106 145 188 231 259 307
#     4  10  21  33  53  78 100 135 179 217 271 309
#     4  10  21  36  51  72 103 143 187 222 251 297
#     4  10  19  33  55  79 108 136 169 217 271 314
#
# _framework density 18.992183000000001
#
# number of rings (size 3 to 8) (size 9 to 14) (size 15 to 20)
#    0.000    1.600    2.000    3.600    5.600    0.400 
#    0.000    1.000    0.000    0.000    0.000    0.000 
#    0.000   12.000    0.000    0.000    0.000    0.000 
#
# Total GULP energy -223164.822491 kJ/mol
# GULP energy per Si atom -5579.120562 kJ/mol
# Density = 1.894896 g / cm^3
# Si number density = 18.992183 Si / 1000 Ang^3
#
#
#
# Elastic Constant Matrix: (Units=GPa)
#
#
# Indices 1 2 3 4 5 6 
#
# 1 104.5306 4.3065 13.2394 0.0000 0.0000 0.0000
# 2 4.3065 71.3860 2.3184 0.0000 0.0000 0.0000
# 3 13.2394 2.3184 20.9836 0.0000 0.0000 0.0000
# 4 0.0000 0.0000 0.0000 23.6313 0.0000 0.0000
# 5 0.0000 0.0000 0.0000 0.0000 13.8751 0.0000
# 6 0.0000 0.0000 0.0000 0.0000 0.0000 20.2806
#
#
#
# Elastic Compliance Matrix: (Units=1/GPa)
#
#
# Indices 1 2 3 4 5 6 
#
# 1 0.010410 -0.000416 -0.006522 0.000000 0.000000 0.000000
# 2 -0.000416 0.014075 -0.001293 0.000000 0.000000 0.000000
# 3 -0.006522 -0.001293 0.051914 0.000000 0.000000 0.000000
# 4 0.000000 0.000000 0.000000 0.042317 0.000000 0.000000
# 5 0.000000 0.000000 0.000000 0.000000 0.072072 0.000000
# 6 0.000000 0.000000 0.000000 0.000000 0.000000 0.049308
#
#
# Mechanical properties :
#
#
# Convention : Reuss Voigt Hill
#
# Bulk Modulus (GPa) = 16.68394 26.29209 21.48802
# Shear Modulus (GPa) = 18.08078 23.35978 20.72028
#
# Velocity S-wave (km/s) = 3.08882 3.51089 3.30660
# Velocity P-wave (km/s) = 4.63948 5.50535 5.09086
#
# Compressibility (1/GPa) = 0.05993787
#
# Stress axis : x y z
#
# Youngs Moduli (GPa) = 96.06368 71.04574 19.26259
#
# Poissons Ratio (x) = 0.02957 0.12563
# Poissons Ratio (y) = 0.03998 0.02490
# Poissons Ratio (z) = 0.62652 0.09183
#
# Static dielectric constant tensor:
#      x y z
#    x 1.725680 0.000000 0.000000 
#    y 0.000000 1.669490 0.000000 
#    z 0.000000 0.000000 1.657860 
# 
# From -- ./inp_files/34751.got.cif
#   From: 2010.05.17/outbox.cif.g08.bks.cpg/sg48_18_cif.got.tgz:34751.got - 2010.06.03 20:39:00.
