data_PCOD9389124
_publ_section_title
;
Structure prediction by ZEFSAII (Michael W. Deem and Ramdas Pophale) SiO2 
 PCOD9389124
Probable space group: P M M M
;
_chemical_formula_sum "Si O2"
_cell_formula_units_Z 40
_cell_length_a 7.581460
_cell_length_b 20.662496
_cell_length_c 13.127813
_cell_angle_alpha 90.000000
_cell_angle_beta 90.000000
_cell_angle_gamma 90.000000
_cell_volume 2056.496678
_symmetry_space_group_name_H-M "P M M M"
_symmetry_group_IT_number 47
_symmetry_cell_setting 'orthorhombic'
loop_
_space_group_symop_operation_xyz
x,y,z
-x,-y,z
x,-y,-z
-x,y,-z
-x,-y,-z
x,y,-z
-x,y,z
x,-y,z
loop_
_atom_site_type_symbol
_atom_site_label
_atom_site_fract_x
_atom_site_fract_y
_atom_site_fract_z
Si Si1 0.209686 0.641438 0.884213
Si Si2 0.214911 0.752510 0.500000
Si Si3 0.296213 0.096372 0.500000
Si Si4 0.709948 0.500000 0.883772
Si Si5 0.211470 0.257287 0.721649
Si Si6 0.284169 0.000000 0.116880
Si Si7 0.712192 0.105172 0.278024
O O1 0.235385 0.569199 0.839958
O O2 0.282507 0.696727 0.810256
O O3 0.000000 0.651433 0.892310
O O4 0.282330 0.643412 0.000000
O O5 0.287752 0.825506 0.500000
O O6 0.271380 0.723134 0.392238
O O7 0.000000 0.756801 0.500000
O O8 0.500000 0.074935 0.500000
O O9 0.219269 0.080400 0.611366
O O10 0.500000 0.500000 0.888010
O O11 0.782461 0.500000 0.000000
O O12 0.248623 0.181088 0.735489
O O13 0.000000 0.263960 0.722081
O O14 0.227821 0.062083 0.183311
O O15 0.500000 0.000000 0.114296
O O16 0.224201 0.000000 0.000000
O O17 0.500000 0.099047 0.283513
#
# Coordination Sequence:
#
# PCOD9389124 Si02
#       7
#     8   4   4   4   8   4   8
#     4   9  17  29  45  65  89 116 143 173 213 257
#     4   8  14  26  43  62  86 114 140 170 211 254
#     4   8  14  25  42  64  83 101 135 180 220 253
#     4   9  17  29  45  66  91 116 144 179 214 249
#     4   9  17  29  46  67  89 113 143 178 214 254
#     4   9  18  31  44  60  85 117 148 176 214 263
#     4   9  17  29  45  63  84 111 143 180 218 256
#
# _framework density 19.450554
#
# number of rings (size 3 to 8) (size 9 to 14) (size 15 to 20)
#    0.000    3.200    0.000    0.300    0.000    3.200 
#    0.000    2.500    0.000    1.200    0.000   11.200 
#    0.000    0.000    0.000    0.000    0.000    0.000 
#
# Total GULP energy -222753.324622 kJ/mol
# GULP energy per Si atom -5568.833116 kJ/mol
# Density = 1.940628 g / cm^3
# Si number density = 19.450554 Si / 1000 Ang^3
#
#
#
# Elastic Constant Matrix: (Units=GPa)
#
#
# Indices 1 2 3 4 5 6 
#
# 1 44.9049 -3.5476 9.1976 0.0000 0.0000 0.0000
# 2 -3.5476 121.4212 95.7033 0.0000 0.0000 0.0000
# 3 9.1976 95.7033 181.1918 0.0000 0.0000 0.0000
# 4 0.0000 0.0000 0.0000 48.2018 0.0000 0.0000
# 5 0.0000 0.0000 0.0000 0.0000 4.6078 0.0000
# 6 0.0000 0.0000 0.0000 0.0000 0.0000 10.1688
#
#
#
# Elastic Compliance Matrix: (Units=1/GPa)
#
#
# Indices 1 2 3 4 5 6 
#
# 1 0.023020 0.002730 -0.002611 0.000000 0.000000 0.000000
# 2 0.002730 0.014434 -0.007762 0.000000 0.000000 0.000000
# 3 -0.002611 -0.007762 0.009752 0.000000 0.000000 0.000000
# 4 0.000000 0.000000 0.000000 0.020746 0.000000 0.000000
# 5 0.000000 0.000000 0.000000 0.000000 0.217025 0.000000
# 6 0.000000 0.000000 0.000000 0.000000 0.000000 0.098340
#
#
# Mechanical properties :
#
#
# Convention : Reuss Voigt Hill
#
# Bulk Modulus (GPa) = 31.32877 61.13605 46.23241
# Shear Modulus (GPa) = 12.21773 29.00665 20.61219
#
# Velocity S-wave (km/s) = 2.50900 3.86593 3.25887
# Velocity P-wave (km/s) = 4.95331 7.17126 6.16288
#
# Compressibility (1/GPa) = 0.03191954
#
# Stress axis : x y z
#
# Youngs Moduli (GPa) = 43.44112 69.28192 102.54830
#
# Poissons Ratio (x) = -0.18915 0.26771
# Poissons Ratio (y) = -0.11860 0.79601
# Poissons Ratio (z) = 0.11341 0.53779
#
# Static dielectric constant tensor:
#      x y z
#    x 1.705730 0.000000 0.000000 
#    y 0.000000 1.667800 0.000000 
#    z 0.000000 0.000000 1.729480 
# 
# From -- ./inp_files/15160.got.cif
#   From: 2010.05.17/outbox.cif.g08.bks.cpg/sg47_8_cif.got.tgz:15160.got - 2010.06.03 20:15:42.
