data_PCOD9389523
_publ_section_title
;
Structure prediction by ZEFSAII (Michael W. Deem and Ramdas Pophale) SiO2 
 PCOD9389523
Probable space group: P N N N
;
_chemical_formula_sum "Si O2"
_cell_formula_units_Z 52
_cell_length_a 10.742531
_cell_length_b 30.918805
_cell_length_c 8.769244
_cell_angle_alpha 90.000000
_cell_angle_beta 90.000000
_cell_angle_gamma 90.000000
_cell_volume 2912.671257
_symmetry_space_group_name_H-M "P N N N"
_symmetry_group_IT_number 48
_space_group.IT_coordinate_system_code '2'
_symmetry_cell_setting 'orthorhombic'
loop_
_space_group_symop_operation_xyz
x,y,z
1/2-x,1/2-y,z
x,1/2-y,1/2-z
1/2-x,y,1/2-z
-x,-y,-z
1/2+x,1/2+y,-z
-x,1/2+y,1/2+z
1/2+x,-y,1/2+z
loop_
_atom_site_type_symbol
_atom_site_label
_atom_site_fract_x
_atom_site_fract_y
_atom_site_fract_z
Si Si1 0.634025 0.960801 0.865859
Si Si2 0.250000 0.250000 0.250000
Si Si3 0.985513 0.610640 0.066885
Si Si4 0.828900 0.814083 0.495585
Si Si5 0.750000 0.750000 0.250000
Si Si6 0.484737 0.547091 0.926820
Si Si7 0.720554 0.444547 0.569536
Si Si8 0.145511 0.111865 0.872675
O O1 0.750000 0.952689 0.750000
O O2 0.517114 0.958741 0.750435
O O3 0.659925 0.007363 0.941744
O O4 0.608120 0.925066 0.993121
O O5 0.180615 0.216829 0.360601
O O6 0.963642 0.619297 0.247277
O O7 0.120058 0.591841 0.035575
O O8 0.946444 0.655062 0.989466
O O9 0.831698 0.781484 0.353823
O O10 0.711600 0.846886 0.456371
O O11 0.500000 0.500000 0.000000
O O12 0.344594 0.560100 0.969992
O O13 0.584909 0.579042 0.007029
O O14 0.750000 0.441626 0.750000
O O15 0.250000 0.096132 0.750000
#
# Coordination Sequence:
#
# PCOD9389523 Si02
#       8
#     8   2   8   8   2   8   8   8
#     4  11  22  36  56  81 120 160 213 258 300 344
#     4  10  24  38  64  94 130 142 180 262 334 370
#     4  11  21  37  56  83 118 158 200 245 301 366
#     4  10  21  36  61  92 122 147 185 245 316 374
#     4  10  16  38  56  94 114 142 184 242 318 374
#     4  12  22  37  54  81 122 167 211 258 292 348
#     4  11  22  37  54  80 121 169 215 253 287 347
#     4  10  20  35  57  83 116 157 193 244 303 354
#
# _framework density 17.853027999999998
#
# number of rings (size 3 to 8) (size 9 to 14) (size 15 to 20)
#    0.000    1.231    6.923    2.308    3.231    0.615 
#    0.000    0.000    0.000    0.000    0.000   11.308 
#    0.000    0.000    0.000    0.000    0.000    0.000 
#
# Total GULP energy -289682.802141 kJ/mol
# GULP energy per Si atom -5570.823118 kJ/mol
# Density = 1.781239 g / cm^3
# Si number density = 17.853028 Si / 1000 Ang^3
#
#
#
# Elastic Constant Matrix: (Units=GPa)
#
#
# Indices 1 2 3 4 5 6 
#
# 1 106.8960 52.7307 23.7857 0.0000 0.0000 0.0000
# 2 52.7307 131.2019 43.8731 0.0000 0.0000 0.0000
# 3 23.7857 43.8731 80.0441 0.0000 0.0000 0.0000
# 4 0.0000 0.0000 0.0000 5.6409 0.0000 0.0000
# 5 0.0000 0.0000 0.0000 0.0000 18.9681 0.0000
# 6 0.0000 0.0000 0.0000 0.0000 0.0000 21.0501
#
#
#
# Elastic Compliance Matrix: (Units=1/GPa)
#
#
# Indices 1 2 3 4 5 6 
#
# 1 0.011748 -0.004352 -0.001106 0.000000 0.000000 0.000000
# 2 -0.004352 0.010944 -0.004706 0.000000 0.000000 0.000000
# 3 -0.001106 -0.004706 0.015401 0.000000 0.000000 0.000000
# 4 0.000000 0.000000 0.000000 0.177277 0.000000 0.000000
# 5 0.000000 0.000000 0.000000 0.000000 0.052720 0.000000
# 6 0.000000 0.000000 0.000000 0.000000 0.000000 0.047506
#
#
# Mechanical properties :
#
#
# Convention : Reuss Voigt Hill
#
# Bulk Modulus (GPa) = 56.28450 62.10232 59.19341
# Shear Modulus (GPa) = 14.62657 22.31532 18.47095
#
# Velocity S-wave (km/s) = 2.86541 3.53929 3.22003
# Velocity P-wave (km/s) = 6.52246 7.18074 6.85950
#
# Compressibility (1/GPa) = 0.01776688
#
# Stress axis : x y z
#
# Youngs Moduli (GPa) = 85.12418 91.37171 64.93152
#
# Poissons Ratio (x) = 0.39762 0.07179
# Poissons Ratio (y) = 0.37043 0.30554
# Poissons Ratio (z) = 0.09412 0.42996
#
# Static dielectric constant tensor:
#      x y z
#    x 1.877880 0.000000 0.000000 
#    y 0.000000 1.615890 0.000000 
#    z 0.000000 0.000000 1.650360 
# 
# From -- ./inp_files/11518.got.cif
#   From: 2010.05.17/outbox.cif.g08.bks.cpg/sg48_6_cif.got.tgz:11518.got - 2010.06.03 20:39:00.
