data_PCOD9389550
_publ_section_title
;
Structure prediction by ZEFSAII (Michael W. Deem and Ramdas Pophale) SiO2 
 PCOD9389550
Probable space group: P N N N
;
_chemical_formula_sum "Si O2"
_cell_formula_units_Z 36
_cell_length_a 11.558207
_cell_length_b 16.926894
_cell_length_c 7.197527
_cell_angle_alpha 90.000000
_cell_angle_beta 90.000000
_cell_angle_gamma 90.000000
_cell_volume 1408.156893
_symmetry_space_group_name_H-M "P N N N"
_symmetry_group_IT_number 48
_space_group.IT_coordinate_system_code '2'
_symmetry_cell_setting 'orthorhombic'
loop_
_space_group_symop_operation_xyz
x,y,z
1/2-x,1/2-y,z
x,1/2-y,1/2-z
1/2-x,y,1/2-z
-x,-y,-z
1/2+x,1/2+y,-z
-x,1/2+y,1/2+z
1/2+x,-y,1/2+z
loop_
_atom_site_type_symbol
_atom_site_label
_atom_site_fract_x
_atom_site_fract_y
_atom_site_fract_z
Si Si1 0.566977 0.780571 0.541438
Si Si2 0.586033 0.074453 0.467624
Si Si3 0.425851 0.393348 0.549550
Si Si4 0.839425 0.451713 0.067430
Si Si5 0.750000 0.873911 0.750000
O O1 0.531810 0.750000 0.750000
O O2 0.479839 0.846651 0.466408
O O3 0.577952 0.699872 0.426334
O O4 0.688398 0.824162 0.585700
O O5 0.623910 0.095505 0.253717
O O6 0.716800 0.056508 0.532457
O O7 0.500000 0.000000 0.500000
O O8 0.556070 0.424663 0.562980
O O9 0.354940 0.460142 0.654034
O O10 0.362443 0.410409 0.347915
#
# Coordination Sequence:
#
# PCOD9389550 Si02
#       5
#     8   8   8   8   4
#     4  10  18  33  57  83 111 149 198 243 293 348
#     4  11  22  38  55  85 118 156 190 248 307 362
#     4  10  19  35  54  84 113 149 200 246 287 357
#     4  10  22  35  55  85 117 151 195 242 303 355
#     4  10  17  30  56  84 110 151 198 251 292 346
#
# _framework density 25.565332000000001
#
# number of rings (size 3 to 8) (size 9 to 14) (size 15 to 20)
#    0.000    1.778    4.444    4.333    0.000    0.889 
#    0.000    1.111    0.000    2.667    0.000    3.111 
#    0.000    0.000    0.000    0.000    0.000    0.000 
#
# Total GULP energy -200409.443900 kJ/mol
# GULP energy per Si atom -5566.928997 kJ/mol
# Density = 2.550714 g / cm^3
# Si number density = 25.565332 Si / 1000 Ang^3
#
#
#
# Elastic Constant Matrix: (Units=GPa)
#
#
# Indices 1 2 3 4 5 6 
#
# 1 272.5353 85.2225 29.5123 0.0000 0.0000 0.0000
# 2 85.2225 157.3614 9.1320 0.0000 0.0000 0.0000
# 3 29.5123 9.1320 46.4133 0.0000 0.0000 0.0000
# 4 0.0000 0.0000 0.0000 28.0740 0.0000 0.0000
# 5 0.0000 0.0000 0.0000 0.0000 35.4040 0.0000
# 6 0.0000 0.0000 0.0000 0.0000 0.0000 38.1972
#
#
#
# Elastic Compliance Matrix: (Units=1/GPa)
#
#
# Indices 1 2 3 4 5 6 
#
# 1 0.004690 -0.002394 -0.002511 0.000000 0.000000 0.000000
# 2 -0.002394 0.007650 0.000017 0.000000 0.000000 0.000000
# 3 -0.002511 0.000017 0.023139 0.000000 0.000000 0.000000
# 4 0.000000 0.000000 0.000000 0.035620 0.000000 0.000000
# 5 0.000000 0.000000 0.000000 0.000000 0.028245 0.000000
# 6 0.000000 0.000000 0.000000 0.000000 0.000000 0.026180
#
#
# Mechanical properties :
#
#
# Convention : Reuss Voigt Hill
#
# Bulk Modulus (GPa) = 38.90603 80.44927 59.67765
# Shear Modulus (GPa) = 34.75400 43.83125 39.29263
#
# Velocity S-wave (km/s) = 3.69103 4.14512 3.92465
# Velocity P-wave (km/s) = 5.78068 7.37874 6.62805
#
# Compressibility (1/GPa) = 0.02570295
#
# Stress axis : x y z
#
# Youngs Moduli (GPa) = 213.22787 130.71191 43.21737
#
# Poissons Ratio (x) = 0.31294 0.10852
# Poissons Ratio (y) = 0.51050 -0.00074
# Poissons Ratio (z) = 0.53542 -0.00223
#
# Static dielectric constant tensor:
#      x y z
#    x 2.168060 0.000000 0.000000 
#    y 0.000000 2.155360 0.000000 
#    z 0.000000 0.000000 2.367970 
# 
# From -- ./inp_files/19722.got.cif
#   From: 2010.05.17/outbox.cif.g08.bks.cpg/sg48_10_cif.got.tgz:19722.got - 2010.06.03 20:39:00.
