data_PCOD9389764
_publ_section_title
;
Structure prediction by ZEFSAII (Michael W. Deem and Ramdas Pophale) SiO2 
 PCOD9389764
Probable space group: P N N N
;
_chemical_formula_sum "Si O2"
_cell_formula_units_Z 44
_cell_length_a 24.847726
_cell_length_b 6.210909
_cell_length_c 17.151201
_cell_angle_alpha 90.000000
_cell_angle_beta 90.000000
_cell_angle_gamma 90.000000
_cell_volume 2646.892797
_symmetry_space_group_name_H-M "P N N N"
_symmetry_group_IT_number 48
_space_group.IT_coordinate_system_code '2'
_symmetry_cell_setting 'orthorhombic'
loop_
_space_group_symop_operation_xyz
x,y,z
1/2-x,1/2-y,z
x,1/2-y,1/2-z
1/2-x,y,1/2-z
-x,-y,-z
1/2+x,1/2+y,-z
-x,1/2+y,1/2+z
1/2+x,-y,1/2+z
loop_
_atom_site_type_symbol
_atom_site_label
_atom_site_fract_x
_atom_site_fract_y
_atom_site_fract_z
Si Si1 0.916858 0.057929 0.525405
Si Si2 0.055603 0.623510 0.327258
Si Si3 0.250000 0.750000 0.136390
Si Si4 0.499060 0.816005 0.565076
Si Si5 0.168218 0.414227 0.316302
Si Si6 0.302526 0.370864 0.462987
O O1 0.923585 0.218653 0.601353
O O2 0.945285 0.179920 0.452823
O O3 0.857494 0.972727 0.502175
O O4 0.952712 0.851644 0.549216
O O5 0.037882 0.750000 0.250000
O O6 0.107597 0.485982 0.303605
O O7 0.011148 0.454225 0.357886
O O8 0.294468 0.620604 0.182904
O O9 0.221740 0.572347 0.083117
O O10 0.500000 0.000000 0.500000
O O11 0.185418 0.250000 0.250000
O O12 0.175602 0.298804 0.399246
O O13 0.250000 0.250000 0.501784
#
# Coordination Sequence:
#
# PCOD9389764 Si02
#       6
#     8   8   4   8   8   8
#     4  10  18  36  51  67  93 126 170 213 256 300
#     4  11  21  32  48  68  94 125 169 220 258 296
#     4  10  22  35  40  60  94 130 172 213 254 270
#     4   9  20  33  52  69  87 124 171 212 246 309
#     4  11  22  32  42  62  90 131 172 218 250 287
#     4  10  20  31  47  64  88 122 166 212 254 298
#
# _framework density 16.623265
#
# number of rings (size 3 to 8) (size 9 to 14) (size 15 to 20)
#    0.000    1.818    3.636    1.091    0.000    4.000 
#    0.000    0.000    0.000    0.000    0.000    0.000 
#    0.000    0.000    0.000    0.000    0.000  491.818 
#
# Total GULP energy -245025.845182 kJ/mol
# GULP energy per Si atom -5568.769209 kJ/mol
# Density = 1.658543 g / cm^3
# Si number density = 16.623265 Si / 1000 Ang^3
#
#
#
# Elastic Constant Matrix: (Units=GPa)
#
#
# Indices 1 2 3 4 5 6 
#
# 1 118.0966 45.7467 37.3760 0.0000 0.0000 0.0000
# 2 45.7467 103.2965 26.4255 0.0000 0.0000 0.0000
# 3 37.3760 26.4255 40.9345 0.0000 0.0000 0.0000
# 4 0.0000 0.0000 0.0000 20.6822 0.0000 0.0000
# 5 0.0000 0.0000 0.0000 0.0000 13.0412 0.0000
# 6 0.0000 0.0000 0.0000 0.0000 0.0000 37.1194
#
#
#
# Elastic Compliance Matrix: (Units=1/GPa)
#
#
# Indices 1 2 3 4 5 6 
#
# 1 0.012731 -0.003191 -0.009564 0.000000 0.000000 0.000000
# 2 -0.003191 0.012396 -0.005088 0.000000 0.000000 0.000000
# 3 -0.009564 -0.005088 0.036446 0.000000 0.000000 0.000000
# 4 0.000000 0.000000 0.000000 0.048351 0.000000 0.000000
# 5 0.000000 0.000000 0.000000 0.000000 0.076680 0.000000
# 6 0.000000 0.000000 0.000000 0.000000 0.000000 0.026940
#
#
# Mechanical properties :
#
#
# Convention : Reuss Voigt Hill
#
# Bulk Modulus (GPa) = 38.63075 53.49155 46.06115
# Shear Modulus (GPa) = 19.39038 24.35385 21.87211
#
# Velocity S-wave (km/s) = 3.41905 3.83174 3.63127
# Velocity P-wave (km/s) = 6.23506 7.19895 6.73427
#
# Compressibility (1/GPa) = 0.02588612
#
# Stress axis : x y z
#
# Youngs Moduli (GPa) = 78.55025 80.67163 27.43754
#
# Poissons Ratio (x) = 0.25746 0.26241
# Poissons Ratio (y) = 0.25069 0.13961
# Poissons Ratio (z) = 0.75124 0.41048
#
# Static dielectric constant tensor:
#      x y z
#    x 1.544940 0.000000 0.000000 
#    y 0.000000 1.594980 0.000000 
#    z 0.000000 0.000000 1.572500 
# 
# From -- ./inp_files/3482.got.cif
#   From: 2010.05.17/outbox.cif.g08.bks.cpg/sg48_2_cif.got.tgz:3482.got - 2010.06.03 20:39:00.
