data_PCOD9389268
_publ_section_title
;
Structure prediction by ZEFSAII (Michael W. Deem and Ramdas Pophale) SiO2 
 PCOD9389268
Probable space group: P M M M
;
_chemical_formula_sum "Si O2"
_cell_formula_units_Z 52
_cell_length_a 15.000000
_cell_length_b 9.000000
_cell_length_c 21.000000
_cell_angle_alpha 90.000000
_cell_angle_beta 90.000000
_cell_angle_gamma 90.000000
_cell_volume 2835.000000
_symmetry_space_group_name_H-M "P M M M"
_symmetry_group_IT_number 47
_symmetry_cell_setting 'orthorhombic'
loop_
_space_group_symop_operation_xyz
x,y,z
-x,-y,z
x,-y,-z
-x,y,-z
-x,-y,-z
x,y,-z
-x,y,z
x,-y,z
loop_
_atom_site_type_symbol
_atom_site_label
_atom_site_fract_x
_atom_site_fract_y
_atom_site_fract_z
Si Si1 0.220260 0.677362 0.428510
Si Si2 0.105979 0.174488 0.316731
Si Si3 0.395751 0.318418 0.000000
Si Si4 0.397451 0.177864 0.615560
Si Si5 0.101791 0.679403 0.179280
Si Si6 0.603496 0.176348 0.765929
Si Si7 0.715629 0.321268 0.876055
O O1 0.188092 0.714451 0.500000
O O2 0.217744 0.500000 0.420924
O O3 0.161982 0.752629 0.373339
O O4 0.321304 0.735408 0.421267
O O5 0.122516 0.251676 0.248570
O O6 0.000000 0.189153 0.329449
O O7 0.128091 0.000000 0.312058
O O8 0.340658 0.269522 0.937431
O O9 0.396850 0.500000 0.000000
O O10 0.500000 0.271270 0.000000
O O11 0.500000 0.216762 0.599612
O O12 0.383640 0.207611 0.691059
O O13 0.387933 0.000000 0.606088
O O14 0.103290 0.500000 0.184829
O O15 0.180413 0.723510 0.130610
O O16 0.000000 0.722901 0.161977
O O17 0.500000 0.209316 0.780971
O O18 0.666740 0.265455 0.812609
O O19 0.617481 0.000000 0.774676
O O20 0.713677 0.500000 0.877632
#
# Coordination Sequence:
#
# PCOD9389268 Si02
#       7
#     8   8   4   8   8   8   8
#     4  11  24  38  52  74 105 140 175 212 258 312
#     4  10  21  37  58  82 105 132 169 213 261 314
#     4   9  18  32  48  70 104 141 177 217 254 291
#     4   9  19  36  56  77 102 134 173 218 267 315
#     4   9  18  33  53  78 106 132 163 209 262 310
#     4   9  18  32  50  74 102 128 159 207 262 307
#     4  10  19  31  50  74 100 136 177 210 247 299
#
# _framework density 18.342151999999999
#
# number of rings (size 3 to 8) (size 9 to 14) (size 15 to 20)
#    0.000    2.385    0.000    3.231    0.000    7.692 
#    0.000    5.385    0.000    3.692    0.000    0.000 
#    0.000    3.692    0.000    0.000    0.000    0.000 
#
# Total GULP energy -290206.451481 kJ/mol
# GULP energy per Si atom -5580.893298 kJ/mol
# Density = 1.830040 g / cm^3
# Si number density = 18.342152 Si / 1000 Ang^3
#
#
#
# Elastic Constant Matrix: (Units=GPa)
#
#
# Indices 1 2 3 4 5 6 
#
# 1 115.4675 31.7483 70.0978 0.0000 0.0000 0.0000
# 2 31.7483 19.6796 21.8982 0.0000 0.0000 0.0000
# 3 70.0978 21.8982 61.8670 0.0000 0.0000 0.0000
# 4 0.0000 0.0000 0.0000 3.2957 0.0000 0.0000
# 5 0.0000 0.0000 0.0000 0.0000 22.9553 0.0000
# 6 0.0000 0.0000 0.0000 0.0000 0.0000 26.6783
#
#
#
# Elastic Compliance Matrix: (Units=1/GPa)
#
#
# Indices 1 2 3 4 5 6 
#
# 1 0.031240 -0.018167 -0.028966 0.000000 0.000000 0.000000
# 2 -0.018167 0.094396 -0.012828 0.000000 0.000000 0.000000
# 3 -0.028966 -0.012828 0.053524 0.000000 0.000000 0.000000
# 4 0.000000 0.000000 0.000000 0.303430 0.000000 0.000000
# 5 0.000000 0.000000 0.000000 0.000000 0.043563 0.000000
# 6 0.000000 0.000000 0.000000 0.000000 0.000000 0.037484
#
#
# Mechanical properties :
#
#
# Convention : Reuss Voigt Hill
#
# Bulk Modulus (GPa) = 16.88105 49.38916 33.13510
# Shear Modulus (GPa) = 7.10928 15.47051 11.28989
#
# Velocity S-wave (km/s) = 1.97087 2.90735 2.48365
# Velocity P-wave (km/s) = 3.79506 6.18509 5.13117
#
# Compressibility (1/GPa) = 0.05923803
#
# Stress axis : x y z
#
# Youngs Moduli (GPa) = 32.01003 10.59363 18.68313
#
# Poissons Ratio (x) = 0.19245 0.54118
# Poissons Ratio (y) = 0.58152 0.23967
# Poissons Ratio (z) = 0.92721 0.13590
#
# Static dielectric constant tensor:
#      x y z
#    x 1.652130 0.000000 0.000000 
#    y 0.000000 1.605800 0.000000 
#    z 0.000000 0.000000 1.614280 
# 
# From -- ./inp_files/21387.got.cif
#   From: 2010.05.17/outbox.ucp.g08.bks.cvg/sg47_11_cif.got.tgz:21387.got - 2010.06.11 16:36:43.
