data_PCOD9389654
_publ_section_title
;
Structure prediction by ZEFSAII (Michael W. Deem and Ramdas Pophale) SiO2 
 PCOD9389654
Probable space group: P N N N
;
_chemical_formula_sum "Si O2"
_cell_formula_units_Z 52
_cell_length_a 17.595960
_cell_length_b 16.599649
_cell_length_c 8.245286
_cell_angle_alpha 90.000000
_cell_angle_beta 90.000000
_cell_angle_gamma 90.000000
_cell_volume 2408.338872
_symmetry_space_group_name_H-M "P N N N"
_symmetry_group_IT_number 48
_space_group.IT_coordinate_system_code '2'
_symmetry_cell_setting 'orthorhombic'
loop_
_space_group_symop_operation_xyz
x,y,z
1/2-x,1/2-y,z
x,1/2-y,1/2-z
1/2-x,y,1/2-z
-x,-y,-z
1/2+x,1/2+y,-z
-x,1/2+y,1/2+z
1/2+x,-y,1/2+z
loop_
_atom_site_type_symbol
_atom_site_label
_atom_site_fract_x
_atom_site_fract_y
_atom_site_fract_z
Si Si1 0.174537 0.630840 0.826688
Si Si2 0.854800 0.839695 0.502087
Si Si3 0.019086 0.867815 0.557419
Si Si4 0.724202 0.994037 0.936251
Si Si5 0.377218 0.003873 0.568000
Si Si6 0.750000 0.750000 0.250000
Si Si7 0.750000 0.750000 0.750000
Si Si8 0.021752 0.526367 0.257548
O O1 0.250000 0.668929 0.750000
O O2 0.146365 0.567942 0.688590
O O3 0.096783 0.674081 0.882410
O O4 0.204357 0.578477 0.980046
O O5 0.943230 0.817510 0.519135
O O6 0.845696 0.935891 0.521332
O O7 0.808211 0.805291 0.351500
O O8 0.805826 0.805568 0.649135
O O9 0.038563 0.916321 0.392734
O O10 0.994032 0.936242 0.688921
O O11 0.750000 0.001254 0.750000
O O12 0.797906 0.955077 0.024344
O O13 0.415567 0.975288 0.399080
O O14 0.442372 0.053407 0.659061
#
# Coordination Sequence:
#
# PCOD9389654 Si02
#       8
#     8   8   8   8   8   2   2   8
#     4   9  19  31  47  81 113 130 163 204 252 341
#     4  11  22  38  53  69  97 139 184 235 265 303
#     4  10  18  31  52  70  98 137 166 211 269 314
#     4  11  19  29  52  71 103 151 174 205 268 312
#     4   9  17  27  40  69 107 137 167 207 241 304
#     4  10  28  38  48  70 100 130 202 250 264 292
#     4  10  24  42  48  74  98 130 196 238 248 296
#     4   9  17  28  44  76 102 128 179 209 239 335
#
# _framework density 21.591645
#
# number of rings (size 3 to 8) (size 9 to 14) (size 15 to 20)
#    0.000    2.154    0.769    4.615    5.385    0.000 
#    0.000    0.000    0.000    0.000    0.000    0.538 
#    0.000    0.000    0.000    0.000    0.000    0.000 
#
# Total GULP energy -289979.228668 kJ/mol
# GULP energy per Si atom -5576.523628 kJ/mol
# Density = 2.154250 g / cm^3
# Si number density = 21.591645 Si / 1000 Ang^3
#
#
#
# Elastic Constant Matrix: (Units=GPa)
#
#
# Indices 1 2 3 4 5 6 
#
# 1 206.5863 13.3713 36.8031 0.0000 0.0000 0.0000
# 2 13.3713 35.1240 17.9394 0.0000 0.0000 0.0000
# 3 36.8031 17.9394 114.3909 0.0000 0.0000 0.0000
# 4 0.0000 0.0000 0.0000 -1.0967 0.0000 0.0000
# 5 0.0000 0.0000 0.0000 0.0000 -136.3682 0.0000
# 6 0.0000 0.0000 0.0000 0.0000 0.0000 -47.2122
#
#
#
# Elastic Compliance Matrix: (Units=1/GPa)
#
#
# Indices 1 2 3 4 5 6 
#
# 1 0.005182 -0.001219 -0.001476 0.000000 0.000000 0.000000
# 2 -0.001219 0.031236 -0.004506 0.000000 0.000000 0.000000
# 3 -0.001476 -0.004506 0.009924 0.000000 0.000000 0.000000
# 4 0.000000 0.000000 0.000000 -0.911851 0.000000 0.000000
# 5 0.000000 0.000000 0.000000 0.000000 -0.007333 0.000000
# 6 0.000000 0.000000 0.000000 0.000000 0.000000 -0.021181
#
#
# Mechanical properties :
#
#
# Convention : Reuss Voigt Hill
#
# Bulk Modulus (GPa) = 31.30959 54.70321 43.00640
# Shear Modulus (GPa) = -5.75392 -17.73625 -11.74508
#
# Velocity S-wave (km/s) = -1.63422 -2.86919 -2.33483
# Velocity P-wave (km/s) = 3.31231 3.79658 3.56268
#
# Compressibility (1/GPa) = 0.03193910
#
# Stress axis : x y z
#
# Youngs Moduli (GPa) = 192.95811 32.01412 100.76967
#
# Poissons Ratio (x) = 0.03902 0.14876
# Poissons Ratio (y) = 0.23521 0.45411
# Poissons Ratio (z) = 0.28484 0.14427
#
# Static dielectric constant tensor:
#      x y z
#    x 1.882720 0.000000 0.000000 
#    y 0.000000 1.760480 0.000000 
#    z 0.000000 0.000000 1.810080 
# 
# From -- ./inp_files/14416.got.cif
#   From: 2010.05.17/outbox.cif.g08.bks.cpg/sg48_8_cif.got.tgz:14416.got - 2010.06.03 20:39:00.
