data_PCOD9389618
_publ_section_title
;
Structure prediction by ZEFSAII (Michael W. Deem and Ramdas Pophale) SiO2 
 PCOD9389618
Probable space group: P N N N
;
_chemical_formula_sum "Si O2"
_cell_formula_units_Z 64
_cell_length_a 11.756252
_cell_length_b 12.257316
_cell_length_c 26.400728
_cell_angle_alpha 90.000000
_cell_angle_beta 90.000000
_cell_angle_gamma 90.000000
_cell_volume 3804.347432
_symmetry_space_group_name_H-M "P N N N"
_symmetry_group_IT_number 48
_space_group.IT_coordinate_system_code '2'
_symmetry_cell_setting 'orthorhombic'
loop_
_space_group_symop_operation_xyz
x,y,z
1/2-x,1/2-y,z
x,1/2-y,1/2-z
1/2-x,y,1/2-z
-x,-y,-z
1/2+x,1/2+y,-z
-x,1/2+y,1/2+z
1/2+x,-y,1/2+z
loop_
_atom_site_type_symbol
_atom_site_label
_atom_site_fract_x
_atom_site_fract_y
_atom_site_fract_z
Si Si1 0.242145 0.491445 0.093172
Si Si2 0.544868 0.587687 0.657133
Si Si3 0.435094 0.881175 0.027826
Si Si4 0.614220 0.036325 0.439630
Si Si5 0.425104 0.866994 0.448354
Si Si6 0.622188 0.620178 0.761356
Si Si7 0.571857 0.659766 0.875112
Si Si8 0.879523 0.473568 0.072309
O O1 0.156359 0.478233 0.139442
O O2 0.156362 0.529979 0.048632
O O3 0.338021 0.584073 0.092512
O O4 0.319171 0.381407 0.091886
O O5 0.538276 0.579245 0.717464
O O6 0.566794 0.711825 0.637293
O O7 0.437365 0.545214 0.626264
O O8 0.416596 0.761975 0.049671
O O9 0.557737 0.923250 0.046277
O O10 0.418642 0.879427 0.967435
O O11 0.609977 0.084668 0.496592
O O12 0.539743 0.115824 0.403703
O O13 0.744795 0.023916 0.424707
O O14 0.548086 0.920712 0.439118
O O15 0.626294 0.750000 0.750000
O O16 0.750000 0.579758 0.750000
O O17 0.587574 0.605103 0.819483
#
# Coordination Sequence:
#
# PCOD9389618 Si02
#       8
#     8   8   8   8   8   8   8   8
#     4  10  18  29  49  76 101 131 171 202 249 308
#     4  10  19  31  51  78 107 138 169 209 257 307
#     4  10  20  34  51  71 102 138 170 211 253 298
#     4  10  21  35  49  73 103 137 178 207 249 308
#     4  10  20  34  51  71 102 138 170 211 253 298
#     4   9  16  30  51  75 105 134 167 212 263 305
#     4  10  19  31  51  78 107 138 169 209 257 307
#     4  10  21  35  49  73 103 137 178 207 249 308
#
# _framework density 16.822859000000001
#
# number of rings (size 3 to 8) (size 9 to 14) (size 15 to 20)
#    0.000    2.125    2.500    1.500    0.000    2.000 
#    0.000    1.875    0.000    2.250    0.000   35.875 
#    0.000    8.000    0.000    0.000    0.000    0.000 
#
# Total GULP energy -356283.247452 kJ/mol
# GULP energy per Si atom -5566.925741 kJ/mol
# Density = 1.678457 g / cm^3
# Si number density = 16.822859 Si / 1000 Ang^3
#
#
#
# Elastic Constant Matrix: (Units=GPa)
#
#
# Indices 1 2 3 4 5 6 
#
# 1 130.7102 28.6815 44.6095 0.0000 0.0000 0.0000
# 2 28.6815 45.9575 17.6986 0.0000 0.0000 0.0000
# 3 44.6095 17.6986 84.0575 0.0000 0.0000 0.0000
# 4 0.0000 0.0000 0.0000 18.4886 0.0000 0.0000
# 5 0.0000 0.0000 0.0000 0.0000 22.5183 0.0000
# 6 0.0000 0.0000 0.0000 0.0000 0.0000 10.6694
#
#
#
# Elastic Compliance Matrix: (Units=1/GPa)
#
#
# Indices 1 2 3 4 5 6 
#
# 1 0.010181 -0.004650 -0.004424 0.000000 0.000000 0.000000
# 2 -0.004650 0.025803 -0.002965 0.000000 0.000000 0.000000
# 3 -0.004424 -0.002965 0.014869 0.000000 0.000000 0.000000
# 4 0.000000 0.000000 0.000000 0.054087 0.000000 0.000000
# 5 0.000000 0.000000 0.000000 0.000000 0.044408 0.000000
# 6 0.000000 0.000000 0.000000 0.000000 0.000000 0.093726
#
#
# Mechanical properties :
#
#
# Convention : Reuss Voigt Hill
#
# Bulk Modulus (GPa) = 37.34900 49.18938 43.26919
# Shear Modulus (GPa) = 18.11090 21.65098 19.88094
#
# Velocity S-wave (km/s) = 3.28466 3.59137 3.44143
# Velocity P-wave (km/s) = 6.05268 6.81911 6.44729
#
# Compressibility (1/GPa) = 0.02677448
#
# Stress axis : x y z
#
# Youngs Moduli (GPa) = 98.22587 38.75504 67.25550
#
# Poissons Ratio (x) = 0.18021 0.29753
# Poissons Ratio (y) = 0.45674 0.19943
# Poissons Ratio (z) = 0.43453 0.11492
#
# Static dielectric constant tensor:
#      x y z
#    x 1.584920 0.000000 0.000000 
#    y 0.000000 1.586720 0.000000 
#    z 0.000000 0.000000 1.590200 
# 
# From -- ./inp_files/37821.got.cif
#   From: 2010.05.17/outbox.cif.g08.bks.cpg/sg48_19_cif.got.tgz:37821.got - 2010.06.03 20:39:00.
