data_PCOD9389736
_publ_section_title
;
Structure prediction by ZEFSAII (Michael W. Deem and Ramdas Pophale) SiO2 
 PCOD9389736
Probable space group: P N N N
;
_chemical_formula_sum "Si O2"
_cell_formula_units_Z 48
_cell_length_a 21.421955
_cell_length_b 6.473847
_cell_length_c 18.787226
_cell_angle_alpha 90.000000
_cell_angle_beta 90.000000
_cell_angle_gamma 90.000000
_cell_volume 2605.458702
_symmetry_space_group_name_H-M "P N N N"
_symmetry_group_IT_number 48
_space_group.IT_coordinate_system_code '2'
_symmetry_cell_setting 'orthorhombic'
loop_
_space_group_symop_operation_xyz
x,y,z
1/2-x,1/2-y,z
x,1/2-y,1/2-z
1/2-x,y,1/2-z
-x,-y,-z
1/2+x,1/2+y,-z
-x,1/2+y,1/2+z
1/2+x,-y,1/2+z
loop_
_atom_site_type_symbol
_atom_site_label
_atom_site_fract_x
_atom_site_fract_y
_atom_site_fract_z
Si Si1 0.250000 0.250000 0.750000
Si Si2 0.421465 0.862532 0.563545
Si Si3 0.174039 0.916700 0.124013
Si Si4 0.065139 0.147260 0.075395
Si Si5 0.858237 0.473169 0.970567
Si Si6 0.812011 0.372873 0.322811
Si Si7 0.750000 0.750000 0.530791
Si Si8 0.250000 0.750000 0.250000
O O1 0.209425 0.401290 0.701379
O O2 0.492062 0.845710 0.590796
O O3 0.400827 0.651730 0.524908
O O4 0.368244 0.892830 0.622220
O O5 0.423530 0.040017 0.502440
O O6 0.171735 0.700271 0.081095
O O7 0.206921 0.884647 0.198609
O O8 0.103881 0.002128 0.128456
O O9 0.211408 0.087712 0.078662
O O10 0.097603 0.369877 0.072196
O O11 0.802739 0.609081 0.006038
O O12 0.750000 0.250000 0.350812
O O13 0.829556 0.250000 0.250000
#
# Coordination Sequence:
#
# PCOD9389736 Si02
#       8
#     2   8   8   8   8   8   4   2
#     4   8  18  40  56  78 118 140 174 236 280 342
#     4  10  20  37  59  83 115 153 189 236 296 347
#     4  10  21  36  54  79 113 149 198 238 284 340
#     4   9  21  37  56  83 116 152 192 238 289 349
#     4  10  19  35  54  81 114 146 190 245 287 342
#     4   9  20  37  57  82 112 143 186 233 282 346
#     4  10  18  35  53  80 113 149 184 248 286 338
#     4  12  20  38  58  76 114 164 190 252 288 332
#
# _framework density 18.422858999999999
#
# number of rings (size 3 to 8) (size 9 to 14) (size 15 to 20)
#    0.000    2.500    1.667    0.500    0.000    7.000 
#    0.000    6.667    0.000    0.000    0.000    0.000 
#    0.000    0.000    0.000    0.000    0.000    0.000 
#
# Total GULP energy -267609.413323 kJ/mol
# GULP energy per Si atom -5575.196111 kJ/mol
# Density = 1.838093 g / cm^3
# Si number density = 18.422859 Si / 1000 Ang^3
#
#
#
# Elastic Constant Matrix: (Units=GPa)
#
#
# Indices 1 2 3 4 5 6 
#
# 1 166.9775 56.2343 54.4431 0.0000 0.0000 0.0000
# 2 56.2343 120.0726 24.7451 0.0000 0.0000 0.0000
# 3 54.4431 24.7451 51.2564 0.0000 0.0000 0.0000
# 4 0.0000 0.0000 0.0000 9.7842 0.0000 0.0000
# 5 0.0000 0.0000 0.0000 0.0000 49.4982 0.0000
# 6 0.0000 0.0000 0.0000 0.0000 0.0000 28.3150
#
#
#
# Elastic Compliance Matrix: (Units=1/GPa)
#
#
# Indices 1 2 3 4 5 6 
#
# 1 0.009915 -0.002747 -0.009206 0.000000 0.000000 0.000000
# 2 -0.002747 0.010009 -0.001915 0.000000 0.000000 0.000000
# 3 -0.009206 -0.001915 0.030212 0.000000 0.000000 0.000000
# 4 0.000000 0.000000 0.000000 0.102205 0.000000 0.000000
# 5 0.000000 0.000000 0.000000 0.000000 0.020203 0.000000
# 6 0.000000 0.000000 0.000000 0.000000 0.000000 0.035317
#
#
# Mechanical properties :
#
#
# Convention : Reuss Voigt Hill
#
# Bulk Modulus (GPa) = 44.63795 67.68351 56.16073
# Shear Modulus (GPa) = 20.57068 31.04507 25.80788
#
# Velocity S-wave (km/s) = 3.34516 4.10950 3.74687
# Velocity P-wave (km/s) = 6.26118 7.70298 7.01920
#
# Compressibility (1/GPa) = 0.02240246
#
# Stress axis : x y z
#
# Youngs Moduli (GPa) = 100.85331 99.90780 33.09891
#
# Poissons Ratio (x) = 0.27440 0.30471
# Poissons Ratio (y) = 0.27700 0.06338
# Poissons Ratio (z) = 0.92845 0.19131
#
# Static dielectric constant tensor:
#      x y z
#    x 1.662280 0.000000 0.000000 
#    y 0.000000 1.645370 0.000000 
#    z 0.000000 0.000000 1.631770 
# 
# From -- ./inp_files/32909.got.cif
#   From: 2010.05.17/outbox.cif.g08.bks.cpg/sg48_17_cif.got.tgz:32909.got - 2010.06.03 20:39:00.
