data_PCOD9389433
_publ_section_title
;
Structure prediction by ZEFSAII (Michael W. Deem and Ramdas Pophale) SiO2 
 PCOD9389433
Probable space group: P M M M
;
_chemical_formula_sum "Si O2"
_cell_formula_units_Z 36
_cell_length_a 15.000000
_cell_length_b 15.000000
_cell_length_c 9.000000
_cell_angle_alpha 90.000000
_cell_angle_beta 90.000000
_cell_angle_gamma 90.000000
_cell_volume 2025.000000
_symmetry_space_group_name_H-M "P M M M"
_symmetry_group_IT_number 47
_symmetry_cell_setting 'orthorhombic'
loop_
_space_group_symop_operation_xyz
x,y,z
-x,-y,z
x,-y,-z
-x,y,-z
-x,-y,-z
x,y,-z
-x,y,z
x,-y,z
loop_
_atom_site_type_symbol
_atom_site_label
_atom_site_fract_x
_atom_site_fract_y
_atom_site_fract_z
Si Si1 0.106033 0.000000 0.821500
Si Si2 0.604906 0.500000 0.319956
Si Si3 0.776336 0.844018 0.675707
Si Si4 0.895897 0.500000 0.821697
Si Si5 0.761410 0.364059 0.679398
Si Si6 0.400925 0.893152 0.831667
O O1 0.156389 0.087921 0.757922
O O2 0.000000 0.000000 0.785000
O O3 0.115087 0.000000 0.000000
O O4 0.500000 0.500000 0.268826
O O5 0.600536 0.500000 0.500000
O O6 0.667456 0.586126 0.277845
O O7 0.792553 0.851895 0.500000
O O8 0.776051 0.739481 0.717582
O O9 0.675946 0.871409 0.717430
O O10 0.841800 0.417220 0.754659
O O11 0.000000 0.500000 0.780142
O O12 0.889894 0.500000 0.000000
O O13 0.766429 0.372171 0.500000
O O14 0.500000 0.859701 0.792663
O O15 0.405508 0.000000 0.838756
O O16 0.378845 0.862055 0.000000
#
# Coordination Sequence:
#
# PCOD9389433 Si02
#       6
#     4   4   8   4   8   8
#     4  11  25  43  60  77 104 147 193 238 292 349
#     4   8  14  30  56  81 110 147 181 214 256 316
#     4  11  22  36  57  85 115 146 186 237 286 335
#     4  10  21  37  58  83 108 137 179 230 278 328
#     4   9  20  36  55  83 115 147 181 221 278 337
#     4   9  18  33  53  77 109 150 189 223 266 321
#
# _framework density 17.777778000000001
#
# number of rings (size 3 to 8) (size 9 to 14) (size 15 to 20)
#    0.000    2.333    1.111    2.667    0.000    5.778 
#    0.000    7.778    0.000    5.333    0.000    0.000 
#    0.000    0.000    0.000    0.000    0.000    0.000 
#
# Total GULP energy -200540.015404 kJ/mol
# GULP energy per Si atom -5570.555983 kJ/mol
# Density = 1.773731 g / cm^3
# Si number density = 17.777778 Si / 1000 Ang^3
#
#
#
# Elastic Constant Matrix: (Units=GPa)
#
#
# Indices 1 2 3 4 5 6 
#
# 1 156.1247 79.3229 39.5119 0.0000 0.0000 0.0000
# 2 79.3229 139.8312 45.3669 0.0000 0.0000 0.0000
# 3 39.5119 45.3669 28.7857 0.0000 0.0000 0.0000
# 4 0.0000 0.0000 0.0000 37.6261 0.0000 0.0000
# 5 0.0000 0.0000 0.0000 0.0000 19.9820 0.0000
# 6 0.0000 0.0000 0.0000 0.0000 0.0000 6.6547
#
#
#
# Elastic Compliance Matrix: (Units=1/GPa)
#
#
# Indices 1 2 3 4 5 6 
#
# 1 0.010242 -0.002556 -0.010031 0.000000 0.000000 0.000000
# 2 -0.002556 0.015272 -0.020561 0.000000 0.000000 0.000000
# 3 -0.010031 -0.020561 0.080913 0.000000 0.000000 0.000000
# 4 0.000000 0.000000 0.000000 0.026577 0.000000 0.000000
# 5 0.000000 0.000000 0.000000 0.000000 0.050045 0.000000
# 6 0.000000 0.000000 0.000000 0.000000 0.000000 0.150270
#
#
# Mechanical properties :
#
#
# Convention : Reuss Voigt Hill
#
# Bulk Modulus (GPa) = 24.91786 72.57166 48.74476
# Shear Modulus (GPa) = 12.10676 23.55522 17.83099
#
# Velocity S-wave (km/s) = 2.61244 3.64398 3.17044
# Velocity P-wave (km/s) = 4.81108 7.65604 6.39380
#
# Compressibility (1/GPa) = 0.04013186
#
# Stress axis : x y z
#
# Youngs Moduli (GPa) = 97.63479 65.47847 12.35897
#
# Poissons Ratio (x) = 0.16735 0.12397
# Poissons Ratio (y) = 0.24954 0.25411
# Poissons Ratio (z) = 0.97935 1.34631
#
# Static dielectric constant tensor:
#      x y z
#    x 1.606540 0.000000 0.000000 
#    y 0.000000 1.670450 0.000000 
#    z 0.000000 0.000000 1.602800 
# 
# From -- ./inp_files/5626.got.cif
#   From: 2010.05.17/outbox.ucp.g08.bks.cvg/sg47_3_cif.got.tgz:5626.got - 2010.06.11 16:36:43.
