data_PCOD9389056
_publ_section_title
;
Structure prediction by ZEFSAII (Michael W. Deem and Ramdas Pophale) SiO2 
 PCOD9389056
Probable space group: P M M M
;
_chemical_formula_sum "Si O2"
_cell_formula_units_Z 52
_cell_length_a 17.283147
_cell_length_b 19.276112
_cell_length_c 7.479631
_cell_angle_alpha 90.000000
_cell_angle_beta 90.000000
_cell_angle_gamma 90.000000
_cell_volume 2491.853109
_symmetry_space_group_name_H-M "P M M M"
_symmetry_group_IT_number 47
_symmetry_cell_setting 'orthorhombic'
loop_
_space_group_symop_operation_xyz
x,y,z
-x,-y,z
x,-y,-z
-x,y,-z
-x,-y,-z
x,y,-z
-x,y,z
x,-y,z
loop_
_atom_site_type_symbol
_atom_site_label
_atom_site_fract_x
_atom_site_fract_y
_atom_site_fract_z
Si Si1 0.796198 0.120133 0.216856
Si Si2 0.583936 0.224326 0.715851
Si Si3 0.623545 0.074522 0.290246
Si Si4 0.243852 0.727359 0.788218
Si Si5 0.583442 0.582658 0.702832
Si Si6 0.242789 0.421801 0.795900
Si Si7 0.088616 0.000000 0.781663
O O1 0.715830 0.085020 0.275152
O O2 0.793753 0.200510 0.279747
O O3 0.865188 0.069382 0.273984
O O4 0.795780 0.121939 0.000000
O O5 0.585098 0.222178 0.500000
O O6 0.500000 0.251792 0.770962
O O7 0.589786 0.145401 0.784735
O O8 0.663263 0.261935 0.767653
O O9 0.602840 0.073028 0.500000
O O10 0.601770 0.000000 0.212719
O O11 0.216750 0.652271 0.713909
O O12 0.228476 0.724510 0.000000
O O13 0.589735 0.611864 0.500000
O O14 0.500000 0.603469 0.779251
O O15 0.578587 0.500000 0.685119
O O16 0.664403 0.590405 0.800206
O O17 0.230034 0.500000 0.717777
O O18 0.214497 0.425146 0.000000
O O19 0.000000 0.000000 0.723153
O O20 0.089267 0.000000 0.000000
#
# Coordination Sequence:
#
# PCOD9389056 Si02
#       7
#     8   8   8   8   8   8   4
#     4   9  16  28  45  63  85 111 136 160 190 234
#     4   9  18  30  41  55  76 103 137 176 215 250
#     4   9  16  26  42  61  80 105 137 171 204 239
#     4   9  18  30  43  58  77 105 137 168 206 247
#     4   8  14  24  36  50  69  93 122 159 205 253
#     4   9  17  28  40  54  72  94 125 166 205 240
#     4   9  16  26  45  73  96 111 130 158 189 223
#
# _framework density 20.868005
#
# number of rings (size 3 to 8) (size 9 to 14) (size 15 to 20)
#    0.000    3.154    0.769    0.462    0.000    2.154 
#    0.000    6.154    0.000    0.923    0.000    4.308 
#    0.000    0.615    0.000    8.615    0.000    0.000 
#
# Total GULP energy -289537.486218 kJ/mol
# GULP energy per Si atom -5568.028581 kJ/mol
# Density = 2.082051 g / cm^3
# Si number density = 20.868005 Si / 1000 Ang^3
#
#
#
# Elastic Constant Matrix: (Units=GPa)
#
#
# Indices 1 2 3 4 5 6 
#
# 1 70.0236 37.3227 -4.8060 0.0000 0.0000 0.0000
# 2 37.3227 242.8212 5.3752 0.0000 0.0000 0.0000
# 3 -4.8060 5.3752 60.8261 0.0000 0.0000 0.0000
# 4 0.0000 0.0000 0.0000 12.8554 0.0000 0.0000
# 5 0.0000 0.0000 0.0000 0.0000 7.5640 0.0000
# 6 0.0000 0.0000 0.0000 0.0000 0.0000 -4.9847
#
#
#
# Elastic Compliance Matrix: (Units=1/GPa)
#
#
# Indices 1 2 3 4 5 6 
#
# 1 0.015683 -0.002443 0.001455 0.000000 0.000000 0.000000
# 2 -0.002443 0.004507 -0.000591 0.000000 0.000000 0.000000
# 3 0.001455 -0.000591 0.016608 0.000000 0.000000 0.000000
# 4 0.000000 0.000000 0.000000 0.077789 0.000000 0.000000
# 5 0.000000 0.000000 0.000000 0.000000 0.132204 0.000000
# 6 0.000000 0.000000 0.000000 0.000000 0.000000 -0.200615
#
#
# Mechanical properties :
#
#
# Convention : Reuss Voigt Hill
#
# Bulk Modulus (GPa) = 29.72737 49.93943 39.83340
# Shear Modulus (GPa) = 82.58147 25.47220 54.02684
#
# Velocity S-wave (km/s) = 6.29755 3.49755 5.09372
# Velocity P-wave (km/s) = 8.19483 6.34772 7.32969
#
# Compressibility (1/GPa) = 0.03363904
#
# Stress axis : x y z
#
# Youngs Moduli (GPa) = 63.76445 221.88682 60.21365
#
# Poissons Ratio (x) = 0.54201 -0.08761
# Poissons Ratio (y) = 0.15576 0.03560
# Poissons Ratio (z) = -0.09278 0.13120
#
# Static dielectric constant tensor:
#      x y z
#    x 1.692200 0.000000 0.000000 
#    y 0.000000 1.859580 0.000000 
#    z 0.000000 0.000000 2.626560 
# 
# From -- ./inp_files/7025.got.cif
#   From: 2010.05.17/outbox.cif.g08.bks.cpg/sg47_4_cif.got.tgz:7025.got - 2010.06.03 20:15:42.
