data_PCOD9389952
_publ_section_title
;
Structure prediction by ZEFSAII (Michael W. Deem and Ramdas Pophale) SiO2 
 PCOD9389952
Probable space group: P N N N
;
_chemical_formula_sum "Si O2"
_cell_formula_units_Z 60
_cell_length_a 11.478562
_cell_length_b 25.189038
_cell_length_c 10.033936
_cell_angle_alpha 90.000000
_cell_angle_beta 90.000000
_cell_angle_gamma 90.000000
_cell_volume 2901.151393
_symmetry_space_group_name_H-M "P N N N"
_symmetry_group_IT_number 48
_space_group.IT_coordinate_system_code '2'
_symmetry_cell_setting 'orthorhombic'
loop_
_space_group_symop_operation_xyz
x,y,z
1/2-x,1/2-y,z
x,1/2-y,1/2-z
1/2-x,y,1/2-z
-x,-y,-z
1/2+x,1/2+y,-z
-x,1/2+y,1/2+z
1/2+x,-y,1/2+z
loop_
_atom_site_type_symbol
_atom_site_label
_atom_site_fract_x
_atom_site_fract_y
_atom_site_fract_z
Si Si1 0.344484 0.107791 0.998620
Si Si2 0.872137 0.723975 0.062984
Si Si3 0.931422 0.596366 0.539313
Si Si4 0.250000 0.750000 0.943894
Si Si5 0.011976 0.792085 0.863098
Si Si6 0.101256 0.801627 0.332446
Si Si7 0.020328 0.590085 0.238789
Si Si8 0.111675 0.026273 0.274209
O O1 0.357379 0.171064 0.026795
O O2 0.406147 0.096808 0.856555
O O3 0.206125 0.099167 0.004661
O O4 0.403793 0.069332 0.107470
O O5 0.750000 0.750000 0.098201
O O6 0.960150 0.702730 0.173149
O O7 0.949977 0.768219 0.993042
O O8 0.993666 0.593253 0.396523
O O9 0.947942 0.547121 0.638655
O O10 0.971822 0.647294 0.627831
O O11 0.151670 0.784970 0.870990
O O12 0.169958 0.709355 0.030461
O O13 0.973318 0.750000 0.750000
O O14 0.136669 0.750000 0.250000
O O15 0.112553 0.862321 0.289733
O O16 0.069725 0.532840 0.198833
O O17 0.250000 0.025234 0.250000
#
# Coordination Sequence:
#
# PCOD9389952 Si02
#       8
#     8   8   8   4   8   8   8   8
#     4  10  21  39  61  91 127 164 209 270 332 404
#     4  10  19  34  56  90 124 156 199 251 328 393
#     4  11  22  39  61  93 124 164 214 274 328 391
#     4  10  22  40  56  84 124 162 214 254 310 388
#     4  11  22  37  61  88 125 169 208 258 321 387
#     4  10  22  36  57  87 119 161 204 262 325 389
#     4  11  22  39  64  89 124 167 216 275 334 386
#     4  10  23  40  60  87 125 170 224 270 329 395
#
# _framework density 20.681443000000002
#
# number of rings (size 3 to 8) (size 9 to 14) (size 15 to 20)
#    0.000    1.600    1.333    4.000    0.000    2.667 
#    0.000    0.000    0.000    8.000    0.000    0.000 
#    0.000    0.000    0.000    0.000    0.000    0.000 
#
# Total GULP energy -334084.382658 kJ/mol
# GULP energy per Si atom -5568.073044 kJ/mol
# Density = 2.063437 g / cm^3
# Si number density = 20.681443 Si / 1000 Ang^3
#
#
#
# Elastic Constant Matrix: (Units=GPa)
#
#
# Indices 1 2 3 4 5 6 
#
# 1 77.3258 28.3458 26.5000 0.0000 0.0000 0.0000
# 2 28.3458 153.4107 29.8629 0.0000 0.0000 0.0000
# 3 26.5000 29.8629 71.1378 0.0000 0.0000 0.0000
# 4 0.0000 0.0000 0.0000 27.9372 0.0000 0.0000
# 5 0.0000 0.0000 0.0000 0.0000 13.2567 0.0000
# 6 0.0000 0.0000 0.0000 0.0000 0.0000 92.9833
#
#
#
# Elastic Compliance Matrix: (Units=1/GPa)
#
#
# Indices 1 2 3 4 5 6 
#
# 1 0.015303 -0.001871 -0.004915 0.000000 0.000000 0.000000
# 2 -0.001871 0.007327 -0.002379 0.000000 0.000000 0.000000
# 3 -0.004915 -0.002379 0.016887 0.000000 0.000000 0.000000
# 4 0.000000 0.000000 0.000000 0.035795 0.000000 0.000000
# 5 0.000000 0.000000 0.000000 0.000000 0.075434 0.000000
# 6 0.000000 0.000000 0.000000 0.000000 0.000000 0.010755
#
#
# Mechanical properties :
#
#
# Convention : Reuss Voigt Hill
#
# Bulk Modulus (GPa) = 47.19900 52.36576 49.78238
# Shear Modulus (GPa) = 26.75347 41.31311 34.03329
#
# Velocity S-wave (km/s) = 3.60056 4.47429 4.06099
# Velocity P-wave (km/s) = 6.33694 7.21578 6.79060
#
# Compressibility (1/GPa) = 0.02118689
#
# Stress axis : x y z
#
# Youngs Moduli (GPa) = 65.34879 136.47782 59.21754
#
# Poissons Ratio (x) = 0.25531 0.29106
# Poissons Ratio (y) = 0.12225 0.14088
# Poissons Ratio (z) = 0.32120 0.32468
#
# Static dielectric constant tensor:
#      x y z
#    x 1.775750 0.000000 0.000000 
#    y 0.000000 1.804440 0.000000 
#    z 0.000000 0.000000 1.828970 
# 
# From -- ./inp_files/20314.got.cif
#   From: 2010.05.17/outbox.cif.g08.bks.cpg/sg48_11_cif.got.tgz:20314.got - 2010.06.03 20:39:00.
