data_PCOD9389894
_publ_section_title
;
Structure prediction by ZEFSAII (Michael W. Deem and Ramdas Pophale) SiO2 
 PCOD9389894
Probable space group: P N N N
;
_chemical_formula_sum "Si O2"
_cell_formula_units_Z 56
_cell_length_a 20.434047
_cell_length_b 11.534912
_cell_length_c 11.012209
_cell_angle_alpha 90.000000
_cell_angle_beta 90.000000
_cell_angle_gamma 90.000000
_cell_volume 2595.631995
_symmetry_space_group_name_H-M "P N N N"
_symmetry_group_IT_number 48
_space_group.IT_coordinate_system_code '2'
_symmetry_cell_setting 'orthorhombic'
loop_
_space_group_symop_operation_xyz
x,y,z
1/2-x,1/2-y,z
x,1/2-y,1/2-z
1/2-x,y,1/2-z
-x,-y,-z
1/2+x,1/2+y,-z
-x,1/2+y,1/2+z
1/2+x,-y,1/2+z
loop_
_atom_site_type_symbol
_atom_site_label
_atom_site_fract_x
_atom_site_fract_y
_atom_site_fract_z
Si Si1 0.909675 0.543702 0.399032
Si Si2 0.560955 0.009635 0.650407
Si Si3 0.750000 0.515954 0.750000
Si Si4 0.062060 0.250000 0.750000
Si Si5 0.668598 0.320278 0.872207
Si Si6 0.115945 0.724109 0.608038
Si Si7 0.489813 0.360130 0.509832
Si Si8 0.875035 0.858920 0.661677
O O1 0.910094 0.569880 0.542233
O O2 0.893753 0.650996 0.313992
O O3 0.879313 0.416863 0.388578
O O4 0.984942 0.517891 0.366240
O O5 0.582023 0.959871 0.776758
O O6 0.594798 0.132290 0.632371
O O7 0.713180 0.433535 0.848208
O O8 0.698411 0.592642 0.673863
O O9 0.017325 0.188087 0.646989
O O10 0.679548 0.250000 0.750000
O O11 0.668156 0.249450 0.998587
O O12 0.127249 0.750000 0.750000
O O13 0.047200 0.789154 0.565461
O O14 0.500000 0.500000 0.500000
O O15 0.416436 0.336485 0.458323
O O16 0.879153 0.750000 0.750000
#
# Coordination Sequence:
#
# PCOD9389894 Si02
#       8
#     8   8   4   4   8   8   8   8
#     4  10  19  33  52  86 130 177 215 260 345 424
#     4   9  18  32  54  82 123 164 208 268 338 404
#     4  10  24  42  66  98 124 174 244 306 342 418
#     4  12  22  34  56  90 133 187 230 276 336 430
#     4  10  22  38  65  94 124 173 233 289 349 413
#     4  11  23  39  61  97 144 183 221 286 369 443
#     4  12  26  37  63 102 146 185 232 285 360 448
#     4  11  21  39  62  92 129 172 226 292 348 410
#
# _framework density 21.574707
#
# number of rings (size 3 to 8) (size 9 to 14) (size 15 to 20)
#    0.000    1.429    0.000    7.714    8.000    0.000 
#    0.000    0.000    0.000    1.714    7.429    9.000 
#    0.000    0.000    0.000    0.000    0.000    0.000 
#
# Total GULP energy -311840.504107 kJ/mol
# GULP energy per Si atom -5568.580430 kJ/mol
# Density = 2.152560 g / cm^3
# Si number density = 21.574707 Si / 1000 Ang^3
#
#
#
# Elastic Constant Matrix: (Units=GPa)
#
#
# Indices 1 2 3 4 5 6 
#
# 1 62.4945 7.8160 29.5211 0.0000 0.0000 0.0000
# 2 7.8160 107.1807 40.5690 0.0000 0.0000 0.0000
# 3 29.5211 40.5690 153.2106 0.0000 0.0000 0.0000
# 4 0.0000 0.0000 0.0000 28.6088 0.0000 0.0000
# 5 0.0000 0.0000 0.0000 0.0000 -5.7563 0.0000
# 6 0.0000 0.0000 0.0000 0.0000 0.0000 18.0655
#
#
#
# Elastic Compliance Matrix: (Units=1/GPa)
#
#
# Indices 1 2 3 4 5 6 
#
# 1 0.017604 0.000000 -0.003392 0.000000 0.000000 0.000000
# 2 0.000000 0.010369 -0.002746 0.000000 0.000000 0.000000
# 3 -0.003392 -0.002746 0.007908 0.000000 0.000000 0.000000
# 4 0.000000 0.000000 0.000000 0.034954 0.000000 0.000000
# 5 0.000000 0.000000 0.000000 0.000000 -0.173722 0.000000
# 6 0.000000 0.000000 0.000000 0.000000 0.000000 0.055354
#
#
# Mechanical properties :
#
#
# Convention : Reuss Voigt Hill
#
# Bulk Modulus (GPa) = 42.36300 53.18865 47.77582
# Shear Modulus (GPa) = -182.55103 24.51559 -79.01772
#
# Velocity S-wave (km/s) = -9.20854 3.37458 -6.05844
# Velocity P-wave (km/s) = 9.66358 6.31589 5.17176
#
# Compressibility (1/GPa) = 0.02360550
#
# Stress axis : x y z
#
# Youngs Moduli (GPa) = 56.80623 96.43833 126.46067
#
# Poissons Ratio (x) = -0.00002 0.42895
# Poissons Ratio (y) = -0.00001 0.34723
# Poissons Ratio (z) = 0.19269 0.26480
#
# Static dielectric constant tensor:
#      x y z
#    x 1.790690 0.000000 0.000000 
#    y 0.000000 2.223270 0.000000 
#    z 0.000000 0.000000 2.037040 
# 
# From -- ./inp_files/23416.got.cif
#   From: 2010.05.17/outbox.cif.g08.bks.cpg/sg48_12_cif.got.tgz:23416.got - 2010.06.03 20:39:00.
