data_PCOD9389128
_publ_section_title
;
Structure prediction by ZEFSAII (Michael W. Deem and Ramdas Pophale) SiO2 
 PCOD9389128
Probable space group: P M M M
;
_chemical_formula_sum "Si O2"
_cell_formula_units_Z 44
_cell_length_a 15.813138
_cell_length_b 7.450481
_cell_length_c 18.401214
_cell_angle_alpha 90.000000
_cell_angle_beta 90.000000
_cell_angle_gamma 90.000000
_cell_volume 2167.947938
_symmetry_space_group_name_H-M "P M M M"
_symmetry_group_IT_number 47
_symmetry_cell_setting 'orthorhombic'
loop_
_space_group_symop_operation_xyz
x,y,z
-x,-y,z
x,-y,-z
-x,y,-z
-x,-y,-z
x,y,-z
-x,y,z
x,-y,z
loop_
_atom_site_type_symbol
_atom_site_label
_atom_site_fract_x
_atom_site_fract_y
_atom_site_fract_z
Si Si1 0.680000 0.781807 0.139940
Si Si2 0.595550 0.219046 0.583757
Si Si3 0.730355 0.787126 0.700699
Si Si4 0.856852 0.291133 0.079294
Si Si5 0.500000 0.218769 0.083260
Si Si6 0.906694 0.715936 0.239873
O O1 0.700244 0.717609 0.221061
O O2 0.755343 0.719858 0.087813
O O3 0.587057 0.721789 0.118634
O O4 0.682236 0.000000 0.138486
O O5 0.607029 0.274956 0.500000
O O6 0.500000 0.271421 0.607312
O O7 0.671230 0.282325 0.635915
O O8 0.596321 0.000000 0.583730
O O9 0.831304 0.762133 0.704886
O O10 0.715996 0.000000 0.701306
O O11 0.882542 0.500000 0.078243
O O12 0.889124 0.216127 0.156951
O O13 0.881386 0.214879 0.000000
O O14 0.500000 0.000000 0.086444
O O15 0.500000 0.271950 0.000000
O O16 0.906260 0.500000 0.235124
O O17 0.000000 0.775388 0.262407
#
# Coordination Sequence:
#
# PCOD9389128 Si02
#       6
#     8   8   8   8   4   8
#     4   9  17  27  40  59  83 113 147 182 218 258
#     4   8  14  25  44  72 102 126 147 176 217 264
#     4   9  17  28  46  70  92 116 147 185 223 260
#     4   9  17  29  44  61  82 108 142 186 230 269
#     4   9  16  24  35  53  78 110 146 179 209 247
#     4   9  18  32  48  65  87 117 151 186 228 275
#
# _framework density 20.29569
#
# number of rings (size 3 to 8) (size 9 to 14) (size 15 to 20)
#    0.000    3.182    0.000    1.091    1.273    1.818 
#    0.000    2.273    0.000    3.273    0.000   10.182 
#    0.000    0.000    0.000    0.000    0.000    0.000 
#
# Total GULP energy -245241.826732 kJ/mol
# GULP energy per Si atom -5573.677880 kJ/mol
# Density = 2.024950 g / cm^3
# Si number density = 20.295690 Si / 1000 Ang^3
#
#
#
# Elastic Constant Matrix: (Units=GPa)
#
#
# Indices 1 2 3 4 5 6 
#
# 1 156.0803 -7.8937 71.8119 0.0000 0.0000 0.0000
# 2 -7.8937 60.7171 3.1269 0.0000 0.0000 0.0000
# 3 71.8119 3.1269 99.6692 0.0000 0.0000 0.0000
# 4 0.0000 0.0000 0.0000 -68.1729 0.0000 0.0000
# 5 0.0000 0.0000 0.0000 0.0000 8.6779 0.0000
# 6 0.0000 0.0000 0.0000 0.0000 0.0000 11.4889
#
#
#
# Elastic Compliance Matrix: (Units=1/GPa)
#
#
# Indices 1 2 3 4 5 6 
#
# 1 0.009743 0.001631 -0.007071 0.000000 0.000000 0.000000
# 2 0.001631 0.016769 -0.001701 0.000000 0.000000 0.000000
# 3 -0.007071 -0.001701 0.015181 0.000000 0.000000 0.000000
# 4 0.000000 0.000000 0.000000 -0.014669 0.000000 0.000000
# 5 0.000000 0.000000 0.000000 0.000000 0.115236 0.000000
# 6 0.000000 0.000000 0.000000 0.000000 0.000000 0.087040
#
#
# Mechanical properties :
#
#
# Convention : Reuss Voigt Hill
#
# Bulk Modulus (GPa) = 36.48169 50.06188 43.27179
# Shear Modulus (GPa) = 19.78478 7.02688 13.40583
#
# Velocity S-wave (km/s) = 3.12561 1.86273 2.57286
# Velocity P-wave (km/s) = 5.57136 5.41721 5.49482
#
# Compressibility (1/GPa) = 0.02741101
#
# Stress axis : x y z
#
# Youngs Moduli (GPa) = 102.64128 59.63224 65.87153
#
# Poissons Ratio (x) = -0.09725 0.46576
# Poissons Ratio (y) = -0.16738 0.11205
# Poissons Ratio (z) = 0.72575 0.10144
#
# Static dielectric constant tensor:
#      x y z
#    x 1.748580 0.000000 0.000000 
#    y 0.000000 1.791080 0.000000 
#    z 0.000000 0.000000 1.701530 
# 
# From -- ./inp_files/8956.got.cif
#   From: 2010.05.17/outbox.cif.g08.bks.cpg/sg47_5_cif.got.tgz:8956.got - 2010.06.03 20:15:42.
