data_PCOD9389657
_publ_section_title
;
Structure prediction by ZEFSAII (Michael W. Deem and Ramdas Pophale) SiO2 
 PCOD9389657
Probable space group: P N N N
;
_chemical_formula_sum "Si O2"
_cell_formula_units_Z 32
_cell_length_a 8.389377
_cell_length_b 13.590664
_cell_length_c 11.060626
_cell_angle_alpha 90.000000
_cell_angle_beta 90.000000
_cell_angle_gamma 90.000000
_cell_volume 1261.101651
_symmetry_space_group_name_H-M "P N N N"
_symmetry_group_IT_number 48
_space_group.IT_coordinate_system_code '2'
_symmetry_cell_setting 'orthorhombic'
loop_
_space_group_symop_operation_xyz
x,y,z
1/2-x,1/2-y,z
x,1/2-y,1/2-z
1/2-x,y,1/2-z
-x,-y,-z
1/2+x,1/2+y,-z
-x,1/2+y,1/2+z
1/2+x,-y,1/2+z
loop_
_atom_site_type_symbol
_atom_site_label
_atom_site_fract_x
_atom_site_fract_y
_atom_site_fract_z
Si Si1 0.567460 0.771127 0.080116
Si Si2 0.367869 0.917105 0.473621
Si Si3 0.442726 0.527798 0.362360
Si Si4 0.911387 0.160126 0.343222
O O1 0.750000 0.750000 0.104222
O O2 0.510374 0.863583 0.158994
O O3 0.455110 0.676629 0.083071
O O4 0.541178 0.805565 0.941554
O O5 0.245038 0.964494 0.378990
O O6 0.249440 0.872498 0.580624
O O7 0.500000 0.000000 0.500000
O O8 0.500000 0.500000 0.500000
O O9 0.520925 0.440737 0.285926
O O10 0.902351 0.250000 0.250000
#
# Coordination Sequence:
#
# PCOD9389657 Si02
#       4
#     8   8   8   8
#     4  10  18  31  53  79 111 154 206 256 303 370
#     4  10  18  32  53  78 112 155 211 265 312 373
#     4   8  16  31  49  73 108 150 197 252 309 372
#     4  10  20  33  50  78 119 159 196 258 335 389
#
# _framework density 25.374638999999998
#
# number of rings (size 3 to 8) (size 9 to 14) (size 15 to 20)
#    0.000    3.000    0.000    7.500    0.000    2.500 
#    0.000    3.750    0.000    0.000    0.000    1.750 
#    0.000   50.000    0.000    7.500    0.000    0.000 
#
# Total GULP energy -178777.322308 kJ/mol
# GULP energy per Si atom -5586.791322 kJ/mol
# Density = 2.531689 g / cm^3
# Si number density = 25.374639 Si / 1000 Ang^3
#
#
#
# Elastic Constant Matrix: (Units=GPa)
#
#
# Indices 1 2 3 4 5 6 
#
# 1 230.0910 121.4624 48.2740 0.0000 0.0000 0.0000
# 2 121.4624 260.8478 71.1598 0.0000 0.0000 0.0000
# 3 48.2740 71.1598 97.2451 0.0000 0.0000 0.0000
# 4 0.0000 0.0000 0.0000 39.4499 0.0000 0.0000
# 5 0.0000 0.0000 0.0000 0.0000 14.1673 0.0000
# 6 0.0000 0.0000 0.0000 0.0000 0.0000 69.3714
#
#
#
# Elastic Compliance Matrix: (Units=1/GPa)
#
#
# Indices 1 2 3 4 5 6 
#
# 1 0.005862 -0.002419 -0.001140 0.000000 0.000000 0.000000
# 2 -0.002419 0.005788 -0.003035 0.000000 0.000000 0.000000
# 3 -0.001140 -0.003035 0.013070 0.000000 0.000000 0.000000
# 4 0.000000 0.000000 0.000000 0.025349 0.000000 0.000000
# 5 0.000000 0.000000 0.000000 0.000000 0.070585 0.000000
# 6 0.000000 0.000000 0.000000 0.000000 0.000000 0.014415
#
#
# Mechanical properties :
#
#
# Convention : Reuss Voigt Hill
#
# Bulk Modulus (GPa) = 86.70826 118.88626 102.79726
# Shear Modulus (GPa) = 32.87325 47.75024 40.31174
#
# Velocity S-wave (km/s) = 3.60323 4.34269 3.99013
# Velocity P-wave (km/s) = 7.18028 8.49113 7.86307
#
# Compressibility (1/GPa) = 0.01153293
#
# Stress axis : x y z
#
# Youngs Moduli (GPa) = 170.58808 172.78049 76.51186
#
# Poissons Ratio (x) = 0.41789 0.08724
# Poissons Ratio (y) = 0.41258 0.23218
# Poissons Ratio (z) = 0.19451 0.52431
#
# Static dielectric constant tensor:
#      x y z
#    x 2.017040 0.000000 0.000000 
#    y 0.000000 2.071740 0.000000 
#    z 0.000000 0.000000 2.185370 
# 
# From -- ./inp_files/18192.got.cif
#   From: 2010.05.17/outbox.cif.g08.bks.cpg/sg48_10_cif.got.tgz:18192.got - 2010.06.03 20:39:00.
