data_PCOD9389770
_publ_section_title
;
Structure prediction by ZEFSAII (Michael W. Deem and Ramdas Pophale) SiO2 
 PCOD9389770
Probable space group: P N N N
;
_chemical_formula_sum "Si O2"
_cell_formula_units_Z 36
_cell_length_a 9.029798
_cell_length_b 14.774633
_cell_length_c 12.608523
_cell_angle_alpha 90.000000
_cell_angle_beta 90.000000
_cell_angle_gamma 90.000000
_cell_volume 1682.127659
_symmetry_space_group_name_H-M "P N N N"
_symmetry_group_IT_number 48
_space_group.IT_coordinate_system_code '2'
_symmetry_cell_setting 'orthorhombic'
loop_
_space_group_symop_operation_xyz
x,y,z
1/2-x,1/2-y,z
x,1/2-y,1/2-z
1/2-x,y,1/2-z
-x,-y,-z
1/2+x,1/2+y,-z
-x,1/2+y,1/2+z
1/2+x,-y,1/2+z
loop_
_atom_site_type_symbol
_atom_site_label
_atom_site_fract_x
_atom_site_fract_y
_atom_site_fract_z
Si Si1 0.680296 0.489440 0.403480
Si Si2 0.070831 0.145921 0.448841
Si Si3 0.524757 0.517239 0.181993
Si Si4 0.750000 0.898179 0.750000
Si Si5 0.576140 0.779326 0.364738
O O1 0.584968 0.402727 0.430825
O O2 0.665008 0.568844 0.488833
O O3 0.597452 0.529200 0.299138
O O4 0.848225 0.463355 0.380363
O O5 0.158955 0.157663 0.338759
O O6 0.039304 0.229099 0.526014
O O7 0.372113 0.464450 0.195270
O O8 0.531350 0.615920 0.129754
O O9 0.750000 0.750000 0.357101
O O10 0.510670 0.750000 0.250000
#
# Coordination Sequence:
#
# PCOD9389770 Si02
#       5
#     8   8   8   4   8
#     4   9  17  33  61  84 117 169 214 258 307 389
#     4  10  19  34  57  89 124 162 218 265 317 387
#     4  10  18  36  60  89 119 162 215 262 321 379
#     4  10  24  36  56  94 130 160 208 274 324 391
#     4  11  18  33  61  91 116 160 211 272 322 385
#
# _framework density 21.401467
#
# number of rings (size 3 to 8) (size 9 to 14) (size 15 to 20)
#    0.000    2.000    4.444    1.333    0.000    0.889 
#    0.000    1.111    0.000    8.000    0.000    0.000 
#    0.000    0.000    0.000    0.000    0.000    0.000 
#
# Total GULP energy -200707.699364 kJ/mol
# GULP energy per Si atom -5575.213871 kJ/mol
# Density = 2.135276 g / cm^3
# Si number density = 21.401467 Si / 1000 Ang^3
#
#
#
# Elastic Constant Matrix: (Units=GPa)
#
#
# Indices 1 2 3 4 5 6 
#
# 1 91.5353 31.4611 24.1907 0.0000 0.0000 0.0000
# 2 31.4611 92.6634 59.1400 0.0000 0.0000 0.0000
# 3 24.1907 59.1400 110.3305 0.0000 0.0000 0.0000
# 4 0.0000 0.0000 0.0000 48.0996 0.0000 0.0000
# 5 0.0000 0.0000 0.0000 0.0000 26.1350 0.0000
# 6 0.0000 0.0000 0.0000 0.0000 0.0000 8.0163
#
#
#
# Elastic Compliance Matrix: (Units=1/GPa)
#
#
# Indices 1 2 3 4 5 6 
#
# 1 0.012404 -0.003763 -0.000703 0.000000 0.000000 0.000000
# 2 -0.003763 0.017545 -0.008580 0.000000 0.000000 0.000000
# 3 -0.000703 -0.008580 0.013817 0.000000 0.000000 0.000000
# 4 0.000000 0.000000 0.000000 0.020790 0.000000 0.000000
# 5 0.000000 0.000000 0.000000 0.000000 0.038263 0.000000
# 6 0.000000 0.000000 0.000000 0.000000 0.000000 0.124746
#
#
# Mechanical properties :
#
#
# Convention : Reuss Voigt Hill
#
# Bulk Modulus (GPa) = 56.57623 58.23474 57.40548
# Shear Modulus (GPa) = 19.26441 28.43267 23.84854
#
# Velocity S-wave (km/s) = 3.00350 3.64887 3.34180
# Velocity P-wave (km/s) = 6.20653 6.70984 6.46309
#
# Compressibility (1/GPa) = 0.01767527
#
# Stress axis : x y z
#
# Youngs Moduli (GPa) = 80.62071 56.99628 72.37687
#
# Poissons Ratio (x) = 0.21447 0.05085
# Poissons Ratio (y) = 0.30337 0.62096
# Poissons Ratio (z) = 0.05664 0.48900
#
# Static dielectric constant tensor:
#      x y z
#    x 1.794510 0.000000 0.000000 
#    y 0.000000 1.807790 0.000000 
#    z 0.000000 0.000000 1.891380 
# 
# From -- ./inp_files/25018.got.cif
#   From: 2010.05.17/outbox.cif.g08.bks.cpg/sg48_13_cif.got.tgz:25018.got - 2010.06.03 20:39:00.
