data_PCOD9389859
_publ_section_title
;
Structure prediction by ZEFSAII (Michael W. Deem and Ramdas Pophale) SiO2 
 PCOD9389859
Probable space group: P N N N
;
_chemical_formula_sum "Si O2"
_cell_formula_units_Z 64
_cell_length_a 7.347336
_cell_length_b 22.699353
_cell_length_c 17.346080
_cell_angle_alpha 90.000000
_cell_angle_beta 90.000000
_cell_angle_gamma 90.000000
_cell_volume 2892.975293
_symmetry_space_group_name_H-M "P N N N"
_symmetry_group_IT_number 48
_space_group.IT_coordinate_system_code '2'
_symmetry_cell_setting 'orthorhombic'
loop_
_space_group_symop_operation_xyz
x,y,z
1/2-x,1/2-y,z
x,1/2-y,1/2-z
1/2-x,y,1/2-z
-x,-y,-z
1/2+x,1/2+y,-z
-x,1/2+y,1/2+z
1/2+x,-y,1/2+z
loop_
_atom_site_type_symbol
_atom_site_label
_atom_site_fract_x
_atom_site_fract_y
_atom_site_fract_z
Si Si1 0.962592 0.385808 0.901156
Si Si2 0.472832 0.631750 0.573657
Si Si3 0.030431 0.513791 0.838617
Si Si4 0.962592 0.114192 0.901156
Si Si5 0.469569 0.513791 0.838617
Si Si6 0.472585 0.818343 0.250000
Si Si7 0.471913 0.750000 0.838797
Si Si8 0.527168 0.131750 0.426343
O O1 0.750000 0.369851 0.904471
O O2 0.037466 0.351380 0.827048
O O3 0.976512 0.455169 0.884080
O O4 0.036630 0.370673 0.985313
O O5 0.530478 0.573260 0.619375
O O6 0.528950 0.690986 0.617118
O O7 0.250000 0.630966 0.573258
O O8 0.250000 0.514924 0.836931
O O9 0.967146 0.510476 0.750000
O O10 0.037467 0.148620 0.827048
O O11 0.036630 0.129327 0.985313
O O12 0.976513 0.044831 0.884080
O O13 0.530478 0.573260 0.880625
O O14 0.522708 0.750000 0.250000
O O15 0.250000 0.821497 0.250000
O O16 0.250000 0.750000 0.838534
O O17 0.530199 0.750000 0.750000
O O18 0.528950 0.690986 0.882882
#
# Coordination Sequence:
#
# PCOD9389859 Si02
#       8
#     8   8   8   8   8   8   8   8
#     4  10  19  32  50  73  98 125 163 201 237 284
#     4   9  18  29  46  71  97 127 161 200 242 284
#     4  10  19  32  49  70  99 130 159 195 243 289
#     4  10  19  32  50  73  98 125 163 201 237 284
#     4  10  19  32  49  70  99 130 159 195 243 289
#     4   9  18  30  47  71  99 126 153 196 244 279
#     4   9  16  28  46  71 102 129 158 197 243 291
#     4   9  18  29  46  71  97 127 161 200 242 284
#
# _framework density 22.122551999999999
#
# number of rings (size 3 to 8) (size 9 to 14) (size 15 to 20)
#    0.000    2.500    1.250    1.500    1.750    3.000 
#    0.000    0.000    0.000    1.500    0.000    2.625 
#    0.000    6.000    0.000    0.000    0.000    0.000 
#
# Total GULP energy -357787.192242 kJ/mol
# GULP energy per Si atom -5590.424879 kJ/mol
# Density = 2.207220 g / cm^3
# Si number density = 22.122552 Si / 1000 Ang^3
#
#
#
# Elastic Constant Matrix: (Units=GPa)
#
#
# Indices 1 2 3 4 5 6 
#
# 1 81.2646 -14.2058 3.2384 0.0000 0.0000 0.0000
# 2 -14.2058 194.6643 127.8168 0.0000 0.0000 0.0000
# 3 3.2384 127.8168 245.0197 0.0000 0.0000 0.0000
# 4 0.0000 0.0000 0.0000 21.4103 0.0000 0.0000
# 5 0.0000 0.0000 0.0000 0.0000 -9.4589 0.0000
# 6 0.0000 0.0000 0.0000 0.0000 0.0000 17.5515
#
#
#
# Elastic Compliance Matrix: (Units=1/GPa)
#
#
# Indices 1 2 3 4 5 6 
#
# 1 0.012619 0.001567 -0.000984 0.000000 0.000000 0.000000
# 2 0.001567 0.008008 -0.004198 0.000000 0.000000 0.000000
# 3 -0.000984 -0.004198 0.006284 0.000000 0.000000 0.000000
# 4 0.000000 0.000000 0.000000 0.046706 0.000000 0.000000
# 5 0.000000 0.000000 0.000000 0.000000 -0.105721 0.000000
# 6 0.000000 0.000000 0.000000 0.000000 0.000000 0.056975
#
#
# Mechanical properties :
#
#
# Convention : Reuss Voigt Hill
#
# Bulk Modulus (GPa) = 50.81216 83.84972 67.33094
# Shear Modulus (GPa) = 129.32355 32.84052 81.08204
#
# Velocity S-wave (km/s) = 7.65406 3.85708 6.06060
# Velocity P-wave (km/s) = 10.05641 7.60399 8.91493
#
# Compressibility (1/GPa) = 0.01968033
#
# Stress axis : x y z
#
# Youngs Moduli (GPa) = 79.24777 124.87683 159.12689
#
# Poissons Ratio (x) = -0.19570 0.15663
# Poissons Ratio (y) = -0.12419 0.66803
# Poissons Ratio (z) = 0.07800 0.52425
#
# Static dielectric constant tensor:
#      x y z
#    x 1.905690 0.000000 0.000000 
#    y 0.000000 1.730400 0.000000 
#    z 0.000000 0.000000 1.774800 
# 
# From -- ./inp_files/30609.got.cif
#   From: 2010.05.17/outbox.cif.g08.bks.cpg/sg48_16_cif.got.tgz:30609.got - 2010.06.03 20:39:00.
