data_PCOD9389740
_publ_section_title
;
Structure prediction by ZEFSAII (Michael W. Deem and Ramdas Pophale) SiO2 
 PCOD9389740
Probable space group: P N N N
;
_chemical_formula_sum "Si O2"
_cell_formula_units_Z 48
_cell_length_a 17.409029
_cell_length_b 19.094909
_cell_length_c 7.481110
_cell_angle_alpha 90.000000
_cell_angle_beta 90.000000
_cell_angle_gamma 90.000000
_cell_volume 2486.899198
_symmetry_space_group_name_H-M "P N N N"
_symmetry_group_IT_number 48
_space_group.IT_coordinate_system_code '2'
_symmetry_cell_setting 'orthorhombic'
loop_
_space_group_symop_operation_xyz
x,y,z
1/2-x,1/2-y,z
x,1/2-y,1/2-z
1/2-x,y,1/2-z
-x,-y,-z
1/2+x,1/2+y,-z
-x,1/2+y,1/2+z
1/2+x,-y,1/2+z
loop_
_atom_site_type_symbol
_atom_site_label
_atom_site_fract_x
_atom_site_fract_y
_atom_site_fract_z
Si Si1 0.716397 0.989218 0.547269
Si Si2 0.123767 0.990051 0.513081
Si Si3 0.551821 0.929641 0.478481
Si Si4 0.508945 0.324680 0.703599
Si Si5 0.332570 0.624772 0.210171
Si Si6 0.996091 0.900898 0.655366
O O1 0.750000 0.973550 0.750000
O O2 0.793202 0.982489 0.430184
O O3 0.641703 0.945294 0.500995
O O4 0.685644 0.069797 0.552046
O O5 0.072578 0.048771 0.416400
O O6 0.143153 0.929032 0.369071
O O7 0.071048 0.951005 0.655763
O O8 0.533821 0.889903 0.296142
O O9 0.525172 0.880967 0.644444
O O10 0.500000 0.000000 0.500000
O O11 0.473468 0.250000 0.750000
O O12 0.593677 0.326751 0.795832
O O13 0.509670 0.341262 0.492389
O O14 0.250000 0.658757 0.250000
#
# Coordination Sequence:
#
# PCOD9389740 Si02
#       6
#     8   8   8   8   8   8
#     4   9  15  30  56  90 112 139 186 238 298 343
#     4   8  14  28  55  84 112 136 170 246 295 323
#     4  12  20  35  63  87 111 150 196 238 290 353
#     4  11  24  37  53  83 119 158 198 233 288 351
#     4   8  14  30  55  81 110 141 184 229 285 350
#     4  10  18  35  55  81 120 146 185 240 293 335
#
# _framework density 19.301144000000001
#
# number of rings (size 3 to 8) (size 9 to 14) (size 15 to 20)
#    0.000    2.667    5.000    2.000    0.000    1.000 
#    0.000    3.333    0.000    2.000    0.000    2.333 
#    0.000    0.000    0.000    0.000    0.000    0.000 
#
# Total GULP energy -267290.784897 kJ/mol
# GULP energy per Si atom -5568.558019 kJ/mol
# Density = 1.925721 g / cm^3
# Si number density = 19.301144 Si / 1000 Ang^3
#
#
#
# Elastic Constant Matrix: (Units=GPa)
#
#
# Indices 1 2 3 4 5 6 
#
# 1 141.4365 10.9593 13.7259 0.0000 0.0000 0.0000
# 2 10.9593 51.8200 5.4911 0.0000 0.0000 0.0000
# 3 13.7259 5.4911 61.4114 0.0000 0.0000 0.0000
# 4 0.0000 0.0000 0.0000 12.6284 0.0000 0.0000
# 5 0.0000 0.0000 0.0000 0.0000 25.8457 0.0000
# 6 0.0000 0.0000 0.0000 0.0000 0.0000 11.7719
#
#
#
# Elastic Compliance Matrix: (Units=1/GPa)
#
#
# Indices 1 2 3 4 5 6 
#
# 1 0.007325 -0.001389 -0.001513 0.000000 0.000000 0.000000
# 2 -0.001389 0.019745 -0.001455 0.000000 0.000000 0.000000
# 3 -0.001513 -0.001455 0.016752 0.000000 0.000000 0.000000
# 4 0.000000 0.000000 0.000000 0.079187 0.000000 0.000000
# 5 0.000000 0.000000 0.000000 0.000000 0.038691 0.000000
# 6 0.000000 0.000000 0.000000 0.000000 0.000000 0.084948
#
#
# Mechanical properties :
#
#
# Convention : Reuss Voigt Hill
#
# Bulk Modulus (GPa) = 28.48326 35.00230 31.74278
# Shear Modulus (GPa) = 18.72205 25.01528 21.86866
#
# Velocity S-wave (km/s) = 3.11786 3.60398 3.36969
# Velocity P-wave (km/s) = 5.26789 5.95755 5.62330
#
# Compressibility (1/GPa) = 0.03510834
#
# Stress axis : x y z
#
# Youngs Moduli (GPa) = 136.52346 50.64456 59.69471
#
# Poissons Ratio (x) = 0.07033 0.09032
# Poissons Ratio (y) = 0.18960 0.08686
# Poissons Ratio (z) = 0.20655 0.07370
#
# Static dielectric constant tensor:
#      x y z
#    x 1.744300 0.000000 0.000000 
#    y 0.000000 1.681790 0.000000 
#    z 0.000000 0.000000 1.767480 
# 
# From -- ./inp_files/14309.got.cif
#   From: 2010.05.17/outbox.cif.g08.bks.cpg/sg48_8_cif.got.tgz:14309.got - 2010.06.03 20:39:00.
