data_PCOD9389410
_publ_section_title
;
Structure prediction by ZEFSAII (Michael W. Deem and Ramdas Pophale) SiO2 
 PCOD9389410
Probable space group: P M M M
;
_chemical_formula_sum "Si O2"
_cell_formula_units_Z 44
_cell_length_a 30.000000
_cell_length_b 9.000000
_cell_length_c 9.000000
_cell_angle_alpha 90.000000
_cell_angle_beta 90.000000
_cell_angle_gamma 90.000000
_cell_volume 2430.000000
_symmetry_space_group_name_H-M "P M M M"
_symmetry_group_IT_number 47
_symmetry_cell_setting 'orthorhombic'
loop_
_space_group_symop_operation_xyz
x,y,z
-x,-y,z
x,-y,-z
-x,y,-z
-x,-y,-z
x,y,-z
-x,y,z
x,-y,z
loop_
_atom_site_type_symbol
_atom_site_label
_atom_site_fract_x
_atom_site_fract_y
_atom_site_fract_z
Si Si1 0.273461 0.179034 0.671868
Si Si2 0.909569 0.318908 0.827257
Si Si3 0.188430 0.674739 0.820894
Si Si4 0.000000 0.318858 0.671413
Si Si5 0.364925 0.178703 0.827019
Si Si6 0.549684 0.322160 0.676422
O O1 0.272772 0.223231 0.500000
O O2 0.230021 0.240702 0.753007
O O3 0.319799 0.229850 0.745640
O O4 0.272697 0.000000 0.680554
O O5 0.908909 0.500000 0.820961
O O6 0.860768 0.271381 0.770194
O O7 0.953982 0.267152 0.745306
O O8 0.913069 0.278003 0.000000
O O9 0.192272 0.500000 0.784295
O O10 0.189013 0.687249 0.000000
O O11 0.000000 0.500000 0.683436
O O12 0.000000 0.279478 0.500000
O O13 0.409476 0.246150 0.758112
O O14 0.367096 0.000000 0.813057
O O15 0.361806 0.216775 0.000000
O O16 0.552897 0.292602 0.500000
O O17 0.500000 0.273943 0.726075
O O18 0.552205 0.500000 0.696302
#
# Coordination Sequence:
#
# PCOD9389410 Si02
#       6
#     8   8   8   4   8   8
#     4  10  21  36  53  73  98 130 167 204 245 295
#     4   8  14  25  40  59  87 122 156 191 234 285
#     4   9  18  32  50  73  99 127 162 203 246 293
#     4   9  15  21  33  57  88 121 156 193 234 280
#     4  10  21  36  54  76 101 130 166 207 247 288
#     4   9  19  36  56  78 105 136 168 201 240 289
#
# _framework density 18.106995999999999
#
# number of rings (size 3 to 8) (size 9 to 14) (size 15 to 20)
#    0.000    2.818    0.000    3.000    0.000    6.182 
#    0.000    4.545    0.000    0.000    0.000    0.636 
#    0.000    5.091    0.000    0.000    0.000    0.000 
#
# Total GULP energy -245258.518584 kJ/mol
# GULP energy per Si atom -5574.057241 kJ/mol
# Density = 1.806578 g / cm^3
# Si number density = 18.106996 Si / 1000 Ang^3
#
#
#
# Elastic Constant Matrix: (Units=GPa)
#
#
# Indices 1 2 3 4 5 6 
#
# 1 210.8542 27.5518 85.4610 0.0000 0.0000 0.0000
# 2 27.5518 -1.4906 24.3846 0.0000 0.0000 0.0000
# 3 85.4610 24.3846 63.0175 0.0000 0.0000 0.0000
# 4 0.0000 0.0000 0.0000 20.4158 0.0000 0.0000
# 5 0.0000 0.0000 0.0000 0.0000 47.9744 0.0000
# 6 0.0000 0.0000 0.0000 0.0000 0.0000 171.5503
#
#
#
# Elastic Compliance Matrix: (Units=1/GPa)
#
#
# Indices 1 2 3 4 5 6 
#
# 1 0.010231 -0.005166 -0.011876 0.000000 0.000000 0.000000
# 2 -0.005166 -0.088914 0.041412 0.000000 0.000000 0.000000
# 3 -0.011876 0.041412 0.015949 0.000000 0.000000 0.000000
# 4 0.000000 0.000000 0.000000 0.048982 0.000000 0.000000
# 5 0.000000 0.000000 0.000000 0.000000 0.020844 0.000000
# 6 0.000000 0.000000 0.000000 0.000000 0.000000 0.005829
#
#
# Mechanical properties :
#
#
# Convention : Reuss Voigt Hill
#
# Bulk Modulus (GPa) = -71.45806 60.79732 -5.33037
# Shear Modulus (GPa) = -123.51162 56.98699 -33.26231
#
# Velocity S-wave (km/s) = -8.26802 5.61611 -4.29066
# Velocity P-wave (km/s) = 11.43228 8.70080 5.24371
#
# Compressibility (1/GPa) = -0.01399422
#
# Stress axis : x y z
#
# Youngs Moduli (GPa) = 97.74248 -11.24683 62.69793
#
# Poissons Ratio (x) = -0.05810 0.74458
# Poissons Ratio (y) = 0.50497 -2.59642
# Poissons Ratio (z) = 1.16075 0.46575
#
# Static dielectric constant tensor:
#      x y z
#    x 1.613450 0.000000 0.000000 
#    y 0.000000 1.610060 0.000000 
#    z 0.000000 0.000000 1.612970 
# 
# From -- ./inp_files/2232.got.cif
#   From: 2010.05.17/outbox.ucp.g08.bks.cvg/sg47_2_cif.got.tgz:2232.got - 2010.06.11 16:36:43.
