data_PCOD9389289
_publ_section_title
;
Structure prediction by ZEFSAII (Michael W. Deem and Ramdas Pophale) SiO2 
 PCOD9389289
Probable space group: P M M M
;
_chemical_formula_sum "Si O2"
_cell_formula_units_Z 52
_cell_length_a 9.000000
_cell_length_b 27.000000
_cell_length_c 12.000000
_cell_angle_alpha 90.000000
_cell_angle_beta 90.000000
_cell_angle_gamma 90.000000
_cell_volume 2916.000000
_symmetry_space_group_name_H-M "P M M M"
_symmetry_group_IT_number 47
_symmetry_cell_setting 'orthorhombic'
loop_
_space_group_symop_operation_xyz
x,y,z
-x,-y,z
x,-y,-z
-x,y,-z
-x,-y,-z
x,y,-z
-x,y,z
x,-y,z
loop_
_atom_site_type_symbol
_atom_site_label
_atom_site_fract_x
_atom_site_fract_y
_atom_site_fract_z
Si Si1 0.678895 0.175794 0.627957
Si Si2 0.819647 0.000000 0.872281
Si Si3 0.332213 0.555747 0.364475
Si Si4 0.670348 0.845619 0.000000
Si Si5 0.163440 0.648983 0.633491
Si Si6 0.822038 0.894396 0.212974
Si Si7 0.329962 0.726641 0.000000
Si Si8 0.676836 0.728866 0.761124
O O1 0.714894 0.186695 0.500000
O O2 0.500000 0.171893 0.637160
O O3 0.755390 0.126982 0.674089
O O4 0.731793 0.220051 0.708279
O O5 0.775916 0.950630 0.809313
O O6 0.000000 0.000000 0.878066
O O7 0.765723 0.000000 0.000000
O O8 0.330417 0.555081 0.500000
O O9 0.500000 0.570523 0.332151
O O10 0.304811 0.500000 0.326577
O O11 0.211035 0.594752 0.327203
O O12 0.754435 0.864263 0.109149
O O13 0.500000 0.863690 0.000000
O O14 0.664146 0.786363 0.000000
O O15 0.161552 0.648724 0.500000
O O16 0.285984 0.686676 0.674495
O O17 0.000000 0.663514 0.673138
O O18 0.000000 0.890566 0.211852
O O19 0.259237 0.714232 0.118494
O O20 0.500000 0.706950 0.000000
O O21 0.500000 0.734762 0.775087
#
# Coordination Sequence:
#
# PCOD9389289 Si02
#       8
#     8   4   8   4   8   8   4   8
#     4  10  21  37  56  77 103 137 173 210 256 307
#     4   9  18  34  53  76 107 135 164 205 253 308
#     4   8  14  26  45  68  94 128 171 213 251 296
#     4  11  19  34  56  79 108 133 163 210 259 308
#     4  10  20  31  44  69 105 139 170 207 249 292
#     4  11  21  35  56  80 105 135 170 209 255 304
#     4   9  18  33  54  76  98 125 162 206 251 297
#     4  10  19  34  54  74  97 131 169 204 247 302
#
# _framework density 17.832647000000001
#
# number of rings (size 3 to 8) (size 9 to 14) (size 15 to 20)
#    0.000    2.231    2.308    2.077    0.000    2.769 
#    0.000    4.231    0.000    2.308    0.000    0.538 
#    0.000    4.308    0.000    0.000    0.000    0.000 
#
# Total GULP energy -289540.294784 kJ/mol
# GULP energy per Si atom -5568.082592 kJ/mol
# Density = 1.779206 g / cm^3
# Si number density = 17.832647 Si / 1000 Ang^3
#
#
#
# Elastic Constant Matrix: (Units=GPa)
#
#
# Indices 1 2 3 4 5 6 
#
# 1 0.9627 5.7223 28.4443 0.0000 0.0000 0.0000
# 2 5.7223 47.2391 16.9314 0.0000 0.0000 0.0000
# 3 28.4443 16.9314 60.5553 0.0000 0.0000 0.0000
# 4 0.0000 0.0000 0.0000 3.3437 0.0000 0.0000
# 5 0.0000 0.0000 0.0000 0.0000 18.0610 0.0000
# 6 0.0000 0.0000 0.0000 0.0000 0.0000 19.4973
#
#
#
# Elastic Compliance Matrix: (Units=1/GPa)
#
#
# Indices 1 2 3 4 5 6 
#
# 1 -0.079901 -0.004194 0.038704 0.000000 0.000000 0.000000
# 2 -0.004194 0.023307 -0.004547 0.000000 0.000000 0.000000
# 3 0.038704 -0.004547 -0.000395 0.000000 0.000000 0.000000
# 4 0.000000 0.000000 0.000000 0.299068 0.000000 0.000000
# 5 0.000000 0.000000 0.000000 0.000000 0.055368 0.000000
# 6 0.000000 0.000000 0.000000 0.000000 0.000000 0.051289
#
#
# Mechanical properties :
#
#
# Convention : Reuss Voigt Hill
#
# Bulk Modulus (GPa) = 340.39838 23.43924 181.91881
# Shear Modulus (GPa) = 17.25407 12.02433 14.63920
#
# Velocity S-wave (km/s) = 3.11393 2.59952 2.86828
# Velocity P-wave (km/s) = 14.29084 4.70984 10.63980
#
# Compressibility (1/GPa) = 0.00293773
#
# Stress axis : x y z
#
# Youngs Moduli (GPa) = -12.51542 42.90641 -2530.35260
#
# Poissons Ratio (x) = 0.17993 97.93522
# Poissons Ratio (y) = -0.05248 -11.50491
# Poissons Ratio (z) = 0.48440 0.19509
#
# Static dielectric constant tensor:
#      x y z
#    x 1.622580 0.000000 0.000000 
#    y 0.000000 1.625610 0.000000 
#    z 0.000000 0.000000 1.627810 
# 
# From -- ./inp_files/15519.got.cif
#   From: 2010.05.17/outbox.ucp.g08.bks.cvg/sg47_8_cif.got.tgz:15519.got - 2010.06.11 16:36:43.
