data_PCOD9389568
_publ_section_title
;
Structure prediction by ZEFSAII (Michael W. Deem and Ramdas Pophale) SiO2 
 PCOD9389568
Probable space group: P N N N
;
_chemical_formula_sum "Si O2"
_cell_formula_units_Z 52
_cell_length_a 10.177205
_cell_length_b 18.121342
_cell_length_c 16.311454
_cell_angle_alpha 90.000000
_cell_angle_beta 90.000000
_cell_angle_gamma 90.000000
_cell_volume 3008.233582
_symmetry_space_group_name_H-M "P N N N"
_symmetry_group_IT_number 48
_space_group.IT_coordinate_system_code '2'
_symmetry_cell_setting 'orthorhombic'
loop_
_space_group_symop_operation_xyz
x,y,z
1/2-x,1/2-y,z
x,1/2-y,1/2-z
1/2-x,y,1/2-z
-x,-y,-z
1/2+x,1/2+y,-z
-x,1/2+y,1/2+z
1/2+x,-y,1/2+z
loop_
_atom_site_type_symbol
_atom_site_label
_atom_site_fract_x
_atom_site_fract_y
_atom_site_fract_z
Si Si1 0.789200 0.607158 0.559445
Si Si2 0.512542 0.048228 0.324088
Si Si3 0.250000 0.250000 0.541151
Si Si4 0.645374 0.654730 0.319948
Si Si5 0.102491 0.915681 0.265181
Si Si6 0.967458 0.556096 0.859662
Si Si7 0.770941 0.503749 0.090836
O O1 0.906116 0.590664 0.621969
O O2 0.808411 0.684544 0.513375
O O3 0.647206 0.606151 0.604178
O O4 0.778552 0.541503 0.492467
O O5 0.516694 0.079503 0.231198
O O6 0.455837 0.965170 0.309171
O O7 0.653498 0.040606 0.366213
O O8 0.349006 0.290797 0.603329
O O9 0.750000 0.673272 0.250000
O O10 0.500671 0.647533 0.283958
O O11 0.687681 0.572970 0.351371
O O12 0.250000 0.892320 0.250000
O O13 0.098800 0.976088 0.339333
O O14 0.095000 0.543341 0.915818
#
# Coordination Sequence:
#
# PCOD9389568 Si02
#       7
#     8   8   4   8   8   8   8
#     4  11  20  34  49  77 114 144 176 228 278 319
#     4  10  17  32  53  82 110 134 174 230 283 335
#     4  10  25  34  51  74 110 158 200 208 255 346
#     4  10  17  34  56  78 107 144 186 223 262 340
#     4   9  16  29  56  85 109 125 176 231 287 315
#     4   9  17  31  52  77 110 135 175 224 282 332
#     4  10  18  29  54  88 108 131 169 236 296 326
#
# _framework density 17.285893000000002
#
# number of rings (size 3 to 8) (size 9 to 14) (size 15 to 20)
#    0.923    1.231    3.077    2.077    0.000    0.000 
#    0.000    1.538    0.000    4.615    0.000    2.154 
#    0.000    0.000    0.000    0.000    0.000    0.000 
#
# Total GULP energy -289549.481506 kJ/mol
# GULP energy per Si atom -5568.259260 kJ/mol
# Density = 1.724655 g / cm^3
# Si number density = 17.285893 Si / 1000 Ang^3
#
#
#
# Elastic Constant Matrix: (Units=GPa)
#
#
# Indices 1 2 3 4 5 6 
#
# 1 102.5550 30.4059 5.5499 0.0000 0.0000 0.0000
# 2 30.4059 51.2632 20.9794 0.0000 0.0000 0.0000
# 3 5.5499 20.9794 47.2008 0.0000 0.0000 0.0000
# 4 0.0000 0.0000 0.0000 18.9588 0.0000 0.0000
# 5 0.0000 0.0000 0.0000 0.0000 20.8331 0.0000
# 6 0.0000 0.0000 0.0000 0.0000 0.0000 -6.2208
#
#
#
# Elastic Compliance Matrix: (Units=1/GPa)
#
#
# Indices 1 2 3 4 5 6 
#
# 1 0.012006 -0.007998 0.002143 0.000000 0.000000 0.000000
# 2 -0.007998 0.029173 -0.012026 0.000000 0.000000 0.000000
# 3 0.002143 -0.012026 0.026279 0.000000 0.000000 0.000000
# 4 0.000000 0.000000 0.000000 0.052746 0.000000 0.000000
# 5 0.000000 0.000000 0.000000 0.000000 0.048001 0.000000
# 6 0.000000 0.000000 0.000000 0.000000 0.000000 -0.160752
#
#
# Mechanical properties :
#
#
# Convention : Reuss Voigt Hill
#
# Bulk Modulus (GPa) = 31.54952 34.98771 33.26862
# Shear Modulus (GPa) = 92.96914 16.31981 54.64448
#
# Velocity S-wave (km/s) = 7.34166 3.07597 5.62857
# Velocity P-wave (km/s) = 9.49515 5.73586 7.84404
#
# Compressibility (1/GPa) = 0.03169620
#
# Stress axis : x y z
#
# Youngs Moduli (GPa) = 83.28966 34.27829 38.05282
#
# Poissons Ratio (x) = 0.27417 -0.08156
# Poissons Ratio (y) = 0.66619 0.45762
# Poissons Ratio (z) = -0.17852 0.41223
#
# Static dielectric constant tensor:
#      x y z
#    x 1.580390 0.000000 0.000000 
#    y 0.000000 1.580400 0.000000 
#    z 0.000000 0.000000 1.606590 
# 
# From -- ./inp_files/25567.got.cif
#   From: 2010.05.17/outbox.cif.g08.bks.cpg/sg48_13_cif.got.tgz:25567.got - 2010.06.03 20:39:00.
