data_PCOD9389600
_publ_section_title
;
Structure prediction by ZEFSAII (Michael W. Deem and Ramdas Pophale) SiO2 
 PCOD9389600
Probable space group: P N N N
;
_chemical_formula_sum "Si O2"
_cell_formula_units_Z 46
_cell_length_a 13.535131
_cell_length_b 20.603350
_cell_length_c 7.988365
_cell_angle_alpha 90.000000
_cell_angle_beta 90.000000
_cell_angle_gamma 90.000000
_cell_volume 2227.707689
_symmetry_space_group_name_H-M "P N N N"
_symmetry_group_IT_number 48
_space_group.IT_coordinate_system_code '2'
_symmetry_cell_setting 'orthorhombic'
loop_
_space_group_symop_operation_xyz
x,y,z
1/2-x,1/2-y,z
x,1/2-y,1/2-z
1/2-x,y,1/2-z
-x,-y,-z
1/2+x,1/2+y,-z
-x,1/2+y,1/2+z
1/2+x,-y,1/2+z
loop_
_atom_site_type_symbol
_atom_site_label
_atom_site_fract_x
_atom_site_fract_y
_atom_site_fract_z
Si Si1 0.250000 0.575490 0.750000
Si Si2 0.250000 0.406749 0.250000
Si Si3 0.414770 0.250000 0.750000
Si Si4 0.876289 0.701126 0.595113
Si Si5 0.174435 0.529722 0.105989
Si Si6 0.074029 0.842081 0.388427
Si Si7 0.086324 0.821261 0.770478
Si Si8 0.750000 0.250000 0.750000
O O1 0.288016 0.537999 0.585180
O O2 0.336232 0.623519 0.814659
O O3 0.190458 0.361463 0.376016
O O4 0.172347 0.454095 0.154743
O O5 0.358296 0.235168 0.580459
O O6 0.487086 0.310727 0.716447
O O7 0.860031 0.750000 0.750000
O O8 0.992717 0.683112 0.608706
O O9 0.250000 0.553973 0.250000
O O10 0.087256 0.580878 0.133359
O O11 0.048763 0.834768 0.583467
O O12 0.174149 0.798824 0.349790
O O13 0.133078 0.750000 0.750000
#
# Coordination Sequence:
#
# PCOD9389600 Si02
#       8
#     4   4   4   8   8   8   8   2
#     4  10  21  34  58  94 133 170 210 246 306 406
#     4  10  24  48  68  78 126 172 218 272 314 364
#     4  11  22  37  67  99 128 158 204 271 337 384
#     4  11  23  45  64  95 120 158 215 274 319 372
#     4   9  21  39  57  87 124 173 211 249 305 379
#     4  10  19  33  57  91 133 161 202 256 312 389
#     4  10  20  33  58  91 134 164 203 256 326 373
#     4  10  18  24  54  88 124 176 194 242 310 380
#
# _framework density 20.649028999999999
#
# number of rings (size 3 to 8) (size 9 to 14) (size 15 to 20)
#    0.522    1.391    4.348    0.522    7.304    0.000 
#    3.130    7.826    0.000    0.000    0.000    0.000 
#    0.000    0.000    0.000    0.000    0.000    0.000 
#
# Total GULP energy -256345.479140 kJ/mol
# GULP energy per Si atom -5572.727807 kJ/mol
# Density = 2.060203 g / cm^3
# Si number density = 20.649029 Si / 1000 Ang^3
#
#
#
# Elastic Constant Matrix: (Units=GPa)
#
#
# Indices 1 2 3 4 5 6 
#
# 1 70.1085 30.6168 26.1708 0.0000 0.0000 0.0000
# 2 30.6168 121.3682 52.6581 0.0000 0.0000 0.0000
# 3 26.1708 52.6581 127.1547 0.0000 0.0000 0.0000
# 4 0.0000 0.0000 0.0000 874.9194 0.0000 0.0000
# 5 0.0000 0.0000 0.0000 0.0000 -22.0166 0.0000
# 6 0.0000 0.0000 0.0000 0.0000 0.0000 153.5122
#
#
#
# Elastic Compliance Matrix: (Units=1/GPa)
#
#
# Indices 1 2 3 4 5 6 
#
# 1 0.016449 -0.003268 -0.002032 0.000000 0.000000 0.000000
# 2 -0.003268 0.010693 -0.003756 0.000000 0.000000 0.000000
# 3 -0.002032 -0.003756 0.009838 0.000000 0.000000 0.000000
# 4 0.000000 0.000000 0.000000 0.001143 0.000000 0.000000
# 5 0.000000 0.000000 0.000000 0.000000 -0.045420 0.000000
# 6 0.000000 0.000000 0.000000 0.000000 0.000000 0.006514
#
#
# Mechanical properties :
#
#
# Convention : Reuss Voigt Hill
#
# Bulk Modulus (GPa) = 52.99727 59.72474 56.36100
# Shear Modulus (GPa) = 211.69452 215.22871 213.46161
#
# Velocity S-wave (km/s) = 10.13622 10.22048 10.17843
# Velocity P-wave (km/s) = 12.75586 12.97166 12.86421
#
# Compressibility (1/GPa) = 0.01886890
#
# Stress axis : x y z
#
# Youngs Moduli (GPa) = 60.79278 93.51675 101.64578
#
# Poissons Ratio (x) = 0.30560 0.20657
# Poissons Ratio (y) = 0.19866 0.38176
# Poissons Ratio (z) = 0.12355 0.35123
#
# Static dielectric constant tensor:
#      x y z
#    x 1.785750 0.000000 0.000000 
#    y 0.000000 1.771160 0.000000 
#    z 0.000000 0.000000 1.754380 
# 
# From -- ./inp_files/13019.got.cif
#   From: 2010.05.17/outbox.cif.g08.bks.cpg/sg48_7_cif.got.tgz:13019.got - 2010.06.03 20:39:00.
