data_PCOD9389028
_publ_section_title
;
Structure prediction by ZEFSAII (Michael W. Deem and Ramdas Pophale) SiO2 
 PCOD9389028
Probable space group: P M M M
;
_chemical_formula_sum "Si O2"
_cell_formula_units_Z 40
_cell_length_a 27.268261
_cell_length_b 9.400978
_cell_length_c 7.384863
_cell_angle_alpha 90.000000
_cell_angle_beta 90.000000
_cell_angle_gamma 90.000000
_cell_volume 1893.097236
_symmetry_space_group_name_H-M "P M M M"
_symmetry_group_IT_number 47
_symmetry_cell_setting 'orthorhombic'
loop_
_space_group_symop_operation_xyz
x,y,z
-x,-y,z
x,-y,-z
-x,y,-z
-x,-y,-z
x,y,-z
-x,y,z
x,-y,z
loop_
_atom_site_type_symbol
_atom_site_label
_atom_site_fract_x
_atom_site_fract_y
_atom_site_fract_z
Si Si1 0.903628 0.836179 0.778745
Si Si2 0.807932 0.333781 0.220682
Si Si3 0.700914 0.335876 0.783003
Si Si4 0.000000 0.663895 0.221017
Si Si5 0.593710 0.661866 0.714285
Si Si6 0.500000 0.163076 0.722037
O O1 0.853667 0.759650 0.718865
O O2 0.951193 0.747041 0.721996
O O3 0.906293 0.000000 0.721901
O O4 0.903481 0.835594 0.000000
O O5 0.813007 0.500000 0.273000
O O6 0.753894 0.279517 0.278136
O O7 0.808679 0.332346 0.000000
O O8 0.699060 0.500000 0.718028
O O9 0.648047 0.272638 0.737100
O O10 0.702869 0.338743 0.000000
O O11 0.000000 0.500000 0.279109
O O12 0.000000 0.663258 0.000000
O O13 0.586067 0.649715 0.500000
O O14 0.593447 0.500000 0.788779
O O15 0.548841 0.755054 0.783599
O O16 0.500000 0.163146 0.500000
O O17 0.500000 0.000000 0.779252
#
# Coordination Sequence:
#
# PCOD9389028 Si02
#       6
#     8   8   8   4   8   4
#     4   9  15  21  29  43  64  89 119 157 197 231
#     4   8  13  22  35  48  64  91 125 154 182 225
#     4   8  14  25  41  60  81 105 133 164 198 237
#     4   9  15  21  29  41  59  87 124 161 194 231
#     4   9  16  27  45  66  83 101 131 169 201 230
#     4   9  17  29  44  61  82 108 134 159 194 242
#
# _framework density 21.129394999999999
#
# number of rings (size 3 to 8) (size 9 to 14) (size 15 to 20)
#    0.000    3.400    0.000    2.400    0.000    4.800 
#    0.000    1.500    0.000    4.800    0.000    0.000 
#    0.000    0.000    0.000    0.900    0.000   22.200 
#
# Total GULP energy -223025.690809 kJ/mol
# GULP energy per Si atom -5575.642270 kJ/mol
# Density = 2.108130 g / cm^3
# Si number density = 21.129395 Si / 1000 Ang^3
#
#
#
# Elastic Constant Matrix: (Units=GPa)
#
#
# Indices 1 2 3 4 5 6 
#
# 1 275.2946 124.2454 4.4166 0.0000 0.0000 0.0000
# 2 124.2454 128.1714 4.5590 0.0000 0.0000 0.0000
# 3 4.4166 4.5590 71.6318 0.0000 0.0000 0.0000
# 4 0.0000 0.0000 0.0000 -7.6540 0.0000 0.0000
# 5 0.0000 0.0000 0.0000 0.0000 17.7460 0.0000
# 6 0.0000 0.0000 0.0000 0.0000 0.0000 -7.5054
#
#
#
# Elastic Compliance Matrix: (Units=1/GPa)
#
#
# Indices 1 2 3 4 5 6 
#
# 1 0.006458 -0.006260 0.000000 0.000000 0.000000 0.000000
# 2 -0.006260 0.013888 -0.000498 0.000000 0.000000 0.000000
# 3 0.000000 -0.000498 0.013992 0.000000 0.000000 0.000000
# 4 0.000000 0.000000 0.000000 -0.130650 0.000000 0.000000
# 5 0.000000 0.000000 0.000000 0.000000 0.056351 0.000000
# 6 0.000000 0.000000 0.000000 0.000000 0.000000 -0.133237
#
#
# Mechanical properties :
#
#
# Convention : Reuss Voigt Hill
#
# Bulk Modulus (GPa) = 48.02515 82.39329 65.20922
# Shear Modulus (GPa) = -32.73472 23.30909 -4.71281
#
# Velocity S-wave (km/s) = -3.94032 3.32499 -1.49509
# Velocity P-wave (km/s) = 1.44115 7.33621 5.28663
#
# Compressibility (1/GPa) = 0.02082242
#
# Stress axis : x y z
#
# Youngs Moduli (GPa) = 154.85491 72.00522 71.46962
#
# Poissons Ratio (x) = 0.45074 -0.00002
# Poissons Ratio (y) = 0.96937 0.03559
# Poissons Ratio (z) = -0.00004 0.03585
#
# Static dielectric constant tensor:
#      x y z
#    x 1.771910 0.000000 0.000000 
#    y 0.000000 1.703630 0.000000 
#    z 0.000000 0.000000 1.827840 
# 
# From -- ./inp_files/15375.got.cif
#   From: 2010.05.17/outbox.cif.g08.bks.cpg/sg47_8_cif.got.tgz:15375.got - 2010.06.03 20:15:42.
