data_PCOD9389797
_publ_section_title
;
Structure prediction by ZEFSAII (Michael W. Deem and Ramdas Pophale) SiO2 
 PCOD9389797
Probable space group: P N N N
;
_chemical_formula_sum "Si O2"
_cell_formula_units_Z 40
_cell_length_a 11.342906
_cell_length_b 9.105044
_cell_length_c 18.777648
_cell_angle_alpha 90.000000
_cell_angle_beta 90.000000
_cell_angle_gamma 90.000000
_cell_volume 1939.311512
_symmetry_space_group_name_H-M "P N N N"
_symmetry_group_IT_number 48
_space_group.IT_coordinate_system_code '2'
_symmetry_cell_setting 'orthorhombic'
loop_
_space_group_symop_operation_xyz
x,y,z
1/2-x,1/2-y,z
x,1/2-y,1/2-z
1/2-x,y,1/2-z
-x,-y,-z
1/2+x,1/2+y,-z
-x,1/2+y,1/2+z
1/2+x,-y,1/2+z
loop_
_atom_site_type_symbol
_atom_site_label
_atom_site_fract_x
_atom_site_fract_y
_atom_site_fract_z
Si Si1 0.250000 0.250000 0.885000
Si Si2 0.888607 0.026179 0.050236
Si Si3 0.548581 0.935476 0.103159
Si Si4 0.516382 0.244156 0.330395
Si Si5 0.250000 0.250000 0.132711
Si Si6 0.320341 0.527889 0.461214
O O1 0.170722 0.127816 0.926048
O O2 0.357345 0.156822 0.850733
O O3 0.788872 0.100914 0.001272
O O4 0.925490 0.122280 0.118406
O O5 0.000000 0.000000 0.000000
O O6 0.538843 0.098116 0.134165
O O7 0.414996 0.883640 0.086745
O O8 0.606840 0.950277 0.025126
O O9 0.562440 0.250000 0.250000
O O10 0.374363 0.223446 0.328390
O O11 0.269860 0.104625 0.085917
#
# Coordination Sequence:
#
# PCOD9389797 Si02
#       6
#     4   8   8   8   4   8
#     4  10  23  42  56  93 123 169 222 274 333 376
#     4  11  22  37  65  95 131 168 217 273 332 394
#     4   9  20  37  63  86 130 169 211 277 327 386
#     4  11  24  41  63  99 134 176 220 266 340 417
#     4  10  18  38  67  95 127 161 216 290 321 385
#     4   9  17  32  57  92 122 156 210 268 326 363
#
# _framework density 20.625878
#
# number of rings (size 3 to 8) (size 9 to 14) (size 15 to 20)
#    0.000    2.000    2.000    2.700    8.400    3.200 
#    0.000   10.000    0.000    0.000    0.000    2.800 
#    0.000    0.000    0.000    0.000    0.000    0.000 
#
# Total GULP energy -222750.975000 kJ/mol
# GULP energy per Si atom -5568.774375 kJ/mol
# Density = 2.057893 g / cm^3
# Si number density = 20.625878 Si / 1000 Ang^3
#
#
#
# Elastic Constant Matrix: (Units=GPa)
#
#
# Indices 1 2 3 4 5 6 
#
# 1 156.1843 63.7323 38.3364 0.0000 0.0000 0.0000
# 2 63.7323 94.2289 42.0572 0.0000 0.0000 0.0000
# 3 38.3364 42.0572 99.3011 0.0000 0.0000 0.0000
# 4 0.0000 0.0000 0.0000 10.0745 0.0000 0.0000
# 5 0.0000 0.0000 0.0000 0.0000 16.7608 0.0000
# 6 0.0000 0.0000 0.0000 0.0000 0.0000 40.8635
#
#
#
# Elastic Compliance Matrix: (Units=1/GPa)
#
#
# Indices 1 2 3 4 5 6 
#
# 1 0.008939 -0.005556 -0.001098 0.000000 0.000000 0.000000
# 2 -0.005556 0.016540 -0.004860 0.000000 0.000000 0.000000
# 3 -0.001098 -0.004860 0.012553 0.000000 0.000000 0.000000
# 4 0.000000 0.000000 0.000000 0.099260 0.000000 0.000000
# 5 0.000000 0.000000 0.000000 0.000000 0.059663 0.000000
# 6 0.000000 0.000000 0.000000 0.000000 0.000000 0.024472
#
#
# Mechanical properties :
#
#
# Convention : Reuss Voigt Hill
#
# Bulk Modulus (GPa) = 66.65180 70.88512 68.76846
# Shear Modulus (GPa) = 20.04360 27.24566 23.64463
#
# Velocity S-wave (km/s) = 3.12070 3.63842 3.38946
# Velocity P-wave (km/s) = 6.73572 7.21752 6.98077
#
# Compressibility (1/GPa) = 0.01500334
#
# Stress axis : x y z
#
# Youngs Moduli (GPa) = 111.86389 60.46107 79.66464
#
# Poissons Ratio (x) = 0.33593 0.08747
# Poissons Ratio (y) = 0.62154 0.38717
# Poissons Ratio (z) = 0.12282 0.29384
#
# Static dielectric constant tensor:
#      x y z
#    x 1.825260 0.000000 0.000000 
#    y 0.000000 1.764410 0.000000 
#    z 0.000000 0.000000 1.597930 
# 
# From -- ./inp_files/11060.got.cif
#   From: 2010.05.17/outbox.cif.g08.bks.cpg/sg48_6_cif.got.tgz:11060.got - 2010.06.03 20:39:00.
