data_PCOD9389693
_publ_section_title
;
Structure prediction by ZEFSAII (Michael W. Deem and Ramdas Pophale) SiO2 
 PCOD9389693
Probable space group: P N N N
;
_chemical_formula_sum "Si O2"
_cell_formula_units_Z 56
_cell_length_a 4.976414
_cell_length_b 15.250149
_cell_length_c 31.146830
_cell_angle_alpha 90.000000
_cell_angle_beta 90.000000
_cell_angle_gamma 90.000000
_cell_volume 2363.765788
_symmetry_space_group_name_H-M "P N N N"
_symmetry_group_IT_number 48
_space_group.IT_coordinate_system_code '2'
_symmetry_cell_setting 'orthorhombic'
loop_
_space_group_symop_operation_xyz
x,y,z
1/2-x,1/2-y,z
x,1/2-y,1/2-z
1/2-x,y,1/2-z
-x,-y,-z
1/2+x,1/2+y,-z
-x,1/2+y,1/2+z
1/2+x,-y,1/2+z
loop_
_atom_site_type_symbol
_atom_site_label
_atom_site_fract_x
_atom_site_fract_y
_atom_site_fract_z
Si Si1 0.992656 0.582242 0.777095
Si Si2 0.181002 0.154717 0.403590
Si Si3 0.320432 0.888106 0.200728
Si Si4 0.256096 0.061398 0.490007
Si Si5 0.833863 0.900016 0.144001
Si Si6 0.317997 0.610781 0.854243
Si Si7 0.979147 0.810062 0.060375
O O1 0.250000 0.548414 0.750000
O O2 0.152114 0.639314 0.812135
O O3 0.750000 0.625111 0.750000
O O4 0.854258 0.494339 0.795533
O O5 0.250000 0.250000 0.420644
O O6 0.245215 0.086426 0.440496
O O7 0.378700 0.139812 0.362978
O O8 0.870123 0.145755 0.392196
O O9 0.250000 0.859674 0.250000
O O10 0.560390 0.864517 0.167021
O O11 0.054712 0.864724 0.176021
O O12 0.332315 0.147077 0.518724
O O13 0.500000 0.000000 0.500000
O O14 0.000000 0.000000 0.500000
O O15 0.973034 0.883871 0.097187
O O16 0.809024 0.005600 0.145950
O O17 0.250000 0.750000 0.053828
O O18 0.750000 0.750000 0.080727
#
# Coordination Sequence:
#
# PCOD9389693 Si02
#       7
#     8   8   8   8   8   8   8
#     4  10  18  32  57  92 125 156 205 267 318 364
#     4  12  25  42  63  92 130 167 208 261 326 392
#     4  10  18  32  57  92 125 157 207 269 320 361
#     4  12  26  46  72  98 127 167 222 276 328 394
#     4  11  21  37  62  92 125 163 213 263 312 378
#     4  11  22  39  64  93 126 167 215 265 319 381
#     4  12  26  44  66  95 134 173 211 261 331 400
#
# _framework density 23.691011
#
# number of rings (size 3 to 8) (size 9 to 14) (size 15 to 20)
#    0.000    0.857    0.000   11.571    0.000    1.143 
#    0.000    0.000    0.000   12.857    0.000    1.000 
#    0.000    0.000    0.000    0.000    0.000    0.000 
#
# Total GULP energy -312026.731203 kJ/mol
# GULP energy per Si atom -5571.905914 kJ/mol
# Density = 2.363709 g / cm^3
# Si number density = 23.691011 Si / 1000 Ang^3
#
#
#
# Elastic Constant Matrix: (Units=GPa)
#
#
# Indices 1 2 3 4 5 6 
#
# 1 166.0115 32.6162 16.9513 0.0000 0.0000 0.0000
# 2 32.6162 53.6325 1.2128 0.0000 0.0000 0.0000
# 3 16.9513 1.2128 77.1396 0.0000 0.0000 0.0000
# 4 0.0000 0.0000 0.0000 46.7511 0.0000 0.0000
# 5 0.0000 0.0000 0.0000 0.0000 18.0805 0.0000
# 6 0.0000 0.0000 0.0000 0.0000 0.0000 24.3706
#
#
#
# Elastic Compliance Matrix: (Units=1/GPa)
#
#
# Indices 1 2 3 4 5 6 
#
# 1 0.007004 -0.004226 -0.001473 0.000000 0.000000 0.000000
# 2 -0.004226 0.021202 0.000595 0.000000 0.000000 0.000000
# 3 -0.001473 0.000595 0.013278 0.000000 0.000000 0.000000
# 4 0.000000 0.000000 0.000000 0.021390 0.000000 0.000000
# 5 0.000000 0.000000 0.000000 0.000000 0.055308 0.000000
# 6 0.000000 0.000000 0.000000 0.000000 0.000000 0.041033
#
#
# Mechanical properties :
#
#
# Convention : Reuss Voigt Hill
#
# Bulk Modulus (GPa) = 31.97248 44.26046 38.11647
# Shear Modulus (GPa) = 27.80115 34.24065 31.02090
#
# Velocity S-wave (km/s) = 3.42934 3.80584 3.62248
# Velocity P-wave (km/s) = 5.40420 6.16729 5.79831
#
# Compressibility (1/GPa) = 0.03127690
#
# Stress axis : x y z
#
# Youngs Moduli (GPa) = 142.76703 47.16495 75.31371
#
# Poissons Ratio (x) = 0.19934 0.11092
# Poissons Ratio (y) = 0.60339 -0.04484
# Poissons Ratio (z) = 0.21026 -0.02808
#
# Static dielectric constant tensor:
#      x y z
#    x 0.612380 0.000000 0.000000 
#    y 0.000000 2.066890 0.000000 
#    z 0.000000 0.000000 1.901390 
# 
# From -- ./inp_files/38341.got.cif
#   From: 2010.05.17/outbox.cif.g08.bks.cpg/sg48_20_cif.got.tgz:38341.got - 2010.06.03 20:39:00.
