data_PCOD9389524
_publ_section_title
;
Structure prediction by ZEFSAII (Michael W. Deem and Ramdas Pophale) SiO2 
 PCOD9389524
Probable space group: P N N N
;
_chemical_formula_sum "Si O2"
_cell_formula_units_Z 56
_cell_length_a 8.526963
_cell_length_b 20.843924
_cell_length_c 15.767385
_cell_angle_alpha 90.000000
_cell_angle_beta 90.000000
_cell_angle_gamma 90.000000
_cell_volume 2802.421987
_symmetry_space_group_name_H-M "P N N N"
_symmetry_group_IT_number 48
_space_group.IT_coordinate_system_code '2'
_symmetry_cell_setting 'orthorhombic'
loop_
_space_group_symop_operation_xyz
x,y,z
1/2-x,1/2-y,z
x,1/2-y,1/2-z
1/2-x,y,1/2-z
-x,-y,-z
1/2+x,1/2+y,-z
-x,1/2+y,1/2+z
1/2+x,-y,1/2+z
loop_
_atom_site_type_symbol
_atom_site_label
_atom_site_fract_x
_atom_site_fract_y
_atom_site_fract_z
Si Si1 0.250000 0.250000 0.021283
Si Si2 0.846683 0.044940 0.336697
Si Si3 0.438069 0.676046 0.259185
Si Si4 0.250000 0.750000 0.014738
Si Si5 0.957035 0.424826 0.906346
Si Si6 0.011714 0.845539 0.571600
Si Si7 0.136110 0.948004 0.001508
Si Si8 0.018935 0.331167 0.582329
O O1 0.375013 0.207905 0.074376
O O2 0.169801 0.200201 0.957260
O O3 0.750000 0.039109 0.250000
O O4 0.949355 0.110478 0.347149
O O5 0.721426 0.050518 0.412103
O O6 0.951132 0.983180 0.362507
O O7 0.491758 0.750000 0.250000
O O8 0.250000 0.674114 0.250000
O O9 0.468171 0.636129 0.343857
O O10 0.520904 0.643426 0.177710
O O11 0.382796 0.722142 0.075756
O O12 0.164605 0.695352 0.959059
O O13 0.778503 0.447421 0.929002
O O14 0.021424 0.397706 0.996316
O O15 0.041621 0.883907 0.018554
O O16 0.000000 0.000000 0.000000
#
# Coordination Sequence:
#
# PCOD9389524 Si02
#       8
#     4   8   8   4   8   8   8   8
#     4  10  24  34  69  99 128 172 212 284 330 411
#     4  11  26  44  66  93 129 175 224 280 324 387
#     4  11  20  35  60  96 132 170 210 256 319 398
#     4  10  16  38  64  88 118 172 218 250 321 403
#     4  11  23  40  65  94 135 175 218 266 328 403
#     4  10  20  42  63  94 125 168 216 268 337 391
#     4  11  24  42  66  90 127 181 222 267 326 393
#     4  11  21  37  63  93 131 167 218 259 330 395
#
# _framework density 19.982714999999999
#
# number of rings (size 3 to 8) (size 9 to 14) (size 15 to 20)
#    0.000    1.286    4.286    4.286    6.000    0.000 
#    0.000    2.857    0.000    0.857    0.000    0.000 
#    0.000    0.000    0.000    0.000    0.000    0.000 
#
# Total GULP energy -312367.234096 kJ/mol
# GULP energy per Si atom -5577.986323 kJ/mol
# Density = 1.993723 g / cm^3
# Si number density = 19.982715 Si / 1000 Ang^3
#
#
#
# Elastic Constant Matrix: (Units=GPa)
#
#
# Indices 1 2 3 4 5 6 
#
# 1 87.2933 50.0294 39.5683 0.0000 0.0000 0.0000
# 2 50.0294 103.2233 53.7963 0.0000 0.0000 0.0000
# 3 39.5683 53.7963 86.2133 0.0000 0.0000 0.0000
# 4 0.0000 0.0000 0.0000 22.1045 0.0000 0.0000
# 5 0.0000 0.0000 0.0000 0.0000 6.0122 0.0000
# 6 0.0000 0.0000 0.0000 0.0000 0.0000 45.1219
#
#
#
# Elastic Compliance Matrix: (Units=1/GPa)
#
#
# Indices 1 2 3 4 5 6 
#
# 1 0.016690 -0.006072 -0.003872 0.000000 0.000000 0.000000
# 2 -0.006072 0.016565 -0.007550 0.000000 0.000000 0.000000
# 3 -0.003872 -0.007550 0.018087 0.000000 0.000000 0.000000
# 4 0.000000 0.000000 0.000000 0.045240 0.000000 0.000000
# 5 0.000000 0.000000 0.000000 0.000000 0.166328 0.000000
# 6 0.000000 0.000000 0.000000 0.000000 0.000000 0.022162
#
#
# Mechanical properties :
#
#
# Convention : Reuss Voigt Hill
#
# Bulk Modulus (GPa) = 61.13783 62.61308 61.87546
# Shear Modulus (GPa) = 15.36050 23.53679 19.44865
#
# Velocity S-wave (km/s) = 2.77553 3.43572 3.12312
# Velocity P-wave (km/s) = 6.39791 6.86589 6.63603
#
# Compressibility (1/GPa) = 0.01635648
#
# Stress axis : x y z
#
# Youngs Moduli (GPa) = 59.91518 60.36746 55.28804
#
# Poissons Ratio (x) = 0.36653 0.21405
# Poissons Ratio (y) = 0.36378 0.41742
# Poissons Ratio (z) = 0.23196 0.45577
#
# Static dielectric constant tensor:
#      x y z
#    x 1.733690 0.000000 0.000000 
#    y 0.000000 1.731650 0.000000 
#    z 0.000000 0.000000 1.730510 
# 
# From -- ./inp_files/25659.got.cif
#   From: 2010.05.17/outbox.cif.g08.bks.cpg/sg48_13_cif.got.tgz:25659.got - 2010.06.03 20:39:00.
