data_PCOD9389073
_publ_section_title
;
Structure prediction by ZEFSAII (Michael W. Deem and Ramdas Pophale) SiO2 
 PCOD9389073
Probable space group: P M M M
;
_chemical_formula_sum "Si O2"
_cell_formula_units_Z 36
_cell_length_a 7.473901
_cell_length_b 9.607572
_cell_length_c 24.206445
_cell_angle_alpha 90.000000
_cell_angle_beta 90.000000
_cell_angle_gamma 90.000000
_cell_volume 1738.169006
_symmetry_space_group_name_H-M "P M M M"
_symmetry_group_IT_number 47
_symmetry_cell_setting 'orthorhombic'
loop_
_space_group_symop_operation_xyz
x,y,z
-x,-y,z
x,-y,-z
-x,y,-z
-x,-y,-z
x,y,-z
-x,y,z
x,-y,z
loop_
_atom_site_type_symbol
_atom_site_label
_atom_site_fract_x
_atom_site_fract_y
_atom_site_fract_z
Si Si1 0.781549 0.160991 0.500000
Si Si2 0.781913 0.161887 0.288773
Si Si3 0.285626 0.658295 0.939664
Si Si4 0.786592 0.156261 0.166241
Si Si5 0.781243 0.339351 0.393504
O O1 0.725951 0.246148 0.445714
O O2 0.000000 0.158620 0.500000
O O3 0.723261 0.000000 0.500000
O O4 0.722709 0.203800 0.226900
O O5 0.722103 0.263659 0.337267
O O6 0.000000 0.164112 0.290048
O O7 0.730502 0.000000 0.297839
O O8 0.500000 0.652191 0.942509
O O9 0.219475 0.500000 0.933218
O O10 0.245583 0.748404 0.886255
O O11 0.222650 0.711463 0.000000
O O12 0.000000 0.146891 0.171631
O O13 0.717134 0.000000 0.156532
O O14 0.724096 0.500000 0.397419
O O15 0.000000 0.340489 0.393541
#
# Coordination Sequence:
#
# PCOD9389073 Si02
#       5
#     4   8   8   8   8
#     4   9  15  21  29  41  61  95 136 173 212 257
#     4   8  14  25  38  52  75 106 136 168 211 261
#     4   9  19  35  51  67  90 120 152 185 223 269
#     4   9  18  31  47  69  94 118 148 187 227 269
#     4   9  15  21  30  46  68  95 132 176 214 250
#
# _framework density 20.711449000000002
#
# number of rings (size 3 to 8) (size 9 to 14) (size 15 to 20)
#    0.000    3.222    0.000    3.000    0.000    6.667 
#    0.000    5.556    0.000    0.000    0.000    0.000 
#    0.000    0.000    0.000    1.000    0.000   19.778 
#
# Total GULP energy -200770.798579 kJ/mol
# GULP energy per Si atom -5576.966627 kJ/mol
# Density = 2.066431 g / cm^3
# Si number density = 20.711449 Si / 1000 Ang^3
#
#
#
# Elastic Constant Matrix: (Units=GPa)
#
#
# Indices 1 2 3 4 5 6 
#
# 1 55.1925 4.2773 6.8125 0.0000 0.0000 0.0000
# 2 4.2773 159.9168 154.1671 0.0000 0.0000 0.0000
# 3 6.8125 154.1671 256.7503 0.0000 0.0000 0.0000
# 4 0.0000 0.0000 0.0000 84.9494 0.0000 0.0000
# 5 0.0000 0.0000 0.0000 0.0000 77.0788 0.0000
# 6 0.0000 0.0000 0.0000 0.0000 0.0000 8.3314
#
#
#
# Elastic Compliance Matrix: (Units=1/GPa)
#
#
# Indices 1 2 3 4 5 6 
#
# 1 0.018178 -0.000050 -0.000452 0.000000 0.000000 0.000000
# 2 -0.000050 0.014849 -0.008915 0.000000 0.000000 0.000000
# 3 -0.000452 -0.008915 0.009260 0.000000 0.000000 0.000000
# 4 0.000000 0.000000 0.000000 0.011772 0.000000 0.000000
# 5 0.000000 0.000000 0.000000 0.000000 0.012974 0.000000
# 6 0.000000 0.000000 0.000000 0.000000 0.000000 0.120029
#
#
# Mechanical properties :
#
#
# Convention : Reuss Voigt Hill
#
# Bulk Modulus (GPa) = 42.63981 89.15259 65.89620
# Shear Modulus (GPa) = 23.39595 54.51209 38.95402
#
# Velocity S-wave (km/s) = 3.36462 5.13585 4.34152
# Velocity P-wave (km/s) = 5.97716 8.84917 7.55097
#
# Compressibility (1/GPa) = 0.02345226
#
# Stress axis : x y z
#
# Youngs Moduli (GPa) = 55.01125 67.34571 107.99492
#
# Poissons Ratio (x) = 0.00339 0.04882
# Poissons Ratio (y) = 0.00277 0.96274
# Poissons Ratio (z) = 0.02487 0.60037
#
# Static dielectric constant tensor:
#      x y z
#    x 1.796800 0.000000 0.000000 
#    y 0.000000 1.706340 0.000000 
#    z 0.000000 0.000000 1.740430 
# 
# From -- ./inp_files/1390.got.cif
#   From: 2010.05.17/outbox.cif.g08.bks.cpg/sg47_1_cif.got.tgz:1390.got - 2010.06.03 20:15:42.
