data_PCOD9389661
_publ_section_title
;
Structure prediction by ZEFSAII (Michael W. Deem and Ramdas Pophale) SiO2 
 PCOD9389661
Probable space group: P N N N
;
_chemical_formula_sum "Si O2"
_cell_formula_units_Z 58
_cell_length_a 8.878004
_cell_length_b 17.825019
_cell_length_c 16.202146
_cell_angle_alpha 90.000000
_cell_angle_beta 90.000000
_cell_angle_gamma 90.000000
_cell_volume 2563.999163
_symmetry_space_group_name_H-M "P N N N"
_symmetry_group_IT_number 48
_space_group.IT_coordinate_system_code '2'
_symmetry_cell_setting 'orthorhombic'
loop_
_space_group_symop_operation_xyz
x,y,z
1/2-x,1/2-y,z
x,1/2-y,1/2-z
1/2-x,y,1/2-z
-x,-y,-z
1/2+x,1/2+y,-z
-x,1/2+y,1/2+z
1/2+x,-y,1/2+z
loop_
_atom_site_type_symbol
_atom_site_label
_atom_site_fract_x
_atom_site_fract_y
_atom_site_fract_z
Si Si1 0.131024 0.339868 0.901457
Si Si2 0.420659 0.784425 0.487923
Si Si3 0.052645 0.548758 0.202455
Si Si4 0.250000 0.250000 0.750000
Si Si5 0.253848 0.034920 0.996287
Si Si6 0.428118 0.756840 0.841503
Si Si7 0.547644 0.073508 0.104943
Si Si8 0.882086 0.432177 0.622055
O O1 0.164479 0.301676 0.814389
O O2 0.265550 0.385844 0.947291
O O3 0.039374 0.276946 0.951947
O O4 0.028100 0.407579 0.871583
O O5 0.250000 0.750000 0.488426
O O6 0.469341 0.798755 0.583120
O O7 0.403184 0.857202 0.430519
O O8 0.014393 0.570733 0.296246
O O9 0.222746 0.560542 0.170556
O O10 0.991941 0.464871 0.191803
O O11 0.306445 0.965272 0.937459
O O12 0.402932 0.055003 0.048939
O O13 0.128443 0.002612 0.059009
O O14 0.250000 0.750000 0.830718
O O15 0.498464 0.750000 0.750000
O O16 0.447323 0.838936 0.880359
#
# Coordination Sequence:
#
# PCOD9389661 Si02
#       8
#     8   8   8   2   8   8   8   8
#     4  11  21  40  56  82 117 167 199 232 296 367
#     4  11  19  33  61  89 119 147 192 254 304 343
#     4   9  19  33  56  85 119 145 191 250 292 339
#     4  12  28  40  54  76 122 168 198 230 284 380
#     4   9  17  32  59  79 111 155 198 227 286 372
#     4  10  20  32  51  85 120 147 185 241 299 350
#     4   9  16  32  54  79 108 155 186 229 291 358
#     4  10  18  31  54  96 117 142 186 252 304 338
#
# _framework density 22.620913000000002
#
# number of rings (size 3 to 8) (size 9 to 14) (size 15 to 20)
#    0.000    2.069    2.759    3.310    0.000    0.000 
#    0.000    9.655    0.000    2.483    0.000    0.000 
#    0.000    0.000    0.000    0.000    0.000    0.000 
#
# Total GULP energy -322931.189930 kJ/mol
# GULP energy per Si atom -5567.779137 kJ/mol
# Density = 2.256943 g / cm^3
# Si number density = 22.620913 Si / 1000 Ang^3
#
#
#
# Elastic Constant Matrix: (Units=GPa)
#
#
# Indices 1 2 3 4 5 6 
#
# 1 19.3099 8.7695 24.0597 0.0000 0.0000 0.0000
# 2 8.7695 103.9444 60.7660 0.0000 0.0000 0.0000
# 3 24.0597 60.7660 201.9997 0.0000 0.0000 0.0000
# 4 0.0000 0.0000 0.0000 49.0152 0.0000 0.0000
# 5 0.0000 0.0000 0.0000 0.0000 13.7981 0.0000
# 6 0.0000 0.0000 0.0000 0.0000 0.0000 -4.2260
#
#
#
# Elastic Compliance Matrix: (Units=1/GPa)
#
#
# Indices 1 2 3 4 5 6 
#
# 1 0.060913 -0.001089 -0.006928 0.000000 0.000000 0.000000
# 2 -0.001089 0.011693 -0.003388 0.000000 0.000000 0.000000
# 3 -0.006928 -0.003388 0.006795 0.000000 0.000000 0.000000
# 4 0.000000 0.000000 0.000000 0.020402 0.000000 0.000000
# 5 0.000000 0.000000 0.000000 0.000000 0.072474 0.000000
# 6 0.000000 0.000000 0.000000 0.000000 0.000000 -0.236631
#
#
# Mechanical properties :
#
#
# Convention : Reuss Voigt Hill
#
# Bulk Modulus (GPa) = 17.67038 56.93826 37.30432
# Shear Modulus (GPa) = -220.44418 27.16137 -96.64141
#
# Velocity S-wave (km/s) = -9.88246 3.46890 -6.54331
# Velocity P-wave (km/s) = 11.06295 6.42414 6.36865
#
# Compressibility (1/GPa) = 0.05659188
#
# Stress axis : x y z
#
# Youngs Moduli (GPa) = 16.41677 85.52190 147.17258
#
# Poissons Ratio (x) = 0.09315 1.01955
# Poissons Ratio (y) = 0.01788 0.49858
# Poissons Ratio (z) = 0.11373 0.28973
#
# Static dielectric constant tensor:
#      x y z
#    x 1.498570 0.000000 0.000000 
#    y 0.000000 2.276080 0.000000 
#    z 0.000000 0.000000 1.753260 
# 
# From -- ./inp_files/22307.got.cif
#   From: 2010.05.17/outbox.cif.g08.bks.cpg/sg48_12_cif.got.tgz:22307.got - 2010.06.03 20:39:00.
