data_PCOD9389361
_publ_section_title
;
Structure prediction by ZEFSAII (Michael W. Deem and Ramdas Pophale) SiO2 
 PCOD9389361
Probable space group: P M M M
;
_chemical_formula_sum "Si O2"
_cell_formula_units_Z 44
_cell_length_a 9.000000
_cell_length_b 30.000000
_cell_length_c 9.000000
_cell_angle_alpha 90.000000
_cell_angle_beta 90.000000
_cell_angle_gamma 90.000000
_cell_volume 2430.000000
_symmetry_space_group_name_H-M "P M M M"
_symmetry_group_IT_number 47
_symmetry_cell_setting 'orthorhombic'
loop_
_space_group_symop_operation_xyz
x,y,z
-x,-y,z
x,-y,-z
-x,y,-z
-x,-y,-z
x,y,-z
-x,y,z
x,-y,z
loop_
_atom_site_type_symbol
_atom_site_label
_atom_site_fract_x
_atom_site_fract_y
_atom_site_fract_z
Si Si1 0.672032 0.139362 0.681099
Si Si2 0.324235 0.408344 0.677141
Si Si3 0.175861 0.677216 0.176571
Si Si4 0.828389 0.500000 0.319017
Si Si5 0.825421 0.951126 0.680554
Si Si6 0.822263 0.769222 0.675714
O O1 0.684107 0.139036 0.500000
O O2 0.500000 0.140705 0.720044
O O3 0.743794 0.093135 0.734648
O O4 0.751390 0.184705 0.730892
O O5 0.296488 0.404478 0.500000
O O6 0.500000 0.410902 0.700217
O O7 0.257885 0.365059 0.754995
O O8 0.250000 0.454447 0.730096
O O9 0.228830 0.724358 0.243190
O O10 0.000000 0.673351 0.212047
O O11 0.192738 0.677720 0.000000
O O12 0.821258 0.500000 0.500000
O O13 0.000000 0.500000 0.274993
O O14 0.814265 0.951143 0.500000
O O15 0.000000 0.948088 0.715944
O O16 0.770003 0.000000 0.730736
O O17 0.789841 0.764669 0.500000
O O18 0.000000 0.772695 0.692715
#
# Coordination Sequence:
#
# PCOD9389361 Si02
#       6
#     8   8   8   4   8   8
#     4   9  16  24  36  57  84 113 148 191 234 276
#     4  10  20  34  54  80 108 136 166 201 242 289
#     4  10  21  36  53  74 100 130 166 207 249 293
#     4   9  17  31  54  81 106 133 166 204 242 281
#     4   8  13  21  33  50  76 112 149 182 222 276
#     4   9  17  30  48  67  89 121 159 197 238 285
#
# _framework density 18.106995999999999
#
# number of rings (size 3 to 8) (size 9 to 14) (size 15 to 20)
#    0.000    2.818    0.000    2.455    0.000    6.545 
#    0.000    4.091    0.000    2.727    0.000    0.000 
#    0.000    0.727    0.000    8.364    0.000   10.727 
#
# Total GULP energy -245260.022095 kJ/mol
# GULP energy per Si atom -5574.091411 kJ/mol
# Density = 1.806578 g / cm^3
# Si number density = 18.106996 Si / 1000 Ang^3
#
#
#
# Elastic Constant Matrix: (Units=GPa)
#
#
# Indices 1 2 3 4 5 6 
#
# 1 44.3888 85.2021 33.2916 0.0000 0.0000 0.0000
# 2 85.2021 230.5929 39.4455 0.0000 0.0000 0.0000
# 3 33.2916 39.4455 3.2817 0.0000 0.0000 0.0000
# 4 0.0000 0.0000 0.0000 -5.3540 0.0000 0.0000
# 5 0.0000 0.0000 0.0000 0.0000 10.2968 0.0000
# 6 0.0000 0.0000 0.0000 0.0000 0.0000 -96.4825
#
#
#
# Elastic Compliance Matrix: (Units=1/GPa)
#
#
# Indices 1 2 3 4 5 6 
#
# 1 0.008773 -0.011346 0.047378 0.000000 0.000000 0.000000
# 2 -0.011346 0.010567 -0.011917 0.000000 0.000000 0.000000
# 3 0.047378 -0.011917 -0.032672 0.000000 0.000000 0.000000
# 4 0.000000 0.000000 0.000000 -0.186775 0.000000 0.000000
# 5 0.000000 0.000000 0.000000 0.000000 0.097118 0.000000
# 6 0.000000 0.000000 0.000000 0.000000 0.000000 -0.010365
#
#
# Mechanical properties :
#
#
# Convention : Reuss Voigt Hill
#
# Bulk Modulus (GPa) = 28.65484 66.01574 47.33529
# Shear Modulus (GPa) = -33.34435 -10.28634 -21.81534
#
# Velocity S-wave (km/s) = -4.29595 -2.38604 -3.47479
# Velocity P-wave (km/s) = 2.95757 5.38023 3.17802
#
# Compressibility (1/GPa) = 0.03489812
#
# Stress axis : x y z
#
# Youngs Moduli (GPa) = 113.98306 94.63047 -30.60698
#
# Poissons Ratio (x) = 1.07369 1.45009
# Poissons Ratio (y) = 1.29326 -0.36473
# Poissons Ratio (z) = -5.40025 1.12768
#
# Static dielectric constant tensor:
#      x y z
#    x 1.608120 0.000000 0.000000 
#    y 0.000000 1.616440 0.000000 
#    z 0.000000 0.000000 1.597170 
# 
# From -- ./inp_files/2089.got.cif
#   From: 2010.05.17/outbox.ucp.g08.bks.cvg/sg47_2_cif.got.tgz:2089.got - 2010.06.11 16:36:43.
