data_PCOD9389155
_publ_section_title
;
Structure prediction by ZEFSAII (Michael W. Deem and Ramdas Pophale) SiO2 
 PCOD9389155
Probable space group: P M M M
;
_chemical_formula_sum "Si O2"
_cell_formula_units_Z 36
_cell_length_a 9.161916
_cell_length_b 10.595332
_cell_length_c 22.772780
_cell_angle_alpha 90.000000
_cell_angle_beta 90.000000
_cell_angle_gamma 90.000000
_cell_volume 2210.634411
_symmetry_space_group_name_H-M "P M M M"
_symmetry_group_IT_number 47
_symmetry_cell_setting 'orthorhombic'
loop_
_space_group_symop_operation_xyz
x,y,z
-x,-y,z
x,-y,-z
-x,y,-z
-x,-y,-z
x,y,-z
-x,y,z
x,-y,z
loop_
_atom_site_type_symbol
_atom_site_label
_atom_site_fract_x
_atom_site_fract_y
_atom_site_fract_z
Si Si1 0.174911 0.149827 0.238336
Si Si2 0.821653 0.500000 0.568340
Si Si3 0.168316 0.154005 0.000000
Si Si4 0.667828 0.153610 0.118053
Si Si5 0.821890 0.000000 0.567353
Si Si6 0.822062 0.249181 0.636973
O O1 0.252790 0.189589 0.178378
O O2 0.221608 0.228794 0.295428
O O3 0.000000 0.161008 0.231344
O O4 0.204281 0.000000 0.249053
O O5 0.775728 0.500000 0.500000
O O6 0.774731 0.375475 0.603768
O O7 0.000000 0.500000 0.567623
O O8 0.249005 0.195498 0.940658
O O9 0.000000 0.192774 0.000000
O O10 0.170885 0.000000 0.000000
O O11 0.500000 0.194114 0.117314
O O12 0.669646 0.000000 0.117110
O O13 0.775197 0.874088 0.600801
O O14 0.775000 0.000000 0.500000
O O15 0.000000 0.000000 0.567830
O O16 0.000000 0.249775 0.636980
#
# Coordination Sequence:
#
# PCOD9389155 Si02
#       6
#     8   4   4   8   4   8
#     4   9  15  24  37  53  76 107 142 176 212 255
#     4   9  16  24  34  52  81 112 137 170 221 269
#     4   9  15  23  35  53  79 114 149 174 205 252
#     4   9  16  24  35  53  79 109 142 179 216 250
#     4   9  14  20  32  50  73 102 135 170 209 257
#     4   9  15  23  34  51  76 107 140 173 212 260
#
# _framework density 16.284918000000001
#
# number of rings (size 3 to 8) (size 9 to 14) (size 15 to 20)
#    0.000    3.000    1.111    1.667    0.000    6.667 
#    0.000    0.000    0.000    0.000    0.000    0.778 
#    0.000    6.222    0.000   10.444    0.000    5.111 
#
# Total GULP energy -200457.617637 kJ/mol
# GULP energy per Si atom -5568.267157 kJ/mol
# Density = 1.624785 g / cm^3
# Si number density = 16.284918 Si / 1000 Ang^3
#
#
#
# Elastic Constant Matrix: (Units=GPa)
#
#
# Indices 1 2 3 4 5 6 
#
# 1 43.1069 21.2197 61.0348 0.0000 0.0000 0.0000
# 2 21.2197 80.0324 68.2815 0.0000 0.0000 0.0000
# 3 61.0348 68.2815 210.1811 0.0000 0.0000 0.0000
# 4 0.0000 0.0000 0.0000 15.3730 0.0000 0.0000
# 5 0.0000 0.0000 0.0000 0.0000 -4.1804 0.0000
# 6 0.0000 0.0000 0.0000 0.0000 0.0000 2.5988
#
#
#
# Elastic Compliance Matrix: (Units=1/GPa)
#
#
# Indices 1 2 3 4 5 6 
#
# 1 0.039449 -0.000949 -0.011147 0.000000 0.000000 0.000000
# 2 -0.000949 0.017309 -0.005348 0.000000 0.000000 0.000000
# 3 -0.011147 -0.005348 0.009732 0.000000 0.000000 0.000000
# 4 0.000000 0.000000 0.000000 0.065049 0.000000 0.000000
# 5 0.000000 0.000000 0.000000 0.000000 -0.239212 0.000000
# 6 0.000000 0.000000 0.000000 0.000000 0.000000 0.384786
#
#
# Mechanical properties :
#
#
# Convention : Reuss Voigt Hill
#
# Bulk Modulus (GPa) = 31.64327 70.48803 51.06565
# Shear Modulus (GPa) = 15.50224 14.94392 15.22308
#
# Velocity S-wave (km/s) = 3.08870 3.03257 3.06076
# Velocity P-wave (km/s) = 5.67391 7.45923 6.62697
#
# Compressibility (1/GPa) = 0.03160229
#
# Stress axis : x y z
#
# Youngs Moduli (GPa) = 25.34942 57.77360 102.75194
#
# Poissons Ratio (x) = 0.05481 1.14541
# Poissons Ratio (y) = 0.02405 0.54948
# Poissons Ratio (z) = 0.28258 0.30895
#
# Static dielectric constant tensor:
#      x y z
#    x 1.535300 0.000000 0.000000 
#    y 0.000000 1.531990 0.000000 
#    z 0.000000 0.000000 1.549050 
# 
# From -- ./inp_files/29301.got.cif
#   From: 2010.05.17/outbox.cif.g08.bks.cpg/sg47_15_cif.got.tgz:29301.got - 2010.06.03 20:15:42.
