data_PCOD9389310
_publ_section_title
;
Structure prediction by ZEFSAII (Michael W. Deem and Ramdas Pophale) SiO2 
 PCOD9389310
Probable space group: P M M M
;
_chemical_formula_sum "Si O2"
_cell_formula_units_Z 44
_cell_length_a 30.000000
_cell_length_b 9.000000
_cell_length_c 9.000000
_cell_angle_alpha 90.000000
_cell_angle_beta 90.000000
_cell_angle_gamma 90.000000
_cell_volume 2430.000000
_symmetry_space_group_name_H-M "P M M M"
_symmetry_group_IT_number 47
_symmetry_cell_setting 'orthorhombic'
loop_
_space_group_symop_operation_xyz
x,y,z
-x,-y,z
x,-y,-z
-x,y,-z
-x,-y,-z
x,y,-z
-x,y,z
x,-y,z
loop_
_atom_site_type_symbol
_atom_site_label
_atom_site_fract_x
_atom_site_fract_y
_atom_site_fract_z
Si Si1 0.451952 0.676232 0.319617
Si Si2 0.263846 0.679212 0.827410
Si Si3 0.178558 0.177961 0.674427
Si Si4 0.914067 0.177920 0.824508
Si Si5 0.000000 0.677161 0.325500
Si Si6 0.355054 0.681298 0.326595
O O1 0.451123 0.686213 0.500000
O O2 0.500000 0.739158 0.269540
O O3 0.452710 0.500000 0.284448
O O4 0.403642 0.734640 0.269735
O O5 0.262428 0.500000 0.814853
O O6 0.222341 0.746369 0.740007
O O7 0.311525 0.729350 0.762343
O O8 0.260468 0.719176 0.000000
O O9 0.174678 0.209564 0.500000
O O10 0.133184 0.226270 0.755860
O O11 0.182509 0.000000 0.694061
O O12 0.955892 0.255810 0.748655
O O13 0.917976 0.000000 0.801423
O O14 0.914356 0.206416 0.000000
O O15 0.000000 0.500000 0.308066
O O16 0.000000 0.713366 0.500000
O O17 0.350207 0.722273 0.500000
O O18 0.356433 0.500000 0.321552
#
# Coordination Sequence:
#
# PCOD9389310 Si02
#       6
#     8   8   8   8   4   8
#     4   7   9  14  27  49  76 107 146 191 236 281
#     4  10  20  32  47  69  98 132 166 200 243 295
#     4  10  21  37  57  79 101 128 165 208 251 294
#     4  10  21  38  60  83 106 135 170 206 248 297
#     4  11  24  39  56  82 114 145 176 209 244 282
#     4   8  13  22  37  57  83 117 156 197 240 286
#
# _framework density 18.106995999999999
#
# number of rings (size 3 to 8) (size 9 to 14) (size 15 to 20)
#    0.000    2.818    0.000    3.818    0.000    5.818 
#    0.000    0.000    0.000    0.545    0.000    3.818 
#    0.000    0.727    0.000    8.364    0.000    9.636 
#
# Total GULP energy -245199.122642 kJ/mol
# GULP energy per Si atom -5572.707333 kJ/mol
# Density = 1.806578 g / cm^3
# Si number density = 18.106996 Si / 1000 Ang^3
#
#
#
# Elastic Constant Matrix: (Units=GPa)
#
#
# Indices 1 2 3 4 5 6 
#
# 1 212.7582 37.0339 78.5381 0.0000 0.0000 0.0000
# 2 37.0339 4.5585 36.9144 0.0000 0.0000 0.0000
# 3 78.5381 36.9144 69.7935 0.0000 0.0000 0.0000
# 4 0.0000 0.0000 0.0000 18.3282 0.0000 0.0000
# 5 0.0000 0.0000 0.0000 0.0000 -243.5645 0.0000
# 6 0.0000 0.0000 0.0000 0.0000 0.0000 5364.2697
#
#
#
# Elastic Compliance Matrix: (Units=1/GPa)
#
#
# Indices 1 2 3 4 5 6 
#
# 1 0.007953 -0.002394 -0.007683 0.000000 0.000000 0.000000
# 2 -0.002394 -0.066098 0.037654 0.000000 0.000000 0.000000
# 3 -0.007683 0.037654 0.003058 0.000000 0.000000 0.000000
# 4 0.000000 0.000000 0.000000 0.054561 0.000000 0.000000
# 5 0.000000 0.000000 0.000000 0.000000 -0.004106 0.000000
# 6 0.000000 0.000000 0.000000 0.000000 0.000000 0.000186
#
#
# Mechanical properties :
#
#
# Convention : Reuss Voigt Hill
#
# Bulk Modulus (GPa) = 15035.19790 65.78699 7550.49245
# Shear Modulus (GPa) = -83.92610 1036.78161 476.42775
#
# Velocity S-wave (km/s) = -6.81548 23.95473 16.23851
# Velocity P-wave (km/s) = 90.88246 28.31107 67.30950
#
# Compressibility (1/GPa) = 0.00006651
#
# Stress axis : x y z
#
# Youngs Moduli (GPa) = 125.73633 -15.12904 326.98669
#
# Poissons Ratio (x) = -0.03622 2.51231
# Poissons Ratio (y) = 0.30106 -12.31241
# Poissons Ratio (z) = 0.96606 0.56967
#
# Static dielectric constant tensor:
#      x y z
#    x 1.635600 0.000000 0.000000 
#    y 0.000000 1.612460 0.000000 
#    z 0.000000 0.000000 1.604590 
# 
# From -- ./inp_files/2048.got.cif
#   From: 2010.05.17/outbox.ucp.g08.bks.cvg/sg47_2_cif.got.tgz:2048.got - 2010.06.11 16:36:43.
