data_PCOD9389249
_publ_section_title
;
Structure prediction by ZEFSAII (Michael W. Deem and Ramdas Pophale) SiO2 
 PCOD9389249
Probable space group: P M M M
;
_chemical_formula_sum "Si O2"
_cell_formula_units_Z 64
_cell_length_a 30.000000
_cell_length_b 15.000000
_cell_length_c 9.000000
_cell_angle_alpha 90.000000
_cell_angle_beta 90.000000
_cell_angle_gamma 90.000000
_cell_volume 4050.000000
_symmetry_space_group_name_H-M "P M M M"
_symmetry_group_IT_number 47
_symmetry_cell_setting 'orthorhombic'
loop_
_space_group_symop_operation_xyz
x,y,z
-x,-y,z
x,-y,-z
-x,y,-z
-x,-y,-z
x,y,-z
-x,y,z
x,-y,z
loop_
_atom_site_type_symbol
_atom_site_label
_atom_site_fract_x
_atom_site_fract_y
_atom_site_fract_z
Si Si1 0.092381 0.600325 0.319216
Si Si2 0.229936 0.102106 0.820809
Si Si3 0.805224 0.394257 0.676157
Si Si4 0.358341 0.604180 0.179140
Si Si5 0.450892 0.392063 0.325788
Si Si6 0.135070 0.106023 0.675162
Si Si7 0.049483 0.218473 0.681350
Si Si8 0.273048 0.718181 0.179190
O O1 0.091949 0.597936 0.500000
O O2 0.081493 0.500000 0.268199
O O3 0.143518 0.622614 0.277682
O O4 0.060097 0.679834 0.273537
O O5 0.181001 0.126903 0.758951
O O6 0.264736 0.178995 0.774927
O O7 0.239862 0.000000 0.772296
O O8 0.228032 0.101787 0.000000
O O9 0.801861 0.375069 0.500000
O O10 0.797245 0.500000 0.696416
O O11 0.769155 0.337531 0.763120
O O12 0.350764 0.500000 0.224512
O O13 0.406384 0.635061 0.239824
O O14 0.318097 0.668176 0.229823
O O15 0.359576 0.605006 0.000000
O O16 0.447044 0.369099 0.500000
O O17 0.500000 0.361210 0.272237
O O18 0.451611 0.500000 0.316493
O O19 0.141333 0.126921 0.500000
O O20 0.091279 0.158190 0.728840
O O21 0.127500 0.000000 0.688696
O O22 0.049355 0.215436 0.500000
O O23 0.000000 0.190870 0.730656
O O24 0.273452 0.715966 0.000000
#
# Coordination Sequence:
#
# PCOD9389249 Si02
#       8
#     8   8   8   8   8   8   8   8
#     4   8  14  24  36  51  73 100 130 162 192 226
#     4   9  18  32  48  64  82 107 140 174 208 250
#     4   9  17  28  42  60  82 110 141 169 200 242
#     4   9  17  27  38  56  84 114 141 169 203 244
#     4   8  14  25  40  57  79 110 147 181 207 233
#     4   9  17  29  45  63  81 101 126 159 200 245
#     4   9  16  24  36  56  79 101 125 155 194 239
#     4  10  19  29  42  61  86 113 139 172 213 251
#
# _framework density 15.802469
#
# number of rings (size 3 to 8) (size 9 to 14) (size 15 to 20)
#    0.000    3.125    0.000    2.250    0.000    3.500 
#    0.000    5.000    0.000    0.375    0.000    1.750 
#    0.000    0.500    0.000   17.000    0.000   10.000 
#
# Total GULP energy -356349.659115 kJ/mol
# GULP energy per Si atom -5567.963424 kJ/mol
# Density = 1.576650 g / cm^3
# Si number density = 15.802469 Si / 1000 Ang^3
#
#
#
# Elastic Constant Matrix: (Units=GPa)
#
#
# Indices 1 2 3 4 5 6 
#
# 1 100.3371 62.0059 15.0492 0.0000 0.0000 0.0000
# 2 62.0059 61.2959 14.5223 0.0000 0.0000 0.0000
# 3 15.0492 14.5223 -0.0058 0.0000 0.0000 0.0000
# 4 0.0000 0.0000 0.0000 12.6745 0.0000 0.0000
# 5 0.0000 0.0000 0.0000 0.0000 -1.6243 0.0000
# 6 0.0000 0.0000 0.0000 0.0000 0.0000 19.6855
#
#
#
# Elastic Compliance Matrix: (Units=1/GPa)
#
#
# Indices 1 2 3 4 5 6 
#
# 1 0.026560 -0.027523 0.002765 0.000000 0.000000 0.000000
# 2 -0.027523 0.028548 0.065879 0.000000 0.000000 0.000000
# 3 0.002765 0.065879 -0.289865 0.000000 0.000000 0.000000
# 4 0.000000 0.000000 0.000000 0.078898 0.000000 0.000000
# 5 0.000000 0.000000 0.000000 0.000000 -0.615651 0.000000
# 6 0.000000 0.000000 0.000000 0.000000 0.000000 0.050799
#
#
# Mechanical properties :
#
#
# Convention : Reuss Voigt Hill
#
# Bulk Modulus (GPa) = -6.55668 38.30912 15.87622
# Shear Modulus (GPa) = -5.85623 10.81714 2.48045
#
# Velocity S-wave (km/s) = -1.92716 2.61918 1.25422
# Velocity P-wave (km/s) = 3.01829 5.78290 3.48797
#
# Compressibility (1/GPa) = -0.15251622
#
# Stress axis : x y z
#
# Youngs Moduli (GPa) = 37.65039 35.02899 -3.44988
#
# Poissons Ratio (x) = 0.96409 0.00954
# Poissons Ratio (y) = 1.03624 0.22727
# Poissons Ratio (z) = -0.10409 -2.30766
#
# Static dielectric constant tensor:
#      x y z
#    x 1.527490 0.000000 0.000000 
#    y 0.000000 1.545890 0.000000 
#    z 0.000000 0.000000 1.532190 
# 
# From -- ./inp_files/8273.got.cif
#   From: 2010.05.17/outbox.ucp.g08.bks.cvg/sg47_5_cif.got.tgz:8273.got - 2010.06.11 16:36:43.
