data_PCOD9389387
_publ_section_title
;
Structure prediction by ZEFSAII (Michael W. Deem and Ramdas Pophale) SiO2 
 PCOD9389387
Probable space group: P M M M
;
_chemical_formula_sum "Si O2"
_cell_formula_units_Z 52
_cell_length_a 15.000000
_cell_length_b 9.000000
_cell_length_c 21.000000
_cell_angle_alpha 90.000000
_cell_angle_beta 90.000000
_cell_angle_gamma 90.000000
_cell_volume 2835.000000
_symmetry_space_group_name_H-M "P M M M"
_symmetry_group_IT_number 47
_symmetry_cell_setting 'orthorhombic'
loop_
_space_group_symop_operation_xyz
x,y,z
-x,-y,z
x,-y,-z
-x,y,-z
-x,-y,-z
x,y,-z
-x,y,z
x,-y,z
loop_
_atom_site_type_symbol
_atom_site_label
_atom_site_fract_x
_atom_site_fract_y
_atom_site_fract_z
Si Si1 0.605244 0.323975 0.232809
Si Si2 0.281626 0.180267 0.880027
Si Si3 0.893762 0.823969 0.684843
Si Si4 0.224509 0.678339 0.573095
Si Si5 0.603279 0.821907 0.627887
Si Si6 0.894002 0.679328 0.824234
Si Si7 0.608686 0.680962 0.000000
O O1 0.500000 0.312803 0.215745
O O2 0.628329 0.500000 0.233829
O O3 0.664753 0.235724 0.182424
O O4 0.615708 0.251614 0.302410
O O5 0.180664 0.245409 0.870142
O O6 0.338180 0.250490 0.939064
O O7 0.279396 0.000000 0.884474
O O8 0.838223 0.751099 0.627265
O O9 0.876976 0.743363 0.752779
O O10 0.000000 0.810338 0.672353
O O11 0.872356 0.000000 0.690343
O O12 0.195250 0.708408 0.500000
O O13 0.226877 0.500000 0.581855
O O14 0.322808 0.747175 0.583493
O O15 0.500000 0.795215 0.608711
O O16 0.616396 0.000000 0.631314
O O17 0.882989 0.500000 0.824783
O O18 0.000000 0.710461 0.838861
O O19 0.616055 0.500000 0.000000
O O20 0.500000 0.713972 0.000000
#
# Coordination Sequence:
#
# PCOD9389387 Si02
#       7
#     8   8   8   8   8   8   4
#     4  10  20  35  57  84 114 149 190 236 285 340
#     4  12  24  38  60  89 123 159 194 238 289 340
#     4  10  21  38  61  88 117 148 185 235 292 345
#     4  11  24  39  55  77 108 148 191 234 283 345
#     4  10  21  37  57  81 109 142 184 237 293 345
#     4  10  21  39  64  91 119 153 194 239 286 339
#     4  11  25  45  66  89 122 163 205 244 282 333
#
# _framework density 18.342151999999999
#
# number of rings (size 3 to 8) (size 9 to 14) (size 15 to 20)
#    0.000    1.462    0.000    5.308    0.000    8.000 
#    0.000    3.462    0.000    2.308    0.000    0.000 
#    0.000    0.000    0.000    0.000    0.000    0.000 
#
# Total GULP energy -290593.101201 kJ/mol
# GULP energy per Si atom -5588.328869 kJ/mol
# Density = 1.830040 g / cm^3
# Si number density = 18.342152 Si / 1000 Ang^3
#
#
#
# Elastic Constant Matrix: (Units=GPa)
#
#
# Indices 1 2 3 4 5 6 
#
# 1 120.3893 63.5867 61.9530 0.0000 0.0000 0.0000
# 2 63.5867 150.8514 45.4546 0.0000 0.0000 0.0000
# 3 61.9530 45.4546 81.4807 0.0000 0.0000 0.0000
# 4 0.0000 0.0000 0.0000 31.7014 0.0000 0.0000
# 5 0.0000 0.0000 0.0000 0.0000 34.1115 0.0000
# 6 0.0000 0.0000 0.0000 0.0000 0.0000 37.5918
#
#
#
# Elastic Compliance Matrix: (Units=1/GPa)
#
#
# Indices 1 2 3 4 5 6 
#
# 1 0.015022 -0.003474 -0.009483 0.000000 0.000000 0.000000
# 2 -0.003474 0.008772 -0.002252 0.000000 0.000000 0.000000
# 3 -0.009483 -0.002252 0.020740 0.000000 0.000000 0.000000
# 4 0.000000 0.000000 0.000000 0.031544 0.000000 0.000000
# 5 0.000000 0.000000 0.000000 0.000000 0.029316 0.000000
# 6 0.000000 0.000000 0.000000 0.000000 0.000000 0.026602
#
#
# Mechanical properties :
#
#
# Convention : Reuss Voigt Hill
#
# Bulk Modulus (GPa) = 70.85072 77.18998 74.02035
# Shear Modulus (GPa) = 29.91886 32.79610 31.35748
#
# Velocity S-wave (km/s) = 4.04314 4.23308 4.13920
# Velocity P-wave (km/s) = 7.77863 8.12814 7.95531
#
# Compressibility (1/GPa) = 0.01411418
#
# Stress axis : x y z
#
# Youngs Moduli (GPa) = 66.57064 113.99794 48.21695
#
# Poissons Ratio (x) = 0.39607 0.45726
# Poissons Ratio (y) = 0.23129 0.10858
# Poissons Ratio (z) = 0.63131 0.25671
#
# Static dielectric constant tensor:
#      x y z
#    x 1.650060 0.000000 0.000000 
#    y 0.000000 1.613030 0.000000 
#    z 0.000000 0.000000 1.619340 
# 
# From -- ./inp_files/10966.got.cif
#   From: 2010.05.17/outbox.ucp.g08.bks.cvg/sg47_6_cif.got.tgz:10966.got - 2010.06.11 16:36:43.
