data_PCOD9389696
_publ_section_title
;
Structure prediction by ZEFSAII (Michael W. Deem and Ramdas Pophale) SiO2 
 PCOD9389696
Probable space group: P N N N
;
_chemical_formula_sum "Si O2"
_cell_formula_units_Z 40
_cell_length_a 11.970538
_cell_length_b 12.463747
_cell_length_c 14.601196
_cell_angle_alpha 90.000000
_cell_angle_beta 90.000000
_cell_angle_gamma 90.000000
_cell_volume 2178.465694
_symmetry_space_group_name_H-M "P N N N"
_symmetry_group_IT_number 48
_space_group.IT_coordinate_system_code '2'
_symmetry_cell_setting 'orthorhombic'
loop_
_space_group_symop_operation_xyz
x,y,z
1/2-x,1/2-y,z
x,1/2-y,1/2-z
1/2-x,y,1/2-z
-x,-y,-z
1/2+x,1/2+y,-z
-x,1/2+y,1/2+z
1/2+x,-y,1/2+z
loop_
_atom_site_type_symbol
_atom_site_label
_atom_site_fract_x
_atom_site_fract_y
_atom_site_fract_z
Si Si1 0.440234 0.900156 0.754274
Si Si2 0.121827 0.364564 0.716563
Si Si3 0.064403 0.111852 0.993995
Si Si4 0.817280 0.637817 0.672615
Si Si5 0.873063 0.262771 0.406372
O O1 0.559937 0.859988 0.717183
O O2 0.360830 0.854430 0.673175
O O3 0.409879 0.842318 0.848868
O O4 0.435934 0.028091 0.755264
O O5 0.075851 0.250000 0.750000
O O6 0.250000 0.370263 0.750000
O O7 0.110100 0.368213 0.606882
O O8 0.162034 0.102376 0.069410
O O9 0.973068 0.200245 0.027051
O O10 0.000000 0.000000 0.000000
O O11 0.750000 0.750000 0.663574
O O12 0.750000 0.572454 0.750000
O O13 0.750000 0.250000 0.448784
#
# Coordination Sequence:
#
# PCOD9389696 Si02
#       5
#     8   8   8   8   8
#     4  10  19  37  61  94 128 161 211 278 310 381
#     4  11  24  42  64  91 133 181 210 255 331 403
#     4  11  22  41  63  92 132 169 213 266 325 387
#     4  10  19  34  62  96 122 156 213 267 324 368
#     4  10  18  32  63  93 119 156 218 267 317 364
#
# _framework density 18.361547999999999
#
# number of rings (size 3 to 8) (size 9 to 14) (size 15 to 20)
#    0.000    1.600    4.000    7.200    2.800    0.000 
#    0.000    3.000    0.000    0.000    0.000    0.000 
#    0.000    0.000    0.000    0.000    0.000    0.000 
#
# Total GULP energy -222713.768295 kJ/mol
# GULP energy per Si atom -5567.844207 kJ/mol
# Density = 1.831976 g / cm^3
# Si number density = 18.361548 Si / 1000 Ang^3
#
#
#
# Elastic Constant Matrix: (Units=GPa)
#
#
# Indices 1 2 3 4 5 6 
#
# 1 78.7513 23.0922 43.2896 0.0000 0.0000 0.0000
# 2 23.0922 133.1542 45.0484 0.0000 0.0000 0.0000
# 3 43.2896 45.0484 148.3292 0.0000 0.0000 0.0000
# 4 0.0000 0.0000 0.0000 23.1477 0.0000 0.0000
# 5 0.0000 0.0000 0.0000 0.0000 31.1258 0.0000
# 6 0.0000 0.0000 0.0000 0.0000 0.0000 23.4995
#
#
#
# Elastic Compliance Matrix: (Units=1/GPa)
#
#
# Indices 1 2 3 4 5 6 
#
# 1 0.015316 -0.001275 -0.004083 0.000000 0.000000 0.000000
# 2 -0.001275 0.008476 -0.002202 0.000000 0.000000 0.000000
# 3 -0.004083 -0.002202 0.008602 0.000000 0.000000 0.000000
# 4 0.000000 0.000000 0.000000 0.043201 0.000000 0.000000
# 5 0.000000 0.000000 0.000000 0.000000 0.032128 0.000000
# 6 0.000000 0.000000 0.000000 0.000000 0.000000 0.042554
#
#
# Mechanical properties :
#
#
# Convention : Reuss Voigt Hill
#
# Bulk Modulus (GPa) = 57.88774 64.78833 61.33803
# Shear Modulus (GPa) = 29.21319 32.14158 30.67738
#
# Velocity S-wave (km/s) = 3.99306 4.18842 4.09190
# Velocity P-wave (km/s) = 7.27010 7.66497 7.47015
#
# Compressibility (1/GPa) = 0.01727482
#
# Stress axis : x y z
#
# Youngs Moduli (GPa) = 65.28956 117.97697 116.25001
#
# Poissons Ratio (x) = 0.15041 0.47463
# Poissons Ratio (y) = 0.08324 0.25600
# Poissons Ratio (z) = 0.26657 0.25981
#
# Static dielectric constant tensor:
#      x y z
#    x 1.689160 0.000000 0.000000 
#    y 0.000000 1.674370 0.000000 
#    z 0.000000 0.000000 1.672160 
# 
# From -- ./inp_files/26263.got.cif
#   From: 2010.05.17/outbox.cif.g08.bks.cpg/sg48_14_cif.got.tgz:26263.got - 2010.06.03 20:39:00.
