data_PCOD9389139
_publ_section_title
;
Structure prediction by ZEFSAII (Michael W. Deem and Ramdas Pophale) SiO2 
 PCOD9389139
Probable space group: P M M M
;
_chemical_formula_sum "Si O2"
_cell_formula_units_Z 48
_cell_length_a 36.222878
_cell_length_b 9.751529
_cell_length_c 7.638178
_cell_angle_alpha 90.000000
_cell_angle_beta 90.000000
_cell_angle_gamma 90.000000
_cell_volume 2698.021740
_symmetry_space_group_name_H-M "P M M M"
_symmetry_group_IT_number 47
_symmetry_cell_setting 'orthorhombic'
loop_
_space_group_symop_operation_xyz
x,y,z
-x,-y,z
x,-y,-z
-x,y,-z
-x,-y,-z
x,y,-z
-x,y,z
x,-y,z
loop_
_atom_site_type_symbol
_atom_site_label
_atom_site_fract_x
_atom_site_fract_y
_atom_site_fract_z
Si Si1 0.540808 0.843528 0.289407
Si Si2 0.746635 0.332518 0.500000
Si Si3 0.169095 0.333623 0.500000
Si Si4 0.041280 0.841917 0.213106
Si Si5 0.309370 0.667231 0.201239
Si Si6 0.609890 0.345619 0.209058
Si Si7 0.111314 0.336135 0.793418
O O1 0.539579 0.847531 0.500000
O O2 0.500000 0.796531 0.228751
O O3 0.574829 0.748231 0.242215
O O4 0.546188 0.000000 0.227413
O O5 0.747253 0.500000 0.500000
O O6 0.788819 0.284145 0.500000
O O7 0.723271 0.290082 0.329718
O O8 0.170734 0.500000 0.500000
O O9 0.145551 0.294733 0.671389
O O10 0.074529 0.743505 0.265457
O O11 0.000000 0.800888 0.270915
O O12 0.047498 0.000000 0.266339
O O13 0.040826 0.840242 0.000000
O O14 0.310391 0.500000 0.200362
O O15 0.350111 0.708612 0.269606
O O16 0.303942 0.711515 0.000000
O O17 0.603904 0.500000 0.278197
O O18 0.614251 0.355668 0.000000
O O19 0.105841 0.500000 0.775163
O O20 0.117846 0.308273 0.000000
#
# Coordination Sequence:
#
# PCOD9389139 Si02
#       7
#     8   4   4   8   8   8   8
#     4   9  19  34  48  65  92 125 161 196 227 268
#     4   9  16  26  44  66  89 124 154 179 231 283
#     4   9  18  30  42  64  95 121 155 194 225 275
#     4   8  14  26  45  68  92 119 155 196 232 270
#     4   8  15  27  42  66  97 121 148 188 230 278
#     4   9  18  31  47  70  97 121 150 192 236 278
#     4   9  17  29  45  65  92 125 155 188 232 274
#
# _framework density 17.790811999999999
#
# number of rings (size 3 to 8) (size 9 to 14) (size 15 to 20)
#    0.000    3.333    0.000    2.000    1.167    2.333 
#    0.000    8.333    0.000    2.500    0.000    2.333 
#    0.000    2.667    0.000    0.000    0.000    0.000 
#
# Total GULP energy -267296.617210 kJ/mol
# GULP energy per Si atom -5568.679525 kJ/mol
# Density = 1.775032 g / cm^3
# Si number density = 17.790812 Si / 1000 Ang^3
#
#
#
# Elastic Constant Matrix: (Units=GPa)
#
#
# Indices 1 2 3 4 5 6 
#
# 1 215.3442 60.4550 66.5339 0.0000 0.0000 0.0000
# 2 60.4550 28.7374 21.7743 0.0000 0.0000 0.0000
# 3 66.5339 21.7743 69.3900 0.0000 0.0000 0.0000
# 4 0.0000 0.0000 0.0000 11.7754 0.0000 0.0000
# 5 0.0000 0.0000 0.0000 0.0000 64.9755 0.0000
# 6 0.0000 0.0000 0.0000 0.0000 0.0000 -8.5745
#
#
#
# Elastic Compliance Matrix: (Units=1/GPa)
#
#
# Indices 1 2 3 4 5 6 
#
# 1 0.012493 -0.022573 -0.004896 0.000000 0.000000 0.000000
# 2 -0.022573 0.086437 -0.005480 0.000000 0.000000 0.000000
# 3 -0.004896 -0.005480 0.020825 0.000000 0.000000 0.000000
# 4 0.000000 0.000000 0.000000 0.084923 0.000000 0.000000
# 5 0.000000 0.000000 0.000000 0.000000 0.015390 0.000000
# 6 0.000000 0.000000 0.000000 0.000000 0.000000 -0.116625
#
#
# Mechanical properties :
#
#
# Convention : Reuss Voigt Hill
#
# Bulk Modulus (GPa) = 18.56727 67.88868 43.22797
# Shear Modulus (GPa) = 26.69606 24.61584 25.65595
#
# Velocity S-wave (km/s) = 3.87790 3.72375 3.80161
# Velocity P-wave (km/s) = 5.52358 7.53198 6.60456
#
# Compressibility (1/GPa) = 0.05385822
#
# Stress axis : x y z
#
# Youngs Moduli (GPa) = 80.04213 11.56917 48.01872
#
# Poissons Ratio (x) = 0.26115 0.23510
# Poissons Ratio (y) = 1.80678 0.26313
# Poissons Ratio (z) = 0.39188 0.06340
#
# Static dielectric constant tensor:
#      x y z
#    x 1.616900 0.000000 0.000000 
#    y 0.000000 1.584810 0.000000 
#    z 0.000000 0.000000 1.648430 
# 
# From -- ./inp_files/13916.got.cif
#   From: 2010.05.17/outbox.cif.g08.bks.cpg/sg47_7_cif.got.tgz:13916.got - 2010.06.03 20:15:42.
