data_PCOD9389820
_publ_section_title
;
Structure prediction by ZEFSAII (Michael W. Deem and Ramdas Pophale) SiO2 
 PCOD9389820
Probable space group: P N N N
;
_chemical_formula_sum "Si O2"
_cell_formula_units_Z 56
_cell_length_a 8.471282
_cell_length_b 20.529513
_cell_length_c 15.998942
_cell_angle_alpha 90.000000
_cell_angle_beta 90.000000
_cell_angle_gamma 90.000000
_cell_volume 2782.396705
_symmetry_space_group_name_H-M "P N N N"
_symmetry_group_IT_number 48
_space_group.IT_coordinate_system_code '2'
_symmetry_cell_setting 'orthorhombic'
loop_
_space_group_symop_operation_xyz
x,y,z
1/2-x,1/2-y,z
x,1/2-y,1/2-z
1/2-x,y,1/2-z
-x,-y,-z
1/2+x,1/2+y,-z
-x,1/2+y,1/2+z
1/2+x,-y,1/2+z
loop_
_atom_site_type_symbol
_atom_site_label
_atom_site_fract_x
_atom_site_fract_y
_atom_site_fract_z
Si Si1 0.732776 0.082814 0.425633
Si Si2 0.073423 0.251858 0.474354
Si Si3 0.076111 0.109431 0.961929
Si Si4 0.395311 0.692441 0.818924
Si Si5 0.877426 0.969162 0.192888
Si Si6 0.434422 0.105276 0.024855
Si Si7 0.574516 0.579169 0.722107
O O1 0.566169 0.088669 0.475570
O O2 0.740366 0.145809 0.361828
O O3 0.887666 0.074806 0.484698
O O4 0.713321 0.021712 0.365083
O O5 0.250000 0.250000 0.437908
O O6 0.072689 0.311958 0.538205
O O7 0.039319 0.179691 0.504733
O O8 0.961381 0.271841 0.399600
O O9 0.041269 0.078237 0.872553
O O10 0.256397 0.088924 0.990607
O O11 0.387358 0.750000 0.750000
O O12 0.505298 0.638069 0.777307
O O13 0.750000 0.933087 0.250000
O O14 0.984264 0.013349 0.252578
O O15 0.422727 0.097843 0.125043
O O16 0.750000 0.568650 0.750000
#
# Coordination Sequence:
#
# PCOD9389820 Si02
#       7
#     8   8   8   8   8   8   8
#     4  10  22  38  57  87 124 167 201 247 311 372
#     4   9  18  34  53  84 118 155 199 245 296 372
#     4  10  23  40  60  85 124 165 206 255 306 367
#     4  10  19  29  49  83 126 160 193 237 304 370
#     4  11  22  42  59  84 124 159 215 260 302 372
#     4  11  20  38  60  86 121 157 206 251 316 377
#     4  11  21  35  56  87 122 161 202 254 307 363
#
# _framework density 20.126532999999998
#
# number of rings (size 3 to 8) (size 9 to 14) (size 15 to 20)
#    0.000    1.714    2.857    3.857    0.000    2.857 
#    5.143    0.000    0.000    3.857    0.000    0.000 
#    0.000    0.000    0.000    0.000    0.000    0.000 
#
# Total GULP energy -311765.114241 kJ/mol
# GULP energy per Si atom -5567.234183 kJ/mol
# Density = 2.008072 g / cm^3
# Si number density = 20.126533 Si / 1000 Ang^3
#
#
#
# Elastic Constant Matrix: (Units=GPa)
#
#
# Indices 1 2 3 4 5 6 
#
# 1 93.4711 11.0321 4.6610 0.0000 0.0000 0.0000
# 2 11.0321 53.4281 34.1525 0.0000 0.0000 0.0000
# 3 4.6610 34.1525 49.8413 0.0000 0.0000 0.0000
# 4 0.0000 0.0000 0.0000 -12.1349 0.0000 0.0000
# 5 0.0000 0.0000 0.0000 0.0000 10.9156 0.0000
# 6 0.0000 0.0000 0.0000 0.0000 0.0000 17.5234
#
#
#
# Elastic Compliance Matrix: (Units=1/GPa)
#
#
# Indices 1 2 3 4 5 6 
#
# 1 0.010990 -0.002869 0.000938 0.000000 0.000000 0.000000
# 2 -0.002869 0.034054 -0.023066 0.000000 0.000000 0.000000
# 3 0.000938 -0.023066 0.035781 0.000000 0.000000 0.000000
# 4 0.000000 0.000000 0.000000 -0.082407 0.000000 0.000000
# 5 0.000000 0.000000 0.000000 0.000000 0.091612 0.000000
# 6 0.000000 0.000000 0.000000 0.000000 0.000000 0.057067
#
#
# Mechanical properties :
#
#
# Convention : Reuss Voigt Hill
#
# Bulk Modulus (GPa) = 32.43447 32.93687 32.68567
# Shear Modulus (GPa) = 24.11173 13.05381 18.58277
#
# Velocity S-wave (km/s) = 3.46498 2.54950 3.04188
# Velocity P-wave (km/s) = 5.67083 5.00670 5.34908
#
# Compressibility (1/GPa) = 0.03083140
#
# Stress axis : x y z
#
# Youngs Moduli (GPa) = 90.98907 29.36553 27.94748
#
# Poissons Ratio (x) = 0.08425 -0.02622
# Poissons Ratio (y) = 0.26105 0.64464
# Poissons Ratio (z) = -0.08536 0.67735
#
# Static dielectric constant tensor:
#      x y z
#    x 2.621520 0.000000 0.000000 
#    y 0.000000 1.772220 0.000000 
#    z 0.000000 0.000000 1.953240 
# 
# From -- ./inp_files/30554.got.cif
#   From: 2010.05.17/outbox.cif.g08.bks.cpg/sg48_16_cif.got.tgz:30554.got - 2010.06.03 20:39:00.
