data_PCOD9389211
_publ_section_title
;
Structure prediction by ZEFSAII (Michael W. Deem and Ramdas Pophale) SiO2 
 PCOD9389211
Probable space group: P M M M
;
_chemical_formula_sum "Si O2"
_cell_formula_units_Z 32
_cell_length_a 7.721588
_cell_length_b 18.067563
_cell_length_c 10.795180
_cell_angle_alpha 90.000000
_cell_angle_beta 90.000000
_cell_angle_gamma 90.000000
_cell_volume 1506.038559
_symmetry_space_group_name_H-M "P M M M"
_symmetry_group_IT_number 47
_symmetry_cell_setting 'orthorhombic'
loop_
_space_group_symop_operation_xyz
x,y,z
-x,-y,z
x,-y,-z
-x,y,-z
-x,-y,-z
x,y,-z
-x,y,z
x,-y,z
loop_
_atom_site_type_symbol
_atom_site_label
_atom_site_fract_x
_atom_site_fract_y
_atom_site_fract_z
Si Si1 0.803822 0.410602 0.000000
Si Si2 0.287053 0.263684 0.364649
Si Si3 0.802051 0.000000 0.149584
Si Si4 0.702229 0.583035 0.726325
Si Si5 0.296339 0.164049 0.140362
O O1 0.714996 0.392264 0.129469
O O2 0.808508 0.500000 0.000000
O O3 0.000000 0.382397 0.000000
O O4 0.237640 0.234549 0.500000
O O5 0.500000 0.264091 0.360429
O O6 0.226364 0.348564 0.350368
O O7 0.224103 0.216537 0.247460
O O8 0.720178 0.078590 0.182793
O O9 0.000000 0.000000 0.191281
O O10 0.797457 0.000000 0.000000
O O11 0.500000 0.576795 0.694905
O O12 0.778158 0.500000 0.713167
O O13 0.500000 0.180645 0.130524
O O14 0.222948 0.172173 0.000000
#
# Coordination Sequence:
#
# PCOD9389211 Si02
#       5
#     4   8   4   8   8
#     4   9  17  29  45  67  95 124 159 206 255 299
#     4   9  18  31  48  73 104 134 167 208 249 291
#     4   9  17  31  52  77 102 124 154 201 250 294
#     4   9  17  29  48  72  98 130 169 211 252 292
#     4   9  17  30  51  75  98 128 165 201 240 292
#
# _framework density 21.247796000000001
#
# number of rings (size 3 to 8) (size 9 to 14) (size 15 to 20)
#    0.000    3.000    0.000    0.750    1.750    3.500 
#    0.000    4.375    0.000    6.750    0.000    3.500 
#    0.000    0.000    0.000    0.000    0.000    0.000 
#
# Total GULP energy -178291.833509 kJ/mol
# GULP energy per Si atom -5571.619797 kJ/mol
# Density = 2.119944 g / cm^3
# Si number density = 21.247796 Si / 1000 Ang^3
#
#
#
# Elastic Constant Matrix: (Units=GPa)
#
#
# Indices 1 2 3 4 5 6 
#
# 1 33.0835 2.5262 -0.3489 0.0000 0.0000 0.0000
# 2 2.5262 117.1780 84.0146 0.0000 0.0000 0.0000
# 3 -0.3489 84.0146 120.7600 0.0000 0.0000 0.0000
# 4 0.0000 0.0000 0.0000 20.2009 0.0000 0.0000
# 5 0.0000 0.0000 0.0000 0.0000 -7.4632 0.0000
# 6 0.0000 0.0000 0.0000 0.0000 0.0000 -13.8243
#
#
#
# Elastic Compliance Matrix: (Units=1/GPa)
#
#
# Indices 1 2 3 4 5 6 
#
# 1 0.030347 -0.001431 0.001083 0.000000 0.000000 0.000000
# 2 -0.001431 0.017095 -0.011898 0.000000 0.000000 0.000000
# 3 0.001083 -0.011898 0.016561 0.000000 0.000000 0.000000
# 4 0.000000 0.000000 0.000000 0.049503 0.000000 0.000000
# 5 0.000000 0.000000 0.000000 0.000000 -0.133990 0.000000
# 6 0.000000 0.000000 0.000000 0.000000 0.000000 -0.072336
#
#
# Mechanical properties :
#
#
# Convention : Reuss Voigt Hill
#
# Bulk Modulus (GPa) = 25.30795 49.26726 37.28761
# Shear Modulus (GPa) = -90.64840 12.10463 -39.27188
#
# Velocity S-wave (km/s) = -6.53874 2.38941 -4.30383
# Velocity P-wave (km/s) = 6.71343 5.55425 2.66650
#
# Compressibility (1/GPa) = 0.03951327
#
# Stress axis : x y z
#
# Youngs Moduli (GPa) = 32.95194 58.49602 60.38170
#
# Poissons Ratio (x) = 0.08370 -0.06540
# Poissons Ratio (y) = 0.04715 0.71839
# Poissons Ratio (z) = -0.03569 0.69596
#
# Static dielectric constant tensor:
#      x y z
#    x 1.782860 0.000000 0.000000 
#    y 0.000000 1.786080 0.000000 
#    z 0.000000 0.000000 1.773930 
# 
# From -- ./inp_files/8602.got.cif
#   From: 2010.05.17/outbox.cif.g08.bks.cpg/sg47_5_cif.got.tgz:8602.got - 2010.06.03 20:15:42.
