data_PCOD9389177
_publ_section_title
;
Structure prediction by ZEFSAII (Michael W. Deem and Ramdas Pophale) SiO2 
 PCOD9389177
Probable space group: P M M M
;
_chemical_formula_sum "Si O2"
_cell_formula_units_Z 40
_cell_length_a 7.498441
_cell_length_b 28.815696
_cell_length_c 9.446113
_cell_angle_alpha 90.000000
_cell_angle_beta 90.000000
_cell_angle_gamma 90.000000
_cell_volume 2041.048050
_symmetry_space_group_name_H-M "P M M M"
_symmetry_group_IT_number 47
_symmetry_cell_setting 'orthorhombic'
loop_
_space_group_symop_operation_xyz
x,y,z
-x,-y,z
x,-y,-z
-x,y,-z
-x,-y,-z
x,y,-z
-x,y,z
x,-y,z
loop_
_atom_site_type_symbol
_atom_site_label
_atom_site_fract_x
_atom_site_fract_y
_atom_site_fract_z
Si Si1 0.500000 0.052792 0.672186
Si Si2 0.282256 0.500000 0.163060
Si Si3 0.718300 0.590760 0.337263
Si Si4 0.209969 0.872993 0.330862
Si Si5 0.712556 0.679043 0.838544
Si Si6 0.786094 0.782652 0.161465
O O1 0.500000 0.050763 0.500000
O O2 0.327753 0.083027 0.713450
O O3 0.500000 0.000000 0.724362
O O4 0.500000 0.500000 0.161723
O O5 0.226467 0.453920 0.246593
O O6 0.224089 0.500000 0.000000
O O7 0.775629 0.587906 0.500000
O O8 0.500000 0.590872 0.338261
O O9 0.779229 0.637937 0.260950
O O10 0.228912 0.867139 0.500000
O O11 0.273750 0.826092 0.254261
O O12 0.000000 0.880136 0.300823
O O13 0.500000 0.672854 0.847872
O O14 0.743358 0.731169 0.783949
O O15 0.783629 0.676260 0.000000
O O16 0.000000 0.785549 0.156603
O O17 0.717951 0.785689 0.000000
#
# Coordination Sequence:
#
# PCOD9389177 Si02
#       6
#     4   4   8   8   8   8
#     4   9  18  32  51  77 105 133 169 210 251 296
#     4   9  15  23  37  55  80 117 154 189 232 284
#     4   9  16  25  37  57  85 115 149 190 236 283
#     4   9  18  32  50  73 100 130 166 208 251 296
#     4   9  17  28  42  62  88 117 150 188 231 282
#     4   9  18  32  49  69  94 126 161 196 238 289
#
# _framework density 19.597774000000001
#
# number of rings (size 3 to 8) (size 9 to 14) (size 15 to 20)
#    0.000    3.000    0.000    0.900    1.400    4.800 
#    0.000    2.000    0.000    1.200    0.000    3.500 
#    0.000    5.600    0.000    0.000    0.000    0.000 
#
# Total GULP energy -223134.790032 kJ/mol
# GULP energy per Si atom -5578.369751 kJ/mol
# Density = 1.955317 g / cm^3
# Si number density = 19.597774 Si / 1000 Ang^3
#
#
#
# Elastic Constant Matrix: (Units=GPa)
#
#
# Indices 1 2 3 4 5 6 
#
# 1 61.8159 40.3982 25.0115 0.0000 0.0000 0.0000
# 2 40.3982 234.9393 99.3845 0.0000 0.0000 0.0000
# 3 25.0115 99.3845 90.1388 0.0000 0.0000 0.0000
# 4 0.0000 0.0000 0.0000 55.8448 0.0000 0.0000
# 5 0.0000 0.0000 0.0000 0.0000 2.0498 0.0000
# 6 0.0000 0.0000 0.0000 0.0000 0.0000 122.9505
#
#
#
# Elastic Compliance Matrix: (Units=1/GPa)
#
#
# Indices 1 2 3 4 5 6 
#
# 1 0.018669 -0.001909 -0.003075 0.000000 0.000000 0.000000
# 2 -0.001909 0.008172 -0.008481 0.000000 0.000000 0.000000
# 3 -0.003075 -0.008481 0.021298 0.000000 0.000000 0.000000
# 4 0.000000 0.000000 0.000000 0.017907 0.000000 0.000000
# 5 0.000000 0.000000 0.000000 0.000000 0.487863 0.000000
# 6 0.000000 0.000000 0.000000 0.000000 0.000000 0.008133
#
#
# Mechanical properties :
#
#
# Convention : Reuss Voigt Hill
#
# Bulk Modulus (GPa) = 47.14990 79.60919 63.37955
# Shear Modulus (GPa) = 8.38867 50.97566 29.68217
#
# Velocity S-wave (km/s) = 2.07116 5.10563 3.89597
# Velocity P-wave (km/s) = 5.46174 8.68713 7.25593
#
# Compressibility (1/GPa) = 0.02120895
#
# Stress axis : x y z
#
# Youngs Moduli (GPa) = 53.56451 122.36528 46.95319
#
# Poissons Ratio (x) = 0.23364 0.14438
# Poissons Ratio (y) = 0.10227 0.39820
# Poissons Ratio (z) = 0.16471 1.03774
#
# Static dielectric constant tensor:
#      x y z
#    x 1.745470 0.000000 0.000000 
#    y 0.000000 1.660280 0.000000 
#    z 0.000000 0.000000 1.668980 
# 
# From -- ./inp_files/1744.got.cif
#   From: 2010.05.17/outbox.cif.g08.bks.cpg/sg47_1_cif.got.tgz:1744.got - 2010.06.03 20:15:42.
