data_PCOD9389454
_publ_section_title
;
Structure prediction by ZEFSAII (Michael W. Deem and Ramdas Pophale) SiO2 
 PCOD9389454
Probable space group: P M M M
;
_chemical_formula_sum "Si O2"
_cell_formula_units_Z 64
_cell_length_a 15.000000
_cell_length_b 24.000000
_cell_length_c 9.000000
_cell_angle_alpha 90.000000
_cell_angle_beta 90.000000
_cell_angle_gamma 90.000000
_cell_volume 3240.000000
_symmetry_space_group_name_H-M "P M M M"
_symmetry_group_IT_number 47
_symmetry_cell_setting 'orthorhombic'
loop_
_space_group_symop_operation_xyz
x,y,z
-x,-y,z
x,-y,-z
-x,y,-z
-x,-y,-z
x,y,-z
-x,y,z
x,-y,z
loop_
_atom_site_type_symbol
_atom_site_label
_atom_site_fract_x
_atom_site_fract_y
_atom_site_fract_z
Si Si1 0.102733 0.217732 0.321812
Si Si2 0.603884 0.273062 0.674656
Si Si3 0.279985 0.820234 0.823035
Si Si4 0.398431 0.595440 0.677367
Si Si5 0.905940 0.933551 0.168862
Si Si6 0.897767 0.347488 0.322526
Si Si7 0.706016 0.061379 0.181521
Si Si8 0.222705 0.560191 0.176455
O O1 0.108543 0.209915 0.500000
O O2 0.179680 0.183685 0.241342
O O3 0.120850 0.282885 0.289443
O O4 0.000000 0.207230 0.277461
O O5 0.623775 0.265761 0.500000
O O6 0.500000 0.259480 0.699412
O O7 0.666696 0.232843 0.765666
O O8 0.614389 0.338546 0.707224
O O9 0.331455 0.877811 0.779003
O O10 0.274253 0.819243 0.000000
O O11 0.387734 0.587254 0.500000
O O12 0.500000 0.580549 0.715638
O O13 0.323297 0.563736 0.765596
O O14 0.807955 0.930824 0.236505
O O15 0.000000 0.914850 0.240132
O O16 0.913767 0.000000 0.153488
O O17 0.902417 0.910319 0.000000
O O18 0.890639 0.353583 0.500000
O O19 0.831587 0.389429 0.245689
O O20 0.000000 0.359002 0.279368
O O21 0.672642 0.000000 0.230238
O O22 0.707598 0.058837 0.000000
O O23 0.184240 0.500000 0.221109
O O24 0.221187 0.564324 0.000000
#
# Coordination Sequence:
#
# PCOD9389454 Si02
#       8
#     8   8   8   8   8   8   8   8
#     4   9  19  36  55  75 104 142 178 213 260 316
#     4   9  19  37  59  80 103 133 168 208 260 320
#     4  11  21  30  49  82 110 132 166 216 266 310
#     4   9  19  37  60  82 102 131 175 219 255 300
#     4   7   9  15  29  47  69 105 152 192 223 261
#     4   9  19  37  59  78  97 132 185 233 265 299
#     4   8  15  27  40  59  94 136 170 201 245 301
#     4  11  24  37  50  76 114 149 176 207 257 317
#
# _framework density 19.753086
#
# number of rings (size 3 to 8) (size 9 to 14) (size 15 to 20)
#    0.000    2.875    0.000    4.125    0.000    7.000 
#    0.000    6.250    0.000    1.875    0.000    3.500 
#    0.000    0.000    0.000    0.000    0.000    0.000 
#
# Total GULP energy -356382.519869 kJ/mol
# GULP energy per Si atom -5568.476873 kJ/mol
# Density = 1.970813 g / cm^3
# Si number density = 19.753086 Si / 1000 Ang^3
#
#
#
# Elastic Constant Matrix: (Units=GPa)
#
#
# Indices 1 2 3 4 5 6 
#
# 1 17.0574 53.6910 30.5121 0.0000 0.0000 0.0000
# 2 53.6910 94.9912 39.1439 0.0000 0.0000 0.0000
# 3 30.5121 39.1439 4.1155 0.0000 0.0000 0.0000
# 4 0.0000 0.0000 0.0000 24.8422 0.0000 0.0000
# 5 0.0000 0.0000 0.0000 0.0000 164.8484 0.0000
# 6 0.0000 0.0000 0.0000 0.0000 0.0000 -12.0049
#
#
#
# Elastic Compliance Matrix: (Units=1/GPa)
#
#
# Indices 1 2 3 4 5 6 
#
# 1 -0.134496 0.114709 -0.093887 0.000000 0.000000 0.000000
# 2 0.114709 -0.101439 0.114371 0.000000 0.000000 0.000000
# 3 -0.093887 0.114371 -0.148769 0.000000 0.000000 0.000000
# 4 0.000000 0.000000 0.000000 0.040254 0.000000 0.000000
# 5 0.000000 0.000000 0.000000 0.000000 0.006066 0.000000
# 6 0.000000 0.000000 0.000000 0.000000 0.000000 -0.083300
#
#
# Mechanical properties :
#
#
# Convention : Reuss Voigt Hill
#
# Bulk Modulus (GPa) = -8.74763 40.31756 15.78496
# Shear Modulus (GPa) = -6.84768 35.05828 14.10530
#
# Velocity S-wave (km/s) = -1.86391 4.21744 2.67513
# Velocity P-wave (km/s) = 3.01170 6.64611 4.18930
#
# Compressibility (1/GPa) = -0.11431672
#
# Stress axis : x y z
#
# Youngs Moduli (GPa) = -7.43517 -9.85819 -6.72184
#
# Poissons Ratio (x) = 1.13082 -0.63109
# Poissons Ratio (y) = 0.85288 0.76879
# Poissons Ratio (z) = -0.69806 1.12749
#
# Static dielectric constant tensor:
#      x y z
#    x 1.821540 0.000000 0.000000 
#    y 0.000000 1.823160 0.000000 
#    z 0.000000 0.000000 1.662780 
# 
# From -- ./inp_files/7961.got.cif
#   From: 2010.05.17/outbox.ucp.g08.bks.cvg/sg47_4_cif.got.tgz:7961.got - 2010.06.11 16:36:43.
