data_PCOD9389236
_publ_section_title
;
Structure prediction by ZEFSAII (Michael W. Deem and Ramdas Pophale) SiO2 
 PCOD9389236
Probable space group: P M M M
;
_chemical_formula_sum "Si O2"
_cell_formula_units_Z 64
_cell_length_a 21.000000
_cell_length_b 9.000000
_cell_length_c 21.000000
_cell_angle_alpha 90.000000
_cell_angle_beta 90.000000
_cell_angle_gamma 90.000000
_cell_volume 3969.000000
_symmetry_space_group_name_H-M "P M M M"
_symmetry_group_IT_number 47
_symmetry_cell_setting 'orthorhombic'
loop_
_space_group_symop_operation_xyz
x,y,z
-x,-y,z
x,-y,-z
-x,y,-z
-x,-y,-z
x,y,-z
-x,y,z
x,-y,z
loop_
_atom_site_type_symbol
_atom_site_label
_atom_site_fract_x
_atom_site_fract_y
_atom_site_fract_z
Si Si1 0.115849 0.325077 0.251979
Si Si2 0.794301 0.178877 0.427920
Si Si3 0.208920 0.822031 0.073637
Si Si4 0.250025 0.179317 0.713794
Si Si5 0.928864 0.324365 0.605365
Si Si6 0.314438 0.320468 0.835135
Si Si7 0.929724 0.821897 0.875183
Si Si8 0.575912 0.820740 0.075068
O O1 0.130281 0.500000 0.242940
O O2 0.181311 0.233793 0.260361
O O3 0.077571 0.310634 0.318012
O O4 0.078652 0.260663 0.191960
O O5 0.770907 0.220853 0.500000
O O6 0.754513 0.221153 0.362838
O O7 0.866208 0.242716 0.421068
O O8 0.797500 0.000000 0.426060
O O9 0.254456 0.733748 0.121695
O O10 0.134183 0.786616 0.085157
O O11 0.217305 0.000000 0.084738
O O12 0.225501 0.792006 0.000000
O O13 0.300688 0.253300 0.763610
O O14 0.255734 0.000000 0.717731
O O15 0.924080 0.500000 0.589763
O O16 0.000000 0.273099 0.585773
O O17 0.317005 0.500000 0.831700
O O18 0.376590 0.257680 0.874071
O O19 0.000000 0.786202 0.902569
O O20 0.928216 0.000000 0.865060
O O21 0.500000 0.788876 0.085592
O O22 0.584102 0.000000 0.080578
O O23 0.589961 0.782521 0.000000
#
# Coordination Sequence:
#
# PCOD9389236 Si02
#       8
#     8   8   8   8   8   8   8   8
#     4  10  18  30  47  67  90 118 154 203 260 311
#     4   9  19  34  50  69  93 122 159 208 262 309
#     4  10  21  36  52  69  94 130 170 213 261 313
#     4  10  19  33  53  73  97 129 166 209 254 305
#     4   9  18  30  43  62  89 121 156 193 243 314
#     4  12  23  34  53  81 110 140 174 215 255 296
#     4  10  20  32  47  66  88 119 161 209 263 320
#     4   9  19  37  60  85 115 152 188 216 247 294
#
# _framework density 16.124969
#
# number of rings (size 3 to 8) (size 9 to 14) (size 15 to 20)
#    0.000    2.125    1.250    3.000    0.000    5.000 
#    0.000    3.125    0.000    0.000    0.000    1.750 
#    0.000    0.500    0.000    5.750    0.000    1.625 
#
# Total GULP energy -356794.515526 kJ/mol
# GULP energy per Si atom -5574.914305 kJ/mol
# Density = 1.608827 g / cm^3
# Si number density = 16.124969 Si / 1000 Ang^3
#
#
#
# Elastic Constant Matrix: (Units=GPa)
#
#
# Indices 1 2 3 4 5 6 
#
# 1 83.5536 29.6480 43.7429 0.0000 0.0000 0.0000
# 2 29.6480 54.5438 35.1665 0.0000 0.0000 0.0000
# 3 43.7429 35.1665 115.6790 0.0000 0.0000 0.0000
# 4 0.0000 0.0000 0.0000 19.3773 0.0000 0.0000
# 5 0.0000 0.0000 0.0000 0.0000 22.3961 0.0000
# 6 0.0000 0.0000 0.0000 0.0000 0.0000 17.8112
#
#
#
# Elastic Compliance Matrix: (Units=1/GPa)
#
#
# Indices 1 2 3 4 5 6 
#
# 1 0.016416 -0.006120 -0.004347 0.000000 0.000000 0.000000
# 2 -0.006120 0.025085 -0.005312 0.000000 0.000000 0.000000
# 3 -0.004347 -0.005312 0.011903 0.000000 0.000000 0.000000
# 4 0.000000 0.000000 0.000000 0.051607 0.000000 0.000000
# 5 0.000000 0.000000 0.000000 0.000000 0.044651 0.000000
# 6 0.000000 0.000000 0.000000 0.000000 0.000000 0.056144
#
#
# Mechanical properties :
#
#
# Convention : Reuss Voigt Hill
#
# Bulk Modulus (GPa) = 45.77407 52.32126 49.04766
# Shear Modulus (GPa) = 20.43770 21.59819 21.01794
#
# Velocity S-wave (km/s) = 3.56400 3.66379 3.61424
# Velocity P-wave (km/s) = 6.73682 7.10039 6.92100
#
# Compressibility (1/GPa) = 0.02184643
#
# Stress axis : x y z
#
# Youngs Moduli (GPa) = 60.91661 39.86397 84.01201
#
# Poissons Ratio (x) = 0.24399 0.36519
# Poissons Ratio (y) = 0.37284 0.44623
# Poissons Ratio (z) = 0.26480 0.21174
#
# Static dielectric constant tensor:
#      x y z
#    x 1.537510 0.000000 0.000000 
#    y 0.000000 1.540050 0.000000 
#    z 0.000000 0.000000 1.572310 
# 
# From -- ./inp_files/30181.got.cif
#   From: 2010.05.17/outbox.ucp.g08.bks.cvg/sg47_16_cif.got.tgz:30181.got - 2010.06.11 16:36:43.
