data_PCOD9389255
_publ_section_title
;
Structure prediction by ZEFSAII (Michael W. Deem and Ramdas Pophale) SiO2 
 PCOD9389255
Probable space group: P M M M
;
_chemical_formula_sum "Si O2"
_cell_formula_units_Z 64
_cell_length_a 9.000000
_cell_length_b 18.000000
_cell_length_c 21.000000
_cell_angle_alpha 90.000000
_cell_angle_beta 90.000000
_cell_angle_gamma 90.000000
_cell_volume 3402.000000
_symmetry_space_group_name_H-M "P M M M"
_symmetry_group_IT_number 47
_symmetry_cell_setting 'orthorhombic'
loop_
_space_group_symop_operation_xyz
x,y,z
-x,-y,z
x,-y,-z
-x,y,-z
-x,-y,-z
x,y,-z
-x,y,z
x,-y,z
loop_
_atom_site_type_symbol
_atom_site_label
_atom_site_fract_x
_atom_site_fract_y
_atom_site_fract_z
Si Si1 0.680988 0.080075 0.710596
Si Si2 0.324926 0.383171 0.764493
Si Si3 0.178067 0.747201 0.931066
Si Si4 0.169541 0.272857 0.574302
Si Si5 0.178495 0.421495 0.636568
Si Si6 0.678009 0.116988 0.570799
Si Si7 0.322243 0.214303 0.799191
Si Si8 0.176523 0.580697 0.104823
O O1 0.500000 0.084884 0.708714
O O2 0.731091 0.081707 0.636855
O O3 0.732969 0.148875 0.753095
O O4 0.721037 0.000000 0.738573
O O5 0.500000 0.394944 0.754338
O O6 0.229108 0.418293 0.709011
O O7 0.294449 0.294693 0.767777
O O8 0.272454 0.415326 0.831417
O O9 0.250819 0.783352 0.869104
O O10 0.209790 0.658321 0.929612
O O11 0.000000 0.755215 0.926676
O O12 0.227571 0.776503 0.000000
O O13 0.156576 0.289747 0.500000
O O14 0.234858 0.345697 0.606447
O O15 0.274646 0.202261 0.579731
O O16 0.000000 0.256609 0.597627
O O17 0.228934 0.500000 0.607825
O O18 0.000000 0.419043 0.631339
O O19 0.733503 0.093361 0.500000
O O20 0.500000 0.108358 0.568912
O O21 0.500000 0.207107 0.806306
O O22 0.202441 0.500000 0.073765
O O23 0.000000 0.583790 0.119936
#
# Coordination Sequence:
#
# PCOD9389255 Si02
#       8
#     8   8   8   8   8   8   8   8
#     4   9  17  30  50  76 103 128 156 192 232 275
#     4  10  19  30  45  65  90 120 154 190 230 278
#     4   9  18  32  50  72  96 124 160 200 241 284
#     4   9  18  32  48  64  84 115 154 193 234 280
#     4  10  20  31  43  61  85 114 152 199 244 281
#     4   9  17  30  50  75 101 128 157 190 229 276
#     4   9  18  32  50  71  95 125 159 195 234 278
#     4   9  17  29  45  66  94 125 155 190 231 274
#
# _framework density 18.812463000000001
#
# number of rings (size 3 to 8) (size 9 to 14) (size 15 to 20)
#    0.000    2.750    0.000    1.500    0.000    5.000 
#    0.000    4.375    0.000    1.875    0.000   10.500 
#    0.000    0.000    0.000    0.000    0.000    0.000 
#
# Total GULP energy -356337.417766 kJ/mol
# GULP energy per Si atom -5567.772153 kJ/mol
# Density = 1.876965 g / cm^3
# Si number density = 18.812463 Si / 1000 Ang^3
#
#
#
# Elastic Constant Matrix: (Units=GPa)
#
#
# Indices 1 2 3 4 5 6 
#
# 1 -12.7021 12.0986 4.5150 0.0000 0.0000 0.0000
# 2 12.0986 96.0175 67.6256 0.0000 0.0000 0.0000
# 3 4.5150 67.6256 66.6094 0.0000 0.0000 0.0000
# 4 0.0000 0.0000 0.0000 -11.8170 0.0000 0.0000
# 5 0.0000 0.0000 0.0000 0.0000 15.8243 0.0000
# 6 0.0000 0.0000 0.0000 0.0000 0.0000 4.7284
#
#
#
# Elastic Compliance Matrix: (Units=1/GPa)
#
#
# Indices 1 2 3 4 5 6 
#
# 1 -0.066347 0.018223 -0.014004 0.000000 0.000000 0.000000
# 2 0.018223 0.031544 -0.033261 0.000000 0.000000 0.000000
# 3 -0.014004 -0.033261 0.049730 0.000000 0.000000 0.000000
# 4 0.000000 0.000000 0.000000 -0.084624 0.000000 0.000000
# 5 0.000000 0.000000 0.000000 0.000000 0.063194 0.000000
# 6 0.000000 0.000000 0.000000 0.000000 0.000000 0.211489
#
#
# Mechanical properties :
#
#
# Convention : Reuss Voigt Hill
#
# Bulk Modulus (GPa) = -23.17182 35.37813 6.10316
# Shear Modulus (GPa) = 20.10576 6.12616 13.11596
#
# Velocity S-wave (km/s) = 3.27272 1.80652 2.64331
# Velocity P-wave (km/s) = 1.39172 4.81642 3.54505
#
# Compressibility (1/GPa) = -0.04315588
#
# Stress axis : x y z
#
# Youngs Moduli (GPa) = -15.07220 31.70141 20.10844
#
# Poissons Ratio (x) = -0.57770 0.28160
# Poissons Ratio (y) = 0.27466 0.66882
# Poissons Ratio (z) = -0.21107 1.05441
#
# Static dielectric constant tensor:
#      x y z
#    x 1.631470 0.000000 0.000000 
#    y 0.000000 1.709890 0.000000 
#    z 0.000000 0.000000 1.668960 
# 
# From -- ./inp_files/11621.got.cif
#   From: 2010.05.17/outbox.ucp.g08.bks.cvg/sg47_6_cif.got.tgz:11621.got - 2010.06.11 16:36:43.
