data_PCOD9389915
_publ_section_title
;
Structure prediction by ZEFSAII (Michael W. Deem and Ramdas Pophale) SiO2 
 PCOD9389915
Probable space group: P N N N
;
_chemical_formula_sum "Si O2"
_cell_formula_units_Z 58
_cell_length_a 15.529520
_cell_length_b 8.123143
_cell_length_c 23.275285
_cell_angle_alpha 90.000000
_cell_angle_beta 90.000000
_cell_angle_gamma 90.000000
_cell_volume 2936.142562
_symmetry_space_group_name_H-M "P N N N"
_symmetry_group_IT_number 48
_space_group.IT_coordinate_system_code '2'
_symmetry_cell_setting 'orthorhombic'
loop_
_space_group_symop_operation_xyz
x,y,z
1/2-x,1/2-y,z
x,1/2-y,1/2-z
1/2-x,y,1/2-z
-x,-y,-z
1/2+x,1/2+y,-z
-x,1/2+y,1/2+z
1/2+x,-y,1/2+z
loop_
_atom_site_type_symbol
_atom_site_label
_atom_site_fract_x
_atom_site_fract_y
_atom_site_fract_z
Si Si1 0.456844 0.460999 0.701257
Si Si2 0.400324 0.634371 0.077342
Si Si3 0.356062 0.940764 0.155550
Si Si4 0.651142 0.318421 0.476559
Si Si5 0.148214 0.754123 0.846342
Si Si6 0.053353 0.096909 0.833437
Si Si7 0.269045 0.075903 0.054758
Si Si8 0.750000 0.250000 0.750000
O O1 0.547194 0.488302 0.670025
O O2 0.397951 0.621618 0.694645
O O3 0.479078 0.433779 0.768325
O O4 0.418425 0.290585 0.673193
O O5 0.357876 0.783664 0.113127
O O6 0.481141 0.584802 0.116551
O O7 0.323543 0.507252 0.066544
O O8 0.415163 0.709430 0.013934
O O9 0.307139 0.870734 0.210722
O O10 0.311579 0.080623 0.117860
O O11 0.750000 0.250000 0.479233
O O12 0.628025 0.315273 0.410274
O O13 0.665836 0.486337 0.510999
O O14 0.250000 0.750000 0.836546
O O15 0.118138 0.944716 0.843436
O O16 0.250000 0.250000 0.028707
#
# Coordination Sequence:
#
# PCOD9389915 Si02
#       8
#     8   8   8   8   8   8   8   2
#     4  10  23  41  60  91 128 155 209 259 305 368
#     4   9  17  37  59  85 125 163 199 241 305 365
#     4  10  19  33  57  86 123 167 202 238 284 366
#     4   8  18  39  60  85 119 158 206 257 300 379
#     4  11  24  44  65  87 116 159 214 267 328 367
#     4  10  22  40  63  88 122 162 194 261 313 369
#     4  10  19  33  56  90 126 162 200 243 300 366
#     4  12  16  32  62  84 120 186 210 220 298 380
#
# _framework density 19.753810999999999
#
# number of rings (size 3 to 8) (size 9 to 14) (size 15 to 20)
#    0.000    2.207    1.379    2.897    1.931    2.207 
#    7.448    7.931    0.000    0.000    0.000    0.000 
#    0.000    0.000    0.000    0.000    0.000    0.000 
#
# Total GULP energy -322890.771639 kJ/mol
# GULP energy per Si atom -5567.082270 kJ/mol
# Density = 1.970885 g / cm^3
# Si number density = 19.753811 Si / 1000 Ang^3
#
#
#
# Elastic Constant Matrix: (Units=GPa)
#
#
# Indices 1 2 3 4 5 6 
#
# 1 57.9861 41.0630 -1.0469 0.0000 0.0000 0.0000
# 2 41.0630 74.9450 13.0110 0.0000 0.0000 0.0000
# 3 -1.0469 13.0110 52.1614 0.0000 0.0000 0.0000
# 4 0.0000 0.0000 0.0000 9.9158 0.0000 0.0000
# 5 0.0000 0.0000 0.0000 0.0000 14.0649 0.0000
# 6 0.0000 0.0000 0.0000 0.0000 0.0000 27.3672
#
#
#
# Elastic Compliance Matrix: (Units=1/GPa)
#
#
# Indices 1 2 3 4 5 6 
#
# 1 0.029284 -0.016878 0.004798 0.000000 0.000000 0.000000
# 2 -0.016878 0.023675 -0.006244 0.000000 0.000000 0.000000
# 3 0.004798 -0.006244 0.020825 0.000000 0.000000 0.000000
# 4 0.000000 0.000000 0.000000 0.100849 0.000000 0.000000
# 5 0.000000 0.000000 0.000000 0.000000 0.071099 0.000000
# 6 0.000000 0.000000 0.000000 0.000000 0.000000 0.036540
#
#
# Mechanical properties :
#
#
# Convention : Reuss Voigt Hill
#
# Bulk Modulus (GPa) = 26.92851 32.34963 29.63907
# Shear Modulus (GPa) = 15.09207 19.07394 17.08301
#
# Velocity S-wave (km/s) = 2.76707 3.11075 2.94393
# Velocity P-wave (km/s) = 4.88575 5.41427 5.15679
#
# Compressibility (1/GPa) = 0.03713536
#
# Stress axis : x y z
#
# Youngs Moduli (GPa) = 34.14789 42.23902 48.01904
#
# Poissons Ratio (x) = 0.71291 -0.23038
# Poissons Ratio (y) = 0.57635 0.29984
# Poissons Ratio (z) = -0.16383 0.26375
#
# Static dielectric constant tensor:
#      x y z
#    x 1.675640 0.000000 0.000000 
#    y 0.000000 1.742450 0.000000 
#    z 0.000000 0.000000 1.726290 
# 
# From -- ./inp_files/36557.got.cif
#   From: 2010.05.17/outbox.cif.g08.bks.cpg/sg48_19_cif.got.tgz:36557.got - 2010.06.03 20:39:00.
