data_PCOD9389829
_publ_section_title
;
Structure prediction by ZEFSAII (Michael W. Deem and Ramdas Pophale) SiO2 
 PCOD9389829
Probable space group: P N N N
;
_chemical_formula_sum "Si O2"
_cell_formula_units_Z 38
_cell_length_a 29.751895
_cell_length_b 11.199408
_cell_length_c 6.354662
_cell_angle_alpha 90.000000
_cell_angle_beta 90.000000
_cell_angle_gamma 90.000000
_cell_volume 2117.396324
_symmetry_space_group_name_H-M "P N N N"
_symmetry_group_IT_number 48
_space_group.IT_coordinate_system_code '2'
_symmetry_cell_setting 'orthorhombic'
loop_
_space_group_symop_operation_xyz
x,y,z
1/2-x,1/2-y,z
x,1/2-y,1/2-z
1/2-x,y,1/2-z
-x,-y,-z
1/2+x,1/2+y,-z
-x,1/2+y,1/2+z
1/2+x,-y,1/2+z
loop_
_atom_site_type_symbol
_atom_site_label
_atom_site_fract_x
_atom_site_fract_y
_atom_site_fract_z
Si Si1 0.750000 0.750000 0.750000
Si Si2 0.387434 0.450622 0.969518
Si Si3 0.049088 0.608261 0.247312
Si Si4 0.451227 0.078667 0.895419
Si Si5 0.575647 0.750000 0.750000
Si Si6 0.204929 0.373999 0.629213
O O1 0.779644 0.668578 0.599335
O O2 0.410805 0.401710 0.760517
O O3 0.335754 0.465514 0.904322
O O4 0.418559 0.554221 0.072131
O O5 0.392949 0.347110 0.141547
O O6 0.053343 0.750000 0.250000
O O7 0.995765 0.576031 0.249796
O O8 0.059151 0.542594 0.024556
O O9 0.453846 0.181576 0.073598
O O10 0.190992 0.250000 0.750000
O O11 0.250000 0.416872 0.750000
#
# Coordination Sequence:
#
# PCOD9389829 Si02
#       6
#     2   8   8   8   4   8
#     4   8  16  32  52  74 110 136 154 208 268 318
#     4  11  20  33  53  78 108 142 175 214 262 313
#     4  10  22  36  51  76 106 144 184 216 256 307
#     4  10  21  35  54  77 106 141 177 220 261 306
#     4  10  19  30  52  79 106 138 176 214 259 317
#     4   9  18  30  49  78 107 134 166 209 266 324
#
# _framework density 17.946569
#
# number of rings (size 3 to 8) (size 9 to 14) (size 15 to 20)
#    0.000    2.316    0.000    4.421    0.000    9.263 
#    0.000    0.000    0.000    0.000    0.000   11.053 
#    0.000    0.000    0.000    0.000    0.000    0.000 
#
# Total GULP energy -211540.574429 kJ/mol
# GULP energy per Si atom -5566.857222 kJ/mol
# Density = 1.790572 g / cm^3
# Si number density = 17.946569 Si / 1000 Ang^3
#
#
#
# Elastic Constant Matrix: (Units=GPa)
#
#
# Indices 1 2 3 4 5 6 
#
# 1 132.0560 23.4391 51.6099 0.0000 0.0000 0.0000
# 2 23.4391 88.6340 33.6366 0.0000 0.0000 0.0000
# 3 51.6099 33.6366 80.1475 0.0000 0.0000 0.0000
# 4 0.0000 0.0000 0.0000 12.6034 0.0000 0.0000
# 5 0.0000 0.0000 0.0000 0.0000 -2.6060 0.0000
# 6 0.0000 0.0000 0.0000 0.0000 0.0000 14.9061
#
#
#
# Elastic Compliance Matrix: (Units=1/GPa)
#
#
# Indices 1 2 3 4 5 6 
#
# 1 0.010124 -0.000242 -0.006417 0.000000 0.000000 0.000000
# 2 -0.000242 0.013425 -0.005479 0.000000 0.000000 0.000000
# 3 -0.006417 -0.005479 0.018909 0.000000 0.000000 0.000000
# 4 0.000000 0.000000 0.000000 0.079344 0.000000 0.000000
# 5 0.000000 0.000000 0.000000 0.000000 -0.383736 0.000000
# 6 0.000000 0.000000 0.000000 0.000000 0.000000 0.067087
#
#
# Mechanical properties :
#
#
# Convention : Reuss Voigt Hill
#
# Bulk Modulus (GPa) = 54.99996 57.57874 56.28935
# Shear Modulus (GPa) = -30.39296 17.79084 -6.30106
#
# Velocity S-wave (km/s) = -4.11971 3.15194 -1.87580
# Velocity P-wave (km/s) = 2.84318 6.73791 5.17122
#
# Compressibility (1/GPa) = 0.01818183
#
# Stress axis : x y z
#
# Youngs Moduli (GPa) = 98.77995 74.48531 52.88547
#
# Poissons Ratio (x) = 0.01800 0.33939
# Poissons Ratio (y) = 0.02388 0.28975
# Poissons Ratio (z) = 0.63392 0.40809
#
# Static dielectric constant tensor:
#      x y z
#    x 1.660060 0.000000 0.000000 
#    y 0.000000 1.647190 0.000000 
#    z 0.000000 0.000000 1.638330 
# 
# From -- ./inp_files/2595.got.cif
#   From: 2010.05.17/outbox.cif.g08.bks.cpg/sg48_2_cif.got.tgz:2595.got - 2010.06.03 20:39:00.
