data_PCOD9389701
_publ_section_title
;
Structure prediction by ZEFSAII (Michael W. Deem and Ramdas Pophale) SiO2 
 PCOD9389701
Probable space group: P N N N
;
_chemical_formula_sum "Si O2"
_cell_formula_units_Z 56
_cell_length_a 9.307654
_cell_length_b 14.092220
_cell_length_c 20.106477
_cell_angle_alpha 90.000000
_cell_angle_beta 90.000000
_cell_angle_gamma 90.000000
_cell_volume 2637.276267
_symmetry_space_group_name_H-M "P N N N"
_symmetry_group_IT_number 48
_space_group.IT_coordinate_system_code '2'
_symmetry_cell_setting 'orthorhombic'
loop_
_space_group_symop_operation_xyz
x,y,z
1/2-x,1/2-y,z
x,1/2-y,1/2-z
1/2-x,y,1/2-z
-x,-y,-z
1/2+x,1/2+y,-z
-x,1/2+y,1/2+z
1/2+x,-y,1/2+z
loop_
_atom_site_type_symbol
_atom_site_label
_atom_site_fract_x
_atom_site_fract_y
_atom_site_fract_z
Si Si1 0.380618 0.322954 0.037654
Si Si2 0.317624 0.601493 0.398350
Si Si3 0.750000 0.750000 0.165347
Si Si4 0.362965 0.832482 0.617842
Si Si5 0.266752 0.999790 0.969049
Si Si6 0.033742 0.696129 0.406104
Si Si7 0.083912 0.063270 0.664809
Si Si8 0.750000 0.088669 0.250000
O O1 0.250000 0.250000 0.034161
O O2 0.469277 0.314381 0.105172
O O3 0.321390 0.423694 0.012190
O O4 0.502939 0.299619 0.983863
O O5 0.342504 0.560693 0.472532
O O6 0.146727 0.613850 0.388727
O O7 0.388491 0.705321 0.391107
O O8 0.412717 0.549704 0.343043
O O9 0.623755 0.693432 0.126478
O O10 0.849977 0.663143 0.193212
O O11 0.250000 0.750000 0.597361
O O12 0.326503 0.926417 0.574427
O O13 0.332693 0.852143 0.694727
O O14 0.360156 0.052556 0.912090
O O15 0.145449 0.979788 0.708822
#
# Coordination Sequence:
#
# PCOD9389701 Si02
#       8
#     8   8   4   8   8   8   8   4
#     4  12  22  36  61  99 135 162 202 258 334 403
#     4  10  20  31  56  88 130 162 203 254 324 390
#     4  10  18  35  60  86 128 160 199 256 330 394
#     4  11  24  43  66  90 124 176 218 268 316 376
#     4  11  21  35  61  95 130 161 204 258 331 401
#     4  10  18  33  53  92 133 163 188 249 332 400
#     4  10  21  38  58  88 117 168 212 270 317 381
#     4  10  25  43  64  82 116 164 241 274 307 370
#
# _framework density 21.234030000000001
#
# number of rings (size 3 to 8) (size 9 to 14) (size 15 to 20)
#    0.000    1.429    3.571    2.786    0.000    2.571 
#    0.000    0.000    0.000   10.286    0.000    8.000 
#    4.286    0.000    0.000    0.000    0.000    0.000 
#
# Total GULP energy -312066.263186 kJ/mol
# GULP energy per Si atom -5572.611843 kJ/mol
# Density = 2.118570 g / cm^3
# Si number density = 21.234030 Si / 1000 Ang^3
#
#
#
# Elastic Constant Matrix: (Units=GPa)
#
#
# Indices 1 2 3 4 5 6 
#
# 1 141.4970 34.2869 52.3363 0.0000 0.0000 0.0000
# 2 34.2869 59.4524 17.8860 0.0000 0.0000 0.0000
# 3 52.3363 17.8860 74.0495 0.0000 0.0000 0.0000
# 4 0.0000 0.0000 0.0000 11.4963 0.0000 0.0000
# 5 0.0000 0.0000 0.0000 0.0000 -6.1347 0.0000
# 6 0.0000 0.0000 0.0000 0.0000 0.0000 14.4575
#
#
#
# Elastic Compliance Matrix: (Units=1/GPa)
#
#
# Indices 1 2 3 4 5 6 
#
# 1 0.010416 -0.004089 -0.006374 0.000000 0.000000 0.000000
# 2 -0.004089 0.019744 -0.001879 0.000000 0.000000 0.000000
# 3 -0.006374 -0.001879 0.018463 0.000000 0.000000 0.000000
# 4 0.000000 0.000000 0.000000 0.086984 0.000000 0.000000
# 5 0.000000 0.000000 0.000000 0.000000 -0.163006 0.000000
# 6 0.000000 0.000000 0.000000 0.000000 0.000000 0.069168
#
#
# Mechanical properties :
#
#
# Convention : Reuss Voigt Hill
#
# Bulk Modulus (GPa) = 41.77303 53.77970 47.77637
# Shear Modulus (GPa) = 67.17507 15.32980 41.25243
#
# Velocity S-wave (km/s) = 5.63065 2.68982 4.41245
# Velocity P-wave (km/s) = 7.87323 5.91853 6.96479
#
# Compressibility (1/GPa) = 0.02393889
#
# Stress axis : x y z
#
# Youngs Moduli (GPa) = 96.00878 50.64895 54.16201
#
# Poissons Ratio (x) = 0.20712 0.34522
# Poissons Ratio (y) = 0.39261 0.10175
# Poissons Ratio (z) = 0.61194 0.09515
#
# Static dielectric constant tensor:
#      x y z
#    x 1.853830 0.000000 0.000000 
#    y 0.000000 1.882110 0.000000 
#    z 0.000000 0.000000 1.796960 
# 
# From -- ./inp_files/33626.got.cif
#   From: 2010.05.17/outbox.cif.g08.bks.cpg/sg48_17_cif.got.tgz:33626.got - 2010.06.03 20:39:00.
