data_PCOD9389174
_publ_section_title
;
Structure prediction by ZEFSAII (Michael W. Deem and Ramdas Pophale) SiO2 
 PCOD9389174
Probable space group: P M M M
;
_chemical_formula_sum "Si O2"
_cell_formula_units_Z 32
_cell_length_a 9.304159
_cell_length_b 23.359756
_cell_length_c 7.772123
_cell_angle_alpha 90.000000
_cell_angle_beta 90.000000
_cell_angle_gamma 90.000000
_cell_volume 1689.215628
_symmetry_space_group_name_H-M "P M M M"
_symmetry_group_IT_number 47
_symmetry_cell_setting 'orthorhombic'
loop_
_space_group_symop_operation_xyz
x,y,z
-x,-y,z
x,-y,-z
-x,y,-z
-x,-y,-z
x,y,-z
-x,y,z
x,-y,z
loop_
_atom_site_type_symbol
_atom_site_label
_atom_site_fract_x
_atom_site_fract_y
_atom_site_fract_z
Si Si1 0.333424 0.226205 0.708360
Si Si2 0.834895 0.886697 0.710516
Si Si3 0.334702 0.000000 0.710555
Si Si4 0.675809 0.565733 0.500000
Si Si5 0.324999 0.353194 0.191319
O O1 0.331865 0.228003 0.500000
O O2 0.500000 0.218831 0.761603
O O3 0.240815 0.172061 0.765667
O O4 0.280077 0.287912 0.771601
O O5 0.833322 0.886668 0.500000
O O6 0.747175 0.942652 0.765836
O O7 0.000000 0.889627 0.765213
O O8 0.500000 0.000000 0.765640
O O9 0.334168 0.000000 0.500000
O O10 0.723021 0.500000 0.500000
O O11 0.500000 0.565152 0.500000
O O12 0.722754 0.601897 0.334157
O O13 0.500000 0.351874 0.199476
O O14 0.282415 0.370281 0.000000
#
# Coordination Sequence:
#
# PCOD9389174 Si02
#       5
#     8   8   4   4   8
#     4   9  15  25  41  59  83 118 158 198 241 290
#     4   9  16  24  36  57  86 119 156 201 249 292
#     4   9  15  23  35  55  86 123 162 200 241 293
#     4   9  16  26  40  62  95 130 161 196 239 287
#     4   9  16  26  41  62  89 123 162 201 241 287
#
# _framework density 18.943701999999998
#
# number of rings (size 3 to 8) (size 9 to 14) (size 15 to 20)
#    0.000    3.000    1.250    1.125    0.000    5.000 
#    0.000    2.500    0.000    0.750    0.000    0.875 
#    0.000    9.000    0.000    2.250    0.000    2.500 
#
# Total GULP energy -178485.301297 kJ/mol
# GULP energy per Si atom -5577.665666 kJ/mol
# Density = 1.890059 g / cm^3
# Si number density = 18.943702 Si / 1000 Ang^3
#
#
#
# Elastic Constant Matrix: (Units=GPa)
#
#
# Indices 1 2 3 4 5 6 
#
# 1 75.2357 69.5158 24.7633 0.0000 0.0000 0.0000
# 2 69.5158 213.1743 72.4059 0.0000 0.0000 0.0000
# 3 24.7633 72.4059 76.6782 0.0000 0.0000 0.0000
# 4 0.0000 0.0000 0.0000 -9.6420 0.0000 0.0000
# 5 0.0000 0.0000 0.0000 0.0000 -0.1832 0.0000
# 6 0.0000 0.0000 0.0000 0.0000 0.0000 -3.8835
#
#
#
# Elastic Compliance Matrix: (Units=1/GPa)
#
#
# Indices 1 2 3 4 5 6 
#
# 1 0.019033 -0.006064 -0.000421 0.000000 0.000000 0.000000
# 2 -0.006064 0.008838 -0.006387 0.000000 0.000000 0.000000
# 3 -0.000421 -0.006387 0.019209 0.000000 0.000000 0.000000
# 4 0.000000 0.000000 0.000000 -0.103713 0.000000 0.000000
# 5 0.000000 0.000000 0.000000 0.000000 -5.457601 0.000000
# 6 0.000000 0.000000 0.000000 0.000000 0.000000 -0.257502
#
#
# Mechanical properties :
#
#
# Convention : Reuss Voigt Hill
#
# Bulk Modulus (GPa) = 46.86926 77.60648 62.23787
# Shear Modulus (GPa) = -0.87125 10.48514 4.80695
#
# Velocity S-wave (km/s) = -0.67891 2.35519 1.59468
# Velocity P-wave (km/s) = 4.91737 6.96073 6.02629
#
# Compressibility (1/GPa) = 0.02133594
#
# Stress axis : x y z
#
# Youngs Moduli (GPa) = 52.54122 113.15140 52.05993
#
# Poissons Ratio (x) = 0.68610 0.02191
# Poissons Ratio (y) = 0.31859 0.33251
# Poissons Ratio (z) = 0.02212 0.72270
#
# Static dielectric constant tensor:
#      x y z
#    x 1.620420 0.000000 0.000000 
#    y 0.000000 1.627390 0.000000 
#    z 0.000000 0.000000 1.689620 
# 
# From -- ./inp_files/1282.got.cif
#   From: 2010.05.17/outbox.cif.g08.bks.cpg/sg47_1_cif.got.tgz:1282.got - 2010.06.03 20:15:42.
