data_PCOD9389697
_publ_section_title
;
Structure prediction by ZEFSAII (Michael W. Deem and Ramdas Pophale) SiO2 
 PCOD9389697
Probable space group: P N N N
;
_chemical_formula_sum "Si O2"
_cell_formula_units_Z 58
_cell_length_a 32.160082
_cell_length_b 9.796716
_cell_length_c 10.271225
_cell_angle_alpha 90.000000
_cell_angle_beta 90.000000
_cell_angle_gamma 90.000000
_cell_volume 3236.084913
_symmetry_space_group_name_H-M "P N N N"
_symmetry_group_IT_number 48
_space_group.IT_coordinate_system_code '2'
_symmetry_cell_setting 'orthorhombic'
loop_
_space_group_symop_operation_xyz
x,y,z
1/2-x,1/2-y,z
x,1/2-y,1/2-z
1/2-x,y,1/2-z
-x,-y,-z
1/2+x,1/2+y,-z
-x,1/2+y,1/2+z
1/2+x,-y,1/2+z
loop_
_atom_site_type_symbol
_atom_site_label
_atom_site_fract_x
_atom_site_fract_y
_atom_site_fract_z
Si Si1 0.873208 0.904937 0.876560
Si Si2 0.825370 0.397766 0.125014
Si Si3 0.134124 0.092100 0.425107
Si Si4 0.866405 0.102929 0.109877
Si Si5 0.250000 0.750000 0.750000
Si Si6 0.041163 0.838150 0.916273
Si Si7 0.464872 0.009776 0.328026
Si Si8 0.453856 0.951149 0.037336
O O1 0.859870 0.938890 0.728888
O O2 0.861112 0.755400 0.927129
O O3 0.923411 0.907248 0.864548
O O4 0.859024 0.017372 0.979683
O O5 0.850964 0.258690 0.093185
O O6 0.843430 0.451495 0.262418
O O7 0.779378 0.343926 0.159500
O O8 0.833999 0.507341 0.013658
O O9 0.087287 0.047231 0.471655
O O10 0.915746 0.099824 0.133441
O O11 0.003536 0.886538 0.825463
O O12 0.051176 0.682315 0.949252
O O13 0.029360 0.902029 0.056528
O O14 0.457329 0.932142 0.193250
O O15 0.500000 0.000000 0.000000
#
# Coordination Sequence:
#
# PCOD9389697 Si02
#       8
#     8   8   8   8   2   8   8   8
#     4   9  19  36  51  78 116 154 185 235 275 336
#     4  10  20  37  61  90 108 142 183 231 289 354
#     4  10  20  34  54  82 113 149 199 225 281 343
#     4   9  19  33  56  78 108 142 191 236 283 331
#     4   8  20  40  64  88 124 132 168 244 308 340
#     4  10  18  33  47  65  97 142 194 241 276 330
#     4   9  20  32  45  65 101 147 189 235 291 314
#     4  11  21  29  47  70 102 145 190 242 280 324
#
# _framework density 17.922892999999998
#
# number of rings (size 3 to 8) (size 9 to 14) (size 15 to 20)
#    0.000    2.483    1.379    1.241    1.931    2.759 
#    0.000    0.000    0.000   13.241    0.000    7.724 
#    0.000    0.000    0.000    0.000    0.000    0.000 
#
# Total GULP energy -323098.516980 kJ/mol
# GULP energy per Si atom -5570.664086 kJ/mol
# Density = 1.788210 g / cm^3
# Si number density = 17.922893 Si / 1000 Ang^3
#
#
#
# Elastic Constant Matrix: (Units=GPa)
#
#
# Indices 1 2 3 4 5 6 
#
# 1 73.9371 21.4648 29.7007 0.0000 0.0000 0.0000
# 2 21.4648 60.6349 41.5919 0.0000 0.0000 0.0000
# 3 29.7007 41.5919 79.4854 0.0000 0.0000 0.0000
# 4 0.0000 0.0000 0.0000 33.9729 0.0000 0.0000
# 5 0.0000 0.0000 0.0000 0.0000 18.6878 0.0000
# 6 0.0000 0.0000 0.0000 0.0000 0.0000 21.7174
#
#
#
# Elastic Compliance Matrix: (Units=1/GPa)
#
#
# Indices 1 2 3 4 5 6 
#
# 1 0.016146 -0.002460 -0.004746 0.000000 0.000000 0.000000
# 2 -0.002460 0.026101 -0.012738 0.000000 0.000000 0.000000
# 3 -0.004746 -0.012738 0.021020 0.000000 0.000000 0.000000
# 4 0.000000 0.000000 0.000000 0.029435 0.000000 0.000000
# 5 0.000000 0.000000 0.000000 0.000000 0.053511 0.000000
# 6 0.000000 0.000000 0.000000 0.000000 0.000000 0.046046
#
#
# Mechanical properties :
#
#
# Convention : Reuss Voigt Hill
#
# Bulk Modulus (GPa) = 42.77595 44.39689 43.58642
# Shear Modulus (GPa) = 20.83860 22.96228 21.90044
#
# Velocity S-wave (km/s) = 3.41351 3.58323 3.49940
# Velocity P-wave (km/s) = 6.28128 6.47643 6.37961
#
# Compressibility (1/GPa) = 0.02337762
#
# Stress axis : x y z
#
# Youngs Moduli (GPa) = 61.93645 38.31292 47.57443
#
# Poissons Ratio (x) = 0.09426 0.22577
# Poissons Ratio (y) = 0.15239 0.60602
# Poissons Ratio (z) = 0.29392 0.48804
#
# Static dielectric constant tensor:
#      x y z
#    x 1.622850 0.000000 0.000000 
#    y 0.000000 1.627140 0.000000 
#    z 0.000000 0.000000 1.637010 
# 
# From -- ./inp_files/23825.got.cif
#   From: 2010.05.17/outbox.cif.g08.bks.cpg/sg48_12_cif.got.tgz:23825.got - 2010.06.03 20:39:00.
