data_PCOD9389409
_publ_section_title
;
Structure prediction by ZEFSAII (Michael W. Deem and Ramdas Pophale) SiO2 
 PCOD9389409
Probable space group: P M M M
;
_chemical_formula_sum "Si O2"
_cell_formula_units_Z 40
_cell_length_a 9.000000
_cell_length_b 15.000000
_cell_length_c 15.000000
_cell_angle_alpha 90.000000
_cell_angle_beta 90.000000
_cell_angle_gamma 90.000000
_cell_volume 2025.000000
_symmetry_space_group_name_H-M "P M M M"
_symmetry_group_IT_number 47
_symmetry_cell_setting 'orthorhombic'
loop_
_space_group_symop_operation_xyz
x,y,z
-x,-y,z
x,-y,-z
-x,y,-z
-x,-y,-z
x,y,-z
-x,y,z
x,-y,z
loop_
_atom_site_type_symbol
_atom_site_label
_atom_site_fract_x
_atom_site_fract_y
_atom_site_fract_z
Si Si1 0.167455 0.748961 0.703354
Si Si2 0.327594 0.102260 0.186470
Si Si3 0.335495 0.669371 0.000000
Si Si4 0.824740 0.852918 0.000000
Si Si5 0.161314 0.597495 0.851513
Si Si6 0.333113 0.598797 0.605829
O O1 0.256596 0.832659 0.740852
O O2 0.162267 0.678691 0.784491
O O3 0.243444 0.686725 0.630507
O O4 0.000000 0.774594 0.679149
O O5 0.500000 0.126209 0.172837
O O6 0.245629 0.110511 0.091203
O O7 0.318149 0.000000 0.215700
O O8 0.299292 0.610321 0.084635
O O9 0.500000 0.706508 0.000000
O O10 0.217409 0.748947 0.000000
O O11 0.000000 0.867459 0.000000
O O12 0.168353 0.500000 0.809797
O O13 0.000000 0.601046 0.898375
O O14 0.344734 0.597426 0.500000
O O15 0.500000 0.605676 0.644646
O O16 0.272819 0.500000 0.629915
#
# Coordination Sequence:
#
# PCOD9389409 Si02
#       6
#     8   8   4   4   8   8
#     4  11  22  36  58  86 116 150 188 234 288 341
#     4  11  24  41  61  85 113 148 192 242 293 344
#     4  12  23  34  51  74 104 146 193 235 278 329
#     4  12  23  38  59  82 110 148 193 241 296 345
#     4  10  21  36  52  73 107 149 187 227 279 335
#     4   9  19  37  61  89 122 159 195 231 276 334
#
# _framework density 19.753086
#
# number of rings (size 3 to 8) (size 9 to 14) (size 15 to 20)
#    0.000    1.400    2.000    4.800    0.000    6.800 
#    0.000    1.000    0.000    0.600    0.000    4.200 
#    0.000    0.000    0.000    0.000    0.000    0.000 
#
# Total GULP energy -222920.289795 kJ/mol
# GULP energy per Si atom -5573.007245 kJ/mol
# Density = 1.970813 g / cm^3
# Si number density = 19.753086 Si / 1000 Ang^3
#
#
#
# Elastic Constant Matrix: (Units=GPa)
#
#
# Indices 1 2 3 4 5 6 
#
# 1 122.2068 64.3697 41.1298 0.0000 0.0000 0.0000
# 2 64.3697 111.7306 29.2451 0.0000 0.0000 0.0000
# 3 41.1298 29.2451 57.6432 0.0000 0.0000 0.0000
# 4 0.0000 0.0000 0.0000 52.3422 0.0000 0.0000
# 5 0.0000 0.0000 0.0000 0.0000 21.2786 0.0000
# 6 0.0000 0.0000 0.0000 0.0000 0.0000 18.2451
#
#
#
# Elastic Compliance Matrix: (Units=1/GPa)
#
#
# Indices 1 2 3 4 5 6 
#
# 1 0.013637 -0.006123 -0.006624 0.000000 0.000000 0.000000
# 2 -0.006123 0.013070 -0.002262 0.000000 0.000000 0.000000
# 3 -0.006624 -0.002262 0.023222 0.000000 0.000000 0.000000
# 4 0.000000 0.000000 0.000000 0.019105 0.000000 0.000000
# 5 0.000000 0.000000 0.000000 0.000000 0.046996 0.000000
# 6 0.000000 0.000000 0.000000 0.000000 0.000000 0.054809
#
#
# Mechanical properties :
#
#
# Convention : Reuss Voigt Hill
#
# Bulk Modulus (GPa) = 50.22321 62.34109 56.28215
# Shear Modulus (GPa) = 24.09706 28.82890 26.46298
#
# Velocity S-wave (km/s) = 3.49652 3.82444 3.66415
# Velocity P-wave (km/s) = 6.46386 7.15056 6.81586
#
# Compressibility (1/GPa) = 0.01991111
#
# Stress axis : x y z
#
# Youngs Moduli (GPa) = 73.32807 76.51311 43.06218
#
# Poissons Ratio (x) = 0.46848 0.28525
# Poissons Ratio (y) = 0.44898 0.09741
# Poissons Ratio (z) = 0.48574 0.17308
#
# Static dielectric constant tensor:
#      x y z
#    x 1.783600 0.000000 0.000000 
#    y 0.000000 1.681400 0.000000 
#    z 0.000000 0.000000 1.734940 
# 
# From -- ./inp_files/5697.got.cif
#   From: 2010.05.17/outbox.ucp.g08.bks.cvg/sg47_3_cif.got.tgz:5697.got - 2010.06.11 16:36:43.
