data_PCOD9389325
_publ_section_title
;
Structure prediction by ZEFSAII (Michael W. Deem and Ramdas Pophale) SiO2 
 PCOD9389325
Probable space group: P M M M
;
_chemical_formula_sum "Si O2"
_cell_formula_units_Z 48
_cell_length_a 9.000000
_cell_length_b 18.000000
_cell_length_c 15.000000
_cell_angle_alpha 90.000000
_cell_angle_beta 90.000000
_cell_angle_gamma 90.000000
_cell_volume 2430.000000
_symmetry_space_group_name_H-M "P M M M"
_symmetry_group_IT_number 47
_symmetry_cell_setting 'orthorhombic'
loop_
_space_group_symop_operation_xyz
x,y,z
-x,-y,z
x,-y,-z
-x,y,-z
-x,-y,-z
x,y,-z
-x,y,z
x,-y,z
loop_
_atom_site_type_symbol
_atom_site_label
_atom_site_fract_x
_atom_site_fract_y
_atom_site_fract_z
Si Si1 0.178059 0.079873 0.728185
Si Si2 0.822136 0.619843 0.602141
Si Si3 0.171469 0.291334 0.895420
Si Si4 0.180007 0.205939 0.598549
Si Si5 0.674608 0.582421 0.781328
Si Si6 0.323135 0.867117 0.100487
O O1 0.236378 0.149232 0.671728
O O2 0.247030 0.083906 0.825253
O O3 0.000000 0.086287 0.735342
O O4 0.211111 0.000000 0.685538
O O5 0.787271 0.598559 0.500000
O O6 0.788100 0.707666 0.612738
O O7 0.731659 0.581729 0.679890
O O8 0.000000 0.609254 0.614005
O O9 0.234070 0.356614 0.835097
O O10 0.266628 0.216914 0.884396
O O11 0.000000 0.275301 0.871830
O O12 0.177883 0.311894 0.000000
O O13 0.232324 0.184827 0.500000
O O14 0.000000 0.200951 0.598387
O O15 0.500000 0.599774 0.784123
O O16 0.697203 0.500000 0.819680
O O17 0.500000 0.870342 0.107566
O O18 0.279872 0.888200 0.000000
#
# Coordination Sequence:
#
# PCOD9389325 Si02
#       6
#     8   8   8   8   8   8
#     4  10  20  32  50  79 111 143 180 222 267 314
#     4   9  18  34  57  81 104 138 187 237 278 318
#     4  10  21  38  61  85 107 135 175 224 274 323
#     4   8  15  30  52  77 104 134 172 219 267 313
#     4  11  24  38  53  78 113 150 183 218 265 321
#     4  10  21  37  57  79 104 138 179 221 268 323
#
# _framework density 19.753086
#
# number of rings (size 3 to 8) (size 9 to 14) (size 15 to 20)
#    0.000    2.333    0.000    3.500    0.000    6.667 
#    0.000    6.667    0.000    1.500    0.000    1.167 
#    0.000    0.000    0.000    0.000    0.000    0.000 
#
# Total GULP energy -267860.455106 kJ/mol
# GULP energy per Si atom -5580.426148 kJ/mol
# Density = 1.970813 g / cm^3
# Si number density = 19.753086 Si / 1000 Ang^3
#
#
#
# Elastic Constant Matrix: (Units=GPa)
#
#
# Indices 1 2 3 4 5 6 
#
# 1 -6.6216 10.0686 6.5165 0.0000 0.0000 0.0000
# 2 10.0686 50.3058 45.2101 0.0000 0.0000 0.0000
# 3 6.5165 45.2101 53.5996 0.0000 0.0000 0.0000
# 4 0.0000 0.0000 0.0000 -119.8199 0.0000 0.0000
# 5 0.0000 0.0000 0.0000 0.0000 9.6540 0.0000
# 6 0.0000 0.0000 0.0000 0.0000 0.0000 17.0016
#
#
#
# Elastic Compliance Matrix: (Units=1/GPa)
#
#
# Indices 1 2 3 4 5 6 
#
# 1 -0.109514 0.041136 -0.021383 0.000000 0.000000 0.000000
# 2 0.041136 0.066704 -0.061264 0.000000 0.000000 0.000000
# 3 -0.021383 -0.061264 0.072932 0.000000 0.000000 0.000000
# 4 0.000000 0.000000 0.000000 -0.008346 0.000000 0.000000
# 5 0.000000 0.000000 0.000000 0.000000 0.103584 0.000000
# 6 0.000000 0.000000 0.000000 0.000000 0.000000 0.058818
#
#
# Mechanical properties :
#
#
# Convention : Reuss Voigt Hill
#
# Bulk Modulus (GPa) = -18.90322 24.54157 2.81918
# Shear Modulus (GPa) = 20.03480 -16.26695 1.88393
#
# Velocity S-wave (km/s) = 3.18820 -2.87281 0.97765
# Velocity P-wave (km/s) = 1.99056 1.20296 1.64460
#
# Compressibility (1/GPa) = -0.05290104
#
# Stress axis : x y z
#
# Youngs Moduli (GPa) = -9.13125 14.99165 13.71147
#
# Poissons Ratio (x) = -0.61669 0.29319
# Poissons Ratio (y) = 0.37562 0.84002
# Poissons Ratio (z) = -0.19525 0.91845
#
# Static dielectric constant tensor:
#      x y z
#    x 1.653230 0.000000 0.000000 
#    y 0.000000 1.729590 0.000000 
#    z 0.000000 0.000000 1.698800 
# 
# From -- ./inp_files/6332.got.cif
#   From: 2010.05.17/outbox.ucp.g08.bks.cvg/sg47_4_cif.got.tgz:6332.got - 2010.06.11 16:36:43.
