data_PCOD9389374
_publ_section_title
;
Structure prediction by ZEFSAII (Michael W. Deem and Ramdas Pophale) SiO2 
 PCOD9389374
Probable space group: P M M M
;
_chemical_formula_sum "Si O2"
_cell_formula_units_Z 64
_cell_length_a 15.000000
_cell_length_b 9.000000
_cell_length_c 24.000000
_cell_angle_alpha 90.000000
_cell_angle_beta 90.000000
_cell_angle_gamma 90.000000
_cell_volume 3240.000000
_symmetry_space_group_name_H-M "P M M M"
_symmetry_group_IT_number 47
_symmetry_cell_setting 'orthorhombic'
loop_
_space_group_symop_operation_xyz
x,y,z
-x,-y,z
x,-y,-z
-x,y,-z
-x,-y,-z
x,y,-z
-x,y,z
x,-y,z
loop_
_atom_site_type_symbol
_atom_site_label
_atom_site_fract_x
_atom_site_fract_y
_atom_site_fract_z
Si Si1 0.399848 0.335181 0.566275
Si Si2 0.732159 0.827831 0.368494
Si Si3 0.396902 0.179183 0.164287
Si Si4 0.277806 0.674959 0.258866
Si Si5 0.101076 0.180902 0.563251
Si Si6 0.099527 0.823191 0.779228
Si Si7 0.901562 0.323477 0.901112
Si Si8 0.274502 0.824994 0.061269
O O1 0.405065 0.339679 0.500000
O O2 0.500000 0.316453 0.588603
O O3 0.366425 0.500000 0.583918
O O4 0.336705 0.200768 0.582382
O O5 0.694202 0.728633 0.319319
O O6 0.827331 0.773186 0.391265
O O7 0.738700 0.000000 0.352088
O O8 0.500000 0.223825 0.162995
O O9 0.342707 0.252449 0.214014
O O10 0.343972 0.220386 0.108319
O O11 0.393425 0.000000 0.169606
O O12 0.276023 0.500000 0.252165
O O13 0.178969 0.742242 0.251715
O O14 0.123958 0.228372 0.500000
O O15 0.000000 0.227421 0.575260
O O16 0.102480 0.000000 0.562962
O O17 0.101381 0.760925 0.842056
O O18 0.000000 0.795492 0.756487
O O19 0.114502 0.000000 0.779604
O O20 0.893712 0.500000 0.891994
O O21 0.817297 0.264232 0.934293
O O22 0.000000 0.295388 0.926021
O O23 0.253736 0.000000 0.069500
O O24 0.313713 0.807049 0.000000
#
# Coordination Sequence:
#
# PCOD9389374 Si02
#       8
#     8   8   8   8   8   8   8   8
#     4   9  19  37  59  82 112 150 188 231 291 357
#     4  11  22  35  56  86 117 150 194 244 291 342
#     4  10  22  42  66  88 113 148 193 244 298 358
#     4  12  25  40  59  84 117 156 196 240 294 353
#     4   8  15  30  53  82 116 152 190 233 282 335
#     4  10  20  36  60  86 113 148 190 236 284 337
#     4  10  20  34  55  85 120 158 195 231 278 335
#     4  10  21  37  60  90 122 155 192 238 292 350
#
# _framework density 19.753086
#
# number of rings (size 3 to 8) (size 9 to 14) (size 15 to 20)
#    0.000    2.000    1.250    3.375    0.000    4.500 
#    0.000    4.375    0.000    1.125    0.000    6.125 
#    0.000    0.000    0.000    0.000    0.000    0.000 
#
# Total GULP energy -356983.472223 kJ/mol
# GULP energy per Si atom -5577.866753 kJ/mol
# Density = 1.970813 g / cm^3
# Si number density = 19.753086 Si / 1000 Ang^3
#
#
#
# Elastic Constant Matrix: (Units=GPa)
#
#
# Indices 1 2 3 4 5 6 
#
# 1 93.1750 40.8831 42.7392 0.0000 0.0000 0.0000
# 2 40.8831 26.3070 24.5448 0.0000 0.0000 0.0000
# 3 42.7392 24.5448 67.1335 0.0000 0.0000 0.0000
# 4 0.0000 0.0000 0.0000 28.9352 0.0000 0.0000
# 5 0.0000 0.0000 0.0000 0.0000 37.4410 0.0000
# 6 0.0000 0.0000 0.0000 0.0000 0.0000 10.7266
#
#
#
# Elastic Compliance Matrix: (Units=1/GPa)
#
#
# Indices 1 2 3 4 5 6 
#
# 1 0.034291 -0.049967 -0.003562 0.000000 0.000000 0.000000
# 2 -0.049967 0.130503 -0.015903 0.000000 0.000000 0.000000
# 3 -0.003562 -0.015903 0.022978 0.000000 0.000000 0.000000
# 4 0.000000 0.000000 0.000000 0.034560 0.000000 0.000000
# 5 0.000000 0.000000 0.000000 0.000000 0.026709 0.000000
# 6 0.000000 0.000000 0.000000 0.000000 0.000000 0.093227
#
#
# Mechanical properties :
#
#
# Convention : Reuss Voigt Hill
#
# Bulk Modulus (GPa) = 20.44675 44.77221 32.60948
# Shear Modulus (GPa) = 10.05158 20.65043 15.35100
#
# Velocity S-wave (km/s) = 2.25824 3.23682 2.79076
# Velocity P-wave (km/s) = 4.14405 6.05677 5.18930
#
# Compressibility (1/GPa) = 0.04890753
#
# Stress axis : x y z
#
# Youngs Moduli (GPa) = 29.16218 7.66264 43.52057
#
# Poissons Ratio (x) = 0.38288 0.15502
# Poissons Ratio (y) = 1.45716 0.69210
# Poissons Ratio (z) = 0.10388 0.12186
#
# Static dielectric constant tensor:
#      x y z
#    x 1.689860 0.000000 0.000000 
#    y 0.000000 1.677320 0.000000 
#    z 0.000000 0.000000 1.762060 
# 
# From -- ./inp_files/32803.got.cif
#   From: 2010.05.17/outbox.ucp.g08.bks.cvg/sg47_17_cif.got.tgz:32803.got - 2010.06.11 16:36:43.
