data_PCOD9389954
_publ_section_title
;
Structure prediction by ZEFSAII (Michael W. Deem and Ramdas Pophale) SiO2 
 PCOD9389954
Probable space group: P N N N
;
_chemical_formula_sum "Si O2"
_cell_formula_units_Z 56
_cell_length_a 7.570571
_cell_length_b 15.832872
_cell_length_c 21.422580
_cell_angle_alpha 90.000000
_cell_angle_beta 90.000000
_cell_angle_gamma 90.000000
_cell_volume 2567.793593
_symmetry_space_group_name_H-M "P N N N"
_symmetry_group_IT_number 48
_space_group.IT_coordinate_system_code '2'
_symmetry_cell_setting 'orthorhombic'
loop_
_space_group_symop_operation_xyz
x,y,z
1/2-x,1/2-y,z
x,1/2-y,1/2-z
1/2-x,y,1/2-z
-x,-y,-z
1/2+x,1/2+y,-z
-x,1/2+y,1/2+z
1/2+x,-y,1/2+z
loop_
_atom_site_type_symbol
_atom_site_label
_atom_site_fract_x
_atom_site_fract_y
_atom_site_fract_z
Si Si1 0.558540 0.507592 0.182697
Si Si2 0.469171 0.026234 0.818803
Si Si3 0.042218 0.070903 0.948084
Si Si4 0.873218 0.651768 0.812088
Si Si5 0.966326 0.921450 0.453986
Si Si6 0.966315 0.742320 0.508742
Si Si7 0.985609 0.822418 0.857825
O O1 0.759268 0.539574 0.183627
O O2 0.468747 0.539123 0.246778
O O3 0.474032 0.539909 0.118869
O O4 0.567289 0.405162 0.174145
O O5 0.505605 0.926761 0.824665
O O6 0.537245 0.067857 0.882779
O O7 0.254343 0.078020 0.946774
O O8 0.982284 0.165255 0.963624
O O9 0.000000 0.000000 0.000000
O O10 0.750000 0.644535 0.750000
O O11 0.980444 0.738179 0.816230
O O12 0.722228 0.653574 0.864957
O O13 0.026431 0.834126 0.485717
O O14 0.000000 0.000000 0.500000
O O15 0.750000 0.750000 0.511591
O O16 0.042748 0.710043 0.574865
#
# Coordination Sequence:
#
# PCOD9389954 Si02
#       7
#     8   8   8   8   8   8   8
#     4  10  21  36  53  81 114 152 184 232 287 347
#     4  10  22  37  53  77 117 151 188 228 286 340
#     4  10  20  36  59  84 112 151 194 237 289 345
#     4  11  21  32  51  85 111 145 186 229 281 351
#     4  10  22  38  57  82 115 153 192 239 288 338
#     4  10  19  34  57  83 112 148 191 240 282 335
#     4  11  19  31  55  81 112 140 185 233 279 342
#
# _framework density 21.808606999999999
#
# number of rings (size 3 to 8) (size 9 to 14) (size 15 to 20)
#    0.000    1.714    4.286    1.714    2.000    0.571 
#    0.000    2.857    0.000    4.286    0.000    0.000 
#    0.000    0.000    0.000    0.000    0.000    0.000 
#
# Total GULP energy -312150.477983 kJ/mol
# GULP energy per Si atom -5574.115678 kJ/mol
# Density = 2.175897 g / cm^3
# Si number density = 21.808607 Si / 1000 Ang^3
#
#
#
# Elastic Constant Matrix: (Units=GPa)
#
#
# Indices 1 2 3 4 5 6 
#
# 1 32.3748 -3.3249 5.5581 0.0000 0.0000 0.0000
# 2 -3.3249 115.5733 68.6445 0.0000 0.0000 0.0000
# 3 5.5581 68.6445 192.3954 0.0000 0.0000 0.0000
# 4 0.0000 0.0000 0.0000 38.4758 0.0000 0.0000
# 5 0.0000 0.0000 0.0000 0.0000 12.1217 0.0000
# 6 0.0000 0.0000 0.0000 0.0000 0.0000 16.3905
#
#
#
# Elastic Compliance Matrix: (Units=1/GPa)
#
#
# Indices 1 2 3 4 5 6 
#
# 1 0.031343 0.001827 -0.001557 0.000000 0.000000 0.000000
# 2 0.001827 0.011086 -0.004008 0.000000 0.000000 0.000000
# 3 -0.001557 -0.004008 0.006673 0.000000 0.000000 0.000000
# 4 0.000000 0.000000 0.000000 0.025990 0.000000 0.000000
# 5 0.000000 0.000000 0.000000 0.000000 0.082497 0.000000
# 6 0.000000 0.000000 0.000000 0.000000 0.000000 0.061011
#
#
# Mechanical properties :
#
#
# Convention : Reuss Voigt Hill
#
# Bulk Modulus (GPa) = 24.02448 53.56654 38.79551
# Shear Modulus (GPa) = 20.83755 31.36198 26.09976
#
# Velocity S-wave (km/s) = 3.09443 3.79628 3.46318
# Velocity P-wave (km/s) = 4.87927 6.62051 5.81543
#
# Compressibility (1/GPa) = 0.04162421
#
# Stress axis : x y z
#
# Youngs Moduli (GPa) = 31.90493 90.20709 149.86618
#
# Poissons Ratio (x) = -0.16477 0.23337
# Poissons Ratio (y) = -0.05828 0.60066
# Poissons Ratio (z) = 0.04968 0.36155
#
# Static dielectric constant tensor:
#      x y z
#    x 1.865440 0.000000 0.000000 
#    y 0.000000 1.773710 0.000000 
#    z 0.000000 0.000000 1.914570 
# 
# From -- ./inp_files/33612.got.cif
#   From: 2010.05.17/outbox.cif.g08.bks.cpg/sg48_17_cif.got.tgz:33612.got - 2010.06.03 20:39:00.
