data_PCOD9389406
_publ_section_title
;
Structure prediction by ZEFSAII (Michael W. Deem and Ramdas Pophale) SiO2 
 PCOD9389406
Probable space group: P M M M
;
_chemical_formula_sum "Si O2"
_cell_formula_units_Z 44
_cell_length_a 30.000000
_cell_length_b 9.000000
_cell_length_c 9.000000
_cell_angle_alpha 90.000000
_cell_angle_beta 90.000000
_cell_angle_gamma 90.000000
_cell_volume 2430.000000
_symmetry_space_group_name_H-M "P M M M"
_symmetry_group_IT_number 47
_symmetry_cell_setting 'orthorhombic'
loop_
_space_group_symop_operation_xyz
x,y,z
-x,-y,z
x,-y,-z
-x,y,-z
-x,-y,-z
x,y,-z
-x,y,z
x,-y,z
loop_
_atom_site_type_symbol
_atom_site_label
_atom_site_fract_x
_atom_site_fract_y
_atom_site_fract_z
Si Si1 0.500000 0.827845 0.680969
Si Si2 0.682460 0.680981 0.172071
Si Si3 0.226261 0.677167 0.323287
Si Si4 0.134745 0.824606 0.323236
Si Si5 0.408767 0.323031 0.323025
Si Si6 0.950549 0.324341 0.178175
O O1 0.500000 0.815550 0.500000
O O2 0.454280 0.751617 0.731978
O O3 0.500000 0.000000 0.720213
O O4 0.682424 0.500000 0.183999
O O5 0.728213 0.731615 0.248262
O O6 0.636763 0.731942 0.248471
O O7 0.682449 0.720586 0.000000
O O8 0.229883 0.702928 0.500000
O O9 0.222657 0.500000 0.299539
O O10 0.180783 0.751694 0.268058
O O11 0.132314 0.795362 0.500000
O O12 0.090770 0.758551 0.249551
O O13 0.136651 0.000000 0.299550
O O14 0.405139 0.298760 0.500000
O O15 0.412410 0.500000 0.298689
O O16 0.947270 0.500000 0.211452
O O17 0.000000 0.273073 0.227373
O O18 0.948735 0.308335 0.000000
#
# Coordination Sequence:
#
# PCOD9389406 Si02
#       6
#     4   8   8   8   8   8
#     4   9  17  29  46  69  94 120 154 193 230 272
#     4   9  17  29  47  72  97 120 153 198 242 283
#     4   9  17  31  51  72  95 126 163 201 242 288
#     4  10  21  35  51  75 106 136 167 205 249 297
#     4   9  16  28  48  71  93 119 153 192 233 278
#     4   9  19  36  56  77 101 131 169 210 250 295
#
# _framework density 18.106995999999999
#
# number of rings (size 3 to 8) (size 9 to 14) (size 15 to 20)
#    0.000    2.818    0.000    1.909    0.000    6.182 
#    0.000    5.909    0.000    8.727    0.000    0.000 
#    0.000    0.000    0.000    0.000    0.000    0.000 
#
# Total GULP energy -245277.648998 kJ/mol
# GULP energy per Si atom -5574.492023 kJ/mol
# Density = 1.806578 g / cm^3
# Si number density = 18.106996 Si / 1000 Ang^3
#
#
#
# Elastic Constant Matrix: (Units=GPa)
#
#
# Indices 1 2 3 4 5 6 
#
# 1 231.4703 47.9474 74.5784 0.0000 0.0000 0.0000
# 2 47.9474 -12.8600 46.4324 0.0000 0.0000 0.0000
# 3 74.5784 46.4324 23.2482 0.0000 0.0000 0.0000
# 4 0.0000 0.0000 0.0000 13.0000 0.0000 0.0000
# 5 0.0000 0.0000 0.0000 0.0000 -336.3544 0.0000
# 6 0.0000 0.0000 0.0000 0.0000 0.0000 -16.1057
#
#
#
# Elastic Compliance Matrix: (Units=1/GPa)
#
#
# Indices 1 2 3 4 5 6 
#
# 1 0.011256 -0.010767 -0.014605 0.000000 0.000000 0.000000
# 2 -0.010767 0.000828 0.032884 0.000000 0.000000 0.000000
# 3 -0.014605 0.032884 0.024190 0.000000 0.000000 0.000000
# 4 0.000000 0.000000 0.000000 0.076923 0.000000 0.000000
# 5 0.000000 0.000000 0.000000 0.000000 -0.002973 0.000000
# 6 0.000000 0.000000 0.000000 0.000000 0.000000 -0.062090
#
#
# Mechanical properties :
#
#
# Convention : Reuss Voigt Hill
#
# Bulk Modulus (GPa) = 19.49384 64.41943 41.95663
# Shear Modulus (GPa) = 99.58119 -63.03200 18.27459
#
# Velocity S-wave (km/s) = 7.42397 -5.90647 3.18033
# Velocity P-wave (km/s) = 9.18022 3.29559 6.05869
#
# Compressibility (1/GPa) = 0.05129827
#
# Stress axis : x y z
#
# Youngs Moduli (GPa) = 88.83956 1207.08690 41.33997
#
# Poissons Ratio (x) = 12.99631 0.60379
# Poissons Ratio (y) = 0.95651 -1.35943
# Poissons Ratio (z) = 1.29754 -39.69397
#
# Static dielectric constant tensor:
#      x y z
#    x 1.612810 0.000000 0.000000 
#    y 0.000000 1.601660 0.000000 
#    z 0.000000 0.000000 1.610470 
# 
# From -- ./inp_files/2296.got.cif
#   From: 2010.05.17/outbox.ucp.g08.bks.cvg/sg47_2_cif.got.tgz:2296.got - 2010.06.11 16:36:43.
