data_PCOD9389936
_publ_section_title
;
Structure prediction by ZEFSAII (Michael W. Deem and Ramdas Pophale) SiO2 
 PCOD9389936
Probable space group: P N N N
;
_chemical_formula_sum "Si O2"
_cell_formula_units_Z 34
_cell_length_a 8.256969
_cell_length_b 19.997721
_cell_length_c 8.094729
_cell_angle_alpha 90.000000
_cell_angle_beta 90.000000
_cell_angle_gamma 90.000000
_cell_volume 1336.606205
_symmetry_space_group_name_H-M "P N N N"
_symmetry_group_IT_number 48
_space_group.IT_coordinate_system_code '2'
_symmetry_cell_setting 'orthorhombic'
loop_
_space_group_symop_operation_xyz
x,y,z
1/2-x,1/2-y,z
x,1/2-y,1/2-z
1/2-x,y,1/2-z
-x,-y,-z
1/2+x,1/2+y,-z
-x,1/2+y,1/2+z
1/2+x,-y,1/2+z
loop_
_atom_site_type_symbol
_atom_site_label
_atom_site_fract_x
_atom_site_fract_y
_atom_site_fract_z
Si Si1 0.250000 0.750000 0.750000
Si Si2 0.911100 0.361793 0.025547
Si Si3 0.572483 0.397993 0.922223
Si Si4 0.426257 0.510027 0.750960
Si Si5 0.242979 0.328947 0.443635
O O1 0.130940 0.698327 0.845082
O O2 0.931470 0.435281 0.107817
O O3 0.091017 0.348115 0.963159
O O4 0.743742 0.361150 0.925229
O O5 0.551939 0.450412 0.772650
O O6 0.570535 0.444641 0.085415
O O7 0.417149 0.352061 0.959722
O O8 0.250000 0.477082 0.750000
O O9 0.250000 0.250000 0.431046
O O10 0.250000 0.355637 0.250000
#
# Coordination Sequence:
#
# PCOD9389936 Si02
#       5
#     2   8   8   8   8
#     4  12  16  32  54  72 116 144 162 224 286 344
#     4  11  19  33  54  79 110 151 179 223 291 339
#     4  10  19  34  52  74 109 145 180 226 273 336
#     4   9  18  35  52  72 109 146 183 226 274 328
#     4  11  20  31  52  83 113 139 177 229 286 351
#
# _framework density 25.437563000000001
#
# number of rings (size 3 to 8) (size 9 to 14) (size 15 to 20)
#    0.000    1.647    5.882    2.824    0.000    0.000 
#    0.000   15.294    0.000    0.706    0.000    0.000 
#    0.000    5.647    0.000    0.000    0.000    0.000 
#
# Total GULP energy -190024.311201 kJ/mol
# GULP energy per Si atom -5588.950329 kJ/mol
# Density = 2.537967 g / cm^3
# Si number density = 25.437563 Si / 1000 Ang^3
#
#
#
# Elastic Constant Matrix: (Units=GPa)
#
#
# Indices 1 2 3 4 5 6 
#
# 1 240.5465 77.5416 31.9191 0.0000 0.0000 0.0000
# 2 77.5416 109.3756 40.4377 0.0000 0.0000 0.0000
# 3 31.9191 40.4377 97.3961 0.0000 0.0000 0.0000
# 4 0.0000 0.0000 0.0000 -31.8604 0.0000 0.0000
# 5 0.0000 0.0000 0.0000 0.0000 8.3353 0.0000
# 6 0.0000 0.0000 0.0000 0.0000 0.0000 45.6695
#
#
#
# Elastic Compliance Matrix: (Units=1/GPa)
#
#
# Indices 1 2 3 4 5 6 
#
# 1 0.005392 -0.003744 -0.000213 0.000000 0.000000 0.000000
# 2 -0.003744 0.013401 -0.004337 0.000000 0.000000 0.000000
# 3 -0.000213 -0.004337 0.012138 0.000000 0.000000 0.000000
# 4 0.000000 0.000000 0.000000 -0.031387 0.000000 0.000000
# 5 0.000000 0.000000 0.000000 0.000000 0.119972 0.000000
# 6 0.000000 0.000000 0.000000 0.000000 0.000000 0.021896
#
#
# Mechanical properties :
#
#
# Convention : Reuss Voigt Hill
#
# Bulk Modulus (GPa) = 69.71860 83.01278 76.36569
# Shear Modulus (GPa) = 30.71623 24.25686 27.48655
#
# Velocity S-wave (km/s) = 3.47870 3.09137 3.29074
# Velocity P-wave (km/s) = 6.60321 6.74143 6.67268
#
# Compressibility (1/GPa) = 0.01434337
#
# Stress axis : x y z
#
# Youngs Moduli (GPa) = 185.44536 74.62305 82.38876
#
# Poissons Ratio (x) = 0.27941 0.01752
# Poissons Ratio (y) = 0.69437 0.35729
# Poissons Ratio (z) = 0.03943 0.32362
#
# Static dielectric constant tensor:
#      x y z
#    x 2.020650 0.000000 0.000000 
#    y 0.000000 1.937820 0.000000 
#    z 0.000000 0.000000 2.142290 
# 
# From -- ./inp_files/8752.got.cif
#   From: 2010.05.17/outbox.cif.g08.bks.cpg/sg48_5_cif.got.tgz:8752.got - 2010.06.03 20:39:00.
