data_PCOD9389921
_publ_section_title
;
Structure prediction by ZEFSAII (Michael W. Deem and Ramdas Pophale) SiO2 
 PCOD9389921
Probable space group: P N N N
;
_chemical_formula_sum "Si O2"
_cell_formula_units_Z 64
_cell_length_a 8.541305
_cell_length_b 21.200637
_cell_length_c 20.021416
_cell_angle_alpha 90.000000
_cell_angle_beta 90.000000
_cell_angle_gamma 90.000000
_cell_volume 3625.500169
_symmetry_space_group_name_H-M "P N N N"
_symmetry_group_IT_number 48
_space_group.IT_coordinate_system_code '2'
_symmetry_cell_setting 'orthorhombic'
loop_
_space_group_symop_operation_xyz
x,y,z
1/2-x,1/2-y,z
x,1/2-y,1/2-z
1/2-x,y,1/2-z
-x,-y,-z
1/2+x,1/2+y,-z
-x,1/2+y,1/2+z
1/2+x,-y,1/2+z
loop_
_atom_site_type_symbol
_atom_site_label
_atom_site_fract_x
_atom_site_fract_y
_atom_site_fract_z
Si Si1 0.921526 0.911182 0.530272
Si Si2 0.562220 0.548088 0.943234
Si Si3 0.588767 0.514495 0.394353
Si Si4 0.345907 0.685736 0.373786
Si Si5 0.924012 0.776208 0.475841
Si Si6 0.560543 0.942103 0.364243
Si Si7 0.087169 0.924381 0.273902
Si Si8 0.412785 0.646841 0.025192
O O1 0.741411 0.930602 0.547074
O O2 0.933843 0.836190 0.524205
O O3 0.041784 0.945027 0.580410
O O4 0.953742 0.941062 0.457310
O O5 0.547072 0.503662 0.878886
O O6 0.500000 0.500000 0.000000
O O7 0.444449 0.606005 0.958585
O O8 0.766961 0.530945 0.376732
O O9 0.490933 0.533146 0.330004
O O10 0.250000 0.750000 0.359207
O O11 0.515552 0.701874 0.403295
O O12 0.365643 0.640524 0.311089
O O13 0.250884 0.651492 0.434850
O O14 0.750000 0.750000 0.474284
O O15 0.036046 0.717523 0.491576
O O16 0.523533 0.917072 0.290541
O O17 0.522943 0.887100 0.418396
O O18 0.250000 0.953092 0.250000
#
# Coordination Sequence:
#
# PCOD9389921 Si02
#       8
#     8   8   8   8   8   8   8   8
#     4  11  21  35  59  84 113 152 187 244 303 345
#     4  10  19  33  57  81 112 145 189 237 300 346
#     4  11  23  36  56  85 111 149 198 244 297 346
#     4  10  23  37  54  80 115 161 203 236 291 341
#     4  11  20  37  57  84 119 151 193 245 287 352
#     4  11  22  38  57  85 116 155 198 241 292 349
#     4  12  23  39  58  77 119 157 203 243 285 345
#     4  10  20  36  56  82 116 151 190 239 295 344
#
# _framework density 17.652736999999998
#
# number of rings (size 3 to 8) (size 9 to 14) (size 15 to 20)
#    0.000    1.250    6.250    1.125    3.500    0.250 
#    0.000    0.000    0.000    0.750    0.000    0.875 
#    0.000    2.000    0.000    0.000    0.000    0.000 
#
# Total GULP energy -356818.411027 kJ/mol
# GULP energy per Si atom -5575.287672 kJ/mol
# Density = 1.761256 g / cm^3
# Si number density = 17.652737 Si / 1000 Ang^3
#
#
#
# Elastic Constant Matrix: (Units=GPa)
#
#
# Indices 1 2 3 4 5 6 
#
# 1 83.1039 42.9122 19.7449 0.0000 0.0000 0.0000
# 2 42.9122 113.2965 28.7955 0.0000 0.0000 0.0000
# 3 19.7449 28.7955 34.2207 0.0000 0.0000 0.0000
# 4 0.0000 0.0000 0.0000 28.2734 0.0000 0.0000
# 5 0.0000 0.0000 0.0000 0.0000 28.7118 0.0000
# 6 0.0000 0.0000 0.0000 0.0000 0.0000 27.2246
#
#
#
# Elastic Compliance Matrix: (Units=1/GPa)
#
#
# Indices 1 2 3 4 5 6 
#
# 1 0.015638 -0.004617 -0.005138 0.000000 0.000000 0.000000
# 2 -0.004617 0.012591 -0.007931 0.000000 0.000000 0.000000
# 3 -0.005138 -0.007931 0.038860 0.000000 0.000000 0.000000
# 4 0.000000 0.000000 0.000000 0.035369 0.000000 0.000000
# 5 0.000000 0.000000 0.000000 0.000000 0.034829 0.000000
# 6 0.000000 0.000000 0.000000 0.000000 0.000000 0.036731
#
#
# Mechanical properties :
#
#
# Convention : Reuss Voigt Hill
#
# Bulk Modulus (GPa) = 31.52836 45.94738 38.73787
# Shear Modulus (GPa) = 22.73124 26.11987 24.42555
#
# Velocity S-wave (km/s) = 3.59233 3.85079 3.72381
# Velocity P-wave (km/s) = 5.92499 6.77174 6.36247
#
# Compressibility (1/GPa) = 0.03171748
#
# Stress axis : x y z
#
# Youngs Moduli (GPa) = 63.94675 79.42243 25.73355
#
# Poissons Ratio (x) = 0.36671 0.13221
# Poissons Ratio (y) = 0.29526 0.20408
# Poissons Ratio (z) = 0.32854 0.62987
#
# Static dielectric constant tensor:
#      x y z
#    x 1.667560 0.000000 0.000000 
#    y 0.000000 1.652020 0.000000 
#    z 0.000000 0.000000 1.612890 
# 
# From -- ./inp_files/33697.got.cif
#   From: 2010.05.17/outbox.cif.g08.bks.cpg/sg48_17_cif.got.tgz:33697.got - 2010.06.03 20:39:00.
