data_PCOD9389744
_publ_section_title
;
Structure prediction by ZEFSAII (Michael W. Deem and Ramdas Pophale) SiO2 
 PCOD9389744
Probable space group: P N N N
;
_chemical_formula_sum "Si O2"
_cell_formula_units_Z 44
_cell_length_a 19.307706
_cell_length_b 11.436473
_cell_length_c 9.625011
_cell_angle_alpha 90.000000
_cell_angle_beta 90.000000
_cell_angle_gamma 90.000000
_cell_volume 2125.318491
_symmetry_space_group_name_H-M "P N N N"
_symmetry_group_IT_number 48
_space_group.IT_coordinate_system_code '2'
_symmetry_cell_setting 'orthorhombic'
loop_
_space_group_symop_operation_xyz
x,y,z
1/2-x,1/2-y,z
x,1/2-y,1/2-z
1/2-x,y,1/2-z
-x,-y,-z
1/2+x,1/2+y,-z
-x,1/2+y,1/2+z
1/2+x,-y,1/2+z
loop_
_atom_site_type_symbol
_atom_site_label
_atom_site_fract_x
_atom_site_fract_y
_atom_site_fract_z
Si Si1 0.075371 0.911801 0.764701
Si Si2 0.120042 0.750000 0.250000
Si Si3 0.028206 0.769833 0.974184
Si Si4 0.196785 0.983032 0.356376
Si Si5 0.721291 0.117892 0.390959
Si Si6 0.930860 0.577167 0.033040
O O1 0.015553 0.882668 0.875779
O O2 0.066299 0.822042 0.634290
O O3 0.140405 0.884594 0.863171
O O4 0.084119 0.035507 0.690108
O O5 0.073056 0.721921 0.385384
O O6 0.166029 0.863670 0.287429
O O7 0.956599 0.708497 0.015785
O O8 0.250000 0.044256 0.250000
O O9 0.247444 0.946843 0.480403
O O10 0.130971 0.046439 0.427302
O O11 0.750000 0.250000 0.399658
O O12 0.750000 0.063520 0.250000
O O13 0.000000 0.500000 0.000000
#
# Coordination Sequence:
#
# PCOD9389744 Si02
#       6
#     8   4   8   8   8   8
#     4  10  18  35  56  80 107 159 191 219 285 379
#     4  12  19  36  50  90 118 151 174 240 298 359
#     4  10  20  34  60  73 120 151 195 226 287 347
#     4  12  22  32  53  84 122 145 178 240 301 345
#     4  11  18  28  49  79 113 148 177 207 281 374
#     4  10  20  38  54  78 116 155 188 235 276 359
#
# _framework density 20.702781000000002
#
# number of rings (size 3 to 8) (size 9 to 14) (size 15 to 20)
#    0.000    1.273    5.455    5.727    0.000    0.000 
#    0.000    0.909    8.000    0.000    0.000   10.182 
#    5.455    0.000    0.000    0.000    0.000    0.000 
#
# Total GULP energy -245100.347400 kJ/mol
# GULP energy per Si atom -5570.462441 kJ/mol
# Density = 2.065566 g / cm^3
# Si number density = 20.702781 Si / 1000 Ang^3
#
#
#
# Elastic Constant Matrix: (Units=GPa)
#
#
# Indices 1 2 3 4 5 6 
#
# 1 92.6442 30.3316 52.4093 0.0000 0.0000 0.0000
# 2 30.3316 28.2157 31.5555 0.0000 0.0000 0.0000
# 3 52.4093 31.5555 162.7885 0.0000 0.0000 0.0000
# 4 0.0000 0.0000 0.0000 10.3265 0.0000 0.0000
# 5 0.0000 0.0000 0.0000 0.0000 0.9936 0.0000
# 6 0.0000 0.0000 0.0000 0.0000 0.0000-1012.5348
#
#
#
# Elastic Compliance Matrix: (Units=1/GPa)
#
#
# Indices 1 2 3 4 5 6 
#
# 1 0.017435 -0.015915 -0.002528 0.000000 0.000000 0.000000
# 2 -0.015915 0.059779 -0.006464 0.000000 0.000000 0.000000
# 3 -0.002528 -0.006464 0.008210 0.000000 0.000000 0.000000
# 4 0.000000 0.000000 0.000000 0.096838 0.000000 0.000000
# 5 0.000000 0.000000 0.000000 0.000000 1.006400 0.000000
# 6 0.000000 0.000000 0.000000 0.000000 0.000000 -0.000988
#
#
# Mechanical properties :
#
#
# Convention : Reuss Voigt Hill
#
# Bulk Modulus (GPa) = 28.08244 56.91568 42.49906
# Shear Modulus (GPa) = 4.00206 -188.95279 -92.47537
#
# Velocity S-wave (km/s) = 1.39187 -9.56386 -6.69067
# Velocity P-wave (km/s) = 4.02207 9.71623 6.25412
#
# Compressibility (1/GPa) = 0.03560945
#
# Stress axis : x y z
#
# Youngs Moduli (GPa) = 57.35732 16.72842 121.80506
#
# Poissons Ratio (x) = 0.26623 0.30793
# Poissons Ratio (y) = 0.91282 0.78734
# Poissons Ratio (z) = 0.14500 0.10813
#
# Static dielectric constant tensor:
#      x y z
#    x 2.169920 0.000000 0.000000 
#    y 0.000000 1.841120 0.000000 
#    z 0.000000 0.000000 1.751140 
# 
# From -- ./inp_files/14079.got.cif
#   From: 2010.05.17/outbox.cif.g08.bks.cpg/sg48_8_cif.got.tgz:14079.got - 2010.06.03 20:39:00.
