data_PCOD9389959
_publ_section_title
;
Structure prediction by ZEFSAII (Michael W. Deem and Ramdas Pophale) SiO2 
 PCOD9389959
Probable space group: P N N N
;
_chemical_formula_sum "Si O2"
_cell_formula_units_Z 64
_cell_length_a 7.355841
_cell_length_b 14.824908
_cell_length_c 26.070211
_cell_angle_alpha 90.000000
_cell_angle_beta 90.000000
_cell_angle_gamma 90.000000
_cell_volume 2842.947804
_symmetry_space_group_name_H-M "P N N N"
_symmetry_group_IT_number 48
_space_group.IT_coordinate_system_code '2'
_symmetry_cell_setting 'orthorhombic'
loop_
_space_group_symop_operation_xyz
x,y,z
1/2-x,1/2-y,z
x,1/2-y,1/2-z
1/2-x,y,1/2-z
-x,-y,-z
1/2+x,1/2+y,-z
-x,1/2+y,1/2+z
1/2+x,-y,1/2+z
loop_
_atom_site_type_symbol
_atom_site_label
_atom_site_fract_x
_atom_site_fract_y
_atom_site_fract_z
Si Si1 0.454055 0.030900 0.243728
Si Si2 0.512160 0.406226 0.154118
Si Si3 0.093242 0.062463 0.368092
Si Si4 0.502322 0.067406 0.950350
Si Si5 0.058430 0.339704 0.721651
Si Si6 0.115323 0.402670 0.607118
Si Si7 0.028101 0.246450 0.410984
Si Si8 0.971027 0.766363 0.024852
O O1 0.250000 0.067482 0.250000
O O2 0.447483 0.928265 0.263753
O O3 0.567874 0.082290 0.286866
O O4 0.507402 0.035955 0.184492
O O5 0.292733 0.406428 0.148469
O O6 0.565327 0.496161 0.123523
O O7 0.563135 0.311610 0.129950
O O8 0.991930 0.142058 0.398586
O O9 0.119865 0.980454 0.406831
O O10 0.308893 0.082195 0.921213
O O11 0.558614 0.169285 0.963193
O O12 0.500000 0.000000 0.000000
O O13 0.983149 0.250000 0.750000
O O14 0.250000 0.353118 0.750000
O O15 0.099580 0.343954 0.660375
O O16 0.999799 0.346084 0.565357
O O17 0.250000 0.250000 0.410009
O O18 0.976613 0.284838 0.466469
O O19 0.750000 0.750000 0.025118
#
# Coordination Sequence:
#
# PCOD9389959 Si02
#       8
#     8   8   8   8   8   8   8   8
#     4   9  19  35  53  81 112 145 179 230 285 330
#     4   9  20  37  55  81 113 144 186 225 285 333
#     4  10  19  34  59  79 110 146 185 231 277 330
#     4  11  21  36  58  83 109 144 186 232 281 336
#     4  10  21  33  54  83 107 144 194 227 274 337
#     4  10  22  37  56  81 115 146 183 237 280 333
#     4   9  17  33  54  80 104 141 185 229 269 333
#     4   9  19  33  54  78 106 140 184 222 277 327
#
# _framework density 22.511842999999999
#
# number of rings (size 3 to 8) (size 9 to 14) (size 15 to 20)
#    0.000    2.375    1.250    0.750    8.750    1.250 
#    0.000    3.750    0.000    0.000    0.000    2.625 
#    0.000    0.000    0.000    0.000    0.000    0.000 
#
# Total GULP energy -356651.334245 kJ/mol
# GULP energy per Si atom -5572.677098 kJ/mol
# Density = 2.246061 g / cm^3
# Si number density = 22.511843 Si / 1000 Ang^3
#
#
#
# Elastic Constant Matrix: (Units=GPa)
#
#
# Indices 1 2 3 4 5 6 
#
# 1 41.7256 -7.2770 8.5159 0.0000 0.0000 0.0000
# 2 -7.2770 69.3182 30.4858 0.0000 0.0000 0.0000
# 3 8.5159 30.4858 155.6884 0.0000 0.0000 0.0000
# 4 0.0000 0.0000 0.0000 26.6437 0.0000 0.0000
# 5 0.0000 0.0000 0.0000 0.0000 13.6396 0.0000
# 6 0.0000 0.0000 0.0000 0.0000 0.0000 11.1992
#
#
#
# Elastic Compliance Matrix: (Units=1/GPa)
#
#
# Indices 1 2 3 4 5 6 
#
# 1 0.025002 0.003530 -0.002059 0.000000 0.000000 0.000000
# 2 0.003530 0.016284 -0.003382 0.000000 0.000000 0.000000
# 3 -0.002059 -0.003382 0.007198 0.000000 0.000000 0.000000
# 4 0.000000 0.000000 0.000000 0.037532 0.000000 0.000000
# 5 0.000000 0.000000 0.000000 0.000000 0.073316 0.000000
# 6 0.000000 0.000000 0.000000 0.000000 0.000000 0.089292
#
#
# Mechanical properties :
#
#
# Convention : Reuss Voigt Hill
#
# Bulk Modulus (GPa) = 22.38982 36.68685 29.53833
# Shear Modulus (GPa) = 18.70331 25.96368 22.33350
#
# Velocity S-wave (km/s) = 2.88552 3.39976 3.15314
# Velocity P-wave (km/s) = 4.59010 5.63411 5.13869
#
# Compressibility (1/GPa) = 0.04466316
#
# Stress axis : x y z
#
# Youngs Moduli (GPa) = 39.99688 61.40961 138.92967
#
# Poissons Ratio (x) = -0.21679 0.28603
# Poissons Ratio (y) = -0.14120 0.46982
# Poissons Ratio (z) = 0.08235 0.20767
#
# Static dielectric constant tensor:
#      x y z
#    x 1.926780 0.000000 0.000000 
#    y 0.000000 1.850550 0.000000 
#    z 0.000000 0.000000 1.871610 
# 
# From -- ./inp_files/35989.got.cif
#   From: 2010.05.17/outbox.cif.g08.bks.cpg/sg48_18_cif.got.tgz:35989.got - 2010.06.03 20:39:00.
