data_PCOD9389472
_publ_section_title
;
Structure prediction by ZEFSAII (Michael W. Deem and Ramdas Pophale) SiO2 
 PCOD9389472
Probable space group: P N N N
;
_chemical_formula_sum "Si O2"
_cell_formula_units_Z 64
_cell_length_a 16.612412
_cell_length_b 11.308504
_cell_length_c 21.282450
_cell_angle_alpha 90.000000
_cell_angle_beta 90.000000
_cell_angle_gamma 90.000000
_cell_volume 3998.153567
_symmetry_space_group_name_H-M "P N N N"
_symmetry_group_IT_number 48
_space_group.IT_coordinate_system_code '2'
_symmetry_cell_setting 'orthorhombic'
loop_
_space_group_symop_operation_xyz
x,y,z
1/2-x,1/2-y,z
x,1/2-y,1/2-z
1/2-x,y,1/2-z
-x,-y,-z
1/2+x,1/2+y,-z
-x,1/2+y,1/2+z
1/2+x,-y,1/2+z
loop_
_atom_site_type_symbol
_atom_site_label
_atom_site_fract_x
_atom_site_fract_y
_atom_site_fract_z
Si Si1 0.918248 0.538239 0.081138
Si Si2 0.715392 0.875654 0.679904
Si Si3 0.003507 0.071213 0.306702
Si Si4 0.523826 0.851992 0.672935
Si Si5 0.506957 0.872060 0.529022
Si Si6 0.344128 0.001455 0.111720
Si Si7 0.580343 0.153387 0.978121
Si Si8 0.659345 0.795520 0.993488
O O1 0.854153 0.636715 0.059976
O O2 0.937630 0.498464 0.151880
O O3 0.000455 0.593938 0.052542
O O4 0.901437 0.419771 0.041300
O O5 0.750000 0.750000 0.656641
O O6 0.750000 0.888379 0.750000
O O7 0.620280 0.867058 0.677832
O O8 0.755904 0.976679 0.638671
O O9 0.004929 0.212197 0.320351
O O10 0.992312 0.070652 0.231642
O O11 0.089476 0.022419 0.333372
O O12 0.495823 0.884278 0.603656
O O13 0.441661 0.784974 0.497416
O O14 0.593250 0.807287 0.516856
O O15 0.500000 0.000000 0.500000
O O16 0.354763 0.878874 0.074821
O O17 0.359214 0.104856 0.059743
O O18 0.750000 0.750000 0.988373
#
# Coordination Sequence:
#
# PCOD9389472 Si02
#       8
#     8   8   8   8   8   8   8   8
#     4   8  14  26  46  65  93 119 164 211 236 276
#     4  11  16  23  37  72 109 134 155 190 247 296
#     4  10  15  25  42  69  98 128 159 204 245 290
#     4  11  18  25  42  69 106 130 161 198 254 299
#     4  11  20  32  47  70 104 133 161 207 250 300
#     4  10  15  25  45  66 101 133 166 207 228 288
#     4   8  15  27  42  64  87 131 172 196 237 276
#     4  10  18  30  49  74  99 130 168 204 251 292
#
# _framework density 16.007389
#
# number of rings (size 3 to 8) (size 9 to 14) (size 15 to 20)
#    0.000    2.125    5.000    3.375    0.000    0.000 
#    0.000    0.000    0.000   13.500    0.000    2.625 
#    0.000    2.000    0.000    0.000    0.000    0.000 
#
# Total GULP energy -356285.746871 kJ/mol
# GULP energy per Si atom -5566.964795 kJ/mol
# Density = 1.597096 g / cm^3
# Si number density = 16.007389 Si / 1000 Ang^3
#
#
#
# Elastic Constant Matrix: (Units=GPa)
#
#
# Indices 1 2 3 4 5 6 
#
# 1 31.4838 19.6722 23.2312 0.0000 0.0000 0.0000
# 2 19.6722 77.3037 56.9857 0.0000 0.0000 0.0000
# 3 23.2312 56.9857 120.0077 0.0000 0.0000 0.0000
# 4 0.0000 0.0000 0.0000 18.5980 0.0000 0.0000
# 5 0.0000 0.0000 0.0000 0.0000 6.3683 0.0000
# 6 0.0000 0.0000 0.0000 0.0000 0.0000 13.0369
#
#
#
# Elastic Compliance Matrix: (Units=1/GPa)
#
#
# Indices 1 2 3 4 5 6 
#
# 1 0.039215 -0.006744 -0.004389 0.000000 0.000000 0.000000
# 2 -0.006744 0.021063 -0.008696 0.000000 0.000000 0.000000
# 3 -0.004389 -0.008696 0.013312 0.000000 0.000000 0.000000
# 4 0.000000 0.000000 0.000000 0.053769 0.000000 0.000000
# 5 0.000000 0.000000 0.000000 0.000000 0.157029 0.000000
# 6 0.000000 0.000000 0.000000 0.000000 0.000000 0.076705
#
#
# Mechanical properties :
#
#
# Convention : Reuss Voigt Hill
#
# Bulk Modulus (GPa) = 29.47140 47.61927 38.54533
# Shear Modulus (GPa) = 12.13413 16.19438 14.16425
#
# Velocity S-wave (km/s) = 2.75623 3.18414 2.97788
# Velocity P-wave (km/s) = 5.34604 6.58265 5.99631
#
# Compressibility (1/GPa) = 0.03393120
#
# Stress axis : x y z
#
# Youngs Moduli (GPa) = 25.50063 47.47726 75.12173
#
# Poissons Ratio (x) = 0.32019 0.32969
# Poissons Ratio (y) = 0.17198 0.65327
# Poissons Ratio (z) = 0.11192 0.41287
#
# Static dielectric constant tensor:
#      x y z
#    x 1.557510 0.000000 0.000000 
#    y 0.000000 1.537990 0.000000 
#    z 0.000000 0.000000 1.588730 
# 
# From -- ./inp_files/23022.got.cif
#   From: 2010.05.17/outbox.cif.g08.bks.cpg/sg48_12_cif.got.tgz:23022.got - 2010.06.03 20:39:00.
