data_PCOD9389355
_publ_section_title
;
Structure prediction by ZEFSAII (Michael W. Deem and Ramdas Pophale) SiO2 
 PCOD9389355
Probable space group: P M M M
;
_chemical_formula_sum "Si O2"
_cell_formula_units_Z 40
_cell_length_a 12.000000
_cell_length_b 21.000000
_cell_length_c 9.000000
_cell_angle_alpha 90.000000
_cell_angle_beta 90.000000
_cell_angle_gamma 90.000000
_cell_volume 2268.000000
_symmetry_space_group_name_H-M "P M M M"
_symmetry_group_IT_number 47
_symmetry_cell_setting 'orthorhombic'
loop_
_space_group_symop_operation_xyz
x,y,z
-x,-y,z
x,-y,-z
-x,y,-z
-x,-y,-z
x,y,-z
-x,y,z
x,-y,z
loop_
_atom_site_type_symbol
_atom_site_label
_atom_site_fract_x
_atom_site_fract_y
_atom_site_fract_z
Si Si1 0.000000 0.275438 0.679186
Si Si2 0.237939 0.071450 0.680965
Si Si3 0.000000 0.874720 0.319841
Si Si4 0.231478 0.686927 0.177478
Si Si5 0.631256 0.574531 0.322731
Si Si6 0.632096 0.802072 0.677684
O O1 0.000000 0.199958 0.718718
O O2 0.110689 0.306224 0.747051
O O3 0.000000 0.280248 0.500000
O O4 0.237431 0.070101 0.500000
O O5 0.113348 0.091204 0.729820
O O6 0.320709 0.128615 0.722303
O O7 0.266512 0.000000 0.731398
O O8 0.000000 0.877555 0.500000
O O9 0.293078 0.623149 0.232677
O O10 0.303898 0.746786 0.235814
O O11 0.222507 0.688196 0.000000
O O12 0.647336 0.584463 0.500000
O O13 0.500000 0.586100 0.291920
O O14 0.654027 0.500000 0.291194
O O15 0.653902 0.794038 0.500000
O O16 0.500000 0.798179 0.700681
#
# Coordination Sequence:
#
# PCOD9389355 Si02
#       6
#     4   8   4   8   8   8
#     4  11  21  38  62  82 108 147 190 233 282 335
#     4   9  16  27  47  78 110 137 178 241 298 336
#     4   9  15  27  50  77 103 133 176 231 288 338
#     4  12  24  37  56  85 118 149 186 231 282 334
#     4   9  19  38  64  91 118 151 191 231 272 323
#     4  10  20  34  53  78 109 149 195 236 279 336
#
# _framework density 17.636683999999999
#
# number of rings (size 3 to 8) (size 9 to 14) (size 15 to 20)
#    0.000    2.000    2.000    3.600    0.000    5.200 
#    0.000    3.500    0.000    3.600    0.000    2.800 
#    0.000    0.000    0.000    0.000    0.000    0.000 
#
# Total GULP energy -223317.285579 kJ/mol
# GULP energy per Si atom -5582.932139 kJ/mol
# Density = 1.759654 g / cm^3
# Si number density = 17.636684 Si / 1000 Ang^3
#
#
#
# Elastic Constant Matrix: (Units=GPa)
#
#
# Indices 1 2 3 4 5 6 
#
# 1 120.6522 82.3577 63.5365 0.0000 0.0000 0.0000
# 2 82.3577 137.1794 64.2256 0.0000 0.0000 0.0000
# 3 63.5365 64.2256 70.7400 0.0000 0.0000 0.0000
# 4 0.0000 0.0000 0.0000 1.1142 0.0000 0.0000
# 5 0.0000 0.0000 0.0000 0.0000 12.0580 0.0000
# 6 0.0000 0.0000 0.0000 0.0000 0.0000 33.3397
#
#
#
# Elastic Compliance Matrix: (Units=1/GPa)
#
#
# Indices 1 2 3 4 5 6 
#
# 1 0.017900 -0.005599 -0.010993 0.000000 0.000000 0.000000
# 2 -0.005599 0.014431 -0.008073 0.000000 0.000000 0.000000
# 3 -0.010993 -0.008073 0.031339 0.000000 0.000000 0.000000
# 4 0.000000 0.000000 0.000000 0.897516 0.000000 0.000000
# 5 0.000000 0.000000 0.000000 0.000000 0.082932 0.000000
# 6 0.000000 0.000000 0.000000 0.000000 0.000000 0.029994
#
#
# Mechanical properties :
#
#
# Convention : Reuss Voigt Hill
#
# Bulk Modulus (GPa) = 69.73866 83.20125 76.46996
# Shear Modulus (GPa) = 4.43175 17.19918 10.81546
#
# Velocity S-wave (km/s) = 1.58690 3.12620 2.47905
# Velocity P-wave (km/s) = 6.55632 7.76584 7.18657
#
# Compressibility (1/GPa) = 0.01433925
#
# Stress axis : x y z
#
# Youngs Moduli (GPa) = 55.86745 69.29514 31.90886
#
# Poissons Ratio (x) = 0.38802 0.35077
# Poissons Ratio (y) = 0.31283 0.25759
# Poissons Ratio (z) = 0.61415 0.55941
#
# Static dielectric constant tensor:
#      x y z
#    x 1.588550 0.000000 0.000000 
#    y 0.000000 1.594370 0.000000 
#    z 0.000000 0.000000 1.583540 
# 
# From -- ./inp_files/4134.got.cif
#   From: 2010.05.17/outbox.ucp.g08.bks.cvg/sg47_3_cif.got.tgz:4134.got - 2010.06.11 16:36:43.
