data_PCOD9389838
_publ_section_title
;
Structure prediction by ZEFSAII (Michael W. Deem and Ramdas Pophale) SiO2 
 PCOD9389838
Probable space group: P N N N
;
_chemical_formula_sum "Si O2"
_cell_formula_units_Z 38
_cell_length_a 9.694383
_cell_length_b 11.825599
_cell_length_c 15.063592
_cell_angle_alpha 90.000000
_cell_angle_beta 90.000000
_cell_angle_gamma 90.000000
_cell_volume 1726.918595
_symmetry_space_group_name_H-M "P N N N"
_symmetry_group_IT_number 48
_space_group.IT_coordinate_system_code '2'
_symmetry_cell_setting 'orthorhombic'
loop_
_space_group_symop_operation_xyz
x,y,z
1/2-x,1/2-y,z
x,1/2-y,1/2-z
1/2-x,y,1/2-z
-x,-y,-z
1/2+x,1/2+y,-z
-x,1/2+y,1/2+z
1/2+x,-y,1/2+z
loop_
_atom_site_type_symbol
_atom_site_label
_atom_site_fract_x
_atom_site_fract_y
_atom_site_fract_z
Si Si1 0.766365 0.376660 0.886372
Si Si2 0.750000 0.750000 0.750000
Si Si3 0.770244 0.375125 0.400379
Si Si4 0.055606 0.445533 0.906574
Si Si5 0.592551 0.906282 0.615929
Si Si6 0.750000 0.750000 0.473400
O O1 0.750000 0.250000 0.853089
O O2 0.650656 0.468906 0.868481
O O3 0.914227 0.423445 0.855608
O O4 0.763612 0.369231 0.994233
O O5 0.649611 0.827935 0.693334
O O6 0.750000 0.250000 0.362876
O O7 0.661036 0.465484 0.364007
O O8 0.928988 0.408427 0.392039
O O9 0.138241 0.328795 0.923678
O O10 0.000000 0.500000 0.000000
O O11 0.663674 0.842746 0.531083
#
# Coordination Sequence:
#
# PCOD9389838 Si02
#       6
#     8   2   8   8   8   4
#     4  10  20  33  57  89 119 147 185 237 308 363
#     4  10  28  40  60  76 112 164 220 246 274 336
#     4  10  20  32  56  88 121 147 185 238 306 361
#     4  10  19  31  48  89 122 149 181 229 304 362
#     4  11  21  38  56  77 115 160 202 237 286 345
#     4  11  18  29  56  76 124 151 175 238 290 368
#
# _framework density 22.004512999999999
#
# number of rings (size 3 to 8) (size 9 to 14) (size 15 to 20)
#    0.000    1.684    4.211    4.421    5.895    0.000 
#    0.000    1.053    0.000    0.000    0.000    0.000 
#    0.000    0.000    0.000    0.000    0.000    0.000 
#
# Total GULP energy -212265.169456 kJ/mol
# GULP energy per Si atom -5585.925512 kJ/mol
# Density = 2.195443 g / cm^3
# Si number density = 22.004513 Si / 1000 Ang^3
#
#
#
# Elastic Constant Matrix: (Units=GPa)
#
#
# Indices 1 2 3 4 5 6 
#
# 1 220.0311 98.0130 2.2027 0.0000 0.0000 0.0000
# 2 98.0130 193.1061 8.4744 0.0000 0.0000 0.0000
# 3 2.2027 8.4744 18.0141 0.0000 0.0000 0.0000
# 4 0.0000 0.0000 0.0000 -3.7154 0.0000 0.0000
# 5 0.0000 0.0000 0.0000 0.0000 -0.0597 0.0000
# 6 0.0000 0.0000 0.0000 0.0000 0.0000 45.3983
#
#
#
# Elastic Compliance Matrix: (Units=1/GPa)
#
#
# Indices 1 2 3 4 5 6 
#
# 1 0.005881 -0.003016 0.000700 0.000000 0.000000 0.000000
# 2 -0.003016 0.006834 -0.002846 0.000000 0.000000 0.000000
# 3 0.000700 -0.002846 0.056765 0.000000 0.000000 0.000000
# 4 0.000000 0.000000 0.000000 -0.269147 0.000000 0.000000
# 5 0.000000 0.000000 0.000000 0.000000-16.738800 0.000000
# 6 0.000000 0.000000 0.000000 0.000000 0.000000 0.022027
#
#
# Mechanical properties :
#
#
# Convention : Reuss Voigt Hill
#
# Bulk Modulus (GPa) = 16.90450 72.05905 44.48177
# Shear Modulus (GPa) = -0.29610 29.82204 14.76297
#
# Velocity S-wave (km/s) = -0.36722 3.68539 2.59300
# Velocity P-wave (km/s) = 2.74211 7.13638 5.40588
#
# Compressibility (1/GPa) = 0.05915586
#
# Stress axis : x y z
#
# Youngs Moduli (GPa) = 170.03401 146.32541 17.61637
#
# Poissons Ratio (x) = 0.44128 -0.01232
# Poissons Ratio (y) = 0.51278 0.05014
# Poissons Ratio (z) = -0.11895 0.41647
#
# Static dielectric constant tensor:
#      x y z
#    x 1.760480 0.000000 0.000000 
#    y 0.000000 1.778120 0.000000 
#    z 0.000000 0.000000 1.841600 
# 
# From -- ./inp_files/10732.got.cif
#   From: 2010.05.17/outbox.cif.g08.bks.cpg/sg48_6_cif.got.tgz:10732.got - 2010.06.03 20:39:00.
