data_PCOD9389136
_publ_section_title
;
Structure prediction by ZEFSAII (Michael W. Deem and Ramdas Pophale) SiO2 
 PCOD9389136
Probable space group: P M M M
;
_chemical_formula_sum "Si O2"
_cell_formula_units_Z 44
_cell_length_a 9.704330
_cell_length_b 31.436881
_cell_length_c 7.520113
_cell_angle_alpha 90.000000
_cell_angle_beta 90.000000
_cell_angle_gamma 90.000000
_cell_volume 2294.189956
_symmetry_space_group_name_H-M "P M M M"
_symmetry_group_IT_number 47
_symmetry_cell_setting 'orthorhombic'
loop_
_space_group_symop_operation_xyz
x,y,z
-x,-y,z
x,-y,-z
-x,y,-z
-x,-y,-z
x,y,-z
-x,y,z
x,-y,z
loop_
_atom_site_type_symbol
_atom_site_label
_atom_site_fract_x
_atom_site_fract_y
_atom_site_fract_z
Si Si1 0.341453 0.800855 0.216956
Si Si2 0.160036 0.721502 0.216932
Si Si3 0.343345 0.546630 0.286828
Si Si4 0.836745 0.116903 0.211207
Si Si5 0.845178 0.626971 0.787670
Si Si6 0.166819 0.048146 0.500000
O O1 0.500000 0.802290 0.275800
O O2 0.260767 0.758717 0.277844
O O3 0.254276 0.842598 0.265504
O O4 0.342659 0.799884 0.000000
O O5 0.200983 0.673802 0.275508
O O6 0.000000 0.728568 0.267942
O O7 0.162502 0.722444 0.000000
O O8 0.349452 0.544495 0.500000
O O9 0.500000 0.552179 0.221208
O O10 0.292548 0.500000 0.224101
O O11 0.251282 0.587103 0.246131
O O12 0.796523 0.076026 0.327309
O O13 0.000000 0.125717 0.241271
O O14 0.819195 0.109626 0.000000
O O15 0.000000 0.619251 0.719052
O O16 0.854233 0.630833 0.000000
O O17 0.000000 0.045530 0.500000
O O18 0.220563 0.000000 0.500000
#
# Coordination Sequence:
#
# PCOD9389136 Si02
#       6
#     8   8   8   8   8   4
#     4   9  16  26  44  71  99 127 162 201 237 280
#     4   8  14  26  44  67  97 129 158 191 236 290
#     4   9  19  35  51  66  88 122 162 201 242 290
#     4   9  17  30  50  74 100 133 169 206 252 300
#     4   9  18  31  48  73 101 125 153 195 244 293
#     4   9  18  32  51  77 105 131 167 215 256 295
#
# _framework density 19.178882999999999
#
# number of rings (size 3 to 8) (size 9 to 14) (size 15 to 20)
#    0.000    3.182    0.000    2.182    0.000    4.727 
#    0.000    6.818    2.000    1.091    0.000    2.545 
#    0.000    0.000    0.000    0.000    0.000    0.000 
#
# Total GULP energy -245263.124924 kJ/mol
# GULP energy per Si atom -5574.161930 kJ/mol
# Density = 1.913523 g / cm^3
# Si number density = 19.178883 Si / 1000 Ang^3
#
#
#
# Elastic Constant Matrix: (Units=GPa)
#
#
# Indices 1 2 3 4 5 6 
#
# 1 96.5005 116.1866 23.8510 0.0000 0.0000 0.0000
# 2 116.1866 234.7269 39.0183 0.0000 0.0000 0.0000
# 3 23.8510 39.0183 55.1288 0.0000 0.0000 0.0000
# 4 0.0000 0.0000 0.0000 36.4666 0.0000 0.0000
# 5 0.0000 0.0000 0.0000 0.0000 11.7610 0.0000
# 6 0.0000 0.0000 0.0000 0.0000 0.0000 -13.0249
#
#
#
# Elastic Compliance Matrix: (Units=1/GPa)
#
#
# Indices 1 2 3 4 5 6 
#
# 1 0.025929 -0.012433 -0.002419 0.000000 0.000000 0.000000
# 2 -0.012433 0.010790 -0.002258 0.000000 0.000000 0.000000
# 3 -0.002419 -0.002258 0.020784 0.000000 0.000000 0.000000
# 4 0.000000 0.000000 0.000000 0.027422 0.000000 0.000000
# 5 0.000000 0.000000 0.000000 0.000000 0.085027 0.000000
# 6 0.000000 0.000000 0.000000 0.000000 0.000000 -0.076776
#
#
# Mechanical properties :
#
#
# Convention : Reuss Voigt Hill
#
# Bulk Modulus (GPa) = 42.94683 82.71869 62.83276
# Shear Modulus (GPa) = 36.99458 20.86056 28.92757
#
# Velocity S-wave (km/s) = 4.39671 3.30158 3.88790
# Velocity P-wave (km/s) = 6.94379 7.59985 7.27921
#
# Compressibility (1/GPa) = 0.02328460
#
# Stress axis : x y z
#
# Youngs Moduli (GPa) = 38.56646 92.68268 48.11476
#
# Poissons Ratio (x) = 1.15228 0.11638
# Poissons Ratio (y) = 0.47948 0.10862
# Poissons Ratio (z) = 0.09328 0.20924
#
# Static dielectric constant tensor:
#      x y z
#    x 1.648240 0.000000 0.000000 
#    y 0.000000 1.663460 0.000000 
#    z 0.000000 0.000000 1.718860 
# 
# From -- ./inp_files/2108.got.cif
#   From: 2010.05.17/outbox.cif.g08.bks.cpg/sg47_2_cif.got.tgz:2108.got - 2010.06.03 20:15:42.
