data_PCOD9389271
_publ_section_title
;
Structure prediction by ZEFSAII (Michael W. Deem and Ramdas Pophale) SiO2 
 PCOD9389271
Probable space group: P M M M
;
_chemical_formula_sum "Si O2"
_cell_formula_units_Z 64
_cell_length_a 24.000000
_cell_length_b 15.000000
_cell_length_c 9.000000
_cell_angle_alpha 90.000000
_cell_angle_beta 90.000000
_cell_angle_gamma 90.000000
_cell_volume 3240.000000
_symmetry_space_group_name_H-M "P M M M"
_symmetry_group_IT_number 47
_symmetry_cell_setting 'orthorhombic'
loop_
_space_group_symop_operation_xyz
x,y,z
-x,-y,z
x,-y,-z
-x,y,-z
-x,-y,-z
x,y,-z
-x,y,z
x,-y,z
loop_
_atom_site_type_symbol
_atom_site_label
_atom_site_fract_x
_atom_site_fract_y
_atom_site_fract_z
Si Si1 0.604291 0.896651 0.819818
Si Si2 0.939545 0.779975 0.320849
Si Si3 0.276054 0.898193 0.835904
Si Si4 0.662399 0.602208 0.675393
Si Si5 0.779174 0.353264 0.823332
Si Si6 0.095832 0.596659 0.177271
Si Si7 0.820560 0.827878 0.676468
Si Si8 0.439142 0.273815 0.678800
O O1 0.666371 0.861242 0.772533
O O2 0.564402 0.824250 0.748913
O O3 0.593864 0.000000 0.775701
O O4 0.602809 0.893181 0.000000
O O5 0.939458 0.778795 0.500000
O O6 0.930112 0.679781 0.262485
O O7 0.884606 0.833852 0.272737
O O8 0.000000 0.813087 0.270391
O O9 0.222044 0.899402 0.735644
O O10 0.292697 0.000000 0.856660
O O11 0.263817 0.860083 0.000000
O O12 0.671990 0.620139 0.500000
O O13 0.643900 0.500000 0.690227
O O14 0.721742 0.612201 0.756261
O O15 0.613147 0.666558 0.729922
O O16 0.837485 0.404066 0.795201
O O17 0.792823 0.259307 0.747780
O O18 0.773426 0.347389 0.000000
O O19 0.072835 0.500000 0.219396
O O20 0.087894 0.609295 0.000000
O O21 0.819970 0.822312 0.500000
O O22 0.435282 0.267110 0.500000
O O23 0.500000 0.313258 0.714621
#
# Coordination Sequence:
#
# PCOD9389271 Si02
#       8
#     8   8   8   8   8   8   8   8
#     4   9  19  36  57  81 108 137 167 201 249 309
#     4   9  19  34  48  64  90 126 166 204 242 285
#     4   9  18  33  53  78 107 134 159 193 243 301
#     4  10  21  36  54  76 102 134 174 220 265 307
#     4  10  19  32  51  74 101 131 163 202 253 309
#     4   9  18  31  46  67  95 124 155 195 244 296
#     4  10  19  31  50  75 101 130 166 207 249 295
#     4  10  22  38  54  75 104 138 176 215 255 301
#
# _framework density 19.753086
#
# number of rings (size 3 to 8) (size 9 to 14) (size 15 to 20)
#    0.000    2.500    0.000    2.625    0.000    6.750 
#    0.000    5.000    0.000    0.375    0.000    4.375 
#    0.000    0.000    0.000    0.000    0.000    0.000 
#
# Total GULP energy -356321.501679 kJ/mol
# GULP energy per Si atom -5567.523464 kJ/mol
# Density = 1.970813 g / cm^3
# Si number density = 19.753086 Si / 1000 Ang^3
#
#
#
# Elastic Constant Matrix: (Units=GPa)
#
#
# Indices 1 2 3 4 5 6 
#
# 1 122.2203 23.3798 28.7019 0.0000 0.0000 0.0000
# 2 23.3798 33.6929 6.2106 0.0000 0.0000 0.0000
# 3 28.7019 6.2106 14.2428 0.0000 0.0000 0.0000
# 4 0.0000 0.0000 0.0000 18.9565 0.0000 0.0000
# 5 0.0000 0.0000 0.0000 0.0000 16.3712 0.0000
# 6 0.0000 0.0000 0.0000 0.0000 0.0000 -61.1849
#
#
#
# Elastic Compliance Matrix: (Units=1/GPa)
#
#
# Indices 1 2 3 4 5 6 
#
# 1 0.016510 -0.005789 -0.030746 0.000000 0.000000 0.000000
# 2 -0.005789 0.034304 -0.003293 0.000000 0.000000 0.000000
# 3 -0.030746 -0.003293 0.133605 0.000000 0.000000 0.000000
# 4 0.000000 0.000000 0.000000 0.052752 0.000000 0.000000
# 5 0.000000 0.000000 0.000000 0.000000 0.061083 0.000000
# 6 0.000000 0.000000 0.000000 0.000000 0.000000 -0.016344
#
#
# Mechanical properties :
#
#
# Convention : Reuss Voigt Hill
#
# Bulk Modulus (GPa) = 9.54525 31.86007 20.70266
# Shear Modulus (GPa) = 12.61080 2.28616 7.44848
#
# Velocity S-wave (km/s) = 2.52944 1.07698 1.94396
# Velocity P-wave (km/s) = 3.65699 4.20841 3.94235
#
# Compressibility (1/GPa) = 0.10476411
#
# Stress axis : x y z
#
# Youngs Moduli (GPa) = 60.57109 29.15141 7.48473
#
# Poissons Ratio (x) = 0.16875 0.23012
# Poissons Ratio (y) = 0.35063 0.02465
# Poissons Ratio (z) = 1.86230 0.09599
#
# Static dielectric constant tensor:
#      x y z
#    x 1.740690 0.000000 0.000000 
#    y 0.000000 2.031210 0.000000 
#    z 0.000000 0.000000 1.676700 
# 
# From -- ./inp_files/11607.got.cif
#   From: 2010.05.17/outbox.ucp.g08.bks.cvg/sg47_6_cif.got.tgz:11607.got - 2010.06.11 16:36:43.
