data_PCOD9389817
_publ_section_title
;
Structure prediction by ZEFSAII (Michael W. Deem and Ramdas Pophale) SiO2 
 PCOD9389817
Probable space group: P N N N
;
_chemical_formula_sum "Si O2"
_cell_formula_units_Z 48
_cell_length_a 7.827177
_cell_length_b 30.078929
_cell_length_c 9.554924
_cell_angle_alpha 90.000000
_cell_angle_beta 90.000000
_cell_angle_gamma 90.000000
_cell_volume 2249.545390
_symmetry_space_group_name_H-M "P N N N"
_symmetry_group_IT_number 48
_space_group.IT_coordinate_system_code '2'
_symmetry_cell_setting 'orthorhombic'
loop_
_space_group_symop_operation_xyz
x,y,z
1/2-x,1/2-y,z
x,1/2-y,1/2-z
1/2-x,y,1/2-z
-x,-y,-z
1/2+x,1/2+y,-z
-x,1/2+y,1/2+z
1/2+x,-y,1/2+z
loop_
_atom_site_type_symbol
_atom_site_label
_atom_site_fract_x
_atom_site_fract_y
_atom_site_fract_z
Si Si1 0.532642 0.666445 0.414803
Si Si2 0.459377 0.250930 0.088826
Si Si3 0.259665 0.480779 0.416363
Si Si4 0.421516 0.071559 0.652194
Si Si5 0.558518 0.833160 0.407902
Si Si6 0.077324 0.565713 0.062463
O O1 0.475052 0.707066 0.510721
O O2 0.737706 0.661208 0.438327
O O3 0.524546 0.680895 0.252344
O O4 0.437480 0.619351 0.440717
O O5 0.250000 0.250000 0.080436
O O6 0.507949 0.250000 0.250000
O O7 0.511539 0.296290 0.011699
O O8 0.250000 0.473817 0.250000
O O9 0.126683 0.458008 0.521577
O O10 0.266013 0.532706 0.463089
O O11 0.432028 0.454627 0.462969
O O12 0.250000 0.082571 0.750000
O O13 0.504767 0.116449 0.592508
O O14 0.534533 0.052739 0.776547
#
# Coordination Sequence:
#
# PCOD9389817 Si02
#       6
#     8   8   8   8   8   8
#     4   9  14  26  40  54  79 120 152 171 207 269
#     4   9  17  22  32  59  88 111 141 177 213 262
#     4  10  19  29  46  68  86 118 159 199 236 268
#     4   9  15  30  45  62  89 121 154 191 224 269
#     4   9  13  24  39  56  76 118 153 167 209 271
#     4   9  18  32  46  62  90 125 158 190 231 275
#
# _framework density 21.337644999999998
#
# number of rings (size 3 to 8) (size 9 to 14) (size 15 to 20)
#    0.000    2.833    5.000    0.500    0.000    4.000 
#    0.000    0.000    0.000    0.000    0.000    0.000 
#    0.000   10.667    0.000    7.333    0.333    0.500 
#
# Total GULP energy -267343.665252 kJ/mol
# GULP energy per Si atom -5569.659693 kJ/mol
# Density = 2.128908 g / cm^3
# Si number density = 21.337645 Si / 1000 Ang^3
#
#
#
# Elastic Constant Matrix: (Units=GPa)
#
#
# Indices 1 2 3 4 5 6 
#
# 1 35.4239 23.9372 28.4912 0.0000 0.0000 0.0000
# 2 23.9372 153.5093 117.6769 0.0000 0.0000 0.0000
# 3 28.4912 117.6769 141.2171 0.0000 0.0000 0.0000
# 4 0.0000 0.0000 0.0000 25.8123 0.0000 0.0000
# 5 0.0000 0.0000 0.0000 0.0000 8.3081 0.0000
# 6 0.0000 0.0000 0.0000 0.0000 0.0000 3.5425
#
#
#
# Elastic Compliance Matrix: (Units=1/GPa)
#
#
# Indices 1 2 3 4 5 6 
#
# 1 0.033698 -0.000119 -0.006700 0.000000 0.000000 0.000000
# 2 -0.000119 0.018035 -0.015005 0.000000 0.000000 0.000000
# 3 -0.006700 -0.015005 0.020937 0.000000 0.000000 0.000000
# 4 0.000000 0.000000 0.000000 0.038741 0.000000 0.000000
# 5 0.000000 0.000000 0.000000 0.000000 0.120365 0.000000
# 6 0.000000 0.000000 0.000000 0.000000 0.000000 0.282283
#
#
# Mechanical properties :
#
#
# Convention : Reuss Voigt Hill
#
# Bulk Modulus (GPa) = 34.45507 74.48454 54.46981
# Shear Modulus (GPa) = 8.81243 18.20225 13.50734
#
# Velocity S-wave (km/s) = 2.03444 2.92388 2.51874
# Velocity P-wave (km/s) = 4.65846 6.81044 5.83453
#
# Compressibility (1/GPa) = 0.02902330
#
# Stress axis : x y z
#
# Youngs Moduli (GPa) = 29.67503 55.44733 47.76324
#
# Poissons Ratio (x) = 0.00658 0.32001
# Poissons Ratio (y) = 0.00352 0.71668
# Poissons Ratio (z) = 0.19882 0.83198
#
# Static dielectric constant tensor:
#      x y z
#    x 1.876540 0.000000 0.000000 
#    y 0.000000 1.794800 0.000000 
#    z 0.000000 0.000000 1.760190 
# 
# From -- ./inp_files/11484.got.cif
#   From: 2010.05.17/outbox.cif.g08.bks.cpg/sg48_6_cif.got.tgz:11484.got - 2010.06.03 20:39:00.
