data_PCOD9389659
_publ_section_title
;
Structure prediction by ZEFSAII (Michael W. Deem and Ramdas Pophale) SiO2 
 PCOD9389659
Probable space group: P N N N
;
_chemical_formula_sum "Si O2"
_cell_formula_units_Z 64
_cell_length_a 17.063803
_cell_length_b 20.904811
_cell_length_c 9.212743
_cell_angle_alpha 90.000000
_cell_angle_beta 90.000000
_cell_angle_gamma 90.000000
_cell_volume 3286.328932
_symmetry_space_group_name_H-M "P N N N"
_symmetry_group_IT_number 48
_space_group.IT_coordinate_system_code '2'
_symmetry_cell_setting 'orthorhombic'
loop_
_space_group_symop_operation_xyz
x,y,z
1/2-x,1/2-y,z
x,1/2-y,1/2-z
1/2-x,y,1/2-z
-x,-y,-z
1/2+x,1/2+y,-z
-x,1/2+y,1/2+z
1/2+x,-y,1/2+z
loop_
_atom_site_type_symbol
_atom_site_label
_atom_site_fract_x
_atom_site_fract_y
_atom_site_fract_z
Si Si1 0.623180 0.489330 0.215255
Si Si2 0.760047 0.363207 0.583928
Si Si3 0.981150 0.061684 0.681320
Si Si4 0.478221 0.320907 0.226592
Si Si5 0.889968 0.127577 0.423169
Si Si6 0.230088 0.484737 0.459466
Si Si7 0.431674 0.884708 0.491351
Si Si8 0.124560 0.060589 0.306785
O O1 0.571347 0.544057 0.289793
O O2 0.640120 0.434756 0.333894
O O3 0.574036 0.448047 0.093948
O O4 0.694475 0.515609 0.119776
O O5 0.750000 0.341962 0.750000
O O6 0.686265 0.339882 0.491504
O O7 0.753633 0.441211 0.582519
O O8 0.845670 0.352243 0.516231
O O9 0.949399 0.103847 0.548946
O O10 0.940294 0.992808 0.661256
O O11 0.950501 0.093399 0.829441
O O12 0.448882 0.250000 0.250000
O O13 0.559221 0.329914 0.315309
O O14 0.502924 0.340135 0.063399
O O15 0.417040 0.372249 0.286941
O O16 0.308319 0.445173 0.427880
O O17 0.166206 0.459141 0.344505
#
# Coordination Sequence:
#
# PCOD9389659 Si02
#       8
#     8   8   8   8   8   8   8   8
#     4  10  20  28  49  89 128 151 178 234 308 380
#     4  11  17  33  55  88 124 148 174 236 313 383
#     4  12  17  33  58  93 120 150 188 242 323 372
#     4  11  26  43  56  79 118 168 219 253 285 343
#     4  11  22  34  57  88 124 158 188 248 309 365
#     4  10  18  31  54  91 125 152 184 235 314 374
#     4  10  19  33  59  82 117 158 195 241 295 372
#     4  11  18  35  61  86 122 158 193 245 298 370
#
# _framework density 19.474618
#
# number of rings (size 3 to 8) (size 9 to 14) (size 15 to 20)
#    0.000    1.250    8.750    1.500    0.000    4.500 
#    0.000    3.125    0.000    0.750    0.000    0.000 
#    0.000    0.000    0.000    0.000    0.000    0.000 
#
# Total GULP energy -357562.253271 kJ/mol
# GULP energy per Si atom -5586.910207 kJ/mol
# Density = 1.943029 g / cm^3
# Si number density = 19.474618 Si / 1000 Ang^3
#
#
#
# Elastic Constant Matrix: (Units=GPa)
#
#
# Indices 1 2 3 4 5 6 
#
# 1 55.6009 -2.9433 21.2777 0.0000 0.0000 0.0000
# 2 -2.9433 41.4291 -0.9822 0.0000 0.0000 0.0000
# 3 21.2777 -0.9822 93.2088 0.0000 0.0000 0.0000
# 4 0.0000 0.0000 0.0000 5.7624 0.0000 0.0000
# 5 0.0000 0.0000 0.0000 0.0000 42.8636 0.0000
# 6 0.0000 0.0000 0.0000 0.0000 0.0000 5.6970
#
#
#
# Elastic Compliance Matrix: (Units=1/GPa)
#
#
# Indices 1 2 3 4 5 6 
#
# 1 0.019776 0.001298 -0.004501 0.000000 0.000000 0.000000
# 2 0.001298 0.024229 -0.000041 0.000000 0.000000 0.000000
# 3 -0.004501 -0.000041 0.011756 0.000000 0.000000 0.000000
# 4 0.000000 0.000000 0.000000 0.173538 0.000000 0.000000
# 5 0.000000 0.000000 0.000000 0.000000 0.023330 0.000000
# 6 0.000000 0.000000 0.000000 0.000000 0.000000 0.175532
#
#
# Mechanical properties :
#
#
# Convention : Reuss Voigt Hill
#
# Bulk Modulus (GPa) = 20.29482 24.99369 22.64426
# Shear Modulus (GPa) = 11.08471 22.39038 16.73754
#
# Velocity S-wave (km/s) = 2.38835 3.39443 2.93483
# Velocity P-wave (km/s) = 4.24846 5.31270 4.81010
#
# Compressibility (1/GPa) = 0.04927365
#
# Stress axis : x y z
#
# Youngs Moduli (GPa) = 50.56517 41.27308 85.06563
#
# Poissons Ratio (x) = -0.05358 0.38287
# Poissons Ratio (y) = -0.06565 0.00349
# Poissons Ratio (z) = 0.22759 0.00169
#
# Static dielectric constant tensor:
#      x y z
#    x 1.743080 0.000000 0.000000 
#    y 0.000000 1.653790 0.000000 
#    z 0.000000 0.000000 1.724640 
# 
# From -- ./inp_files/14591.got.cif
#   From: 2010.05.17/outbox.cif.g08.bks.cpg/sg48_8_cif.got.tgz:14591.got - 2010.06.03 20:39:00.
