data_PCOD9389455
_publ_section_title
;
Structure prediction by ZEFSAII (Michael W. Deem and Ramdas Pophale) SiO2 
 PCOD9389455
Probable space group: P M M M
;
_chemical_formula_sum "Si O2"
_cell_formula_units_Z 64
_cell_length_a 15.000000
_cell_length_b 9.000000
_cell_length_c 30.000000
_cell_angle_alpha 90.000000
_cell_angle_beta 90.000000
_cell_angle_gamma 90.000000
_cell_volume 4050.000000
_symmetry_space_group_name_H-M "P M M M"
_symmetry_group_IT_number 47
_symmetry_cell_setting 'orthorhombic'
loop_
_space_group_symop_operation_xyz
x,y,z
-x,-y,z
x,-y,-z
-x,y,-z
-x,-y,-z
x,y,-z
-x,y,z
x,-y,z
loop_
_atom_site_type_symbol
_atom_site_label
_atom_site_fract_x
_atom_site_fract_y
_atom_site_fract_z
Si Si1 0.399210 0.323604 0.143964
Si Si2 0.219412 0.174413 0.882414
Si Si3 0.897412 0.821973 0.361155
Si Si4 0.216461 0.178487 0.724052
Si Si5 0.894873 0.321758 0.195707
Si Si6 0.899379 0.329791 0.946708
Si Si7 0.399083 0.676788 0.250923
Si Si8 0.108060 0.326606 0.548349
O O1 0.500000 0.280812 0.130681
O O2 0.388729 0.500000 0.135770
O O3 0.319480 0.234929 0.121598
O O4 0.392179 0.302012 0.197415
O O5 0.156842 0.258585 0.846866
O O6 0.173782 0.218508 0.928641
O O7 0.217549 0.000000 0.873868
O O8 0.831781 0.777875 0.321771
O O9 0.864051 0.762139 0.408390
O O10 0.000000 0.769781 0.353384
O O11 0.900444 0.000000 0.362517
O O12 0.156992 0.251318 0.762720
O O13 0.317387 0.236631 0.727355
O O14 0.215039 0.000000 0.728627
O O15 0.887299 0.500000 0.196838
O O16 0.000000 0.283290 0.195616
O O17 0.880938 0.500000 0.931921
O O18 0.000000 0.291921 0.931266
O O19 0.900395 0.330049 0.000000
O O20 0.500000 0.721241 0.264147
O O21 0.389998 0.500000 0.259040
O O22 0.139408 0.271268 0.500000
O O23 0.131518 0.500000 0.552388
O O24 0.000000 0.318827 0.547743
#
# Coordination Sequence:
#
# PCOD9389455 Si02
#       8
#     8   8   8   8   8   8   8   8
#     4   9  18  34  55  75  97 127 163 202 240 283
#     4  12  23  33  51  79 106 130 157 197 246 290
#     4   9  18  30  42  60  91 129 162 192 232 284
#     4  11  21  32  47  69  97 127 159 199 243 286
#     4  11  23  36  49  66  93 132 172 203 231 273
#     4   9  19  37  59  79 100 131 169 203 235 278
#     4   9  18  33  52  71  92 122 161 202 241 284
#     4   8  14  25  41  61  84 112 153 203 243 274
#
# _framework density 15.802469
#
# number of rings (size 3 to 8) (size 9 to 14) (size 15 to 20)
#    0.000    2.250    1.250    4.125    0.000    5.250 
#    0.000    4.375    0.000    0.375    0.000    2.625 
#    0.000    0.500    0.000    5.500    0.000    4.250 
#
# Total GULP energy -356813.035682 kJ/mol
# GULP energy per Si atom -5575.203683 kJ/mol
# Density = 1.576650 g / cm^3
# Si number density = 15.802469 Si / 1000 Ang^3
#
#
#
# Elastic Constant Matrix: (Units=GPa)
#
#
# Indices 1 2 3 4 5 6 
#
# 1 119.7045 51.8923 40.7243 0.0000 0.0000 0.0000
# 2 51.8923 41.5877 26.8778 0.0000 0.0000 0.0000
# 3 40.7243 26.8778 60.2690 0.0000 0.0000 0.0000
# 4 0.0000 0.0000 0.0000 23.5767 0.0000 0.0000
# 5 0.0000 0.0000 0.0000 0.0000 -5.3392 0.0000
# 6 0.0000 0.0000 0.0000 0.0000 0.0000 14.4726
#
#
#
# Elastic Compliance Matrix: (Units=1/GPa)
#
#
# Indices 1 2 3 4 5 6 
#
# 1 0.018605 -0.021200 -0.003117 0.000000 0.000000 0.000000
# 2 -0.021200 0.057940 -0.011514 0.000000 0.000000 0.000000
# 3 -0.003117 -0.011514 0.023833 0.000000 0.000000 0.000000
# 4 0.000000 0.000000 0.000000 0.042415 0.000000 0.000000
# 5 0.000000 0.000000 0.000000 0.000000 -0.187294 0.000000
# 6 0.000000 0.000000 0.000000 0.000000 0.000000 0.069096
#
#
# Mechanical properties :
#
#
# Convention : Reuss Voigt Hill
#
# Bulk Modulus (GPa) = 34.82389 51.17223 42.99806
# Shear Modulus (GPa) = 47.24615 13.34646 30.29630
#
# Velocity S-wave (km/s) = 5.47383 2.90932 4.38332
# Velocity P-wave (km/s) = 7.87625 6.61349 7.27233
#
# Compressibility (1/GPa) = 0.02871592
#
# Stress axis : x y z
#
# Youngs Moduli (GPa) = 53.75016 17.25917 41.95819
#
# Poissons Ratio (x) = 0.36590 0.13078
# Poissons Ratio (y) = 1.13951 0.48311
# Poissons Ratio (z) = 0.16753 0.19872
#
# Static dielectric constant tensor:
#      x y z
#    x 1.516750 0.000000 0.000000 
#    y 0.000000 1.530350 0.000000 
#    z 0.000000 0.000000 1.550580 
# 
# From -- ./inp_files/14325.got.cif
#   From: 2010.05.17/outbox.ucp.g08.bks.cvg/sg47_8_cif.got.tgz:14325.got - 2010.06.11 16:36:43.
