data_PCOD9389567
_publ_section_title
;
Structure prediction by ZEFSAII (Michael W. Deem and Ramdas Pophale) SiO2 
 PCOD9389567
Probable space group: P N N N
;
_chemical_formula_sum "Si O2"
_cell_formula_units_Z 48
_cell_length_a 10.287989
_cell_length_b 22.521593
_cell_length_c 10.747352
_cell_angle_alpha 90.000000
_cell_angle_beta 90.000000
_cell_angle_gamma 90.000000
_cell_volume 2490.181890
_symmetry_space_group_name_H-M "P N N N"
_symmetry_group_IT_number 48
_space_group.IT_coordinate_system_code '2'
_symmetry_cell_setting 'orthorhombic'
loop_
_space_group_symop_operation_xyz
x,y,z
1/2-x,1/2-y,z
x,1/2-y,1/2-z
1/2-x,y,1/2-z
-x,-y,-z
1/2+x,1/2+y,-z
-x,1/2+y,1/2+z
1/2+x,-y,1/2+z
loop_
_atom_site_type_symbol
_atom_site_label
_atom_site_fract_x
_atom_site_fract_y
_atom_site_fract_z
Si Si1 0.663645 0.000428 0.626954
Si Si2 0.922300 0.060252 0.243192
Si Si3 0.593373 0.239803 0.395314
Si Si4 0.957932 0.361935 0.010979
Si Si5 0.382175 0.464168 0.567131
Si Si6 0.837854 0.116537 0.005708
O O1 0.750000 0.009051 0.750000
O O2 0.610172 0.064447 0.582476
O O3 0.550961 0.955513 0.664406
O O4 0.755839 0.975165 0.517252
O O5 0.542718 0.106949 0.148036
O O6 0.825663 0.087680 0.142694
O O7 0.621213 0.998138 0.196849
O O8 0.750000 0.250000 0.396442
O O9 0.555742 0.250000 0.250000
O O10 0.525150 0.292197 0.471258
O O11 0.581609 0.175993 0.462785
O O12 0.065317 0.397211 0.932838
O O13 0.810166 0.371023 0.961875
O O14 0.500000 0.500000 0.500000
#
# Coordination Sequence:
#
# PCOD9389567 Si02
#       6
#     8   8   8   8   8   8
#     4  12  21  33  50  78 112 142 175 219 275 337
#     4  11  20  32  51  78 106 136 174 224 274 317
#     4   9  17  27  49  75 100 136 168 216 261 311
#     4  10  17  32  52  74 105 138 177 207 270 332
#     4  10  19  33  52  72 101 150 171 211 273 322
#     4  11  20  32  51  80 110 133 175 228 271 321
#
# _framework density 19.275701000000002
#
# number of rings (size 3 to 8) (size 9 to 14) (size 15 to 20)
#    0.000    1.500    8.333    1.000    0.000    0.000 
#    0.000    0.000    0.000   12.500    0.000    0.000 
#    0.000    0.333    0.000    0.000    0.000    0.000 
#
# Total GULP energy -267548.573252 kJ/mol
# GULP energy per Si atom -5573.928609 kJ/mol
# Density = 1.923183 g / cm^3
# Si number density = 19.275701 Si / 1000 Ang^3
#
#
#
# Elastic Constant Matrix: (Units=GPa)
#
#
# Indices 1 2 3 4 5 6 
#
# 1 48.4243 21.5279 11.1509 0.0000 0.0000 0.0000
# 2 21.5279 135.7049 13.3517 0.0000 0.0000 0.0000
# 3 11.1509 13.3517 27.9804 0.0000 0.0000 0.0000
# 4 0.0000 0.0000 0.0000 27.5593 0.0000 0.0000
# 5 0.0000 0.0000 0.0000 0.0000 27.1952 0.0000
# 6 0.0000 0.0000 0.0000 0.0000 0.0000 21.5128
#
#
#
# Elastic Compliance Matrix: (Units=1/GPa)
#
#
# Indices 1 2 3 4 5 6 
#
# 1 0.023838 -0.002987 -0.008075 0.000000 0.000000 0.000000
# 2 -0.002987 0.008106 -0.002678 0.000000 0.000000 0.000000
# 3 -0.008075 -0.002678 0.040235 0.000000 0.000000 0.000000
# 4 0.000000 0.000000 0.000000 0.036285 0.000000 0.000000
# 5 0.000000 0.000000 0.000000 0.000000 0.036771 0.000000
# 6 0.000000 0.000000 0.000000 0.000000 0.000000 0.046484
#
#
# Mechanical properties :
#
#
# Convention : Reuss Voigt Hill
#
# Bulk Modulus (GPa) = 22.37118 33.79673 28.08395
# Shear Modulus (GPa) = 21.35848 26.32541 23.84195
#
# Velocity S-wave (km/s) = 3.33235 3.69959 3.52076
# Velocity P-wave (km/s) = 5.14171 5.98504 5.57933
#
# Compressibility (1/GPa) = 0.04470037
#
# Stress axis : x y z
#
# Youngs Moduli (GPa) = 41.94954 123.36142 24.85398
#
# Poissons Ratio (x) = 0.36850 0.20069
# Poissons Ratio (y) = 0.12531 0.06655
# Poissons Ratio (z) = 0.33873 0.33032
#
# Static dielectric constant tensor:
#      x y z
#    x 1.718260 0.000000 0.000000 
#    y 0.000000 1.730220 0.000000 
#    z 0.000000 0.000000 1.707520 
# 
# From -- ./inp_files/25507.got.cif
#   From: 2010.05.17/outbox.cif.g08.bks.cpg/sg48_13_cif.got.tgz:25507.got - 2010.06.03 20:39:00.
