data_PCOD9389880
_publ_section_title
;
Structure prediction by ZEFSAII (Michael W. Deem and Ramdas Pophale) SiO2 
 PCOD9389880
Probable space group: P N N N
;
_chemical_formula_sum "Si O2"
_cell_formula_units_Z 36
_cell_length_a 8.933767
_cell_length_b 14.478169
_cell_length_c 12.986261
_cell_angle_alpha 90.000000
_cell_angle_beta 90.000000
_cell_angle_gamma 90.000000
_cell_volume 1679.702584
_symmetry_space_group_name_H-M "P N N N"
_symmetry_group_IT_number 48
_space_group.IT_coordinate_system_code '2'
_symmetry_cell_setting 'orthorhombic'
loop_
_space_group_symop_operation_xyz
x,y,z
1/2-x,1/2-y,z
x,1/2-y,1/2-z
1/2-x,y,1/2-z
-x,-y,-z
1/2+x,1/2+y,-z
-x,1/2+y,1/2+z
1/2+x,-y,1/2+z
loop_
_atom_site_type_symbol
_atom_site_label
_atom_site_fract_x
_atom_site_fract_y
_atom_site_fract_z
Si Si1 0.400170 0.924011 0.851334
Si Si2 0.250000 0.750000 0.750000
Si Si3 0.112475 0.529263 0.314770
Si Si4 0.308973 0.100312 0.639334
Si Si5 0.684110 0.616214 0.568419
Si Si6 0.750000 0.750000 0.750000
O O1 0.341272 0.823529 0.818597
O O2 0.513077 0.914221 0.946006
O O3 0.506829 0.970200 0.763423
O O4 0.265472 0.996402 0.868744
O O5 0.250000 0.572208 0.250000
O O6 0.197285 0.461387 0.393558
O O7 0.988689 0.595344 0.363832
O O8 0.250000 0.135003 0.750000
O O9 0.246228 0.150363 0.539404
O O10 0.671610 0.684312 0.666663
#
# Coordination Sequence:
#
# PCOD9389880 Si02
#       6
#     8   2   8   8   8   2
#     4  10  19  32  54  83 117 151 192 239 299 345
#     4  12  18  32  58  84 126 148 198 252 298 366
#     4   9  17  33  53  81 113 149 191 240 288 353
#     4  10  20  36  54  82 115 156 195 239 295 366
#     4  11  21  35  56  80 118 149 195 250 301 351
#     4  12  22  36  58  90 110 150 198 250 306 352
#
# _framework density 21.432366999999999
#
# number of rings (size 3 to 8) (size 9 to 14) (size 15 to 20)
#    0.000    1.778    6.667    2.000    0.000    0.000 
#    0.000    0.556    0.000    0.000    0.000    0.000 
#    0.000   16.000    0.000    0.000    0.000    0.000 
#
# Total GULP energy -200420.124016 kJ/mol
# GULP energy per Si atom -5567.225667 kJ/mol
# Density = 2.138359 g / cm^3
# Si number density = 21.432367 Si / 1000 Ang^3
#
#
#
# Elastic Constant Matrix: (Units=GPa)
#
#
# Indices 1 2 3 4 5 6 
#
# 1 162.8756 30.9730 44.9804 0.0000 0.0000 0.0000
# 2 30.9730 73.2431 26.4972 0.0000 0.0000 0.0000
# 3 44.9804 26.4972 117.2725 0.0000 0.0000 0.0000
# 4 0.0000 0.0000 0.0000 11.5982 0.0000 0.0000
# 5 0.0000 0.0000 0.0000 0.0000 16.7330 0.0000
# 6 0.0000 0.0000 0.0000 0.0000 0.0000 -153.7512
#
#
#
# Elastic Compliance Matrix: (Units=1/GPa)
#
#
# Indices 1 2 3 4 5 6 
#
# 1 0.007185 -0.002223 -0.002253 0.000000 0.000000 0.000000
# 2 -0.002223 0.015556 -0.002662 0.000000 0.000000 0.000000
# 3 -0.002253 -0.002662 0.009993 0.000000 0.000000 0.000000
# 4 0.000000 0.000000 0.000000 0.086221 0.000000 0.000000
# 5 0.000000 0.000000 0.000000 0.000000 0.059762 0.000000
# 6 0.000000 0.000000 0.000000 0.000000 0.000000 -0.006504
#
#
# Mechanical properties :
#
#
# Convention : Reuss Voigt Hill
#
# Bulk Modulus (GPa) = 54.18108 62.03248 58.10678
# Shear Modulus (GPa) = 25.95482 -8.35463 8.80010
#
# Velocity S-wave (km/s) = 3.48373 -1.97651 2.02852
# Velocity P-wave (km/s) = 6.44335 4.87826 5.71464
#
# Compressibility (1/GPa) = 0.01845663
#
# Stress axis : x y z
#
# Youngs Moduli (GPa) = 139.18434 64.28243 100.07016
#
# Poissons Ratio (x) = 0.14290 0.22550
# Poissons Ratio (y) = 0.30941 0.26641
# Poissons Ratio (z) = 0.31364 0.17113
#
# Static dielectric constant tensor:
#      x y z
#    x 1.740610 0.000000 0.000000 
#    y 0.000000 1.877010 0.000000 
#    z 0.000000 0.000000 1.818400 
# 
# From -- ./inp_files/25045.got.cif
#   From: 2010.05.17/outbox.cif.g08.bks.cpg/sg48_13_cif.got.tgz:25045.got - 2010.06.03 20:39:00.
