data_PCOD9389783
_publ_section_title
;
Structure prediction by ZEFSAII (Michael W. Deem and Ramdas Pophale) SiO2 
 PCOD9389783
Probable space group: P N N N
;
_chemical_formula_sum "Si O2"
_cell_formula_units_Z 38
_cell_length_a 12.823076
_cell_length_b 22.087778
_cell_length_c 6.389961
_cell_angle_alpha 90.000000
_cell_angle_beta 90.000000
_cell_angle_gamma 90.000000
_cell_volume 1809.849460
_symmetry_space_group_name_H-M "P N N N"
_symmetry_group_IT_number 48
_space_group.IT_coordinate_system_code '2'
_symmetry_cell_setting 'orthorhombic'
loop_
_space_group_symop_operation_xyz
x,y,z
1/2-x,1/2-y,z
x,1/2-y,1/2-z
1/2-x,y,1/2-z
-x,-y,-z
1/2+x,1/2+y,-z
-x,1/2+y,1/2+z
1/2+x,-y,1/2+z
loop_
_atom_site_type_symbol
_atom_site_label
_atom_site_fract_x
_atom_site_fract_y
_atom_site_fract_z
Si Si1 0.564724 0.176547 0.072837
Si Si2 0.994563 0.932218 0.323537
Si Si3 0.077970 0.150069 0.044885
Si Si4 0.079953 0.250000 0.750000
Si Si5 0.750000 0.250000 0.250000
Si Si6 0.142992 0.041576 0.319073
O O1 0.504730 0.178537 0.294428
O O2 0.675587 0.207630 0.108831
O O3 0.563103 0.107381 0.988483
O O4 0.494465 0.211646 0.903710
O O5 0.883348 0.941945 0.440388
O O6 0.048992 0.995391 0.271754
O O7 0.980625 0.892607 0.119312
O O8 0.141666 0.103310 0.185799
O O9 0.134425 0.201849 0.906186
O O10 0.250000 0.010651 0.250000
#
# Coordination Sequence:
#
# PCOD9389783 Si02
#       6
#     8   8   8   4   2   8
#     4  10  21  35  55  84 120 157 198 243 308 375
#     4   9  21  39  59  84 119 160 198 254 314 367
#     4  10  19  37  59  81 115 158 195 248 303 370
#     4  10  18  37  58  79 112 164 194 236 310 366
#     4  12  20  34  52  92 120 152 200 250 308 390
#     4  10  21  38  60  88 117 154 207 255 310 370
#
# _framework density 20.996223000000001
#
# number of rings (size 3 to 8) (size 9 to 14) (size 15 to 20)
#    0.000    2.105    2.105    0.632    0.000    2.947 
#    0.000    0.000    0.000   36.632    0.000    0.000 
#    0.000    0.000    0.000    0.000    0.000    0.000 
#
# Total GULP energy -211754.125778 kJ/mol
# GULP energy per Si atom -5572.476994 kJ/mol
# Density = 2.094843 g / cm^3
# Si number density = 20.996223 Si / 1000 Ang^3
#
#
#
# Elastic Constant Matrix: (Units=GPa)
#
#
# Indices 1 2 3 4 5 6 
#
# 1 58.5677 15.7033 34.4901 0.0000 0.0000 0.0000
# 2 15.7033 99.3506 35.2180 0.0000 0.0000 0.0000
# 3 34.4901 35.2180 118.0263 0.0000 0.0000 0.0000
# 4 0.0000 0.0000 0.0000 39.1242 0.0000 0.0000
# 5 0.0000 0.0000 0.0000 0.0000 6.9024 0.0000
# 6 0.0000 0.0000 0.0000 0.0000 0.0000 22.8439
#
#
#
# Elastic Compliance Matrix: (Units=1/GPa)
#
#
# Indices 1 2 3 4 5 6 
#
# 1 0.020764 -0.001265 -0.005690 0.000000 0.000000 0.000000
# 2 -0.001265 0.011333 -0.003012 0.000000 0.000000 0.000000
# 3 -0.005690 -0.003012 0.011034 0.000000 0.000000 0.000000
# 4 0.000000 0.000000 0.000000 0.025560 0.000000 0.000000
# 5 0.000000 0.000000 0.000000 0.000000 0.144876 0.000000
# 6 0.000000 0.000000 0.000000 0.000000 0.000000 0.043775
#
#
# Mechanical properties :
#
#
# Convention : Reuss Voigt Hill
#
# Bulk Modulus (GPa) = 43.10883 49.64082 46.37483
# Shear Modulus (GPa) = 17.54324 26.47631 22.00978
#
# Velocity S-wave (km/s) = 2.89371 3.55491 3.24122
# Velocity P-wave (km/s) = 5.63392 6.36741 6.01186
#
# Compressibility (1/GPa) = 0.02319710
#
# Stress axis : x y z
#
# Youngs Moduli (GPa) = 48.15919 88.23788 90.62611
#
# Poissons Ratio (x) = 0.11161 0.51570
# Poissons Ratio (y) = 0.06091 0.27297
# Poissons Ratio (z) = 0.27405 0.26578
#
# Static dielectric constant tensor:
#      x y z
#    x 1.749710 0.000000 0.000000 
#    y 0.000000 1.832780 0.000000 
#    z 0.000000 0.000000 1.767290 
# 
# From -- ./inp_files/2461.got.cif
#   From: 2010.05.17/outbox.cif.g08.bks.cpg/sg48_2_cif.got.tgz:2461.got - 2010.06.03 20:39:00.
