data_PCOD9389279
_publ_section_title
;
Structure prediction by ZEFSAII (Michael W. Deem and Ramdas Pophale) SiO2 
 PCOD9389279
Probable space group: P M M M
;
_chemical_formula_sum "Si O2"
_cell_formula_units_Z 64
_cell_length_a 21.000000
_cell_length_b 9.000000
_cell_length_c 21.000000
_cell_angle_alpha 90.000000
_cell_angle_beta 90.000000
_cell_angle_gamma 90.000000
_cell_volume 3969.000000
_symmetry_space_group_name_H-M "P M M M"
_symmetry_group_IT_number 47
_symmetry_cell_setting 'orthorhombic'
loop_
_space_group_symop_operation_xyz
x,y,z
-x,-y,z
x,-y,-z
-x,y,-z
-x,-y,-z
x,y,-z
-x,y,z
x,-y,z
loop_
_atom_site_type_symbol
_atom_site_label
_atom_site_fract_x
_atom_site_fract_y
_atom_site_fract_z
Si Si1 0.315757 0.180722 0.332416
Si Si2 0.213080 0.180452 0.926750
Si Si3 0.930299 0.178263 0.107817
Si Si4 0.071212 0.678508 0.382179
Si Si5 0.200990 0.178238 0.428342
Si Si6 0.745773 0.677794 0.792549
Si Si7 0.105606 0.325143 0.762956
Si Si8 0.575899 0.679539 0.575091
O O1 0.254008 0.220802 0.376137
O O2 0.300778 0.247730 0.261218
O O3 0.376789 0.243822 0.372943
O O4 0.320261 0.000000 0.328243
O O5 0.137808 0.226133 0.921810
O O6 0.249302 0.252472 0.864970
O O7 0.216375 0.000000 0.920014
O O8 0.234315 0.216410 0.000000
O O9 0.924740 0.228712 0.181130
O O10 0.000000 0.230302 0.083088
O O11 0.930512 0.000000 0.102640
O O12 0.075140 0.500000 0.390083
O O13 0.131869 0.751617 0.415609
O O14 0.079464 0.710101 0.306809
O O15 0.000000 0.725592 0.402851
O O16 0.222317 0.218484 0.500000
O O17 0.194875 0.000000 0.425122
O O18 0.733160 0.500000 0.796772
O O19 0.818031 0.697310 0.765936
O O20 0.093268 0.500000 0.775580
O O21 0.590000 0.719265 0.500000
O O22 0.500000 0.713017 0.585656
O O23 0.583049 0.500000 0.580160
#
# Coordination Sequence:
#
# PCOD9389279 Si02
#       8
#     8   8   8   8   8   8   8   8
#     4  11  21  34  55  80 107 137 174 218 258 302
#     4   9  18  32  48  67  96 131 164 205 260 316
#     4   9  17  27  41  63  88 116 154 197 246 310
#     4  10  20  33  48  65  86 115 156 207 262 317
#     4  10  22  37  50  67  93 125 162 207 258 309
#     4  10  19  32  52  74  97 127 168 213 257 307
#     4   9  17  30  46  63  86 115 151 200 256 309
#     4   9  19  36  57  83 117 154 186 214 249 297
#
# _framework density 16.124969
#
# number of rings (size 3 to 8) (size 9 to 14) (size 15 to 20)
#    0.000    2.375    1.250    1.875    0.000    4.500 
#    0.000    3.125    0.000    0.000    0.000    3.500 
#    0.000    0.500    0.000    5.250    0.000    2.250 
#
# Total GULP energy -356628.340737 kJ/mol
# GULP energy per Si atom -5572.317824 kJ/mol
# Density = 1.608827 g / cm^3
# Si number density = 16.124969 Si / 1000 Ang^3
#
#
#
# Elastic Constant Matrix: (Units=GPa)
#
#
# Indices 1 2 3 4 5 6 
#
# 1 83.2373 27.5042 44.8131 0.0000 0.0000 0.0000
# 2 27.5042 41.0305 37.0061 0.0000 0.0000 0.0000
# 3 44.8131 37.0061 120.3595 0.0000 0.0000 0.0000
# 4 0.0000 0.0000 0.0000 27.2272 0.0000 0.0000
# 5 0.0000 0.0000 0.0000 0.0000 21.6894 0.0000
# 6 0.0000 0.0000 0.0000 0.0000 0.0000 25.5408
#
#
#
# Elastic Compliance Matrix: (Units=1/GPa)
#
#
# Indices 1 2 3 4 5 6 
#
# 1 0.016612 -0.007689 -0.003821 0.000000 0.000000 0.000000
# 2 -0.007689 0.037283 -0.008600 0.000000 0.000000 0.000000
# 3 -0.003821 -0.008600 0.012375 0.000000 0.000000 0.000000
# 4 0.000000 0.000000 0.000000 0.036728 0.000000 0.000000
# 5 0.000000 0.000000 0.000000 0.000000 0.046106 0.000000
# 6 0.000000 0.000000 0.000000 0.000000 0.000000 0.039153
#
#
# Mechanical properties :
#
#
# Convention : Reuss Voigt Hill
#
# Bulk Modulus (GPa) = 38.38854 51.47490 44.93172
# Shear Modulus (GPa) = 21.08274 23.91174 22.49724
#
# Velocity S-wave (km/s) = 3.61980 3.85502 3.73926
# Velocity P-wave (km/s) = 6.42878 7.19769 6.82407
#
# Compressibility (1/GPa) = 0.02604944
#
# Stress axis : x y z
#
# Youngs Moduli (GPa) = 60.19867 26.82163 80.80610
#
# Poissons Ratio (x) = 0.20624 0.30874
# Poissons Ratio (y) = 0.46289 0.69496
# Poissons Ratio (z) = 0.23001 0.23067
#
# Static dielectric constant tensor:
#      x y z
#    x 1.540100 0.000000 0.000000 
#    y 0.000000 1.547060 0.000000 
#    z 0.000000 0.000000 1.555240 
# 
# From -- ./inp_files/31536.got.cif
#   From: 2010.05.17/outbox.ucp.g08.bks.cvg/sg47_16_cif.got.tgz:31536.got - 2010.06.11 16:36:43.
