data_PCOD9389933
_publ_section_title
;
Structure prediction by ZEFSAII (Michael W. Deem and Ramdas Pophale) SiO2 
 PCOD9389933
Probable space group: P N N N
;
_chemical_formula_sum "Si O2"
_cell_formula_units_Z 58
_cell_length_a 8.909450
_cell_length_b 22.920732
_cell_length_c 13.638583
_cell_angle_alpha 90.000000
_cell_angle_beta 90.000000
_cell_angle_gamma 90.000000
_cell_volume 2785.150251
_symmetry_space_group_name_H-M "P N N N"
_symmetry_group_IT_number 48
_space_group.IT_coordinate_system_code '2'
_symmetry_cell_setting 'orthorhombic'
loop_
_space_group_symop_operation_xyz
x,y,z
1/2-x,1/2-y,z
x,1/2-y,1/2-z
1/2-x,y,1/2-z
-x,-y,-z
1/2+x,1/2+y,-z
-x,1/2+y,1/2+z
1/2+x,-y,1/2+z
loop_
_atom_site_type_symbol
_atom_site_label
_atom_site_fract_x
_atom_site_fract_y
_atom_site_fract_z
Si Si1 0.250000 0.250000 0.750000
Si Si2 0.064673 0.111774 0.926904
Si Si3 0.573319 0.420937 0.721717
Si Si4 0.309939 0.910179 0.561164
Si Si5 0.981828 0.621081 0.906538
Si Si6 0.251672 0.025461 0.454185
Si Si7 0.535504 0.950510 0.725175
Si Si8 0.385970 0.331995 0.592067
O O1 0.363669 0.283811 0.676142
O O2 0.212039 0.149956 0.920688
O O3 0.005161 0.101913 0.819710
O O4 0.128484 0.051270 0.969184
O O5 0.932585 0.127691 0.002160
O O6 0.750000 0.417202 0.750000
O O7 0.523872 0.489274 0.711981
O O8 0.502558 0.379946 0.637383
O O9 0.160333 0.879164 0.594337
O O10 0.392999 0.938610 0.654832
O O11 0.248419 0.958388 0.483119
O O12 0.940540 0.606021 0.793795
O O13 0.896680 0.565088 0.957678
O O14 0.934837 0.674199 0.977917
O O15 0.329278 0.036600 0.349747
#
# Coordination Sequence:
#
# PCOD9389933 Si02
#       8
#     2   8   8   8   8   8   8   8
#     4  12  24  52  74  84 114 156 206 280 352 392
#     4  10  19  36  53  78 117 158 205 251 296 351
#     4  12  21  34  57  88 129 165 209 254 294 364
#     4  11  20  35  53  82 129 177 215 243 285 358
#     4  11  24  34  54  89 122 166 217 261 299 364
#     4  10  19  34  49  79 123 174 218 242 275 353
#     4  11  22  34  53  85 136 186 209 235 297 374
#     4  11  26  41  65  87 113 153 209 266 331 383
#
# _framework density 20.824729000000001
#
# number of rings (size 3 to 8) (size 9 to 14) (size 15 to 20)
#    0.000    1.103    4.138    3.724    5.793    1.103 
#    0.000    0.345    0.000    0.000    0.000   17.379 
#    0.000    8.828    0.000    0.000    0.000    0.000 
#
# Total GULP energy -323060.336356 kJ/mol
# GULP energy per Si atom -5570.005799 kJ/mol
# Density = 2.077733 g / cm^3
# Si number density = 20.824729 Si / 1000 Ang^3
#
#
#
# Elastic Constant Matrix: (Units=GPa)
#
#
# Indices 1 2 3 4 5 6 
#
# 1 111.8943 9.9589 12.7249 0.0000 0.0000 0.0000
# 2 9.9589 31.9936 24.8984 0.0000 0.0000 0.0000
# 3 12.7249 24.8984 107.8471 0.0000 0.0000 0.0000
# 4 0.0000 0.0000 0.0000 32.3992 0.0000 0.0000
# 5 0.0000 0.0000 0.0000 0.0000 33.2651 0.0000
# 6 0.0000 0.0000 0.0000 0.0000 0.0000 13.8924
#
#
#
# Elastic Compliance Matrix: (Units=1/GPa)
#
#
# Indices 1 2 3 4 5 6 
#
# 1 0.009215 -0.002465 -0.000518 0.000000 0.000000 0.000000
# 2 -0.002465 0.038762 -0.008658 0.000000 0.000000 0.000000
# 3 -0.000518 -0.008658 0.011332 0.000000 0.000000 0.000000
# 4 0.000000 0.000000 0.000000 0.030865 0.000000 0.000000
# 5 0.000000 0.000000 0.000000 0.000000 0.030062 0.000000
# 6 0.000000 0.000000 0.000000 0.000000 0.000000 0.071982
#
#
# Mechanical properties :
#
#
# Convention : Reuss Voigt Hill
#
# Bulk Modulus (GPa) = 27.75732 38.54436 33.15084
# Shear Modulus (GPa) = 21.97714 29.52152 25.74933
#
# Velocity S-wave (km/s) = 3.25212 3.76921 3.52017
# Velocity P-wave (km/s) = 5.24020 6.12305 5.69875
#
# Compressibility (1/GPa) = 0.03602653
#
# Stress axis : x y z
#
# Youngs Moduli (GPa) = 108.51455 25.79877 88.24297
#
# Poissons Ratio (x) = 0.06360 0.04572
# Poissons Ratio (y) = 0.26752 0.76400
# Poissons Ratio (z) = 0.05623 0.22336
#
# Static dielectric constant tensor:
#      x y z
#    x 1.774920 0.000000 0.000000 
#    y 0.000000 1.786300 0.000000 
#    z 0.000000 0.000000 1.848870 
# 
# From -- ./inp_files/25719.got.cif
#   From: 2010.05.17/outbox.cif.g08.bks.cpg/sg48_13_cif.got.tgz:25719.got - 2010.06.03 20:39:00.
