data_PCOD9389199
_publ_section_title
;
Structure prediction by ZEFSAII (Michael W. Deem and Ramdas Pophale) SiO2 
 PCOD9389199
Probable space group: P M M M
;
_chemical_formula_sum "Si O2"
_cell_formula_units_Z 44
_cell_length_a 7.426430
_cell_length_b 15.126820
_cell_length_c 18.189201
_cell_angle_alpha 90.000000
_cell_angle_beta 90.000000
_cell_angle_gamma 90.000000
_cell_volume 2043.343370
_symmetry_space_group_name_H-M "P M M M"
_symmetry_group_IT_number 47
_symmetry_cell_setting 'orthorhombic'
loop_
_space_group_symop_operation_xyz
x,y,z
-x,-y,z
x,-y,-z
-x,y,-z
-x,-y,-z
x,y,-z
-x,y,z
x,-y,z
loop_
_atom_site_type_symbol
_atom_site_label
_atom_site_fract_x
_atom_site_fract_y
_atom_site_fract_z
Si Si1 0.220804 0.897144 0.000000
Si Si2 0.282924 0.596570 0.184086
Si Si3 0.703005 0.396033 0.500000
Si Si4 0.780959 0.841369 0.692763
Si Si5 0.292923 0.357066 0.344096
Si Si6 0.219636 0.000000 0.414299
Si Si7 0.786398 0.798200 0.145728
O O1 0.283225 0.845343 0.072746
O O2 0.000000 0.895565 0.000000
O O3 0.273399 0.000000 0.000000
O O4 0.500000 0.595443 0.185926
O O5 0.224969 0.500000 0.153720
O O6 0.216741 0.603746 0.268663
O O7 0.238690 0.691402 0.147744
O O8 0.682949 0.500000 0.500000
O O9 0.500000 0.354137 0.500000
O O10 0.792930 0.374245 0.577227
O O11 0.712069 0.747325 0.666126
O O12 0.724828 0.916188 0.635266
O O13 0.720866 0.843404 0.778261
O O14 0.000000 0.840708 0.692994
O O15 0.500000 0.389667 0.348610
O O16 0.278702 0.000000 0.500000
O O17 0.000000 0.000000 0.416528
O O18 0.000000 0.811923 0.145889
#
# Coordination Sequence:
#
# PCOD9389199 Si02
#       7
#     4   8   4   8   8   4   8
#     4   9  18  32  54  79 102 126 157 201 248 293
#     4   9  17  31  51  72  97 132 167 196 233 286
#     4   9  16  26  43  66  89 116 154 197 235 275
#     4   9  18  31  48  68  92 123 159 196 233 279
#     4   9  17  29  46  67  92 121 157 198 239 280
#     4   9  18  30  45  66  92 126 163 195 231 281
#     4   9  18  32  51  77 101 124 158 201 246 287
#
# _framework density 21.533335000000001
#
# number of rings (size 3 to 8) (size 9 to 14) (size 15 to 20)
#    0.000    3.000    0.000    0.545    2.545    2.545 
#    0.000    1.364    0.000    6.545    0.000    0.000 
#    0.000    0.000    0.000    0.000    0.000    0.000 
#
# Total GULP energy -245169.828304 kJ/mol
# GULP energy per Si atom -5572.041552 kJ/mol
# Density = 2.148432 g / cm^3
# Si number density = 21.533335 Si / 1000 Ang^3
#
#
#
# Elastic Constant Matrix: (Units=GPa)
#
#
# Indices 1 2 3 4 5 6 
#
# 1 70.0442 -2.8053 10.4200 0.0000 0.0000 0.0000
# 2 -2.8053 152.9088 105.3768 0.0000 0.0000 0.0000
# 3 10.4200 105.3768 186.5461 0.0000 0.0000 0.0000
# 4 0.0000 0.0000 0.0000 13.3493 0.0000 0.0000
# 5 0.0000 0.0000 0.0000 0.0000 -10.3549 0.0000
# 6 0.0000 0.0000 0.0000 0.0000 0.0000 -38.3504
#
#
#
# Elastic Compliance Matrix: (Units=1/GPa)
#
#
# Indices 1 2 3 4 5 6 
#
# 1 0.014566 0.001356 -0.001579 0.000000 0.000000 0.000000
# 2 0.001356 0.010835 -0.006196 0.000000 0.000000 0.000000
# 3 -0.001579 -0.006196 0.008949 0.000000 0.000000 0.000000
# 4 0.000000 0.000000 0.000000 0.074910 0.000000 0.000000
# 5 0.000000 0.000000 0.000000 0.000000 -0.096573 0.000000
# 6 0.000000 0.000000 0.000000 0.000000 0.000000 -0.026075
#
#
# Mechanical properties :
#
#
# Convention : Reuss Voigt Hill
#
# Bulk Modulus (GPa) = 46.49012 70.60911 58.54961
# Shear Modulus (GPa) = 755.13841 12.69599 383.91720
#
# Velocity S-wave (km/s) = 18.74686 2.43080 13.36700
# Velocity P-wave (km/s) = 22.14113 6.38280 16.29371
#
# Compressibility (1/GPa) = 0.02150995
#
# Stress axis : x y z
#
# Youngs Moduli (GPa) = 68.65323 92.29576 111.74571
#
# Poissons Ratio (x) = -0.12512 0.17649
# Poissons Ratio (y) = -0.09307 0.69239
# Poissons Ratio (z) = 0.10843 0.57187
#
# Static dielectric constant tensor:
#      x y z
#    x 1.838870 0.000000 0.000000 
#    y 0.000000 1.753890 0.000000 
#    z 0.000000 0.000000 1.836460 
# 
# From -- ./inp_files/26424.got.cif
#   From: 2010.05.17/outbox.cif.g08.bks.cpg/sg47_14_cif.got.tgz:26424.got - 2010.06.03 20:15:42.
