data_PCOD9389204
_publ_section_title
;
Structure prediction by ZEFSAII (Michael W. Deem and Ramdas Pophale) SiO2 
 PCOD9389204
Probable space group: P M M M
;
_chemical_formula_sum "Si O2"
_cell_formula_units_Z 32
_cell_length_a 7.636514
_cell_length_b 23.558235
_cell_length_c 9.329832
_cell_angle_alpha 90.000000
_cell_angle_beta 90.000000
_cell_angle_gamma 90.000000
_cell_volume 1678.462820
_symmetry_space_group_name_H-M "P M M M"
_symmetry_group_IT_number 47
_symmetry_cell_setting 'orthorhombic'
loop_
_space_group_symop_operation_xyz
x,y,z
-x,-y,z
x,-y,-z
-x,y,-z
-x,-y,-z
x,y,-z
-x,y,z
x,-y,z
loop_
_atom_site_type_symbol
_atom_site_label
_atom_site_fract_x
_atom_site_fract_y
_atom_site_fract_z
Si Si1 0.705488 0.847000 0.671723
Si Si2 0.792048 0.500000 0.663463
Si Si3 0.713948 0.267496 0.164162
Si Si4 0.291204 0.623184 0.663556
Si Si5 0.000000 0.935414 0.674205
O O1 0.721873 0.838859 0.500000
O O2 0.500000 0.857589 0.702412
O O3 0.761683 0.789332 0.750421
O O4 0.829092 0.899099 0.715133
O O5 0.717793 0.500000 0.500000
O O6 0.739580 0.439484 0.727615
O O7 0.000000 0.500000 0.655250
O O8 0.500000 0.268959 0.163853
O O9 0.776155 0.324335 0.243985
O O10 0.772006 0.265602 0.000000
O O11 0.220665 0.624207 0.500000
O O12 0.500000 0.630233 0.653702
O O13 0.000000 0.937794 0.500000
O O14 0.000000 0.000000 0.727161
#
# Coordination Sequence:
#
# PCOD9389204 Si02
#       5
#     8   4   8   8   4
#     4   9  17  31  52  76 102 133 167 203 245 292
#     4   9  17  29  44  65  92 120 154 197 242 290
#     4   9  17  30  49  72  97 125 160 203 248 292
#     4   9  16  28  48  70  91 119 157 199 243 293
#     4   9  18  32  51  79 109 132 163 206 245 287
#
# _framework density 19.065062000000001
#
# number of rings (size 3 to 8) (size 9 to 14) (size 15 to 20)
#    0.000    3.000    0.000    1.125    0.000    5.000 
#    2.250    3.750    0.000    5.250    0.000    3.500 
#    0.000    0.000    0.000    0.000    0.000    0.000 
#
# Total GULP energy -178379.210409 kJ/mol
# GULP energy per Si atom -5574.350325 kJ/mol
# Density = 1.902167 g / cm^3
# Si number density = 19.065062 Si / 1000 Ang^3
#
#
#
# Elastic Constant Matrix: (Units=GPa)
#
#
# Indices 1 2 3 4 5 6 
#
# 1 61.8492 55.2408 26.6782 0.0000 0.0000 0.0000
# 2 55.2408 229.5164 69.8310 0.0000 0.0000 0.0000
# 3 26.6782 69.8310 50.8296 0.0000 0.0000 0.0000
# 4 0.0000 0.0000 0.0000 -10.9532 0.0000 0.0000
# 5 0.0000 0.0000 0.0000 0.0000 4.0807 0.0000
# 6 0.0000 0.0000 0.0000 0.0000 0.0000 54.1307
#
#
#
# Elastic Compliance Matrix: (Units=1/GPa)
#
#
# Indices 1 2 3 4 5 6 
#
# 1 0.022095 -0.003075 -0.007372 0.000000 0.000000 0.000000
# 2 -0.003075 0.007914 -0.009259 0.000000 0.000000 0.000000
# 3 -0.007372 -0.009259 0.036263 0.000000 0.000000 0.000000
# 4 0.000000 0.000000 0.000000 -0.091298 0.000000 0.000000
# 5 0.000000 0.000000 0.000000 0.000000 0.245057 0.000000
# 6 0.000000 0.000000 0.000000 0.000000 0.000000 0.018474
#
#
# Mechanical properties :
#
#
# Convention : Reuss Voigt Hill
#
# Bulk Modulus (GPa) = 37.23014 71.74391 54.48703
# Shear Modulus (GPa) = 17.42953 22.14798 19.78876
#
# Velocity S-wave (km/s) = 3.02688 3.41208 3.22523
# Velocity P-wave (km/s) = 5.63793 7.29629 6.52005
#
# Compressibility (1/GPa) = 0.02685996
#
# Stress axis : x y z
#
# Youngs Moduli (GPa) = 45.25998 126.35822 27.57655
#
# Poissons Ratio (x) = 0.38852 0.20330
# Poissons Ratio (y) = 0.13916 0.25532
# Poissons Ratio (z) = 0.33367 1.16991
#
# Static dielectric constant tensor:
#      x y z
#    x 1.687570 0.000000 0.000000 
#    y 0.000000 1.657480 0.000000 
#    z 0.000000 0.000000 1.641210 
# 
# From -- ./inp_files/1292.got.cif
#   From: 2010.05.17/outbox.cif.g08.bks.cpg/sg47_1_cif.got.tgz:1292.got - 2010.06.03 20:15:42.
