data_PCOD9389113
_publ_section_title
;
Structure prediction by ZEFSAII (Michael W. Deem and Ramdas Pophale) SiO2 
 PCOD9389113
Probable space group: P M M M
;
_chemical_formula_sum "Si O2"
_cell_formula_units_Z 52
_cell_length_a 35.298016
_cell_length_b 7.493761
_cell_length_c 9.410352
_cell_angle_alpha 90.000000
_cell_angle_beta 90.000000
_cell_angle_gamma 90.000000
_cell_volume 2489.178278
_symmetry_space_group_name_H-M "P M M M"
_symmetry_group_IT_number 47
_symmetry_cell_setting 'orthorhombic'
loop_
_space_group_symop_operation_xyz
x,y,z
-x,-y,z
x,-y,-z
-x,y,-z
-x,-y,-z
x,y,-z
-x,y,z
x,-y,z
loop_
_atom_site_type_symbol
_atom_site_label
_atom_site_fract_x
_atom_site_fract_y
_atom_site_fract_z
Si Si1 0.623144 0.212177 0.160902
Si Si2 0.221784 0.286592 0.662622
Si Si3 0.149065 0.281641 0.836483
Si Si4 0.306028 0.785974 0.338638
Si Si5 0.074585 0.717951 0.664007
Si Si6 0.459278 0.714278 0.834736
Si Si7 0.000000 0.281968 0.164191
O O1 0.658643 0.283623 0.248663
O O2 0.581434 0.236992 0.228114
O O3 0.628397 0.000000 0.149993
O O4 0.622580 0.285711 0.000000
O O5 0.219413 0.217292 0.500000
O O6 0.217693 0.500000 0.654476
O O7 0.187704 0.221227 0.760640
O O8 0.264002 0.250596 0.719158
O O9 0.149159 0.500000 0.837196
O O10 0.112686 0.226334 0.744882
O O11 0.146554 0.224593 0.000000
O O12 0.307112 0.716333 0.500000
O O13 0.309721 0.000000 0.345596
O O14 0.073721 0.775574 0.500000
O O15 0.074481 0.500000 0.662776
O O16 0.037544 0.774245 0.751410
O O17 0.500000 0.775317 0.774055
O O18 0.460214 0.500000 0.836542
O O19 0.458403 0.776000 0.000000
O O20 0.000000 0.500000 0.163056
O O21 0.000000 0.224671 0.000000
#
# Coordination Sequence:
#
# PCOD9389113 Si02
#       7
#     8   8   8   8   8   8   4
#     4   9  17  28  43  64  86 107 136 174 210 244
#     4   9  17  29  44  61  80 104 137 173 206 245
#     4   9  16  25  37  54  76 101 130 167 211 254
#     4   9  18  32  47  62  84 114 142 169 208 256
#     4   9  15  22  32  46  67  98 135 172 210 254
#     4   8  14  25  41  62  88 115 141 171 209 250
#     4   9  15  21  29  43  65  95 134 177 216 255
#
# _framework density 20.890429000000001
#
# number of rings (size 3 to 8) (size 9 to 14) (size 15 to 20)
#    0.000    3.154    0.000    1.615    0.000    6.154 
#    0.000    1.538    0.000    0.462    0.000    3.231 
#    0.000    0.000    0.000    0.692    0.000   15.077 
#
# Total GULP energy -289970.093132 kJ/mol
# GULP energy per Si atom -5576.347945 kJ/mol
# Density = 2.084288 g / cm^3
# Si number density = 20.890429 Si / 1000 Ang^3
#
#
#
# Elastic Constant Matrix: (Units=GPa)
#
#
# Indices 1 2 3 4 5 6 
#
# 1 260.1058 1.1956 117.7374 0.0000 0.0000 0.0000
# 2 1.1956 55.8174 3.9780 0.0000 0.0000 0.0000
# 3 117.7374 3.9780 121.5710 0.0000 0.0000 0.0000
# 4 0.0000 0.0000 0.0000 -3.0210 0.0000 0.0000
# 5 0.0000 0.0000 0.0000 0.0000 64.3949 0.0000
# 6 0.0000 0.0000 0.0000 0.0000 0.0000 24.4151
#
#
#
# Elastic Compliance Matrix: (Units=1/GPa)
#
#
# Indices 1 2 3 4 5 6 
#
# 1 0.006851 0.000327 -0.006646 0.000000 0.000000 0.000000
# 2 0.000327 0.017973 -0.000905 0.000000 0.000000 0.000000
# 3 -0.006646 -0.000905 0.014692 0.000000 0.000000 0.000000
# 4 0.000000 0.000000 0.000000 -0.331015 0.000000 0.000000
# 5 0.000000 0.000000 0.000000 0.000000 0.015529 0.000000
# 6 0.000000 0.000000 0.000000 0.000000 0.000000 0.040958
#
#
# Mechanical properties :
#
#
# Convention : Reuss Voigt Hill
#
# Bulk Modulus (GPa) = 39.89077 75.92403 57.90740
# Shear Modulus (GPa) = -23.56188 38.13002 7.28407
#
# Velocity S-wave (km/s) = -3.36203 4.27692 1.86932
# Velocity P-wave (km/s) = 2.01635 7.79822 5.69552
#
# Compressibility (1/GPa) = 0.02506846
#
# Stress axis : x y z
#
# Youngs Moduli (GPa) = 145.95429 55.63896 68.06528
#
# Poissons Ratio (x) = -0.01819 0.45237
# Poissons Ratio (y) = -0.04771 0.06158
# Poissons Ratio (z) = 0.97003 0.05034
#
# Static dielectric constant tensor:
#      x y z
#    x 1.753690 0.000000 0.000000 
#    y 0.000000 1.798190 0.000000 
#    z 0.000000 0.000000 1.723790 
# 
# From -- ./inp_files/13285.got.cif
#   From: 2010.05.17/outbox.cif.g08.bks.cpg/sg47_7_cif.got.tgz:13285.got - 2010.06.03 20:15:42.
