data_PCOD9389912
_publ_section_title
;
Structure prediction by ZEFSAII (Michael W. Deem and Ramdas Pophale) SiO2 
 PCOD9389912
Probable space group: P N N N
;
_chemical_formula_sum "Si O2"
_cell_formula_units_Z 42
_cell_length_a 17.981760
_cell_length_b 11.370205
_cell_length_c 8.929046
_cell_angle_alpha 90.000000
_cell_angle_beta 90.000000
_cell_angle_gamma 90.000000
_cell_volume 1825.599685
_symmetry_space_group_name_H-M "P N N N"
_symmetry_group_IT_number 48
_space_group.IT_coordinate_system_code '2'
_symmetry_cell_setting 'orthorhombic'
loop_
_space_group_symop_operation_xyz
x,y,z
1/2-x,1/2-y,z
x,1/2-y,1/2-z
1/2-x,y,1/2-z
-x,-y,-z
1/2+x,1/2+y,-z
-x,1/2+y,1/2+z
1/2+x,-y,1/2+z
loop_
_atom_site_type_symbol
_atom_site_label
_atom_site_fract_x
_atom_site_fract_y
_atom_site_fract_z
Si Si1 0.112856 0.646063 0.837062
Si Si2 0.750000 0.750000 0.750000
Si Si3 0.460930 0.115154 0.304282
Si Si4 0.465162 0.633078 0.344570
Si Si5 0.157944 0.168559 0.991512
Si Si6 0.355362 0.403501 0.662418
O O1 0.153103 0.750000 0.750000
O O2 0.162789 0.535762 0.876907
O O3 0.049921 0.613013 0.712347
O O4 0.064494 0.660524 0.988467
O O5 0.798242 0.838043 0.853808
O O6 0.442160 0.250000 0.250000
O O7 0.423948 0.119279 0.467102
O O8 0.436808 0.995438 0.215937
O O9 0.446593 0.750000 0.250000
O O10 0.554785 0.617741 0.342408
O O11 0.174502 0.116127 0.829549
O O12 0.168519 0.306509 0.954773
#
# Coordination Sequence:
#
# PCOD9389912 Si02
#       6
#     8   2   8   8   8   8
#     4  10  21  32  53  88 125 164 193 219 283 386
#     4  12  28  38  64  88 106 142 228 260 322 324
#     4  10  19  33  56  76 127 157 193 235 296 343
#     4  11  21  31  54  92 124 167 197 222 284 385
#     4  11  22  38  59  83 113 154 197 264 297 346
#     4  10  21  37  57  80 126 160 192 233 310 353
#
# _framework density 23.006138
#
# number of rings (size 3 to 8) (size 9 to 14) (size 15 to 20)
#    0.000    1.524    2.857    5.714    2.667    3.048 
#    0.000    0.000    0.000    0.000    0.000    7.333 
#    0.000    0.000    0.000    0.000    0.000    0.000 
#
# Total GULP energy -233894.575406 kJ/mol
# GULP energy per Si atom -5568.918462 kJ/mol
# Density = 2.295377 g / cm^3
# Si number density = 23.006138 Si / 1000 Ang^3
#
#
#
# Elastic Constant Matrix: (Units=GPa)
#
#
# Indices 1 2 3 4 5 6 
#
# 1 33.4668 2.8782 22.8013 0.0000 0.0000 0.0000
# 2 2.8782 156.0975 42.1802 0.0000 0.0000 0.0000
# 3 22.8013 42.1802 97.7224 0.0000 0.0000 0.0000
# 4 0.0000 0.0000 0.0000 13.2859 0.0000 0.0000
# 5 0.0000 0.0000 0.0000 0.0000 38.6013 0.0000
# 6 0.0000 0.0000 0.0000 0.0000 0.0000 11.4215
#
#
#
# Elastic Compliance Matrix: (Units=1/GPa)
#
#
# Indices 1 2 3 4 5 6 
#
# 1 0.035978 0.001817 -0.009179 0.000000 0.000000 0.000000
# 2 0.001817 0.007344 -0.003594 0.000000 0.000000 0.000000
# 3 -0.009179 -0.003594 0.013926 0.000000 0.000000 0.000000
# 4 0.000000 0.000000 0.000000 0.075268 0.000000 0.000000
# 5 0.000000 0.000000 0.000000 0.000000 0.025906 0.000000
# 6 0.000000 0.000000 0.000000 0.000000 0.000000 0.087554
#
#
# Mechanical properties :
#
#
# Convention : Reuss Voigt Hill
#
# Bulk Modulus (GPa) = 28.29964 47.00069 37.65016
# Shear Modulus (GPa) = 17.87850 27.29021 22.58435
#
# Velocity S-wave (km/s) = 2.79071 3.44788 3.13655
# Velocity P-wave (km/s) = 4.76568 6.02698 5.43306
#
# Compressibility (1/GPa) = 0.03533614
#
# Stress axis : x y z
#
# Youngs Moduli (GPa) = 27.79493 136.16840 71.80851
#
# Poissons Ratio (x) = -0.24740 0.65912
# Poissons Ratio (y) = -0.05050 0.25806
# Poissons Ratio (z) = 0.25512 0.48936
#
# Static dielectric constant tensor:
#      x y z
#    x 2.041480 0.000000 0.000000 
#    y 0.000000 2.001530 0.000000 
#    z 0.000000 0.000000 1.881760 
# 
# From -- ./inp_files/15851.got.cif
#   From: 2010.05.17/outbox.cif.g08.bks.cpg/sg48_8_cif.got.tgz:15851.got - 2010.06.03 20:39:00.
