data_PCOD9389141
_publ_section_title
;
Structure prediction by ZEFSAII (Michael W. Deem and Ramdas Pophale) SiO2 
 PCOD9389141
Probable space group: P M M M
;
_chemical_formula_sum "Si O2"
_cell_formula_units_Z 44
_cell_length_a 7.448933
_cell_length_b 16.781600
_cell_length_c 16.917588
_cell_angle_alpha 90.000000
_cell_angle_beta 90.000000
_cell_angle_gamma 90.000000
_cell_volume 2114.783325
_symmetry_space_group_name_H-M "P M M M"
_symmetry_group_IT_number 47
_symmetry_cell_setting 'orthorhombic'
loop_
_space_group_symop_operation_xyz
x,y,z
-x,-y,z
x,-y,-z
-x,y,-z
-x,-y,-z
x,y,-z
-x,y,z
x,-y,z
loop_
_atom_site_type_symbol
_atom_site_label
_atom_site_fract_x
_atom_site_fract_y
_atom_site_fract_z
Si Si1 0.715462 0.295249 0.364724
Si Si2 0.789008 0.085947 0.767219
Si Si3 0.285337 0.882102 0.585943
Si Si4 0.280262 0.589887 0.500000
Si Si5 0.781574 0.588644 0.907128
Si Si6 0.794709 0.259471 0.188547
O O1 0.500000 0.300572 0.354548
O O2 0.750896 0.212042 0.408473
O O3 0.778037 0.364922 0.421358
O O4 0.796444 0.291206 0.278235
O O5 0.777827 0.087881 0.671289
O O6 0.714838 0.169572 0.802280
O O7 0.000000 0.086141 0.786357
O O8 0.713193 0.000000 0.793061
O O9 0.218365 0.910651 0.500000
O O10 0.500000 0.894802 0.586002
O O11 0.222438 0.500000 0.500000
O O12 0.500000 0.593080 0.500000
O O13 0.722648 0.500000 0.878658
O O14 0.715021 0.668219 0.862894
O O15 0.000000 0.588734 0.900262
O O16 0.738257 0.593744 0.000000
O O17 0.000000 0.248979 0.160522
#
# Coordination Sequence:
#
# PCOD9389141 Si02
#       6
#     8   8   8   4   8   8
#     4   9  16  28  43  59  82 113 147 179 213 253
#     4   9  18  30  41  57  84 115 143 172 212 260
#     4   9  16  27  43  59  77 105 143 187 224 250
#     4   9  16  26  41  59  80 111 148 180 211 253
#     4   8  14  26  46  71  94 113 136 170 212 258
#     4   9  17  29  46  66  86 112 143 175 213 254
#
# _framework density 20.805914000000001
#
# number of rings (size 3 to 8) (size 9 to 14) (size 15 to 20)
#    0.000    3.182    0.909    0.545    0.000    1.818 
#    0.000    2.273    0.000    1.636    0.000    5.091 
#    0.000    0.000    0.000    9.091    0.000    9.455 
#
# Total GULP energy -245069.658282 kJ/mol
# GULP energy per Si atom -5569.764961 kJ/mol
# Density = 2.075856 g / cm^3
# Si number density = 20.805914 Si / 1000 Ang^3
#
#
#
# Elastic Constant Matrix: (Units=GPa)
#
#
# Indices 1 2 3 4 5 6 
#
# 1 53.1285 17.7641 4.1548 0.0000 0.0000 0.0000
# 2 17.7641 222.6561 64.7101 0.0000 0.0000 0.0000
# 3 4.1548 64.7101 58.5595 0.0000 0.0000 0.0000
# 4 0.0000 0.0000 0.0000 309.7987 0.0000 0.0000
# 5 0.0000 0.0000 0.0000 0.0000 13.6499 0.0000
# 6 0.0000 0.0000 0.0000 0.0000 0.0000 2.1234
#
#
#
# Elastic Compliance Matrix: (Units=1/GPa)
#
#
# Indices 1 2 3 4 5 6 
#
# 1 0.019348 -0.001686 0.000491 0.000000 0.000000 0.000000
# 2 -0.001686 0.006763 -0.007354 0.000000 0.000000 0.000000
# 3 0.000491 -0.007354 0.025168 0.000000 0.000000 0.000000
# 4 0.000000 0.000000 0.000000 0.003228 0.000000 0.000000
# 5 0.000000 0.000000 0.000000 0.000000 0.073261 0.000000
# 6 0.000000 0.000000 0.000000 0.000000 0.000000 0.470948
#
#
# Mechanical properties :
#
#
# Convention : Reuss Voigt Hill
#
# Bulk Modulus (GPa) = 29.25687 56.40024 42.82856
# Shear Modulus (GPa) = 7.97186 81.62873 44.80030
#
# Velocity S-wave (km/s) = 1.95955 6.27045 4.64534
# Velocity P-wave (km/s) = 4.38316 8.92140 7.02864
#
# Compressibility (1/GPa) = 0.03418001
#
# Stress axis : x y z
#
# Youngs Moduli (GPa) = 51.68571 147.86501 39.73332
#
# Poissons Ratio (x) = 0.24933 -0.01949
# Poissons Ratio (y) = 0.08715 0.29218
# Poissons Ratio (z) = -0.02536 1.08734
#
# Static dielectric constant tensor:
#      x y z
#    x 1.804240 0.000000 0.000000 
#    y 0.000000 1.799230 0.000000 
#    z 0.000000 0.000000 1.704020 
# 
# From -- ./inp_files/26656.got.cif
#   From: 2010.05.17/outbox.cif.g08.bks.cpg/sg47_14_cif.got.tgz:26656.got - 2010.06.03 20:15:42.
