data_PCOD9389308
_publ_section_title
;
Structure prediction by ZEFSAII (Michael W. Deem and Ramdas Pophale) SiO2 
 PCOD9389308
Probable space group: P M M M
;
_chemical_formula_sum "Si O2"
_cell_formula_units_Z 60
_cell_length_a 24.000000
_cell_length_b 9.000000
_cell_length_c 18.000000
_cell_angle_alpha 90.000000
_cell_angle_beta 90.000000
_cell_angle_gamma 90.000000
_cell_volume 3888.000000
_symmetry_space_group_name_H-M "P M M M"
_symmetry_group_IT_number 47
_symmetry_cell_setting 'orthorhombic'
loop_
_space_group_symop_operation_xyz
x,y,z
-x,-y,z
x,-y,-z
-x,y,-z
-x,-y,-z
x,y,-z
-x,y,z
x,-y,z
loop_
_atom_site_type_symbol
_atom_site_label
_atom_site_fract_x
_atom_site_fract_y
_atom_site_fract_z
Si Si1 0.243715 0.320734 0.584993
Si Si2 0.432552 0.168388 0.500000
Si Si3 0.152156 0.171312 0.679852
Si Si4 0.136422 0.180020 0.914027
Si Si5 0.563859 0.679202 0.345426
Si Si6 0.762482 0.829846 0.819943
Si Si7 0.934327 0.322557 0.217430
Si Si8 0.676032 0.678197 0.721275
O O1 0.256288 0.276445 0.500000
O O2 0.239856 0.500000 0.587068
O O3 0.185747 0.251727 0.614169
O O4 0.290606 0.277066 0.645745
O O5 0.500000 0.161307 0.500000
O O6 0.418451 0.255577 0.425189
O O7 0.410937 0.000000 0.500000
O O8 0.194916 0.172481 0.749895
O O9 0.098233 0.254332 0.712009
O O10 0.140176 0.000000 0.661707
O O11 0.198747 0.225120 0.887352
O O12 0.093201 0.252986 0.856778
O O13 0.133444 0.000000 0.905742
O O14 0.126336 0.217004 0.000000
O O15 0.500000 0.725686 0.329184
O O16 0.564033 0.500000 0.350727
O O17 0.611752 0.724393 0.287706
O O18 0.709180 0.741161 0.791549
O O19 0.746613 0.000000 0.834491
O O20 0.926186 0.500000 0.216354
O O21 0.000000 0.290439 0.219955
O O22 0.678094 0.500000 0.724499
#
# Coordination Sequence:
#
# PCOD9389308 Si02
#       8
#     8   4   8   8   8   8   8   8
#     4   9  17  28  43  63  86 111 140 180 228 272
#     4   9  17  27  37  51  73 103 139 177 216 255
#     4   9  17  30  47  64  84 112 146 182 219 261
#     4   9  18  32  49  69  94 122 147 172 205 248
#     4   9  17  28  41  56  78 111 147 181 217 258
#     4   8  15  28  44  62  85 111 141 174 211 252
#     4  10  20  32  47  68  93 120 149 178 208 246
#     4   9  17  27  42  61  83 111 145 181 215 258
#
# _framework density 15.432098999999999
#
# number of rings (size 3 to 8) (size 9 to 14) (size 15 to 20)
#    0.000    3.000    0.000    1.800    0.933    6.400 
#    0.000    1.333    0.000    0.400    0.000    2.800 
#    0.000    0.533    0.000    6.667    0.000    0.000 
#
# Total GULP energy -334033.368644 kJ/mol
# GULP energy per Si atom -5567.222811 kJ/mol
# Density = 1.539697 g / cm^3
# Si number density = 15.432099 Si / 1000 Ang^3
#
#
#
# Elastic Constant Matrix: (Units=GPa)
#
#
# Indices 1 2 3 4 5 6 
#
# 1 104.1647 33.8156 22.6826 0.0000 0.0000 0.0000
# 2 33.8156 23.1947 11.1393 0.0000 0.0000 0.0000
# 3 22.6826 11.1393 24.8702 0.0000 0.0000 0.0000
# 4 0.0000 0.0000 0.0000 19.1902 0.0000 0.0000
# 5 0.0000 0.0000 0.0000 0.0000 19.3515 0.0000
# 6 0.0000 0.0000 0.0000 0.0000 0.0000 14.2662
#
#
#
# Elastic Compliance Matrix: (Units=1/GPa)
#
#
# Indices 1 2 3 4 5 6 
#
# 1 0.018962 -0.024639 -0.006258 0.000000 0.000000 0.000000
# 2 -0.024639 0.086944 -0.016471 0.000000 0.000000 0.000000
# 3 -0.006258 -0.016471 0.053294 0.000000 0.000000 0.000000
# 4 0.000000 0.000000 0.000000 0.052110 0.000000 0.000000
# 5 0.000000 0.000000 0.000000 0.000000 0.051676 0.000000
# 6 0.000000 0.000000 0.000000 0.000000 0.000000 0.070096
#
#
# Mechanical properties :
#
#
# Convention : Reuss Voigt Hill
#
# Bulk Modulus (GPa) = 15.51240 31.94495 23.72868
# Shear Modulus (GPa) = 11.12833 16.20106 13.66470
#
# Velocity S-wave (km/s) = 2.68827 3.24362 2.97892
# Velocity P-wave (km/s) = 4.43955 5.89690 5.21934
#
# Compressibility (1/GPa) = 0.06446455
#
# Stress axis : x y z
#
# Youngs Moduli (GPa) = 52.73841 11.50160 18.76397
#
# Poissons Ratio (x) = 0.28338 0.11743
# Poissons Ratio (y) = 1.29940 0.30906
# Poissons Ratio (z) = 0.33004 0.18944
#
# Static dielectric constant tensor:
#      x y z
#    x 1.529910 0.000000 0.000000 
#    y 0.000000 1.526610 0.000000 
#    z 0.000000 0.000000 1.497860 
# 
# From -- ./inp_files/28929.got.cif
#   From: 2010.05.17/outbox.ucp.g08.bks.cvg/sg47_15_cif.got.tgz:28929.got - 2010.06.11 16:36:43.
