data_PCOD9389958
_publ_section_title
;
Structure prediction by ZEFSAII (Michael W. Deem and Ramdas Pophale) SiO2 
 PCOD9389958
Probable space group: P N N N
;
_chemical_formula_sum "Si O2"
_cell_formula_units_Z 44
_cell_length_a 10.391053
_cell_length_b 10.087931
_cell_length_c 16.378471
_cell_angle_alpha 90.000000
_cell_angle_beta 90.000000
_cell_angle_gamma 90.000000
_cell_volume 1716.860540
_symmetry_space_group_name_H-M "P N N N"
_symmetry_group_IT_number 48
_space_group.IT_coordinate_system_code '2'
_symmetry_cell_setting 'orthorhombic'
loop_
_space_group_symop_operation_xyz
x,y,z
1/2-x,1/2-y,z
x,1/2-y,1/2-z
1/2-x,y,1/2-z
-x,-y,-z
1/2+x,1/2+y,-z
-x,1/2+y,1/2+z
1/2+x,-y,1/2+z
loop_
_atom_site_type_symbol
_atom_site_label
_atom_site_fract_x
_atom_site_fract_y
_atom_site_fract_z
Si Si1 0.750000 0.750000 0.135651
Si Si2 0.607523 0.439955 0.937178
Si Si3 0.538923 0.305842 0.667606
Si Si4 0.534056 0.675316 0.837479
Si Si5 0.224545 0.952465 0.904256
Si Si6 0.011603 0.064606 0.410667
O O1 0.617061 0.800738 0.175550
O O2 0.708875 0.611846 0.095023
O O3 0.571452 0.298352 0.902044
O O4 0.617083 0.546598 0.864004
O O5 0.500000 0.500000 0.000000
O O6 0.721538 0.416276 0.000378
O O7 0.596243 0.250000 0.750000
O O8 0.576795 0.454224 0.645738
O O9 0.548516 0.750000 0.750000
O O10 0.388640 0.617773 0.852972
O O11 0.567783 0.789415 0.904010
O O12 0.366775 0.917445 0.875098
O O13 0.000000 0.000000 0.500000
#
# Coordination Sequence:
#
# PCOD9389958 Si02
#       6
#     4   8   8   8   8   8
#     4  10  19  34  58  88 113 152 202 238 295 360
#     4  10  19  39  62  81 120 162 203 237 302 367
#     4  11  21  36  57  86 121 156 194 244 302 366
#     4  11  22  38  60  92 126 156 194 256 319 366
#     4  10  22  37  63  86 117 164 204 248 303 369
#     4  11  24  37  59  89 122 154 205 252 303 360
#
# _framework density 25.628173
#
# number of rings (size 3 to 8) (size 9 to 14) (size 15 to 20)
#    0.000    1.455    3.636    4.091    2.545    1.455 
#    0.000    0.000    0.000    6.545    0.000    0.000 
#    0.000    0.000    0.000    0.000    0.000    0.000 
#
# Total GULP energy -245738.020617 kJ/mol
# GULP energy per Si atom -5584.955014 kJ/mol
# Density = 2.556984 g / cm^3
# Si number density = 25.628173 Si / 1000 Ang^3
#
#
#
# Elastic Constant Matrix: (Units=GPa)
#
#
# Indices 1 2 3 4 5 6 
#
# 1 56.2203 21.1265 7.4415 0.0000 0.0000 0.0000
# 2 21.1265 174.8104 30.1717 0.0000 0.0000 0.0000
# 3 7.4415 30.1717 101.2771 0.0000 0.0000 0.0000
# 4 0.0000 0.0000 0.0000 35.6678 0.0000 0.0000
# 5 0.0000 0.0000 0.0000 0.0000 -1.0935 0.0000
# 6 0.0000 0.0000 0.0000 0.0000 0.0000 18.3375
#
#
#
# Elastic Compliance Matrix: (Units=1/GPa)
#
#
# Indices 1 2 3 4 5 6 
#
# 1 0.018686 -0.002131 -0.000738 0.000000 0.000000 0.000000
# 2 -0.002131 0.006274 -0.001712 0.000000 0.000000 0.000000
# 3 -0.000738 -0.001712 0.010438 0.000000 0.000000 0.000000
# 4 0.000000 0.000000 0.000000 0.028036 0.000000 0.000000
# 5 0.000000 0.000000 0.000000 0.000000 -0.914506 0.000000
# 6 0.000000 0.000000 0.000000 0.000000 0.000000 0.054533
#
#
# Mechanical properties :
#
#
# Convention : Reuss Voigt Hill
#
# Bulk Modulus (GPa) = 38.11752 49.97637 44.04695
# Shear Modulus (GPa) = -6.42152 28.82023 11.19935
#
# Velocity S-wave (km/s) = -1.58464 3.35707 2.09271
# Velocity P-wave (km/s) = 3.39963 5.87958 4.80244
#
# Compressibility (1/GPa) = 0.02623465
#
# Stress axis : x y z
#
# Youngs Moduli (GPa) = 53.51718 159.39923 95.80117
#
# Poissons Ratio (x) = 0.33965 0.07072
# Poissons Ratio (y) = 0.11404 0.16405
# Poissons Ratio (z) = 0.03950 0.27296
#
# Static dielectric constant tensor:
#      x y z
#    x 2.449800 0.000000 0.000000 
#    y 0.000000 1.983280 0.000000 
#    z 0.000000 0.000000 2.085010 
# 
# From -- ./inp_files/31505.got.cif
#   From: 2010.05.17/outbox.cif.g08.bks.cpg/sg48_16_cif.got.tgz:31505.got - 2010.06.03 20:39:00.
