data_PCOD9389315
_publ_section_title
;
Structure prediction by ZEFSAII (Michael W. Deem and Ramdas Pophale) SiO2 
 PCOD9389315
Probable space group: P M M M
;
_chemical_formula_sum "Si O2"
_cell_formula_units_Z 40
_cell_length_a 9.000000
_cell_length_b 9.000000
_cell_length_c 27.000000
_cell_angle_alpha 90.000000
_cell_angle_beta 90.000000
_cell_angle_gamma 90.000000
_cell_volume 2187.000000
_symmetry_space_group_name_H-M "P M M M"
_symmetry_group_IT_number 47
_symmetry_cell_setting 'orthorhombic'
loop_
_space_group_symop_operation_xyz
x,y,z
-x,-y,z
x,-y,-z
-x,y,-z
-x,-y,-z
x,y,-z
-x,y,z
x,-y,z
loop_
_atom_site_type_symbol
_atom_site_label
_atom_site_fract_x
_atom_site_fract_y
_atom_site_fract_z
Si Si1 0.827162 0.818797 0.000000
Si Si2 0.672184 0.676238 0.801070
Si Si3 0.319013 0.171892 0.701440
Si Si4 0.674003 0.820717 0.592962
Si Si5 0.823103 0.329919 0.500000
Si Si6 0.179323 0.827224 0.893230
O O1 0.763049 0.773158 0.052962
O O2 0.000000 0.772349 0.000000
O O3 0.827211 0.000000 0.000000
O O4 0.500000 0.725281 0.805833
O O5 0.675359 0.500000 0.799684
O O6 0.731310 0.738813 0.749127
O O7 0.760744 0.735972 0.847652
O O8 0.500000 0.176348 0.700067
O O9 0.271321 0.227435 0.647426
O O10 0.275856 0.000000 0.706963
O O11 0.500000 0.781524 0.587702
O O12 0.763305 0.751369 0.548471
O O13 0.682756 0.000000 0.591769
O O14 0.771058 0.500000 0.500000
O O15 0.000000 0.327316 0.500000
O O16 0.000000 0.821877 0.894622
O O17 0.221746 0.000000 0.887155
#
# Coordination Sequence:
#
# PCOD9389315 Si02
#       6
#     4   8   8   8   4   8
#     4   7  12  26  48  71  92 116 154 205 250 285
#     4  10  20  32  47  71 103 135 163 193 236 290
#     4   8  15  30  52  75  97 123 159 203 245 284
#     4   9  18  34  57  81  99 120 160 209 248 286
#     4  11  24  37  48  70 106 141 168 195 234 286
#     4   9  17  31  52  74  94 121 161 206 248 290
#
# _framework density 18.289895000000001
#
# number of rings (size 3 to 8) (size 9 to 14) (size 15 to 20)
#    0.000    3.000    0.000    3.600    0.000    4.800 
#    0.000    4.000    0.000    6.000    0.000    0.000 
#    0.000    0.000    0.000    0.000    0.000    0.000 
#
# Total GULP energy -222794.855470 kJ/mol
# GULP energy per Si atom -5569.871387 kJ/mol
# Density = 1.824827 g / cm^3
# Si number density = 18.289895 Si / 1000 Ang^3
#
#
#
# Elastic Constant Matrix: (Units=GPa)
#
#
# Indices 1 2 3 4 5 6 
#
# 1 9.5122 19.1323 35.2703 0.0000 0.0000 0.0000
# 2 19.1323 23.0533 57.4610 0.0000 0.0000 0.0000
# 3 35.2703 57.4610 199.9613 0.0000 0.0000 0.0000
# 4 0.0000 0.0000 0.0000 -380.2642 0.0000 0.0000
# 5 0.0000 0.0000 0.0000 0.0000 29.6825 0.0000
# 6 0.0000 0.0000 0.0000 0.0000 0.0000 19.8038
#
#
#
# Elastic Compliance Matrix: (Units=1/GPa)
#
#
# Indices 1 2 3 4 5 6 
#
# 1 -0.110089 0.151418 -0.024094 0.000000 0.000000 0.000000
# 2 0.151418 -0.055388 -0.010792 0.000000 0.000000 0.000000
# 3 -0.024094 -0.010792 0.012352 0.000000 0.000000 0.000000
# 4 0.000000 0.000000 0.000000 -0.002630 0.000000 0.000000
# 5 0.000000 0.000000 0.000000 0.000000 0.033690 0.000000
# 6 0.000000 0.000000 0.000000 0.000000 0.000000 0.050495
#
#
# Mechanical properties :
#
#
# Convention : Reuss Voigt Hill
#
# Bulk Modulus (GPa) = 12.50923 50.69488 31.60206
# Shear Modulus (GPa) = -17.98630 -58.11138 -38.04884
#
# Velocity S-wave (km/s) = -3.13932 -5.64282 -4.56600
# Velocity P-wave (km/s) = 2.50723 3.83113 3.23757
#
# Compressibility (1/GPa) = 0.07994095
#
# Stress axis : x y z
#
# Youngs Moduli (GPa) = -9.08355 -18.05440 80.95972
#
# Poissons Ratio (x) = 2.73377 1.95061
# Poissons Ratio (y) = 1.37542 0.87369
# Poissons Ratio (z) = -0.21886 -0.19484
#
# Static dielectric constant tensor:
#      x y z
#    x 1.624290 0.000000 0.000000 
#    y 0.000000 1.604360 0.000000 
#    z 0.000000 0.000000 1.650260 
# 
# From -- ./inp_files/13015.got.cif
#   From: 2010.05.17/outbox.ucp.g08.bks.cvg/sg47_7_cif.got.tgz:13015.got - 2010.06.11 16:36:43.
