data_PCOD9389258
_publ_section_title
;
Structure prediction by ZEFSAII (Michael W. Deem and Ramdas Pophale) SiO2 
 PCOD9389258
Probable space group: P M M M
;
_chemical_formula_sum "Si O2"
_cell_formula_units_Z 56
_cell_length_a 9.000000
_cell_length_b 15.000000
_cell_length_c 21.000000
_cell_angle_alpha 90.000000
_cell_angle_beta 90.000000
_cell_angle_gamma 90.000000
_cell_volume 2835.000000
_symmetry_space_group_name_H-M "P M M M"
_symmetry_group_IT_number 47
_symmetry_cell_setting 'orthorhombic'
loop_
_space_group_symop_operation_xyz
x,y,z
-x,-y,z
x,-y,-z
-x,y,-z
-x,-y,-z
x,y,-z
-x,y,z
x,-y,z
loop_
_atom_site_type_symbol
_atom_site_label
_atom_site_fract_x
_atom_site_fract_y
_atom_site_fract_z
Si Si1 0.171567 0.658432 0.138190
Si Si2 0.171951 0.137030 0.177413
Si Si3 0.823060 0.105002 0.680166
Si Si4 0.819974 0.396769 0.000000
Si Si5 0.676919 0.777756 0.429908
Si Si6 0.174844 0.605206 0.385539
Si Si7 0.336957 0.604125 0.739730
Si Si8 0.817898 0.000000 0.926954
O O1 0.171899 0.760668 0.158616
O O2 0.274808 0.612549 0.189728
O O3 0.000000 0.625082 0.142028
O O4 0.226662 0.646663 0.066264
O O5 0.236332 0.122951 0.247885
O O6 0.231462 0.082641 0.117032
O O7 0.000000 0.107043 0.183777
O O8 0.747280 0.164986 0.626741
O O9 0.000000 0.124945 0.679627
O O10 0.803591 0.000000 0.667153
O O11 0.776965 0.500000 0.000000
O O12 0.000000 0.391587 0.000000
O O13 0.717818 0.813633 0.500000
O O14 0.500000 0.778672 0.423773
O O15 0.733583 0.675948 0.425797
O O16 0.208955 0.500000 0.396433
O O17 0.217668 0.632571 0.312891
O O18 0.000000 0.616381 0.395770
O O19 0.500000 0.647061 0.732061
O O20 0.353577 0.500000 0.727017
O O21 0.000000 0.000000 0.931133
O O22 0.765397 0.000000 0.000000
#
# Coordination Sequence:
#
# PCOD9389258 Si02
#       8
#     8   8   8   4   8   8   8   4
#     4  10  19  30  49  74 103 142 190 238 285 340
#     4   9  17  30  49  78 111 143 181 228 283 340
#     4  10  20  37  61  86 116 154 198 251 306 359
#     4   9  18  30  43  66 104 146 189 243 299 344
#     4  11  25  42  60  86 121 158 196 242 294 351
#     4  10  21  38  62  90 118 150 190 236 287 348
#     4  10  20  34  53  78 108 142 182 230 283 337
#     4   9  16  26  46  76 114 147 170 214 281 343
#
# _framework density 19.753086
#
# number of rings (size 3 to 8) (size 9 to 14) (size 15 to 20)
#    0.000    2.143    0.714    2.571    1.000    5.429 
#    0.000    3.214    0.000    1.286    0.000    0.000 
#    0.000    2.286    0.000    0.000    0.000    0.000 
#
# Total GULP energy -312154.224555 kJ/mol
# GULP energy per Si atom -5574.182581 kJ/mol
# Density = 1.970813 g / cm^3
# Si number density = 19.753086 Si / 1000 Ang^3
#
#
#
# Elastic Constant Matrix: (Units=GPa)
#
#
# Indices 1 2 3 4 5 6 
#
# 1 28.0991 26.7156 31.3708 0.0000 0.0000 0.0000
# 2 26.7156 62.3625 56.1849 0.0000 0.0000 0.0000
# 3 31.3708 56.1849 162.3365 0.0000 0.0000 0.0000
# 4 0.0000 0.0000 0.0000 25.3422 0.0000 0.0000
# 5 0.0000 0.0000 0.0000 0.0000 59.9549 0.0000
# 6 0.0000 0.0000 0.0000 0.0000 0.0000 11.1989
#
#
#
# Elastic Compliance Matrix: (Units=1/GPa)
#
#
# Indices 1 2 3 4 5 6 
#
# 1 0.061816 -0.022842 -0.004040 0.000000 0.000000 0.000000
# 2 -0.022842 0.031741 -0.006572 0.000000 0.000000 0.000000
# 3 -0.004040 -0.006572 0.009215 0.000000 0.000000 0.000000
# 4 0.000000 0.000000 0.000000 0.039460 0.000000 0.000000
# 5 0.000000 0.000000 0.000000 0.000000 0.016679 0.000000
# 6 0.000000 0.000000 0.000000 0.000000 0.000000 0.089295
#
#
# Mechanical properties :
#
#
# Convention : Reuss Voigt Hill
#
# Bulk Modulus (GPa) = 27.88188 53.48232 40.68210
# Shear Modulus (GPa) = 15.28736 28.53433 21.91084
#
# Velocity S-wave (km/s) = 2.78496 3.80485 3.33413
# Velocity P-wave (km/s) = 4.94846 6.81445 5.95499
#
# Compressibility (1/GPa) = 0.03586559
#
# Stress axis : x y z
#
# Youngs Moduli (GPa) = 16.17706 31.50496 108.51602
#
# Poissons Ratio (x) = 0.71962 0.43842
# Poissons Ratio (y) = 0.36951 0.71312
# Poissons Ratio (z) = 0.06536 0.20704
#
# Static dielectric constant tensor:
#      x y z
#    x 1.691130 0.000000 0.000000 
#    y 0.000000 1.665320 0.000000 
#    z 0.000000 0.000000 1.714830 
# 
# From -- ./inp_files/29731.got.cif
#   From: 2010.05.17/outbox.ucp.g08.bks.cvg/sg47_15_cif.got.tgz:29731.got - 2010.06.11 16:36:43.
