data_PCOD9389947
_publ_section_title
;
Structure prediction by ZEFSAII (Michael W. Deem and Ramdas Pophale) SiO2 
 PCOD9389947
Probable space group: P N N N
;
_chemical_formula_sum "Si O2"
_cell_formula_units_Z 52
_cell_length_a 14.602948
_cell_length_b 11.620807
_cell_length_c 16.244228
_cell_angle_alpha 90.000000
_cell_angle_beta 90.000000
_cell_angle_gamma 90.000000
_cell_volume 2756.613658
_symmetry_space_group_name_H-M "P N N N"
_symmetry_group_IT_number 48
_space_group.IT_coordinate_system_code '2'
_symmetry_cell_setting 'orthorhombic'
loop_
_space_group_symop_operation_xyz
x,y,z
1/2-x,1/2-y,z
x,1/2-y,1/2-z
1/2-x,y,1/2-z
-x,-y,-z
1/2+x,1/2+y,-z
-x,1/2+y,1/2+z
1/2+x,-y,1/2+z
loop_
_atom_site_type_symbol
_atom_site_label
_atom_site_fract_x
_atom_site_fract_y
_atom_site_fract_z
Si Si1 0.392753 0.546652 0.936782
Si Si2 0.213501 0.904618 0.661726
Si Si3 0.832641 0.840352 0.362964
Si Si4 0.469890 0.758717 0.846643
Si Si5 0.024979 0.848284 0.089245
Si Si6 0.041742 0.371789 0.005863
Si Si7 0.994765 0.750000 0.250000
O O1 0.292959 0.584346 0.906162
O O2 0.458520 0.631751 0.884530
O O3 0.426960 0.417104 0.916651
O O4 0.409324 0.573756 0.032598
O O5 0.250000 0.865506 0.750000
O O6 0.126233 0.827476 0.639808
O O7 0.187837 0.036452 0.674248
O O8 0.750000 0.750000 0.354122
O O9 0.862667 0.862076 0.457370
O O10 0.923828 0.806105 0.313813
O O11 0.487187 0.750000 0.750000
O O12 0.542476 0.829980 0.900184
O O13 0.048913 0.829824 0.185260
O O14 0.019522 0.726105 0.040888
O O15 0.000000 0.500000 0.000000
#
# Coordination Sequence:
#
# PCOD9389947 Si02
#       7
#     8   8   8   8   8   8   4
#     4  10  20  34  48  78 116 149 186 226 294 354
#     4  12  20  30  52  84 119 147 183 245 301 354
#     4  11  21  34  57  85 116 147 188 243 302 349
#     4  11  22  34  53  81 113 152 187 237 294 357
#     4   9  20  34  53  73 111 153 189 228 280 361
#     4  10  20  38  53  77 113 150 190 232 292 363
#     4  10  19  34  54  84 111 148 188 232 291 350
#
# _framework density 18.863724000000001
#
# number of rings (size 3 to 8) (size 9 to 14) (size 15 to 20)
#    0.000    1.538    3.077    4.385    0.000    0.000 
#    0.000    0.000    0.000    0.462    0.000   19.385 
#    0.000    0.000    0.000    0.000    0.000    0.000 
#
# Total GULP energy -289617.251821 kJ/mol
# GULP energy per Si atom -5569.562535 kJ/mol
# Density = 1.882079 g / cm^3
# Si number density = 18.863724 Si / 1000 Ang^3
#
#
#
# Elastic Constant Matrix: (Units=GPa)
#
#
# Indices 1 2 3 4 5 6 
#
# 1 24.1507 3.3709 30.1202 0.0000 0.0000 0.0000
# 2 3.3709 115.6422 22.0867 0.0000 0.0000 0.0000
# 3 30.1202 22.0867 145.7355 0.0000 0.0000 0.0000
# 4 0.0000 0.0000 0.0000 24.8595 0.0000 0.0000
# 5 0.0000 0.0000 0.0000 0.0000 36.0789 0.0000
# 6 0.0000 0.0000 0.0000 0.0000 0.0000 17.7518
#
#
#
# Elastic Compliance Matrix: (Units=1/GPa)
#
#
# Indices 1 2 3 4 5 6 
#
# 1 0.055826 0.000594 -0.011628 0.000000 0.000000 0.000000
# 2 0.000594 0.008911 -0.001473 0.000000 0.000000 0.000000
# 3 -0.011628 -0.001473 0.009488 0.000000 0.000000 0.000000
# 4 0.000000 0.000000 0.000000 0.040226 0.000000 0.000000
# 5 0.000000 0.000000 0.000000 0.000000 0.027717 0.000000
# 6 0.000000 0.000000 0.000000 0.000000 0.000000 0.056332
#
#
# Mechanical properties :
#
#
# Convention : Reuss Voigt Hill
#
# Bulk Modulus (GPa) = 20.32090 44.07600 32.19845
# Shear Modulus (GPa) = 20.84030 31.06807 25.95419
#
# Velocity S-wave (km/s) = 3.32743 4.06270 3.71331
# Velocity P-wave (km/s) = 5.05552 6.73970 5.95742
#
# Compressibility (1/GPa) = 0.04921042
#
# Stress axis : x y z
#
# Youngs Moduli (GPa) = 17.91283 112.21538 105.39358
#
# Poissons Ratio (x) = -0.06661 1.22551
# Poissons Ratio (y) = -0.01063 0.15527
# Poissons Ratio (z) = 0.20829 0.16532
#
# Static dielectric constant tensor:
#      x y z
#    x 1.706610 0.000000 0.000000 
#    y 0.000000 1.720010 0.000000 
#    z 0.000000 0.000000 1.724690 
# 
# From -- ./inp_files/28003.got.cif
#   From: 2010.05.17/outbox.cif.g08.bks.cpg/sg48_15_cif.got.tgz:28003.got - 2010.06.03 20:39:00.
