data_PCOD9389609
_publ_section_title
;
Structure prediction by ZEFSAII (Michael W. Deem and Ramdas Pophale) SiO2 
 PCOD9389609
Probable space group: P N N N
;
_chemical_formula_sum "Si O2"
_cell_formula_units_Z 42
_cell_length_a 5.625551
_cell_length_b 15.208421
_cell_length_c 24.695571
_cell_angle_alpha 90.000000
_cell_angle_beta 90.000000
_cell_angle_gamma 90.000000
_cell_volume 2112.848048
_symmetry_space_group_name_H-M "P N N N"
_symmetry_group_IT_number 48
_space_group.IT_coordinate_system_code '2'
_symmetry_cell_setting 'orthorhombic'
loop_
_space_group_symop_operation_xyz
x,y,z
1/2-x,1/2-y,z
x,1/2-y,1/2-z
1/2-x,y,1/2-z
-x,-y,-z
1/2+x,1/2+y,-z
-x,1/2+y,1/2+z
1/2+x,-y,1/2+z
loop_
_atom_site_type_symbol
_atom_site_label
_atom_site_fract_x
_atom_site_fract_y
_atom_site_fract_z
Si Si1 0.143212 0.340878 0.809773
Si Si2 0.766021 0.902328 0.482451
Si Si3 0.232016 0.846324 0.063895
Si Si4 0.750000 0.250000 0.750000
Si Si5 0.273138 0.515047 0.621796
Si Si6 0.229621 0.461432 0.393651
O O1 0.250000 0.250000 0.833209
O O2 0.250000 0.355305 0.750000
O O3 0.204085 0.422826 0.846522
O O4 0.881204 0.315271 0.791435
O O5 0.522407 0.851977 0.466652
O O6 0.767042 0.986735 0.441915
O O7 0.023007 0.858044 0.470813
O O8 0.740095 0.928851 0.544540
O O9 0.250000 0.750000 0.089158
O O10 0.230443 0.931500 0.102546
O O11 0.519783 0.564822 0.632551
O O12 0.022647 0.561495 0.632698
#
# Coordination Sequence:
#
# PCOD9389609 Si02
#       6
#     8   8   8   2   8   8
#     4   9  20  33  47  64  92 126 162 207 258 283
#     4  10  19  34  45  64  96 126 154 196 251 293
#     4  10  18  28  44  64  88 117 157 195 228 266
#     4   8  18  36  48  54  96 132 154 204 276 284
#     4  10  19  29  48  67  80 117 166 195 229 287
#     4  10  20  32  48  65  94 124 158 196 249 296
#
# _framework density 19.878381999999998
#
# number of rings (size 3 to 8) (size 9 to 14) (size 15 to 20)
#    0.000    2.476    0.000    6.286    5.333    6.095 
#    1.714    0.000    0.000    0.000    0.000    0.000 
#    0.000    0.000    0.000    0.000    0.000  185.714 
#
# Total GULP energy -233911.863319 kJ/mol
# GULP energy per Si atom -5569.330079 kJ/mol
# Density = 1.983314 g / cm^3
# Si number density = 19.878382 Si / 1000 Ang^3
#
#
#
# Elastic Constant Matrix: (Units=GPa)
#
#
# Indices 1 2 3 4 5 6 
#
# 1 206.2175 10.9130 27.9902 0.0000 0.0000 0.0000
# 2 10.9130 8.3102 5.4248 0.0000 0.0000 0.0000
# 3 27.9902 5.4248 44.4538 0.0000 0.0000 0.0000
# 4 0.0000 0.0000 0.0000 11.8190 0.0000 0.0000
# 5 0.0000 0.0000 0.0000 0.0000 -217.2708 0.0000
# 6 0.0000 0.0000 0.0000 0.0000 0.0000 0.3767
#
#
#
# Elastic Compliance Matrix: (Units=1/GPa)
#
#
# Indices 1 2 3 4 5 6 
#
# 1 0.005517 -0.005409 -0.002814 0.000000 0.000000 0.000000
# 2 -0.005409 0.136051 -0.013197 0.000000 0.000000 0.000000
# 3 -0.002814 -0.013197 0.025878 0.000000 0.000000 0.000000
# 4 0.000000 0.000000 0.000000 0.084609 0.000000 0.000000
# 5 0.000000 0.000000 0.000000 0.000000 -0.004603 0.000000
# 6 0.000000 0.000000 0.000000 0.000000 0.000000 2.654597
#
#
# Mechanical properties :
#
#
# Convention : Reuss Voigt Hill
#
# Bulk Modulus (GPa) = 8.02524 38.62638 23.32581
# Shear Modulus (GPa) = 1.67424 -26.70478 -12.51527
#
# Velocity S-wave (km/s) = 0.91873 -3.66923 -2.51189
# Velocity P-wave (km/s) = 2.27406 1.23391 1.82947
#
# Compressibility (1/GPa) = 0.12460688
#
# Stress axis : x y z
#
# Youngs Moduli (GPa) = 181.24434 7.35016 38.64354
#
# Poissons Ratio (x) = 0.03975 0.10874
# Poissons Ratio (y) = 0.98026 0.50999
# Poissons Ratio (z) = 0.51002 0.09700
#
# Static dielectric constant tensor:
#      x y z
#    x 1.922070 0.000000 0.000000 
#    y 0.000000 1.669890 0.000000 
#    z 0.000000 0.000000 1.703780 
# 
# From -- ./inp_files/4415.got.cif
#   From: 2010.05.17/outbox.cif.g08.bks.cpg/sg48_3_cif.got.tgz:4415.got - 2010.06.03 20:39:00.
