data_PCOD9389426
_publ_section_title
;
Structure prediction by ZEFSAII (Michael W. Deem and Ramdas Pophale) SiO2 
 PCOD9389426
Probable space group: P M M M
;
_chemical_formula_sum "Si O2"
_cell_formula_units_Z 64
_cell_length_a 24.000000
_cell_length_b 9.000000
_cell_length_c 15.000000
_cell_angle_alpha 90.000000
_cell_angle_beta 90.000000
_cell_angle_gamma 90.000000
_cell_volume 3240.000000
_symmetry_space_group_name_H-M "P M M M"
_symmetry_group_IT_number 47
_symmetry_cell_setting 'orthorhombic'
loop_
_space_group_symop_operation_xyz
x,y,z
-x,-y,z
x,-y,-z
-x,y,-z
-x,-y,-z
x,y,-z
-x,y,z
x,-y,z
loop_
_atom_site_type_symbol
_atom_site_label
_atom_site_fract_x
_atom_site_fract_y
_atom_site_fract_z
Si Si1 0.932325 0.173430 0.400964
Si Si2 0.841620 0.179545 0.103053
Si Si3 0.066192 0.676345 0.783368
Si Si4 0.562807 0.173217 0.353095
Si Si5 0.257009 0.824658 0.236097
Si Si6 0.563539 0.832763 0.862385
Si Si7 0.668021 0.669203 0.899912
Si Si8 0.319419 0.676927 0.397987
O O1 0.913639 0.224012 0.500000
O O2 0.914588 0.263849 0.313959
O O3 0.000000 0.179411 0.402305
O O4 0.916730 0.000000 0.390610
O O5 0.899706 0.243090 0.139089
O O6 0.796499 0.227570 0.178265
O O7 0.842138 0.000000 0.103823
O O8 0.830187 0.225220 0.000000
O O9 0.074541 0.500000 0.787910
O O10 0.000000 0.706615 0.790774
O O11 0.500000 0.224893 0.380155
O O12 0.564150 0.176251 0.245318
O O13 0.617651 0.259992 0.384602
O O14 0.567679 0.000000 0.380220
O O15 0.306306 0.786796 0.167384
O O16 0.276131 0.746675 0.327288
O O17 0.251823 0.000000 0.251845
O O18 0.500000 0.816976 0.891037
O O19 0.603044 0.706641 0.899604
O O20 0.582469 0.000000 0.887335
O O21 0.678622 0.500000 0.870507
O O22 0.690134 0.687144 0.000000
O O23 0.302770 0.708606 0.500000
O O24 0.321161 0.500000 0.384602
#
# Coordination Sequence:
#
# PCOD9389426 Si02
#       8
#     8   8   8   8   8   8   8   8
#     4   8  14  27  50  80 115 158 205 246 282 325
#     4  10  23  43  66  91 117 151 198 248 297 350
#     4  10  21  36  57  90 130 167 201 241 293 353
#     4   9  18  34  57  85 116 153 198 245 295 352
#     4  11  23  42  66  88 112 145 192 247 293 342
#     4   9  18  33  53  78 109 147 191 238 288 341
#     4  11  23  36  54  83 115 148 187 232 289 353
#     4  11  24  40  60  89 123 157 194 239 297 362
#
# _framework density 19.753086
#
# number of rings (size 3 to 8) (size 9 to 14) (size 15 to 20)
#    0.000    2.125    1.250    3.000    0.000    6.000 
#    0.000    6.875    0.000    0.750    0.000    0.000 
#    0.000    0.000    0.000    0.000    0.000    0.000 
#
# Total GULP energy -357067.897966 kJ/mol
# GULP energy per Si atom -5579.185906 kJ/mol
# Density = 1.970813 g / cm^3
# Si number density = 19.753086 Si / 1000 Ang^3
#
#
#
# Elastic Constant Matrix: (Units=GPa)
#
#
# Indices 1 2 3 4 5 6 
#
# 1 64.2971 28.3490 49.4604 0.0000 0.0000 0.0000
# 2 28.3490 34.4238 42.5964 0.0000 0.0000 0.0000
# 3 49.4604 42.5964 132.4312 0.0000 0.0000 0.0000
# 4 0.0000 0.0000 0.0000 25.7365 0.0000 0.0000
# 5 0.0000 0.0000 0.0000 0.0000 -12.2486 0.0000
# 6 0.0000 0.0000 0.0000 0.0000 0.0000 14.4136
#
#
#
# Elastic Compliance Matrix: (Units=1/GPa)
#
#
# Indices 1 2 3 4 5 6 
#
# 1 0.026071 -0.015651 -0.004703 0.000000 0.000000 0.000000
# 2 -0.015651 0.057652 -0.012698 0.000000 0.000000 0.000000
# 3 -0.004703 -0.012698 0.013392 0.000000 0.000000 0.000000
# 4 0.000000 0.000000 0.000000 0.038855 0.000000 0.000000
# 5 0.000000 0.000000 0.000000 0.000000 -0.081642 0.000000
# 6 0.000000 0.000000 0.000000 0.000000 0.000000 0.069379
#
#
# Mechanical properties :
#
#
# Convention : Reuss Voigt Hill
#
# Bulk Modulus (GPa) = 32.24714 52.44039 42.34376
# Shear Modulus (GPa) = 24.98153 12.96339 18.97246
#
# Velocity S-wave (km/s) = 3.56011 2.56456 3.10252
# Velocity P-wave (km/s) = 5.76712 5.94768 5.85810
#
# Compressibility (1/GPa) = 0.03101050
#
# Stress axis : x y z
#
# Youngs Moduli (GPa) = 38.35670 17.34558 74.67162
#
# Poissons Ratio (x) = 0.27147 0.35118
# Poissons Ratio (y) = 0.60031 0.94821
# Poissons Ratio (z) = 0.18039 0.22026
#
# Static dielectric constant tensor:
#      x y z
#    x 1.726150 0.000000 0.000000 
#    y 0.000000 1.667480 0.000000 
#    z 0.000000 0.000000 1.712610 
# 
# From -- ./inp_files/25588.got.cif
#   From: 2010.05.17/outbox.ucp.g08.bks.cvg/sg47_13_cif.got.tgz:25588.got - 2010.06.11 16:36:43.
