data_PCOD9389702
_publ_section_title
;
Structure prediction by ZEFSAII (Michael W. Deem and Ramdas Pophale) SiO2 
 PCOD9389702
Probable space group: P N N N
;
_chemical_formula_sum "Si O2"
_cell_formula_units_Z 64
_cell_length_a 11.545415
_cell_length_b 17.009714
_cell_length_c 16.436552
_cell_angle_alpha 90.000000
_cell_angle_beta 90.000000
_cell_angle_gamma 90.000000
_cell_volume 3227.879233
_symmetry_space_group_name_H-M "P N N N"
_symmetry_group_IT_number 48
_space_group.IT_coordinate_system_code '2'
_symmetry_cell_setting 'orthorhombic'
loop_
_space_group_symop_operation_xyz
x,y,z
1/2-x,1/2-y,z
x,1/2-y,1/2-z
1/2-x,y,1/2-z
-x,-y,-z
1/2+x,1/2+y,-z
-x,1/2+y,1/2+z
1/2+x,-y,1/2+z
loop_
_atom_site_type_symbol
_atom_site_label
_atom_site_fract_x
_atom_site_fract_y
_atom_site_fract_z
Si Si1 0.386452 0.003678 0.772802
Si Si2 0.923513 0.289677 0.447422
Si Si3 0.111903 0.102738 0.013684
Si Si4 0.556157 0.036900 0.626632
Si Si5 0.614860 0.165709 0.269702
Si Si6 0.732722 0.166405 0.605566
Si Si7 0.410931 0.615376 0.513192
Si Si8 0.145995 0.445903 0.947418
O O1 0.250000 0.002750 0.750000
O O2 0.425401 0.911750 0.777988
O O3 0.468391 0.033161 0.701282
O O4 0.392665 0.055760 0.853605
O O5 0.893306 0.339859 0.367505
O O6 0.840706 0.313809 0.522390
O O7 0.905886 0.196335 0.436346
O O8 0.056254 0.312579 0.466820
O O9 0.237281 0.097757 0.972856
O O10 0.021260 0.068378 0.948160
O O11 0.106923 0.045656 0.092769
O O12 0.659245 0.097643 0.645877
O O13 0.558174 0.250000 0.250000
O O14 0.750000 0.171424 0.250000
O O15 0.750000 0.250000 0.648559
O O16 0.856405 0.136874 0.574228
O O17 0.337133 0.540215 0.541533
O O18 0.541474 0.585299 0.502773
#
# Coordination Sequence:
#
# PCOD9389702 Si02
#       8
#     8   8   8   8   8   8   8   8
#     4  11  21  33  56  87 123 151 188 249 316 363
#     4  10  20  35  56  89 116 151 201 246 301 358
#     4  10  19  33  58  83 117 158 202 241 290 369
#     4  10  18  33  56  88 118 151 193 249 300 364
#     4  10  21  28  48  87 129 152 173 233 318 375
#     4   9  19  33  60  83 110 146 199 250 290 350
#     4  10  22  36  56  80 118 161 199 254 287 361
#     4  11  22  37  56  84 119 158 204 245 306 361
#
# _framework density 19.827261
#
# number of rings (size 3 to 8) (size 9 to 14) (size 15 to 20)
#    0.000    1.875    3.750    0.750    8.750    0.500 
#    0.000    0.625    0.000    9.000    0.000    0.875 
#    0.000    0.000    0.000    0.000    0.000    0.000 
#
# Total GULP energy -356655.112412 kJ/mol
# GULP energy per Si atom -5572.736131 kJ/mol
# Density = 1.978213 g / cm^3
# Si number density = 19.827261 Si / 1000 Ang^3
#
#
#
# Elastic Constant Matrix: (Units=GPa)
#
#
# Indices 1 2 3 4 5 6 
#
# 1 72.5682 33.6886 6.0105 0.0000 0.0000 0.0000
# 2 33.6886 59.5535 1.9910 0.0000 0.0000 0.0000
# 3 6.0105 1.9910 53.8512 0.0000 0.0000 0.0000
# 4 0.0000 0.0000 0.0000 10.3407 0.0000 0.0000
# 5 0.0000 0.0000 0.0000 0.0000 23.0326 0.0000
# 6 0.0000 0.0000 0.0000 0.0000 0.0000 30.2276
#
#
#
# Elastic Compliance Matrix: (Units=1/GPa)
#
#
# Indices 1 2 3 4 5 6 
#
# 1 0.018844 -0.010603 -0.001711 0.000000 0.000000 0.000000
# 2 -0.010603 0.022778 0.000341 0.000000 0.000000 0.000000
# 3 -0.001711 0.000341 0.018748 0.000000 0.000000 0.000000
# 4 0.000000 0.000000 0.000000 0.096705 0.000000 0.000000
# 5 0.000000 0.000000 0.000000 0.000000 0.043417 0.000000
# 6 0.000000 0.000000 0.000000 0.000000 0.000000 0.033082
#
#
# Mechanical properties :
#
#
# Convention : Reuss Voigt Hill
#
# Bulk Modulus (GPa) = 27.45381 29.92814 28.69098
# Shear Modulus (GPa) = 18.54179 22.33904 20.44042
#
# Velocity S-wave (km/s) = 3.06137 3.36025 3.21429
# Velocity P-wave (km/s) = 5.13542 5.49384 5.31765
#
# Compressibility (1/GPa) = 0.03642482
#
# Stress axis : x y z
#
# Youngs Moduli (GPa) = 53.06746 43.90214 53.33886
#
# Poissons Ratio (x) = 0.46547 0.09128
# Poissons Ratio (y) = 0.56265 -0.01820
# Poissons Ratio (z) = 0.09081 -0.01498
#
# Static dielectric constant tensor:
#      x y z
#    x 1.663210 0.000000 0.000000 
#    y 0.000000 1.764180 0.000000 
#    z 0.000000 0.000000 1.757360 
# 
# From -- ./inp_files/31253.got.cif
#   From: 2010.05.17/outbox.cif.g08.bks.cpg/sg48_16_cif.got.tgz:31253.got - 2010.06.03 20:39:00.
