data_PCOD9389309
_publ_section_title
;
Structure prediction by ZEFSAII (Michael W. Deem and Ramdas Pophale) SiO2 
 PCOD9389309
Probable space group: P M M M
;
_chemical_formula_sum "Si O2"
_cell_formula_units_Z 48
_cell_length_a 9.000000
_cell_length_b 18.000000
_cell_length_c 15.000000
_cell_angle_alpha 90.000000
_cell_angle_beta 90.000000
_cell_angle_gamma 90.000000
_cell_volume 2430.000000
_symmetry_space_group_name_H-M "P M M M"
_symmetry_group_IT_number 47
_symmetry_cell_setting 'orthorhombic'
loop_
_space_group_symop_operation_xyz
x,y,z
-x,-y,z
x,-y,-z
-x,y,-z
-x,-y,-z
x,y,-z
-x,y,z
x,-y,z
loop_
_atom_site_type_symbol
_atom_site_label
_atom_site_fract_x
_atom_site_fract_y
_atom_site_fract_z
Si Si1 0.666059 0.140613 0.602591
Si Si2 0.323673 0.159110 0.100313
Si Si3 0.168580 0.000000 0.119716
Si Si4 0.330663 0.416079 0.893247
Si Si5 0.823757 0.709904 0.208048
Si Si6 0.822202 0.296963 0.403069
Si Si7 0.165050 0.000000 0.671336
O O1 0.651613 0.118198 0.500000
O O2 0.500000 0.158105 0.636696
O O3 0.771887 0.211527 0.602774
O O4 0.742788 0.072615 0.649088
O O5 0.500000 0.153644 0.115113
O O6 0.252885 0.214115 0.173633
O O7 0.254035 0.076534 0.098750
O O8 0.299573 0.190958 0.000000
O O9 0.151848 0.000000 0.224407
O O10 0.000000 0.000000 0.085858
O O11 0.500000 0.397100 0.865084
O O12 0.296743 0.500000 0.862435
O O13 0.218647 0.354624 0.859700
O O14 0.330249 0.417125 0.000000
O O15 0.773136 0.677867 0.304927
O O16 0.000000 0.723597 0.211836
O O17 0.765125 0.325440 0.500000
O O18 0.000000 0.303948 0.405948
O O19 0.000000 0.000000 0.629421
#
# Coordination Sequence:
#
# PCOD9389309 Si02
#       7
#     8   8   4   8   8   8   4
#     4  10  20  32  47  69  94 122 165 221 273 319
#     4  11  24  40  57  78 107 145 186 226 275 336
#     4  11  24  39  54  74 102 137 181 234 281 319
#     4   9  19  37  60  86 118 154 186 218 266 328
#     4  11  22  35  57  88 115 143 184 230 274 321
#     4   9  19  36  54  73 103 141 177 215 263 319
#     4  11  22  33  46  66  92 125 166 210 267 335
#
# _framework density 19.753086
#
# number of rings (size 3 to 8) (size 9 to 14) (size 15 to 20)
#    0.000    1.833    0.000    4.500    0.000   13.667 
#    0.000    0.833    0.000    0.500    0.000    3.500 
#    0.000    0.000    0.000    0.000    0.000    0.000 
#
# Total GULP energy -267450.024887 kJ/mol
# GULP energy per Si atom -5571.875518 kJ/mol
# Density = 1.970813 g / cm^3
# Si number density = 19.753086 Si / 1000 Ang^3
#
#
#
# Elastic Constant Matrix: (Units=GPa)
#
#
# Indices 1 2 3 4 5 6 
#
# 1 23.6360 15.1951 18.3217 0.0000 0.0000 0.0000
# 2 15.1951 41.5583 17.4229 0.0000 0.0000 0.0000
# 3 18.3217 17.4229 75.6464 0.0000 0.0000 0.0000
# 4 0.0000 0.0000 0.0000 172.3354 0.0000 0.0000
# 5 0.0000 0.0000 0.0000 0.0000 21.2317 0.0000
# 6 0.0000 0.0000 0.0000 0.0000 0.0000 26.1487
#
#
#
# Elastic Compliance Matrix: (Units=1/GPa)
#
#
# Indices 1 2 3 4 5 6 
#
# 1 0.062538 -0.018281 -0.010936 0.000000 0.000000 0.000000
# 2 -0.018281 0.031978 -0.002938 0.000000 0.000000 0.000000
# 3 -0.010936 -0.002938 0.016545 0.000000 0.000000 0.000000
# 4 0.000000 0.000000 0.000000 0.005803 0.000000 0.000000
# 5 0.000000 0.000000 0.000000 0.000000 0.047099 0.000000
# 6 0.000000 0.000000 0.000000 0.000000 0.000000 0.038243
#
#
# Mechanical properties :
#
#
# Convention : Reuss Voigt Hill
#
# Bulk Modulus (GPa) = 21.38976 26.96889 24.17932
# Shear Modulus (GPa) = 17.72421 49.93658 33.83039
#
# Velocity S-wave (km/s) = 2.99873 5.03342 4.14292
# Velocity P-wave (km/s) = 4.77932 6.88934 5.92895
#
# Compressibility (1/GPa) = 0.04675134
#
# Stress axis : x y z
#
# Youngs Moduli (GPa) = 15.99019 31.27123 60.44203
#
# Poissons Ratio (x) = 0.57167 0.66102
# Poissons Ratio (y) = 0.29232 0.17755
# Poissons Ratio (z) = 0.17488 0.09186
#
# Static dielectric constant tensor:
#      x y z
#    x 1.716410 0.000000 0.000000 
#    y 0.000000 1.568780 0.000000 
#    z 0.000000 0.000000 1.791300 
# 
# From -- ./inp_files/21135.got.cif
#   From: 2010.05.17/outbox.ucp.g08.bks.cvg/sg47_11_cif.got.tgz:21135.got - 2010.06.11 16:36:43.
