data_PCOD9389807
_publ_section_title
;
Structure prediction by ZEFSAII (Michael W. Deem and Ramdas Pophale) SiO2 
 PCOD9389807
Probable space group: P N N N
;
_chemical_formula_sum "Si O2"
_cell_formula_units_Z 32
_cell_length_a 12.157348
_cell_length_b 18.431261
_cell_length_c 6.167695
_cell_angle_alpha 90.000000
_cell_angle_beta 90.000000
_cell_angle_gamma 90.000000
_cell_volume 1382.027824
_symmetry_space_group_name_H-M "P N N N"
_symmetry_group_IT_number 48
_space_group.IT_coordinate_system_code '2'
_symmetry_cell_setting 'orthorhombic'
loop_
_space_group_symop_operation_xyz
x,y,z
1/2-x,1/2-y,z
x,1/2-y,1/2-z
1/2-x,y,1/2-z
-x,-y,-z
1/2+x,1/2+y,-z
-x,1/2+y,1/2+z
1/2+x,-y,1/2+z
loop_
_atom_site_type_symbol
_atom_site_label
_atom_site_fract_x
_atom_site_fract_y
_atom_site_fract_z
Si Si1 0.417941 0.566808 0.948271
Si Si2 0.250000 0.750000 0.250000
Si Si3 0.080837 0.358971 0.746597
Si Si4 0.250000 0.250000 0.750000
Si Si5 0.750000 0.984174 0.250000
Si Si6 0.080286 0.816337 0.583974
O O1 0.296652 0.531995 0.948862
O O2 0.415060 0.608198 0.717050
O O3 0.500000 0.500000 0.000000
O O4 0.472062 0.624984 0.108033
O O5 0.176520 0.799453 0.410997
O O6 0.169197 0.306739 0.631077
O O7 0.147732 0.431787 0.806499
O O8 0.034536 0.319986 0.957630
O O9 0.085094 0.750000 0.750000
#
# Coordination Sequence:
#
# PCOD9389807 Si02
#       6
#     8   2   8   2   4   8
#     4  10  23  44  69 101 148 191 244 307 373 454
#     4  12  28  44  72 108 140 200 248 322 392 460
#     4  10  22  43  66 101 140 188 239 303 369 447
#     4  10  18  40  70  94 142 186 232 300 368 434
#     4   9  22  41  69  98 143 192 238 292 371 452
#     4  12  26  44  72 106 144 187 255 315 380 454
#
# _framework density 23.154382999999999
#
# number of rings (size 3 to 8) (size 9 to 14) (size 15 to 20)
#    0.000    1.500    0.000    4.125    7.000    4.000 
#    0.000   25.625    0.000    0.000    0.000    0.000 
#    0.000    0.000    0.000    0.000    0.000    0.000 
#
# Total GULP energy -178210.649336 kJ/mol
# GULP energy per Si atom -5569.082792 kJ/mol
# Density = 2.310168 g / cm^3
# Si number density = 23.154383 Si / 1000 Ang^3
#
#
#
# Elastic Constant Matrix: (Units=GPa)
#
#
# Indices 1 2 3 4 5 6 
#
# 1 147.8944 67.3421 66.4139 0.0000 0.0000 0.0000
# 2 67.3421 121.5958 58.1340 0.0000 0.0000 0.0000
# 3 66.4139 58.1340 93.1410 0.0000 0.0000 0.0000
# 4 0.0000 0.0000 0.0000 6.8268 0.0000 0.0000
# 5 0.0000 0.0000 0.0000 0.0000 31.3169 0.0000
# 6 0.0000 0.0000 0.0000 0.0000 0.0000 32.9489
#
#
#
# Elastic Compliance Matrix: (Units=1/GPa)
#
#
# Indices 1 2 3 4 5 6 
#
# 1 0.010790 -0.003274 -0.005650 0.000000 0.000000 0.000000
# 2 -0.003274 0.012715 -0.005602 0.000000 0.000000 0.000000
# 3 -0.005650 -0.005602 0.018261 0.000000 0.000000 0.000000
# 4 0.000000 0.000000 0.000000 0.146482 0.000000 0.000000
# 5 0.000000 0.000000 0.000000 0.000000 0.031932 0.000000
# 6 0.000000 0.000000 0.000000 0.000000 0.000000 0.030350
#
#
# Mechanical properties :
#
#
# Convention : Reuss Voigt Hill
#
# Bulk Modulus (GPa) = 78.64860 82.93456 80.79158
# Shear Modulus (GPa) = 17.61681 25.60126 21.60904
#
# Velocity S-wave (km/s) = 2.76133 3.32878 3.05824
# Velocity P-wave (km/s) = 6.64886 7.11830 6.88758
#
# Compressibility (1/GPa) = 0.01271479
#
# Stress axis : x y z
#
# Youngs Moduli (GPa) = 92.68125 78.64452 54.76082
#
# Poissons Ratio (x) = 0.25751 0.30939
# Poissons Ratio (y) = 0.30347 0.30675
# Poissons Ratio (z) = 0.52363 0.44053
#
# Static dielectric constant tensor:
#      x y z
#    x 1.877130 0.000000 0.000000 
#    y 0.000000 2.015630 0.000000 
#    z 0.000000 0.000000 1.888200 
# 
# From -- ./inp_files/2010.got.cif
#   From: 2010.05.17/outbox.cif.g08.bks.cpg/sg48_2_cif.got.tgz:2010.got - 2010.06.03 20:39:00.
