data_PCOD9389775
_publ_section_title
;
Structure prediction by ZEFSAII (Michael W. Deem and Ramdas Pophale) SiO2 
 PCOD9389775
Probable space group: P N N N
;
_chemical_formula_sum "Si O2"
_cell_formula_units_Z 64
_cell_length_a 17.054873
_cell_length_b 22.437664
_cell_length_c 8.751543
_cell_angle_alpha 90.000000
_cell_angle_beta 90.000000
_cell_angle_gamma 90.000000
_cell_volume 3348.966174
_symmetry_space_group_name_H-M "P N N N"
_symmetry_group_IT_number 48
_space_group.IT_coordinate_system_code '2'
_symmetry_cell_setting 'orthorhombic'
loop_
_space_group_symop_operation_xyz
x,y,z
1/2-x,1/2-y,z
x,1/2-y,1/2-z
1/2-x,y,1/2-z
-x,-y,-z
1/2+x,1/2+y,-z
-x,1/2+y,1/2+z
1/2+x,-y,1/2+z
loop_
_atom_site_type_symbol
_atom_site_label
_atom_site_fract_x
_atom_site_fract_y
_atom_site_fract_z
Si Si1 0.281000 0.913040 0.580289
Si Si2 0.813718 0.487948 0.882952
Si Si3 0.001829 0.228131 0.924911
Si Si4 0.825441 0.586443 0.143782
Si Si5 0.903963 0.007194 0.900302
Si Si6 0.947240 0.908707 0.086476
Si Si7 0.668038 0.724108 0.425426
Si Si8 0.667829 0.223770 0.421954
O O1 0.250000 0.925233 0.750000
O O2 0.209838 0.925630 0.462739
O O3 0.343164 0.960577 0.515843
O O4 0.317702 0.847405 0.577808
O O5 0.750000 0.502439 0.750000
O O6 0.888881 0.484490 0.778564
O O7 0.822370 0.537227 0.012538
O O8 0.994183 0.250000 0.750000
O O9 0.023582 0.158229 0.929796
O O10 0.081821 0.258921 0.990139
O O11 0.916490 0.237726 0.001808
O O12 0.750000 0.578570 0.250000
O O13 0.899097 0.583549 0.257934
O O14 0.824039 0.653258 0.078723
O O15 0.981111 0.046279 0.918298
O O16 0.899205 0.937437 0.945279
O O17 0.750000 0.750000 0.491996
O O18 0.665652 0.750000 0.250000
O O19 0.750000 0.250000 0.490061
O O20 0.664131 0.250000 0.250000
#
# Coordination Sequence:
#
# PCOD9389775 Si02
#       8
#     8   8   8   8   8   8   8   8
#     4  11  20  42  68  90 124 174 215 260 329 400
#     4  10  23  39  60  95 130 157 210 271 321 388
#     4  11  22  42  66  97 131 172 226 275 321 391
#     4  12  20  37  67  91 118 167 209 258 329 393
#     4  10  23  40  59  92 131 163 207 271 334 383
#     4  11  21  39  64  89 125 170 210 262 332 395
#     4  10  18  36  63  93 121 160 214 261 303 381
#     4  11  24  45  65  94 132 173 223 274 335 389
#
# _framework density 19.110375999999999
#
# number of rings (size 3 to 8) (size 9 to 14) (size 15 to 20)
#    0.000    1.250    6.250    2.625    0.000    1.750 
#    4.500    0.000    0.000    0.000    0.000    0.000 
#    0.000    0.000    0.000    0.000    0.000    0.000 
#
# Total GULP energy -356379.356034 kJ/mol
# GULP energy per Si atom -5568.427438 kJ/mol
# Density = 1.906688 g / cm^3
# Si number density = 19.110376 Si / 1000 Ang^3
#
#
#
# Elastic Constant Matrix: (Units=GPa)
#
#
# Indices 1 2 3 4 5 6 
#
# 1 98.9552 27.2105 46.4886 0.0000 0.0000 0.0000
# 2 27.2105 89.1803 26.0486 0.0000 0.0000 0.0000
# 3 46.4886 26.0486 70.0495 0.0000 0.0000 0.0000
# 4 0.0000 0.0000 0.0000 12.6264 0.0000 0.0000
# 5 0.0000 0.0000 0.0000 0.0000 20.9369 0.0000
# 6 0.0000 0.0000 0.0000 0.0000 0.0000 47.8303
#
#
#
# Elastic Compliance Matrix: (Units=1/GPa)
#
#
# Indices 1 2 3 4 5 6 
#
# 1 0.014956 -0.001867 -0.009231 0.000000 0.000000 0.000000
# 2 -0.001867 0.012813 -0.003526 0.000000 0.000000 0.000000
# 3 -0.009231 -0.003526 0.021713 0.000000 0.000000 0.000000
# 4 0.000000 0.000000 0.000000 0.079199 0.000000 0.000000
# 5 0.000000 0.000000 0.000000 0.000000 0.047762 0.000000
# 6 0.000000 0.000000 0.000000 0.000000 0.000000 0.020907
#
#
# Mechanical properties :
#
#
# Convention : Reuss Voigt Hill
#
# Bulk Modulus (GPa) = 49.42170 50.85339 50.13755
# Shear Modulus (GPa) = 21.42778 26.84121 24.13449
#
# Velocity S-wave (km/s) = 3.35216 3.75178 3.55759
# Velocity P-wave (km/s) = 6.39531 6.74062 6.57023
#
# Compressibility (1/GPa) = 0.02023403
#
# Stress axis : x y z
#
# Youngs Moduli (GPa) = 66.86413 78.04796 46.05550
#
# Poissons Ratio (x) = 0.14571 0.42515
# Poissons Ratio (y) = 0.12483 0.16237
# Poissons Ratio (z) = 0.61723 0.27516
#
# Static dielectric constant tensor:
#      x y z
#    x 1.997800 0.000000 0.000000 
#    y 0.000000 1.675020 0.000000 
#    z 0.000000 0.000000 1.758800 
# 
# From -- ./inp_files/14573.got.cif
#   From: 2010.05.17/outbox.cif.g08.bks.cpg/sg48_8_cif.got.tgz:14573.got - 2010.06.03 20:39:00.
