data_PCOD9389394
_publ_section_title
;
Structure prediction by ZEFSAII (Michael W. Deem and Ramdas Pophale) SiO2 
 PCOD9389394
Probable space group: P M M M
;
_chemical_formula_sum "Si O2"
_cell_formula_units_Z 48
_cell_length_a 18.000000
_cell_length_b 15.000000
_cell_length_c 9.000000
_cell_angle_alpha 90.000000
_cell_angle_beta 90.000000
_cell_angle_gamma 90.000000
_cell_volume 2430.000000
_symmetry_space_group_name_H-M "P M M M"
_symmetry_group_IT_number 47
_symmetry_cell_setting 'orthorhombic'
loop_
_space_group_symop_operation_xyz
x,y,z
-x,-y,z
x,-y,-z
-x,y,-z
-x,-y,-z
x,y,-z
-x,y,z
x,-y,z
loop_
_atom_site_type_symbol
_atom_site_label
_atom_site_fract_x
_atom_site_fract_y
_atom_site_fract_z
Si Si1 0.812170 0.333991 0.680164
Si Si2 0.085126 0.500000 0.319796
Si Si3 0.500000 0.169243 0.323355
Si Si4 0.814916 0.847142 0.175427
Si Si5 0.912783 0.000000 0.678158
Si Si6 0.334402 0.894670 0.667216
Si Si7 0.500000 0.643433 0.826757
Si Si8 0.347752 0.397137 0.332667
O O1 0.812836 0.325014 0.500000
O O2 0.865660 0.414964 0.721577
O O3 0.839526 0.247818 0.763998
O O4 0.725784 0.348876 0.724116
O O5 0.081588 0.500000 0.500000
O O6 0.000000 0.500000 0.265477
O O7 0.500000 0.192257 0.500000
O O8 0.421134 0.121185 0.296449
O O9 0.500000 0.253519 0.217415
O O10 0.728697 0.858527 0.224673
O O11 0.867353 0.917317 0.257026
O O12 0.820771 0.856905 0.000000
O O13 0.908326 0.000000 0.500000
O O14 0.000000 0.000000 0.719937
O O15 0.321373 0.858092 0.500000
O O16 0.323065 0.000000 0.662232
O O17 0.423513 0.608161 0.757591
O O18 0.500000 0.626856 0.000000
O O19 0.364384 0.364570 0.500000
O O20 0.325244 0.500000 0.342025
#
# Coordination Sequence:
#
# PCOD9389394 Si02
#       8
#     8   4   4   8   4   8   4   8
#     4  10  20  38  64  93 124 162 209 256 300 358
#     4   9  18  36  65  98 125 150 194 257 309 351
#     4  10  21  37  57  84 115 157 210 262 307 352
#     4  12  25  40  62  95 133 170 203 245 309 379
#     4  11  25  47  73  96 119 156 209 263 310 361
#     4  10  20  37  62  88 118 158 209 261 305 357
#     4  12  25  36  49  78 117 156 199 253 312 373
#     4  10  20  37  60  83 111 155 209 260 305 354
#
# _framework density 19.753086
#
# number of rings (size 3 to 8) (size 9 to 14) (size 15 to 20)
#    0.000    1.500    1.667    4.000    0.000    9.000 
#    0.000    2.083    0.000    2.000    0.000    0.000 
#    0.000    0.000    0.000    0.000    0.000    0.000 
#
# Total GULP energy -267897.760135 kJ/mol
# GULP energy per Si atom -5581.203336 kJ/mol
# Density = 1.970813 g / cm^3
# Si number density = 19.753086 Si / 1000 Ang^3
#
#
#
# Elastic Constant Matrix: (Units=GPa)
#
#
# Indices 1 2 3 4 5 6 
#
# 1 150.6002 60.9115 62.0323 0.0000 0.0000 0.0000
# 2 60.9115 125.2412 48.4089 0.0000 0.0000 0.0000
# 3 62.0323 48.4089 61.7427 0.0000 0.0000 0.0000
# 4 0.0000 0.0000 0.0000 42.2833 0.0000 0.0000
# 5 0.0000 0.0000 0.0000 0.0000 -30.4664 0.0000
# 6 0.0000 0.0000 0.0000 0.0000 0.0000 -208.6702
#
#
#
# Elastic Compliance Matrix: (Units=1/GPa)
#
#
# Indices 1 2 3 4 5 6 
#
# 1 0.011554 -0.001625 -0.010334 0.000000 0.000000 0.000000
# 2 -0.001625 0.011685 -0.007529 0.000000 0.000000 0.000000
# 3 -0.010334 -0.007529 0.032482 0.000000 0.000000 0.000000
# 4 0.000000 0.000000 0.000000 0.023650 0.000000 0.000000
# 5 0.000000 0.000000 0.000000 0.000000 -0.032823 0.000000
# 6 0.000000 0.000000 0.000000 0.000000 0.000000 -0.004792
#
#
# Mechanical properties :
#
#
# Convention : Reuss Voigt Hill
#
# Bulk Modulus (GPa) = 59.72022 75.58773 67.65398
# Shear Modulus (GPa) = 57.92842 -28.28857 14.81993
#
# Velocity S-wave (km/s) = 5.42125 -3.78843 2.74206
# Velocity P-wave (km/s) = 8.33580 4.38328 6.65953
#
# Compressibility (1/GPa) = 0.01674475
#
# Stress axis : x y z
#
# Youngs Moduli (GPa) = 86.55052 85.57957 30.78632
#
# Poissons Ratio (x) = 0.13906 0.31815
# Poissons Ratio (y) = 0.14063 0.23179
# Poissons Ratio (z) = 0.89443 0.64433
#
# Static dielectric constant tensor:
#      x y z
#    x 1.707430 0.000000 0.000000 
#    y 0.000000 1.649550 0.000000 
#    z 0.000000 0.000000 1.663740 
# 
# From -- ./inp_files/9303.got.cif
#   From: 2010.05.17/outbox.ucp.g08.bks.cvg/sg47_5_cif.got.tgz:9303.got - 2010.06.11 16:36:43.
