data_PCOD9389853
_publ_section_title
;
Structure prediction by ZEFSAII (Michael W. Deem and Ramdas Pophale) SiO2 
 PCOD9389853
Probable space group: P N N N
;
_chemical_formula_sum "Si O2"
_cell_formula_units_Z 64
_cell_length_a 8.065276
_cell_length_b 22.575861
_cell_length_c 17.978545
_cell_angle_alpha 90.000000
_cell_angle_beta 90.000000
_cell_angle_gamma 90.000000
_cell_volume 3273.543360
_symmetry_space_group_name_H-M "P N N N"
_symmetry_group_IT_number 48
_space_group.IT_coordinate_system_code '2'
_symmetry_cell_setting 'orthorhombic'
loop_
_space_group_symop_operation_xyz
x,y,z
1/2-x,1/2-y,z
x,1/2-y,1/2-z
1/2-x,y,1/2-z
-x,-y,-z
1/2+x,1/2+y,-z
-x,1/2+y,1/2+z
1/2+x,-y,1/2+z
loop_
_atom_site_type_symbol
_atom_site_label
_atom_site_fract_x
_atom_site_fract_y
_atom_site_fract_z
Si Si1 0.207174 0.575995 0.392589
Si Si2 0.611665 0.966541 0.317659
Si Si3 0.568614 0.586142 0.550899
Si Si4 0.872066 0.205918 0.894289
Si Si5 0.404638 0.015422 0.194166
Si Si6 0.765793 0.011408 0.031251
Si Si7 0.275314 0.162385 0.666875
Si Si8 0.092728 0.210727 0.523708
O O1 0.225987 0.644980 0.408090
O O2 0.364780 0.540714 0.360294
O O3 0.134385 0.544059 0.465968
O O4 0.067552 0.564487 0.330928
O O5 0.728628 0.909073 0.326769
O O6 0.571012 0.002097 0.241634
O O7 0.656732 0.007493 0.387533
O O8 0.593932 0.570405 0.637542
O O9 0.708319 0.552101 0.501618
O O10 0.397071 0.552873 0.533224
O O11 0.564402 0.654410 0.528482
O O12 0.750000 0.250000 0.850718
O O13 0.043741 0.184995 0.857856
O O14 0.937960 0.245504 0.963279
O O15 0.250000 0.023647 0.250000
O O16 0.250000 0.184364 0.750000
O O17 0.147071 0.185252 0.605201
O O18 0.250000 0.250000 0.498312
#
# Coordination Sequence:
#
# PCOD9389853 Si02
#       8
#     8   8   8   8   8   8   8   8
#     4   9  19  36  52  80 113 146 187 239 286 348
#     4  10  19  33  54  81 111 153 179 229 298 355
#     4  10  20  34  56  82 115 149 187 240 290 344
#     4  10  21  37  57  77 111 155 202 235 282 334
#     4   9  20  36  54  83 118 143 183 238 302 356
#     4  10  19  31  56  86 111 142 184 234 301 351
#     4  10  22  36  54  78 115 151 193 236 280 339
#     4  10  21  39  57  82 113 152 205 242 275 341
#
# _framework density 19.550681000000001
#
# number of rings (size 3 to 8) (size 9 to 14) (size 15 to 20)
#    0.000    2.250    1.250    1.125    1.750    4.250 
#    0.000    7.500    0.000    0.375    0.000    0.000 
#    3.750    0.000    0.000    0.000    0.000    0.000 
#
# Total GULP energy -356800.793556 kJ/mol
# GULP energy per Si atom -5575.012399 kJ/mol
# Density = 1.950618 g / cm^3
# Si number density = 19.550681 Si / 1000 Ang^3
#
#
#
# Elastic Constant Matrix: (Units=GPa)
#
#
# Indices 1 2 3 4 5 6 
#
# 1 48.0746 18.8810 20.3906 0.0000 0.0000 0.0000
# 2 18.8810 124.2161 60.6158 0.0000 0.0000 0.0000
# 3 20.3906 60.6158 117.5078 0.0000 0.0000 0.0000
# 4 0.0000 0.0000 0.0000 23.4021 0.0000 0.0000
# 5 0.0000 0.0000 0.0000 0.0000 30.9955 0.0000
# 6 0.0000 0.0000 0.0000 0.0000 0.0000 19.4247
#
#
#
# Elastic Compliance Matrix: (Units=1/GPa)
#
#
# Indices 1 2 3 4 5 6 
#
# 1 0.022839 -0.002055 -0.002903 0.000000 0.000000 0.000000
# 2 -0.002055 0.010944 -0.005289 0.000000 0.000000 0.000000
# 3 -0.002903 -0.005289 0.011742 0.000000 0.000000 0.000000
# 4 0.000000 0.000000 0.000000 0.042731 0.000000 0.000000
# 5 0.000000 0.000000 0.000000 0.000000 0.032263 0.000000
# 6 0.000000 0.000000 0.000000 0.000000 0.000000 0.051481
#
#
# Mechanical properties :
#
#
# Convention : Reuss Voigt Hill
#
# Bulk Modulus (GPa) = 39.94959 54.39703 47.17331
# Shear Modulus (GPa) = 24.89578 27.42519 26.16049
#
# Velocity S-wave (km/s) = 3.57234 3.74943 3.66195
# Velocity P-wave (km/s) = 6.12321 6.82849 6.48544
#
# Compressibility (1/GPa) = 0.02503155
#
# Stress axis : x y z
#
# Youngs Moduli (GPa) = 43.78388 91.37742 85.16451
#
# Poissons Ratio (x) = 0.18777 0.24725
# Poissons Ratio (y) = 0.08997 0.45040
# Poissons Ratio (z) = 0.12711 0.48326
#
# Static dielectric constant tensor:
#      x y z
#    x 1.843620 0.000000 0.000000 
#    y 0.000000 1.700910 0.000000 
#    z 0.000000 0.000000 1.754570 
# 
# From -- ./inp_files/14566.got.cif
#   From: 2010.05.17/outbox.cif.g08.bks.cpg/sg48_8_cif.got.tgz:14566.got - 2010.06.03 20:39:00.
