data_PCOD9389839
_publ_section_title
;
Structure prediction by ZEFSAII (Michael W. Deem and Ramdas Pophale) SiO2 
 PCOD9389839
Probable space group: P N N N
;
_chemical_formula_sum "Si O2"
_cell_formula_units_Z 58
_cell_length_a 39.127090
_cell_length_b 5.410059
_cell_length_c 14.720853
_cell_angle_alpha 90.000000
_cell_angle_beta 90.000000
_cell_angle_gamma 90.000000
_cell_volume 3116.108182
_symmetry_space_group_name_H-M "P N N N"
_symmetry_group_IT_number 48
_space_group.IT_coordinate_system_code '2'
_symmetry_cell_setting 'orthorhombic'
loop_
_space_group_symop_operation_xyz
x,y,z
1/2-x,1/2-y,z
x,1/2-y,1/2-z
1/2-x,y,1/2-z
-x,-y,-z
1/2+x,1/2+y,-z
-x,1/2+y,1/2+z
1/2+x,-y,1/2+z
loop_
_atom_site_type_symbol
_atom_site_label
_atom_site_fract_x
_atom_site_fract_y
_atom_site_fract_z
Si Si1 0.577485 0.305117 0.382357
Si Si2 0.855440 0.711551 0.548739
Si Si3 0.997238 0.745062 0.642133
Si Si4 0.883665 0.803804 0.154233
Si Si5 0.605384 0.210614 0.914395
Si Si6 0.750000 0.250000 0.750000
Si Si7 0.287194 0.357773 0.150630
Si Si8 0.967484 0.242958 0.647198
O O1 0.537895 0.251295 0.366015
O O2 0.588513 0.580575 0.351502
O O3 0.586780 0.296538 0.488042
O O4 0.599229 0.075301 0.342241
O O5 0.862285 0.713086 0.439724
O O6 0.873278 0.463938 0.587966
O O7 0.816134 0.691326 0.578113
O O8 0.872056 0.962051 0.589597
O O9 0.988230 0.750000 0.750000
O O10 0.979959 0.498073 0.603114
O O11 0.981815 0.995990 0.601713
O O12 0.864967 0.750000 0.250000
O O13 0.573212 0.221143 0.848413
O O14 0.723213 0.368540 0.820904
O O15 0.250000 0.250000 0.125827
O O16 0.297273 0.250000 0.250000
O O17 0.981808 0.250000 0.750000
#
# Coordination Sequence:
#
# PCOD9389839 Si02
#       8
#     8   8   8   8   8   2   8   8
#     4  10  20  33  52  76  99 131 179 233 276 319
#     4  10  22  36  56  82 110 142 179 214 262 321
#     4  10  19  31  49  68  91 130 179 226 275 322
#     4  10  19  34  54  78 110 138 175 225 275 318
#     4  10  22  36  50  75 106 139 175 217 268 324
#     4   8  18  36  60  86 120 146 178 228 254 304
#     4   9  20  36  59  88 117 145 181 218 256 302
#     4  10  21  34  47  67  98 134 176 220 269 326
#
# _framework density 18.612960999999999
#
# number of rings (size 3 to 8) (size 9 to 14) (size 15 to 20)
#    0.000    2.345    0.000    2.897    3.862    3.310 
#    0.000    0.000    0.000    0.414    0.000    0.000 
#    0.000    0.000    0.000    0.000    0.000    0.000 
#
# Total GULP energy -323061.153116 kJ/mol
# GULP energy per Si atom -5570.019881 kJ/mol
# Density = 1.857060 g / cm^3
# Si number density = 18.612961 Si / 1000 Ang^3
#
#
#
# Elastic Constant Matrix: (Units=GPa)
#
#
# Indices 1 2 3 4 5 6 
#
# 1 104.5305 51.0987 35.3139 0.0000 0.0000 0.0000
# 2 51.0987 150.9730 27.5368 0.0000 0.0000 0.0000
# 3 35.3139 27.5368 40.5969 0.0000 0.0000 0.0000
# 4 0.0000 0.0000 0.0000 13.3509 0.0000 0.0000
# 5 0.0000 0.0000 0.0000 0.0000 6.6375 0.0000
# 6 0.0000 0.0000 0.0000 0.0000 0.0000 56.7128
#
#
#
# Elastic Compliance Matrix: (Units=1/GPa)
#
#
# Indices 1 2 3 4 5 6 
#
# 1 0.014654 -0.003007 -0.010707 0.000000 0.000000 0.000000
# 2 -0.003007 0.008176 -0.002930 0.000000 0.000000 0.000000
# 3 -0.010707 -0.002930 0.035934 0.000000 0.000000 0.000000
# 4 0.000000 0.000000 0.000000 0.074901 0.000000 0.000000
# 5 0.000000 0.000000 0.000000 0.000000 0.150659 0.000000
# 6 0.000000 0.000000 0.000000 0.000000 0.000000 0.017633
#
#
# Mechanical properties :
#
#
# Convention : Reuss Voigt Hill
#
# Bulk Modulus (GPa) = 39.25423 58.22213 48.73818
# Shear Modulus (GPa) = 14.54604 27.48365 21.01484
#
# Velocity S-wave (km/s) = 2.79857 3.84681 3.36377
# Velocity P-wave (km/s) = 5.61944 7.14695 6.42873
#
# Compressibility (1/GPa) = 0.02547496
#
# Stress axis : x y z
#
# Youngs Moduli (GPa) = 68.24221 122.31182 27.82894
#
# Poissons Ratio (x) = 0.36776 0.29797
# Poissons Ratio (y) = 0.20519 0.08154
# Poissons Ratio (z) = 0.73069 0.35839
#
# Static dielectric constant tensor:
#      x y z
#    x 1.593320 0.000000 0.000000 
#    y 0.000000 3.413860 0.000000 
#    z 0.000000 0.000000 1.743650 
# 
# From -- ./inp_files/32493.got.cif
#   From: 2010.05.17/outbox.cif.g08.bks.cpg/sg48_17_cif.got.tgz:32493.got - 2010.06.03 20:39:00.
