data_PCOD9389053
_publ_section_title
;
Structure prediction by ZEFSAII (Michael W. Deem and Ramdas Pophale) SiO2 
 PCOD9389053
Probable space group: P M M M
;
_chemical_formula_sum "Si O2"
_cell_formula_units_Z 32
_cell_length_a 25.950731
_cell_length_b 7.401952
_cell_length_c 7.630676
_cell_angle_alpha 90.000000
_cell_angle_beta 90.000000
_cell_angle_gamma 90.000000
_cell_volume 1465.746528
_symmetry_space_group_name_H-M "P M M M"
_symmetry_group_IT_number 47
_symmetry_cell_setting 'orthorhombic'
loop_
_space_group_symop_operation_xyz
x,y,z
-x,-y,z
x,-y,-z
-x,y,-z
-x,-y,-z
x,y,-z
-x,y,z
x,-y,z
loop_
_atom_site_type_symbol
_atom_site_label
_atom_site_fract_x
_atom_site_fract_y
_atom_site_fract_z
Si Si1 0.059031 0.500000 0.284891
Si Si2 0.558936 0.779474 0.500000
Si Si3 0.749060 0.207073 0.210675
Si Si4 0.861260 0.795729 0.290570
Si Si5 0.637073 0.778887 0.201885
O O1 0.058695 0.500000 0.500000
O O2 0.092243 0.327521 0.226489
O O3 0.000000 0.500000 0.227612
O O4 0.500000 0.718729 0.500000
O O5 0.591503 0.723596 0.329920
O O6 0.558224 0.000000 0.500000
O O7 0.804528 0.285974 0.256350
O O8 0.693738 0.282930 0.266421
O O9 0.751409 0.000000 0.277416
O O10 0.745889 0.202655 0.000000
O O11 0.866341 0.806382 0.500000
O O12 0.862808 0.000000 0.218666
O O13 0.639209 0.000000 0.202659
O O14 0.629253 0.724189 0.000000
#
# Coordination Sequence:
#
# PCOD9389053 Si02
#       5
#     4   4   8   8   8
#     4   9  18  32  47  67  99 129 155 196 241 282
#     4   9  16  22  30  48  76 115 159 200 241 287
#     4   8  14  25  41  61  84 110 144 192 246 290
#     4   9  17  28  46  70  90 118 160 199 240 290
#     4   8  14  23  34  50  75 110 151 196 246 295
#
# _framework density 21.831879000000001
#
# number of rings (size 3 to 8) (size 9 to 14) (size 15 to 20)
#    0.000    3.500    0.000    1.500    1.750    1.000 
#    0.000    5.625    0.000    1.500    0.000    3.500 
#    0.000    0.000    0.000    2.250    0.000   15.500 
#
# Total GULP energy -178474.952419 kJ/mol
# GULP energy per Si atom -5577.342263 kJ/mol
# Density = 2.178219 g / cm^3
# Si number density = 21.831879 Si / 1000 Ang^3
#
#
#
# Elastic Constant Matrix: (Units=GPa)
#
#
# Indices 1 2 3 4 5 6 
#
# 1 274.6223 57.8794 60.7128 0.0000 0.0000 0.0000
# 2 57.8794 87.6498 13.4818 0.0000 0.0000 0.0000
# 3 60.7128 13.4818 69.9070 0.0000 0.0000 0.0000
# 4 0.0000 0.0000 0.0000 -9.3536 0.0000 0.0000
# 5 0.0000 0.0000 0.0000 0.0000 81.7745 0.0000
# 6 0.0000 0.0000 0.0000 0.0000 0.0000 95.5346
#
#
#
# Elastic Compliance Matrix: (Units=1/GPa)
#
#
# Indices 1 2 3 4 5 6 
#
# 1 0.005081 -0.002758 -0.003880 0.000000 0.000000 0.000000
# 2 -0.002758 0.013255 -0.000161 0.000000 0.000000 0.000000
# 3 -0.003880 -0.000161 0.017706 0.000000 0.000000 0.000000
# 4 0.000000 0.000000 0.000000 -0.106911 0.000000 0.000000
# 5 0.000000 0.000000 0.000000 0.000000 0.012229 0.000000
# 6 0.000000 0.000000 0.000000 0.000000 0.000000 0.010467
#
#
# Mechanical properties :
#
#
# Convention : Reuss Voigt Hill
#
# Bulk Modulus (GPa) = 44.55828 77.36967 60.96398
# Shear Modulus (GPa) = -184.54856 53.59811 -65.47523
#
# Velocity S-wave (km/s) = -9.20409 4.96021 -5.48231
# Velocity P-wave (km/s) = 9.61767 8.26563 3.47699
#
# Compressibility (1/GPa) = 0.02244252
#
# Stress axis : x y z
#
# Youngs Moduli (GPa) = 196.82994 75.44287 56.47850
#
# Poissons Ratio (x) = 0.20807 0.21916
# Poissons Ratio (y) = 0.54287 0.00909
# Poissons Ratio (z) = 0.76379 0.01214
#
# Static dielectric constant tensor:
#      x y z
#    x 1.776120 0.000000 0.000000 
#    y 0.000000 2.056350 0.000000 
#    z 0.000000 0.000000 1.786860 
# 
# From -- ./inp_files/1322.got.cif
#   From: 2010.05.17/outbox.cif.g08.bks.cpg/sg47_1_cif.got.tgz:1322.got - 2010.06.03 20:15:42.
