data_PCOD9389621
_publ_section_title
;
Structure prediction by ZEFSAII (Michael W. Deem and Ramdas Pophale) SiO2 
 PCOD9389621
Probable space group: P N N N
;
_chemical_formula_sum "Si O2"
_cell_formula_units_Z 56
_cell_length_a 11.356255
_cell_length_b 19.425441
_cell_length_c 10.954476
_cell_angle_alpha 90.000000
_cell_angle_beta 90.000000
_cell_angle_gamma 90.000000
_cell_volume 2416.560270
_symmetry_space_group_name_H-M "P N N N"
_symmetry_group_IT_number 48
_space_group.IT_coordinate_system_code '2'
_symmetry_cell_setting 'orthorhombic'
loop_
_space_group_symop_operation_xyz
x,y,z
1/2-x,1/2-y,z
x,1/2-y,1/2-z
1/2-x,y,1/2-z
-x,-y,-z
1/2+x,1/2+y,-z
-x,1/2+y,1/2+z
1/2+x,-y,1/2+z
loop_
_atom_site_type_symbol
_atom_site_label
_atom_site_fract_x
_atom_site_fract_y
_atom_site_fract_z
Si Si1 0.822021 0.137287 0.892393
Si Si2 0.315275 0.175971 0.866513
Si Si3 0.635593 0.098462 0.324497
Si Si4 0.934797 0.000456 0.869646
Si Si5 0.716105 0.874873 0.609955
Si Si6 0.991205 0.778201 0.864361
Si Si7 0.424536 0.789044 0.101722
O O1 0.685321 0.159741 0.878814
O O2 0.885680 0.210409 0.867807
O O3 0.890204 0.074610 0.826383
O O4 0.834809 0.109758 0.031975
O O5 0.250000 0.250000 0.879501
O O6 0.250000 0.141647 0.750000
O O7 0.452483 0.187415 0.841537
O O8 0.302782 0.140186 0.998358
O O9 0.750000 0.079786 0.250000
O O10 0.530593 0.044532 0.294936
O O11 0.589444 0.175357 0.298483
O O12 0.819719 0.954223 0.887241
O O13 0.000000 0.000000 0.000000
O O14 0.750000 0.859507 0.750000
O O15 0.598154 0.831821 0.572693
O O16 0.920356 0.750000 0.750000
O O17 0.042761 0.723995 0.958519
#
# Coordination Sequence:
#
# PCOD9389621 Si02
#       7
#     8   8   8   8   8   8   8
#     4   9  19  36  64  90 131 171 232 284 346 409
#     4  11  24  42  66  99 142 173 229 285 348 425
#     4   9  17  30  52  90 129 176 227 276 340 420
#     4   9  20  40  61  86 138 186 231 280 344 423
#     4  11  23  39  65  98 134 181 230 280 353 418
#     4  10  18  29  53  92 133 168 211 281 348 406
#     4  10  19  36  64  97 124 175 223 289 347 413
#
# _framework density 23.173434
#
# number of rings (size 3 to 8) (size 9 to 14) (size 15 to 20)
#    0.000    2.143    1.429    2.571    0.000    2.571 
#    0.000    5.714    0.000    3.429    0.000    0.000 
#    0.000    0.000    0.000    0.000    0.000    0.000 
#
# Total GULP energy -312280.093997 kJ/mol
# GULP energy per Si atom -5576.430250 kJ/mol
# Density = 2.312069 g / cm^3
# Si number density = 23.173434 Si / 1000 Ang^3
#
#
#
# Elastic Constant Matrix: (Units=GPa)
#
#
# Indices 1 2 3 4 5 6 
#
# 1 165.5646 75.3180 44.9730 0.0000 0.0000 0.0000
# 2 75.3180 116.1578 38.3983 0.0000 0.0000 0.0000
# 3 44.9730 38.3983 114.0362 0.0000 0.0000 0.0000
# 4 0.0000 0.0000 0.0000 15.6704 0.0000 0.0000
# 5 0.0000 0.0000 0.0000 0.0000 38.6878 0.0000
# 6 0.0000 0.0000 0.0000 0.0000 0.0000 27.7846
#
#
#
# Elastic Compliance Matrix: (Units=1/GPa)
#
#
# Indices 1 2 3 4 5 6 
#
# 1 0.008869 -0.005170 -0.001757 0.000000 0.000000 0.000000
# 2 -0.005170 0.012701 -0.002238 0.000000 0.000000 0.000000
# 3 -0.001757 -0.002238 0.010216 0.000000 0.000000 0.000000
# 4 0.000000 0.000000 0.000000 0.063815 0.000000 0.000000
# 5 0.000000 0.000000 0.000000 0.000000 0.025848 0.000000
# 6 0.000000 0.000000 0.000000 0.000000 0.000000 0.035991
#
#
# Mechanical properties :
#
#
# Convention : Reuss Voigt Hill
#
# Bulk Modulus (GPa) = 74.31485 79.23745 76.77615
# Shear Modulus (GPa) = 27.73860 32.23318 29.98589
#
# Velocity S-wave (km/s) = 3.46352 3.73360 3.60109
# Velocity P-wave (km/s) = 6.93781 7.27006 7.10588
#
# Compressibility (1/GPa) = 0.01345626
#
# Stress axis : x y z
#
# Youngs Moduli (GPa) = 112.75085 78.73369 97.89035
#
# Poissons Ratio (x) = 0.40706 0.17198
# Poissons Ratio (y) = 0.58293 0.21905
# Poissons Ratio (z) = 0.19809 0.17619
#
# Static dielectric constant tensor:
#      x y z
#    x 1.884830 0.000000 0.000000 
#    y 0.000000 1.939450 0.000000 
#    z 0.000000 0.000000 1.991360 
# 
# From -- ./inp_files/20271.got.cif
#   From: 2010.05.17/outbox.cif.g08.bks.cpg/sg48_11_cif.got.tgz:20271.got - 2010.06.03 20:39:00.
