data_PCOD9389269
_publ_section_title
;
Structure prediction by ZEFSAII (Michael W. Deem and Ramdas Pophale) SiO2 
 PCOD9389269
Probable space group: P M M M
;
_chemical_formula_sum "Si O2"
_cell_formula_units_Z 56
_cell_length_a 15.000000
_cell_length_b 21.000000
_cell_length_c 9.000000
_cell_angle_alpha 90.000000
_cell_angle_beta 90.000000
_cell_angle_gamma 90.000000
_cell_volume 2835.000000
_symmetry_space_group_name_H-M "P M M M"
_symmetry_group_IT_number 47
_symmetry_cell_setting 'orthorhombic'
loop_
_space_group_symop_operation_xyz
x,y,z
-x,-y,z
x,-y,-z
-x,y,-z
-x,-y,-z
x,y,-z
-x,y,z
x,-y,z
loop_
_atom_site_type_symbol
_atom_site_label
_atom_site_fract_x
_atom_site_fract_y
_atom_site_fract_z
Si Si1 0.855668 0.294468 0.671165
Si Si2 0.648804 0.569182 0.177523
Si Si3 0.743997 0.927688 0.181775
Si Si4 0.845483 0.431151 0.320751
Si Si5 0.360153 0.303374 0.329497
Si Si6 0.601024 0.172782 0.829798
Si Si7 0.098269 0.162864 0.178483
O O1 0.882122 0.284121 0.500000
O O2 0.890229 0.364140 0.720433
O O3 0.748011 0.299855 0.676998
O O4 0.883016 0.233803 0.764861
O O5 0.609235 0.500000 0.218419
O O6 0.750295 0.567587 0.238696
O O7 0.608997 0.633144 0.245623
O O8 0.648882 0.574006 0.000000
O O9 0.662471 0.883324 0.229600
O O10 0.830490 0.888590 0.230334
O O11 0.740737 0.000000 0.234319
O O12 0.743198 0.929889 0.000000
O O13 0.830420 0.427330 0.500000
O O14 0.889215 0.500000 0.291831
O O15 0.386483 0.307625 0.500000
O O16 0.392473 0.238219 0.258096
O O17 0.500000 0.150556 0.831773
O O18 0.629563 0.186727 0.000000
O O19 0.000000 0.143608 0.225636
O O20 0.102395 0.164306 0.000000
#
# Coordination Sequence:
#
# PCOD9389269 Si02
#       7
#     8   8   8   8   8   8   8
#     4   9  17  29  48  73 100 136 177 218 265 312
#     4   9  16  25  41  69 103 138 178 224 272 318
#     4   9  18  34  56  82 111 139 168 210 262 313
#     4   8  14  25  41  65  98 134 176 223 268 316
#     4  10  19  31  50  74 103 142 183 222 266 315
#     4  10  20  34  55  82 109 139 174 213 261 315
#     4  10  20  33  52  78 106 139 177 216 260 310
#
# _framework density 19.753086
#
# number of rings (size 3 to 8) (size 9 to 14) (size 15 to 20)
#    0.000    2.714    1.429    1.714    0.000    4.286 
#    0.000    2.857    0.000    2.571    0.000    8.000 
#    0.000    0.000    0.000    0.000    0.000    0.000 
#
# Total GULP energy -312047.877105 kJ/mol
# GULP energy per Si atom -5572.283520 kJ/mol
# Density = 1.970813 g / cm^3
# Si number density = 19.753086 Si / 1000 Ang^3
#
#
#
# Elastic Constant Matrix: (Units=GPa)
#
#
# Indices 1 2 3 4 5 6 
#
# 1 80.2641 69.0055 23.2156 0.0000 0.0000 0.0000
# 2 69.0055 214.9852 46.1711 0.0000 0.0000 0.0000
# 3 23.2156 46.1711 30.6954 0.0000 0.0000 0.0000
# 4 0.0000 0.0000 0.0000 4.4403 0.0000 0.0000
# 5 0.0000 0.0000 0.0000 0.0000 13.9538 0.0000
# 6 0.0000 0.0000 0.0000 0.0000 0.0000 -37.5679
#
#
#
# Elastic Compliance Matrix: (Units=1/GPa)
#
#
# Indices 1 2 3 4 5 6 
#
# 1 0.018274 -0.004280 -0.007383 0.000000 0.000000 0.000000
# 2 -0.004280 0.007874 -0.008606 0.000000 0.000000 0.000000
# 3 -0.007383 -0.008606 0.051107 0.000000 0.000000 0.000000
# 4 0.000000 0.000000 0.000000 0.225210 0.000000 0.000000
# 5 0.000000 0.000000 0.000000 0.000000 0.071665 0.000000
# 6 0.000000 0.000000 0.000000 0.000000 0.000000 -0.026618
#
#
# Mechanical properties :
#
#
# Convention : Reuss Voigt Hill
#
# Bulk Modulus (GPa) = 27.23593 66.96988 47.10290
# Shear Modulus (GPa) = 12.49097 8.66876 10.57986
#
# Velocity S-wave (km/s) = 2.51740 2.09716 2.31683
# Velocity P-wave (km/s) = 4.71888 6.31199 5.57266
#
# Compressibility (1/GPa) = 0.03671621
#
# Stress axis : x y z
#
# Youngs Moduli (GPa) = 54.72274 127.00814 19.56663
#
# Poissons Ratio (x) = 0.54358 0.14447
# Poissons Ratio (y) = 0.23421 0.16839
# Poissons Ratio (z) = 0.40404 1.09305
#
# Static dielectric constant tensor:
#      x y z
#    x 1.781280 0.000000 0.000000 
#    y 0.000000 1.699780 0.000000 
#    z 0.000000 0.000000 1.669680 
# 
# From -- ./inp_files/7288.got.cif
#   From: 2010.05.17/outbox.ucp.g08.bks.cvg/sg47_4_cif.got.tgz:7288.got - 2010.06.11 16:36:43.
