data_PCOD9389730
_publ_section_title
;
Structure prediction by ZEFSAII (Michael W. Deem and Ramdas Pophale) SiO2 
 PCOD9389730
Probable space group: P N N N
;
_chemical_formula_sum "Si O2"
_cell_formula_units_Z 40
_cell_length_a 8.191436
_cell_length_b 16.961284
_cell_length_c 13.056440
_cell_angle_alpha 90.000000
_cell_angle_beta 90.000000
_cell_angle_gamma 90.000000
_cell_volume 1814.026160
_symmetry_space_group_name_H-M "P N N N"
_symmetry_group_IT_number 48
_space_group.IT_coordinate_system_code '2'
_symmetry_cell_setting 'orthorhombic'
loop_
_space_group_symop_operation_xyz
x,y,z
1/2-x,1/2-y,z
x,1/2-y,1/2-z
1/2-x,y,1/2-z
-x,-y,-z
1/2+x,1/2+y,-z
-x,1/2+y,1/2+z
1/2+x,-y,1/2+z
loop_
_atom_site_type_symbol
_atom_site_label
_atom_site_fract_x
_atom_site_fract_y
_atom_site_fract_z
Si Si1 0.590531 0.580863 0.526387
Si Si2 0.441873 0.839003 0.774039
Si Si3 0.542018 0.182672 0.872362
Si Si4 0.582157 0.148475 0.630789
Si Si5 0.876686 0.522524 0.657701
O O1 0.500000 0.500000 0.500000
O O2 0.492845 0.632211 0.611938
O O3 0.592675 0.628337 0.421740
O O4 0.764285 0.559421 0.571189
O O5 0.504039 0.750000 0.750000
O O6 0.250000 0.837892 0.750000
O O7 0.515061 0.907737 0.702562
O O8 0.553219 0.168700 0.750956
O O9 0.509349 0.270964 0.913743
O O10 0.726534 0.155663 0.901776
O O11 0.537000 0.057331 0.619820
O O12 0.750000 0.498194 0.750000
#
# Coordination Sequence:
#
# PCOD9389730 Si02
#       5
#     8   8   8   8   8
#     4  11  20  35  63  96 122 161 219 261 311 386
#     4  10  24  44  65  87 125 173 212 269 339 394
#     4   9  16  27  52  87 125 157 204 258 294 379
#     4   9  15  28  51  88 125 161 202 245 318 362
#     4  10  18  34  61  89 122 159 206 258 319 379
#
# _framework density 22.050398999999999
#
# number of rings (size 3 to 8) (size 9 to 14) (size 15 to 20)
#    0.000    2.200    4.000    2.400    0.000    6.800 
#    0.000    1.000    4.400    0.000    0.000    1.400 
#    0.000    0.000    0.000    0.000    0.000    0.000 
#
# Total GULP energy -222983.940122 kJ/mol
# GULP energy per Si atom -5574.598503 kJ/mol
# Density = 2.200021 g / cm^3
# Si number density = 22.050399 Si / 1000 Ang^3
#
#
#
# Elastic Constant Matrix: (Units=GPa)
#
#
# Indices 1 2 3 4 5 6 
#
# 1 28.5943 32.3330 25.3344 0.0000 0.0000 0.0000
# 2 32.3330 200.5026 32.8525 0.0000 0.0000 0.0000
# 3 25.3344 32.8525 49.2019 0.0000 0.0000 0.0000
# 4 0.0000 0.0000 0.0000 31.0406 0.0000 0.0000
# 5 0.0000 0.0000 0.0000 0.0000 21.2474 0.0000
# 6 0.0000 0.0000 0.0000 0.0000 0.0000 15.1078
#
#
#
# Elastic Compliance Matrix: (Units=1/GPa)
#
#
# Indices 1 2 3 4 5 6 
#
# 1 0.070332 -0.006072 -0.032160 0.000000 0.000000 0.000000
# 2 -0.006072 0.006124 -0.000963 0.000000 0.000000 0.000000
# 3 -0.032160 -0.000963 0.037527 0.000000 0.000000 0.000000
# 4 0.000000 0.000000 0.000000 0.032216 0.000000 0.000000
# 5 0.000000 0.000000 0.000000 0.000000 0.047065 0.000000
# 6 0.000000 0.000000 0.000000 0.000000 0.000000 0.066191
#
#
# Mechanical properties :
#
#
# Convention : Reuss Voigt Hill
#
# Bulk Modulus (GPa) = 28.09529 51.03762 39.56645
# Shear Modulus (GPa) = 14.29765 25.99775 20.14770
#
# Velocity S-wave (km/s) = 2.54915 3.43740 3.02605
# Velocity P-wave (km/s) = 4.62961 6.24103 5.49471
#
# Compressibility (1/GPa) = 0.03559316
#
# Stress axis : x y z
#
# Youngs Moduli (GPa) = 14.21835 163.28104 26.64783
#
# Poissons Ratio (x) = 0.99148 0.85699
# Poissons Ratio (y) = 0.08634 0.02565
# Poissons Ratio (z) = 0.45726 0.15719
#
# Static dielectric constant tensor:
#      x y z
#    x 1.799930 0.000000 0.000000 
#    y 0.000000 1.935010 0.000000 
#    z 0.000000 0.000000 1.867810 
# 
# From -- ./inp_files/12330.got.cif
#   From: 2010.05.17/outbox.cif.g08.bks.cpg/sg48_7_cif.got.tgz:12330.got - 2010.06.03 20:39:00.
