data_PCOD9389459
_publ_section_title
;
Structure prediction by ZEFSAII (Michael W. Deem and Ramdas Pophale) SiO2 
 PCOD9389459
Probable space group: P M M M
;
_chemical_formula_sum "Si O2"
_cell_formula_units_Z 36
_cell_length_a 9.000000
_cell_length_b 12.000000
_cell_length_c 21.000000
_cell_angle_alpha 90.000000
_cell_angle_beta 90.000000
_cell_angle_gamma 90.000000
_cell_volume 2268.000000
_symmetry_space_group_name_H-M "P M M M"
_symmetry_group_IT_number 47
_symmetry_cell_setting 'orthorhombic'
loop_
_space_group_symop_operation_xyz
x,y,z
-x,-y,z
x,-y,-z
-x,y,-z
-x,-y,-z
x,y,-z
-x,y,z
x,-y,z
loop_
_atom_site_type_symbol
_atom_site_label
_atom_site_fract_x
_atom_site_fract_y
_atom_site_fract_z
Si Si1 0.318336 0.128782 0.500000
Si Si2 0.328823 0.864273 0.363984
Si Si3 0.323874 0.500000 0.923496
Si Si4 0.324478 0.867018 0.000000
Si Si5 0.177821 0.127277 0.765328
Si Si6 0.179035 0.731599 0.886186
O O1 0.500000 0.126649 0.500000
O O2 0.273406 0.178711 0.567602
O O3 0.268161 0.000000 0.500000
O O4 0.500000 0.831163 0.354896
O O5 0.233722 0.834628 0.303239
O O6 0.327659 0.000000 0.367992
O O7 0.500000 0.500000 0.910866
O O8 0.247601 0.610289 0.896210
O O9 0.303542 0.500000 0.000000
O O10 0.245158 0.812354 0.939756
O O11 0.500000 0.839108 0.000000
O O12 0.308991 0.000000 0.000000
O O13 0.223461 0.212462 0.819658
O O14 0.000000 0.122444 0.765458
O O15 0.232554 0.000000 0.777202
O O16 0.000000 0.727023 0.890990
#
# Coordination Sequence:
#
# PCOD9389459 Si02
#       6
#     4   8   4   4   8   8
#     4   7  10  18  33  55  83 116 157 196 223 257
#     4   8  13  22  38  59  85 121 160 193 226 267
#     4  11  23  39  57  75  96 117 148 199 250 286
#     4  11  23  36  51  74 101 125 153 193 236 277
#     4   9  18  31  45  66  97 127 155 191 232 274
#     4  11  22  36  55  73  93 124 161 195 234 287
#
# _framework density 15.873016
#
# number of rings (size 3 to 8) (size 9 to 14) (size 15 to 20)
#    0.000    2.556    1.111    3.333    0.000    4.000 
#    0.000    2.778    0.000    3.333    0.000    0.000 
#    0.000    0.889    0.000   10.000    0.000    7.111 
#
# Total GULP energy -200476.307760 kJ/mol
# GULP energy per Si atom -5568.786327 kJ/mol
# Density = 1.583689 g / cm^3
# Si number density = 15.873016 Si / 1000 Ang^3
#
#
#
# Elastic Constant Matrix: (Units=GPa)
#
#
# Indices 1 2 3 4 5 6 
#
# 1 34.5870 37.7769 44.4284 0.0000 0.0000 0.0000
# 2 37.7769 71.1993 61.3536 0.0000 0.0000 0.0000
# 3 44.4284 61.3536 153.3739 0.0000 0.0000 0.0000
# 4 0.0000 0.0000 0.0000 -36.2162 0.0000 0.0000
# 5 0.0000 0.0000 0.0000 0.0000 25.4370 0.0000
# 6 0.0000 0.0000 0.0000 0.0000 0.0000 27.6666
#
#
#
# Elastic Compliance Matrix: (Units=1/GPa)
#
#
# Indices 1 2 3 4 5 6 
#
# 1 0.076102 -0.032630 -0.008992 0.000000 0.000000 0.000000
# 2 -0.032630 0.035424 -0.004718 0.000000 0.000000 0.000000
# 3 -0.008992 -0.004718 0.011012 0.000000 0.000000 0.000000
# 4 0.000000 0.000000 0.000000 -0.027612 0.000000 0.000000
# 5 0.000000 0.000000 0.000000 0.000000 0.039313 0.000000
# 6 0.000000 0.000000 0.000000 0.000000 0.000000 0.036145
#
#
# Mechanical properties :
#
#
# Convention : Reuss Voigt Hill
#
# Bulk Modulus (GPa) = 33.49207 60.69757 47.09482
# Shear Modulus (GPa) = 18.31387 11.08422 14.69905
#
# Velocity S-wave (km/s) = 3.40041 2.64541 3.04639
# Velocity P-wave (km/s) = 6.04672 6.90315 6.48908
#
# Compressibility (1/GPa) = 0.02985782
#
# Stress axis : x y z
#
# Youngs Moduli (GPa) = 13.14020 28.22969 90.80759
#
# Poissons Ratio (x) = 0.92113 0.81655
# Poissons Ratio (y) = 0.42876 0.42847
# Poissons Ratio (z) = 0.11816 0.13320
#
# Static dielectric constant tensor:
#      x y z
#    x 1.529470 0.000000 0.000000 
#    y 0.000000 1.498990 0.000000 
#    z 0.000000 0.000000 1.566900 
# 
# From -- ./inp_files/29309.got.cif
#   From: 2010.05.17/outbox.ucp.g08.bks.cvg/sg47_15_cif.got.tgz:29309.got - 2010.06.11 16:36:43.
