data_PCOD9389753
_publ_section_title
;
Structure prediction by ZEFSAII (Michael W. Deem and Ramdas Pophale) SiO2 
 PCOD9389753
Probable space group: P N N N
;
_chemical_formula_sum "Si O2"
_cell_formula_units_Z 56
_cell_length_a 22.827931
_cell_length_b 9.961525
_cell_length_c 12.943307
_cell_angle_alpha 90.000000
_cell_angle_beta 90.000000
_cell_angle_gamma 90.000000
_cell_volume 2943.321024
_symmetry_space_group_name_H-M "P N N N"
_symmetry_group_IT_number 48
_space_group.IT_coordinate_system_code '2'
_symmetry_cell_setting 'orthorhombic'
loop_
_space_group_symop_operation_xyz
x,y,z
1/2-x,1/2-y,z
x,1/2-y,1/2-z
1/2-x,y,1/2-z
-x,-y,-z
1/2+x,1/2+y,-z
-x,1/2+y,1/2+z
1/2+x,-y,1/2+z
loop_
_atom_site_type_symbol
_atom_site_label
_atom_site_fract_x
_atom_site_fract_y
_atom_site_fract_z
Si Si1 0.945786 0.630735 0.316031
Si Si2 0.842314 0.201486 0.940918
Si Si3 0.262672 0.549405 0.372721
Si Si4 0.358125 0.141128 0.161945
Si Si5 0.426916 0.562600 0.196777
Si Si6 0.956660 0.813195 0.944965
Si Si7 0.585955 0.170379 0.354219
O O1 0.917220 0.750000 0.250000
O O2 0.959433 0.679136 0.432267
O O3 0.913586 0.488623 0.328886
O O4 0.008673 0.597984 0.263887
O O5 0.799508 0.072645 0.927260
O O6 0.803964 0.330356 0.912336
O O7 0.893102 0.184242 0.856254
O O8 0.869939 0.204681 0.053636
O O9 0.250000 0.562788 0.250000
O O10 0.299018 0.413563 0.389360
O O11 0.343591 0.250000 0.250000
O O12 0.407844 0.207078 0.090849
O O13 0.388199 0.014885 0.219672
O O14 0.437084 0.456268 0.102819
O O15 0.020416 0.790925 0.894274
O O16 0.598382 0.250000 0.250000
#
# Coordination Sequence:
#
# PCOD9389753 Si02
#       7
#     8   8   8   8   8   8   8
#     4  11  22  34  60  93 124 158 201 246 307 375
#     4  11  21  38  61  83 114 163 202 254 295 355
#     4  11  24  38  58  91 122 152 209 252 303 366
#     4  10  22  36  59  90 129 160 194 251 310 380
#     4  10  18  35  58  84 118 160 188 233 303 364
#     4  10  19  39  57  90 125 154 196 240 309 381
#     4  11  22  42  63  86 122 165 206 254 308 367
#
# _framework density 19.026126999999999
#
# number of rings (size 3 to 8) (size 9 to 14) (size 15 to 20)
#    0.000    1.429    4.286    3.857    2.000    1.429 
#    0.000    3.571    0.000    0.000    0.000    0.000 
#    0.000    0.000    0.000    0.000    0.000    0.000 
#
# Total GULP energy -312809.100211 kJ/mol
# GULP energy per Si atom -5585.876789 kJ/mol
# Density = 1.898282 g / cm^3
# Si number density = 19.026127 Si / 1000 Ang^3
#
#
#
# Elastic Constant Matrix: (Units=GPa)
#
#
# Indices 1 2 3 4 5 6 
#
# 1 84.1998 27.0808 33.5777 0.0000 0.0000 0.0000
# 2 27.0808 74.2527 38.1304 0.0000 0.0000 0.0000
# 3 33.5777 38.1304 97.1069 0.0000 0.0000 0.0000
# 4 0.0000 0.0000 0.0000 16.9654 0.0000 0.0000
# 5 0.0000 0.0000 0.0000 0.0000 24.2613 0.0000
# 6 0.0000 0.0000 0.0000 0.0000 0.0000 33.7175
#
#
#
# Elastic Compliance Matrix: (Units=1/GPa)
#
#
# Indices 1 2 3 4 5 6 
#
# 1 0.014423 -0.003381 -0.003660 0.000000 0.000000 0.000000
# 2 -0.003381 0.017662 -0.005766 0.000000 0.000000 0.000000
# 3 -0.003660 -0.005766 0.013827 0.000000 0.000000 0.000000
# 4 0.000000 0.000000 0.000000 0.058943 0.000000 0.000000
# 5 0.000000 0.000000 0.000000 0.000000 0.041218 0.000000
# 6 0.000000 0.000000 0.000000 0.000000 0.000000 0.029658
#
#
# Mechanical properties :
#
#
# Convention : Reuss Voigt Hill
#
# Bulk Modulus (GPa) = 49.26351 50.34858 49.80605
# Shear Modulus (GPa) = 24.02556 25.44021 24.73289
#
# Velocity S-wave (km/s) = 3.55740 3.66063 3.60938
# Velocity P-wave (km/s) = 6.54387 6.66238 6.60339
#
# Compressibility (1/GPa) = 0.02029900
#
# Stress axis : x y z
#
# Youngs Moduli (GPa) = 69.33186 56.62005 72.31973
#
# Poissons Ratio (x) = 0.19143 0.26467
# Poissons Ratio (y) = 0.23441 0.41699
# Poissons Ratio (z) = 0.25373 0.32647
#
# Static dielectric constant tensor:
#      x y z
#    x 1.681050 0.000000 0.000000 
#    y 0.000000 1.709040 0.000000 
#    z 0.000000 0.000000 1.629540 
# 
# From -- ./inp_files/22874.got.cif
#   From: 2010.05.17/outbox.cif.g08.bks.cpg/sg48_12_cif.got.tgz:22874.got - 2010.06.03 20:39:00.
