data_PCOD9389019
_publ_section_title
;
Structure prediction by ZEFSAII (Michael W. Deem and Ramdas Pophale) SiO2 
 PCOD9389019
Probable space group: P M M M
;
_chemical_formula_sum "Si O2"
_cell_formula_units_Z 60
_cell_length_a 18.699800
_cell_length_b 9.290025
_cell_length_c 24.415532
_cell_angle_alpha 90.000000
_cell_angle_beta 90.000000
_cell_angle_gamma 90.000000
_cell_volume 4241.505516
_symmetry_space_group_name_H-M "P M M M"
_symmetry_group_IT_number 47
_symmetry_cell_setting 'orthorhombic'
loop_
_space_group_symop_operation_xyz
x,y,z
-x,-y,z
x,-y,-z
-x,y,-z
-x,-y,-z
x,y,-z
-x,y,z
x,-y,z
loop_
_atom_site_type_symbol
_atom_site_label
_atom_site_fract_x
_atom_site_fract_y
_atom_site_fract_z
Si Si1 0.917385 0.675166 0.938616
Si Si2 0.832203 0.327130 0.831892
Si Si3 0.583108 0.671558 0.277498
Si Si4 0.706319 0.834611 0.778094
Si Si5 0.792689 0.165802 0.662548
Si Si6 0.916636 0.672266 0.719821
Si Si7 0.666130 0.327686 0.609443
Si Si8 0.417481 0.675326 0.500000
O O1 0.916941 0.500000 0.937989
O O2 0.868064 0.721757 0.888519
O O3 0.000000 0.718619 0.929958
O O4 0.895557 0.720237 0.000000
O O5 0.822280 0.500000 0.833252
O O6 0.757557 0.250299 0.819360
O O7 0.885314 0.296989 0.780647
O O8 0.500000 0.710956 0.275177
O O9 0.589741 0.500000 0.268338
O O10 0.632109 0.755818 0.234572
O O11 0.615026 0.699649 0.338142
O O12 0.749073 0.832068 0.720121
O O13 0.696425 0.000000 0.794105
O O14 0.866342 0.246600 0.676500
O O15 0.740790 0.247722 0.620470
O O16 0.804131 0.000000 0.647091
O O17 0.910275 0.500000 0.711841
O O18 0.000000 0.711600 0.716525
O O19 0.678392 0.500000 0.607196
O O20 0.625279 0.281750 0.554501
O O21 0.419656 0.500000 0.500000
O O22 0.500000 0.724553 0.500000
#
# Coordination Sequence:
#
# PCOD9389019 Si02
#       8
#     8   8   8   8   8   8   8   4
#     4   8  13  21  35  57  82 106 135 170 202 230
#     4   9  15  24  39  57  79 107 136 166 199 233
#     4   9  16  26  41  60  81 105 132 161 194 232
#     4   9  17  27  38  54  77 105 135 165 197 234
#     4   9  17  28  40  55  78 107 136 164 196 236
#     4   9  16  25  39  60  82 103 131 167 204 240
#     4   9  16  27  43  61  82 108 135 162 192 227
#     4   9  16  26  43  67  88 105 132 167 195 222
#
# _framework density 14.145922000000001
#
# number of rings (size 3 to 8) (size 9 to 14) (size 15 to 20)
#    0.000    3.133    0.000    2.000    0.000    6.933 
#    0.000    0.333    0.000    3.200    0.000    1.400 
#    0.000    4.267    0.000    6.133    0.000    1.733 
#
# Total GULP energy -334018.366714 kJ/mol
# GULP energy per Si atom -5566.972779 kJ/mol
# Density = 1.411372 g / cm^3
# Si number density = 14.145922 Si / 1000 Ang^3
#
#
#
# Elastic Constant Matrix: (Units=GPa)
#
#
# Indices 1 2 3 4 5 6 
#
# 1 135.9319 57.5095 66.2626 0.0000 0.0000 0.0000
# 2 57.5095 37.8035 36.2256 0.0000 0.0000 0.0000
# 3 66.2626 36.2256 87.1590 0.0000 0.0000 0.0000
# 4 0.0000 0.0000 0.0000 7.6872 0.0000 0.0000
# 5 0.0000 0.0000 0.0000 0.0000 23.7057 0.0000
# 6 0.0000 0.0000 0.0000 0.0000 0.0000 6.4911
#
#
#
# Elastic Compliance Matrix: (Units=1/GPa)
#
#
# Indices 1 2 3 4 5 6 
#
# 1 0.021705 -0.028596 -0.004616 0.000000 0.000000 0.000000
# 2 -0.028596 0.081636 -0.012190 0.000000 0.000000 0.000000
# 3 -0.004616 -0.012190 0.020049 0.000000 0.000000 0.000000
# 4 0.000000 0.000000 0.000000 0.130087 0.000000 0.000000
# 5 0.000000 0.000000 0.000000 0.000000 0.042184 0.000000
# 6 0.000000 0.000000 0.000000 0.000000 0.000000 0.154058
#
#
# Mechanical properties :
#
#
# Convention : Reuss Voigt Hill
#
# Bulk Modulus (GPa) = 30.68788 64.54331 47.61560
# Shear Modulus (GPa) = 9.06807 14.30323 11.68565
#
# Velocity S-wave (km/s) = 2.53462 3.18326 2.87728
# Velocity P-wave (km/s) = 5.50514 7.69654 6.69116
#
# Compressibility (1/GPa) = 0.03258615
#
# Stress axis : x y z
#
# Youngs Moduli (GPa) = 46.07232 12.24950 49.87752
#
# Poissons Ratio (x) = 0.35029 0.23023
# Poissons Ratio (y) = 1.31748 0.60801
# Poissons Ratio (z) = 0.21267 0.14932
#
# Static dielectric constant tensor:
#      x y z
#    x 1.452000 0.000000 0.000000 
#    y 0.000000 1.467860 0.000000 
#    z 0.000000 0.000000 1.453810 
# 
# From -- ./inp_files/32891.got.cif
#   From: 2010.05.17/outbox.cif.g08.bks.cpg/sg47_17_cif.got.tgz:32891.got - 2010.06.03 20:15:42.
