data_PCOD9389463
_publ_section_title
;
Structure prediction by ZEFSAII (Michael W. Deem and Ramdas Pophale) SiO2 
 PCOD9389463
Probable space group: P M M M
;
_chemical_formula_sum "Si O2"
_cell_formula_units_Z 44
_cell_length_a 9.000000
_cell_length_b 30.000000
_cell_length_c 9.000000
_cell_angle_alpha 90.000000
_cell_angle_beta 90.000000
_cell_angle_gamma 90.000000
_cell_volume 2430.000000
_symmetry_space_group_name_H-M "P M M M"
_symmetry_group_IT_number 47
_symmetry_cell_setting 'orthorhombic'
loop_
_space_group_symop_operation_xyz
x,y,z
-x,-y,z
x,-y,-z
-x,y,-z
-x,-y,-z
x,y,-z
-x,y,z
x,-y,z
loop_
_atom_site_type_symbol
_atom_site_label
_atom_site_fract_x
_atom_site_fract_y
_atom_site_fract_z
Si Si1 0.320765 0.415816 0.825352
Si Si2 0.327178 0.318108 0.180999
Si Si3 0.818672 0.861810 0.671398
Si Si4 0.819413 0.951549 0.174316
Si Si5 0.822183 0.771700 0.825390
Si Si6 0.829213 0.500000 0.677046
O O1 0.500000 0.416889 0.814428
O O2 0.271019 0.366766 0.771464
O O3 0.250865 0.456206 0.737743
O O4 0.283876 0.420337 0.000000
O O5 0.500000 0.314299 0.220563
O O6 0.242539 0.274509 0.234483
O O7 0.318990 0.318794 0.000000
O O8 0.779886 0.861237 0.500000
O O9 0.764569 0.907457 0.745146
O O10 0.766572 0.816560 0.748511
O O11 0.000000 0.861945 0.683439
O O12 0.000000 0.951431 0.185228
O O13 0.769044 0.000000 0.231836
O O14 0.784049 0.948919 0.000000
O O15 0.000000 0.770130 0.811391
O O16 0.786251 0.774637 0.000000
O O17 0.824438 0.500000 0.500000
O O18 0.000000 0.500000 0.726856
#
# Coordination Sequence:
#
# PCOD9389463 Si02
#       6
#     8   8   8   8   8   4
#     4   9  18  34  56  78  97 121 157 198 238 281
#     4   8  15  29  49  72  94 114 143 187 230 265
#     4   9  16  24  34  51  78 111 144 178 217 260
#     4   8  13  21  33  49  71 102 140 180 220 262
#     4   9  16  26  42  63  86 114 146 177 213 261
#     4  11  24  37  48  70 104 135 162 193 230 274
#
# _framework density 18.106995999999999
#
# number of rings (size 3 to 8) (size 9 to 14) (size 15 to 20)
#    0.000    3.182    0.000    2.727    0.000    5.455 
#    0.000    4.545    0.000    3.818    0.000    0.000 
#    0.000    0.727    0.000    8.364    0.000   10.727 
#
# Total GULP energy -244978.789167 kJ/mol
# GULP energy per Si atom -5567.699754 kJ/mol
# Density = 1.806578 g / cm^3
# Si number density = 18.106996 Si / 1000 Ang^3
#
#
#
# Elastic Constant Matrix: (Units=GPa)
#
#
# Indices 1 2 3 4 5 6 
#
# 1 -3.6504 35.6961 25.8901 0.0000 0.0000 0.0000
# 2 35.6961 233.8202 77.4596 0.0000 0.0000 0.0000
# 3 25.8901 77.4596 29.8945 0.0000 0.0000 0.0000
# 4 0.0000 0.0000 0.0000 -47.3757 0.0000 0.0000
# 5 0.0000 0.0000 0.0000 0.0000 9.2757 0.0000
# 6 0.0000 0.0000 0.0000 0.0000 0.0000 47.1524
#
#
#
# Elastic Compliance Matrix: (Units=1/GPa)
#
#
# Indices 1 2 3 4 5 6 
#
# 1 -0.017914 -0.016979 0.059509 0.000000 0.000000 0.000000
# 2 -0.016979 0.014104 -0.021840 0.000000 0.000000 0.000000
# 3 0.059509 -0.021840 0.038503 0.000000 0.000000 0.000000
# 4 0.000000 0.000000 0.000000 -0.021108 0.000000 0.000000
# 5 0.000000 0.000000 0.000000 0.000000 0.107808 0.000000
# 6 0.000000 0.000000 0.000000 0.000000 0.000000 0.021208
#
#
# Mechanical properties :
#
#
# Convention : Reuss Voigt Hill
#
# Bulk Modulus (GPa) = 13.14526 59.79510 36.47018
# Shear Modulus (GPa) = 39.50105 9.87838 24.68971
#
# Velocity S-wave (km/s) = 4.67576 2.33825 3.69663
# Velocity P-wave (km/s) = 6.03538 6.35490 6.19720
#
# Compressibility (1/GPa) = 0.07607304
#
# Stress axis : x y z
#
# Youngs Moduli (GPa) = -55.82357 70.90139 25.97227
#
# Poissons Ratio (x) = 1.20387 -1.54560
# Poissons Ratio (y) = -0.94785 0.56724
# Poissons Ratio (z) = 3.32203 1.54849
#
# Static dielectric constant tensor:
#      x y z
#    x 1.613800 0.000000 0.000000 
#    y 0.000000 1.645050 0.000000 
#    z 0.000000 0.000000 1.600250 
# 
# From -- ./inp_files/2005.got.cif
#   From: 2010.05.17/outbox.ucp.g08.bks.cvg/sg47_2_cif.got.tgz:2005.got - 2010.06.11 16:36:43.
