data_PCOD9389813
_publ_section_title
;
Structure prediction by ZEFSAII (Michael W. Deem and Ramdas Pophale) SiO2 
 PCOD9389813
Probable space group: P N N N
;
_chemical_formula_sum "Si O2"
_cell_formula_units_Z 64
_cell_length_a 15.777034
_cell_length_b 11.040567
_cell_length_c 18.440274
_cell_angle_alpha 90.000000
_cell_angle_beta 90.000000
_cell_angle_gamma 90.000000
_cell_volume 3212.063401
_symmetry_space_group_name_H-M "P N N N"
_symmetry_group_IT_number 48
_space_group.IT_coordinate_system_code '2'
_symmetry_cell_setting 'orthorhombic'
loop_
_space_group_symop_operation_xyz
x,y,z
1/2-x,1/2-y,z
x,1/2-y,1/2-z
1/2-x,y,1/2-z
-x,-y,-z
1/2+x,1/2+y,-z
-x,1/2+y,1/2+z
1/2+x,-y,1/2+z
loop_
_atom_site_type_symbol
_atom_site_label
_atom_site_fract_x
_atom_site_fract_y
_atom_site_fract_z
Si Si1 0.471713 0.867205 0.973816
Si Si2 0.872429 0.747404 0.832040
Si Si3 0.341665 0.725232 0.407186
Si Si4 0.042872 0.867985 0.199282
Si Si5 0.425859 0.755076 0.667063
Si Si6 0.832747 0.495677 0.799362
Si Si7 0.426235 0.997863 0.598904
Si Si8 0.592000 0.635842 0.962399
O O1 0.429130 0.852810 0.893219
O O2 0.547870 0.766967 0.977385
O O3 0.404290 0.820870 0.031919
O O4 0.500000 0.000000 0.000000
O O5 0.839241 0.750000 0.750000
O O6 0.854045 0.608393 0.850526
O O7 0.844178 0.837744 0.895706
O O8 0.972342 0.774469 0.825426
O O9 0.250000 0.750000 0.439645
O O10 0.389967 0.831283 0.363467
O O11 0.323941 0.624090 0.346492
O O12 0.030977 0.750000 0.250000
O O13 0.086684 0.972430 0.247011
O O14 0.956687 0.913761 0.162952
O O15 0.393834 0.750000 0.750000
O O16 0.386409 0.874252 0.629118
O O17 0.750000 0.510239 0.750000
O O18 0.515865 0.949259 0.566328
O O19 0.378409 0.070495 0.535610
#
# Coordination Sequence:
#
# PCOD9389813 Si02
#       8
#     8   8   8   8   8   8   8   8
#     4  10  19  32  53  76  99 135 179 219 274 318
#     4   9  17  30  44  65  92 127 173 213 251 299
#     4  11  20  32  45  70 102 131 175 217 260 321
#     4  10  19  28  45  64  95 135 176 210 250 312
#     4   9  18  33  52  74 101 130 172 224 282 324
#     4  11  20  30  44  62  97 144 175 205 250 316
#     4   9  16  30  47  69  94 128 168 216 265 316
#     4   9  17  29  48  69  93 126 173 214 264 310
#
# _framework density 19.924886999999998
#
# number of rings (size 3 to 8) (size 9 to 14) (size 15 to 20)
#    0.000    2.500    2.500    3.750    0.000    1.250 
#    0.000    0.000    0.000    0.375    0.000    0.000 
#    0.000    0.000    0.000    0.000    7.000    1.000 
#
# Total GULP energy -356377.819971 kJ/mol
# GULP energy per Si atom -5568.403437 kJ/mol
# Density = 1.987954 g / cm^3
# Si number density = 19.924887 Si / 1000 Ang^3
#
#
#
# Elastic Constant Matrix: (Units=GPa)
#
#
# Indices 1 2 3 4 5 6 
#
# 1 21.5798 9.3585 19.6194 0.0000 0.0000 0.0000
# 2 9.3585 98.3266 50.3357 0.0000 0.0000 0.0000
# 3 19.6194 50.3357 138.6528 0.0000 0.0000 0.0000
# 4 0.0000 0.0000 0.0000 42.0700 0.0000 0.0000
# 5 0.0000 0.0000 0.0000 0.0000 7.4346 0.0000
# 6 0.0000 0.0000 0.0000 0.0000 0.0000 10.4812
#
#
#
# Elastic Compliance Matrix: (Units=1/GPa)
#
#
# Indices 1 2 3 4 5 6 
#
# 1 0.053358 -0.001490 -0.007009 0.000000 0.000000 0.000000
# 2 -0.001490 0.012533 -0.004339 0.000000 0.000000 0.000000
# 3 -0.007009 -0.004339 0.009779 0.000000 0.000000 0.000000
# 4 0.000000 0.000000 0.000000 0.023770 0.000000 0.000000
# 5 0.000000 0.000000 0.000000 0.000000 0.134505 0.000000
# 6 0.000000 0.000000 0.000000 0.000000 0.000000 0.095409
#
#
# Mechanical properties :
#
#
# Convention : Reuss Voigt Hill
#
# Bulk Modulus (GPa) = 20.00250 46.35402 33.17826
# Shear Modulus (GPa) = 13.45181 23.94688 18.69935
#
# Velocity S-wave (km/s) = 2.60114 3.47054 3.06680
# Velocity P-wave (km/s) = 4.36829 6.27491 5.40631
#
# Compressibility (1/GPa) = 0.04999375
#
# Stress axis : x y z
#
# Youngs Moduli (GPa) = 18.74117 79.78720 102.25666
#
# Poissons Ratio (x) = 0.11891 0.71673
# Poissons Ratio (y) = 0.02793 0.44371
# Poissons Ratio (z) = 0.13136 0.34621
#
# Static dielectric constant tensor:
#      x y z
#    x 1.692640 0.000000 0.000000 
#    y 0.000000 1.791810 0.000000 
#    z 0.000000 0.000000 1.806830 
# 
# From -- ./inp_files/32082.got.cif
#   From: 2010.05.17/outbox.cif.g08.bks.cpg/sg48_17_cif.got.tgz:32082.got - 2010.06.03 20:39:00.
