data_PCOD9389439
_publ_section_title
;
Structure prediction by ZEFSAII (Michael W. Deem and Ramdas Pophale) SiO2 
 PCOD9389439
Probable space group: P M M M
;
_chemical_formula_sum "Si O2"
_cell_formula_units_Z 36
_cell_length_a 24.000000
_cell_length_b 9.000000
_cell_length_c 9.000000
_cell_angle_alpha 90.000000
_cell_angle_beta 90.000000
_cell_angle_gamma 90.000000
_cell_volume 1944.000000
_symmetry_space_group_name_H-M "P M M M"
_symmetry_group_IT_number 47
_symmetry_cell_setting 'orthorhombic'
loop_
_space_group_symop_operation_xyz
x,y,z
-x,-y,z
x,-y,-z
-x,y,-z
-x,-y,-z
x,y,-z
-x,y,z
x,-y,z
loop_
_atom_site_type_symbol
_atom_site_label
_atom_site_fract_x
_atom_site_fract_y
_atom_site_fract_z
Si Si1 0.723635 0.822057 0.674928
Si Si2 0.607479 0.821963 0.175404
Si Si3 0.500000 0.322743 0.325509
Si Si4 0.062822 0.822534 0.677063
Si Si5 0.169366 0.677164 0.173636
O O1 0.719662 0.791761 0.500000
O O2 0.666377 0.774809 0.754164
O O3 0.777777 0.745345 0.742341
O O4 0.729194 0.000000 0.695187
O O5 0.555108 0.744113 0.250968
O O6 0.602340 0.000000 0.197172
O O7 0.607643 0.792338 0.000000
O O8 0.500000 0.500000 0.308657
O O9 0.500000 0.286075 0.500000
O O10 0.067908 0.796674 0.500000
O O11 0.112078 0.740711 0.760824
O O12 0.000000 0.777674 0.722253
O O13 0.067671 0.000000 0.700238
O O14 0.169888 0.500000 0.189330
O O15 0.173414 0.715531 0.000000
#
# Coordination Sequence:
#
# PCOD9389439 Si02
#       5
#     8   8   4   8   8
#     4  10  21  38  61  86 110 141 184 231 277 327
#     4  10  21  38  61  87 113 144 184 229 278 330
#     4  11  24  39  56  82 116 153 190 227 272 326
#     4   9  19  37  60  84 109 140 182 230 277 327
#     4  11  24  38  53  79 115 151 185 224 273 328
#
# _framework density 18.518519000000001
#
# number of rings (size 3 to 8) (size 9 to 14) (size 15 to 20)
#    0.000    1.889    0.000    4.000    0.000   11.556 
#    0.000    3.333    0.000    0.000    0.000    0.000 
#    0.000    0.000    0.000    0.000    0.000    0.000 
#
# Total GULP energy -201174.835366 kJ/mol
# GULP energy per Si atom -5588.189871 kJ/mol
# Density = 1.847637 g / cm^3
# Si number density = 18.518519 Si / 1000 Ang^3
#
#
#
# Elastic Constant Matrix: (Units=GPa)
#
#
# Indices 1 2 3 4 5 6 
#
# 1 201.6501 65.7676 107.4532 0.0000 0.0000 0.0000
# 2 65.7676 30.0838 70.7835 0.0000 0.0000 0.0000
# 3 107.4532 70.7835 108.8947 0.0000 0.0000 0.0000
# 4 0.0000 0.0000 0.0000 29.2999 0.0000 0.0000
# 5 0.0000 0.0000 0.0000 0.0000 55.1082 0.0000
# 6 0.0000 0.0000 0.0000 0.0000 0.0000 -62.5150
#
#
#
# Elastic Compliance Matrix: (Units=1/GPa)
#
#
# Indices 1 2 3 4 5 6 
#
# 1 0.010345 -0.002649 -0.008486 0.000000 0.000000 0.000000
# 2 -0.002649 -0.062109 0.042986 0.000000 0.000000 0.000000
# 3 -0.008486 0.042986 -0.010385 0.000000 0.000000 0.000000
# 4 0.000000 0.000000 0.000000 0.034130 0.000000 0.000000
# 5 0.000000 0.000000 0.000000 0.000000 0.018146 0.000000
# 6 0.000000 0.000000 0.000000 0.000000 0.000000 -0.015996
#
#
# Mechanical properties :
#
#
# Convention : Reuss Voigt Hill
#
# Bulk Modulus (GPa) = 643.95709 92.07082 368.01396
# Shear Modulus (GPa) = -56.14647 10.82023 -22.66312
#
# Velocity S-wave (km/s) = -5.51225 2.41984 -3.50209
# Velocity P-wave (km/s) = 17.54932 7.59168 13.52058
#
# Compressibility (1/GPa) = 0.00155290
#
# Stress axis : x y z
#
# Youngs Moduli (GPa) = 96.66393 -16.10078 -96.29319
#
# Poissons Ratio (x) = -0.04266 -0.81714
# Poissons Ratio (y) = 0.25610 4.13928
# Poissons Ratio (z) = 0.82029 0.69211
#
# Static dielectric constant tensor:
#      x y z
#    x 1.595970 0.000000 0.000000 
#    y 0.000000 1.617320 0.000000 
#    z 0.000000 0.000000 1.620910 
# 
# From -- ./inp_files/12049.got.cif
#   From: 2010.05.17/outbox.ucp.g08.bks.cvg/sg47_7_cif.got.tgz:12049.got - 2010.06.11 16:36:43.
