data_PCOD9389038
_publ_section_title
;
Structure prediction by ZEFSAII (Michael W. Deem and Ramdas Pophale) SiO2 
 PCOD9389038
Probable space group: P M M M
;
_chemical_formula_sum "Si O2"
_cell_formula_units_Z 52
_cell_length_a 29.497334
_cell_length_b 14.098247
_cell_length_c 7.544714
_cell_angle_alpha 90.000000
_cell_angle_beta 90.000000
_cell_angle_gamma 90.000000
_cell_volume 3137.550050
_symmetry_space_group_name_H-M "P M M M"
_symmetry_group_IT_number 47
_symmetry_cell_setting 'orthorhombic'
loop_
_space_group_symop_operation_xyz
x,y,z
-x,-y,z
x,-y,-z
-x,y,-z
-x,-y,-z
x,y,-z
-x,y,z
x,-y,z
loop_
_atom_site_type_symbol
_atom_site_label
_atom_site_fract_x
_atom_site_fract_y
_atom_site_fract_z
Si Si1 0.233877 0.892910 0.214024
Si Si2 0.190342 0.606575 0.286102
Si Si3 0.141564 0.794804 0.210586
Si Si4 0.050327 0.889399 0.783877
Si Si5 0.717506 0.296243 0.289986
Si Si6 0.448516 0.385063 0.000000
Si Si7 0.624062 0.386449 0.709552
O O1 0.185079 0.853687 0.279703
O O2 0.270968 0.814072 0.262714
O O3 0.242199 0.000000 0.275837
O O4 0.232024 0.894781 0.000000
O O5 0.192585 0.604485 0.500000
O O6 0.181818 0.500000 0.223411
O O7 0.153095 0.684851 0.238709
O O8 0.238925 0.645959 0.219256
O O9 0.093251 0.829572 0.280454
O O10 0.140706 0.812158 0.000000
O O11 0.000000 0.859177 0.724782
O O12 0.056506 0.000000 0.736630
O O13 0.049891 0.885555 0.000000
O O14 0.716396 0.314774 0.500000
O O15 0.669196 0.332790 0.224707
O O16 0.419079 0.358978 0.172486
O O17 0.450840 0.500000 0.000000
O O18 0.500000 0.349139 0.000000
O O19 0.616943 0.367940 0.500000
O O20 0.631522 0.500000 0.728821
#
# Coordination Sequence:
#
# PCOD9389038 Si02
#       7
#     8   8   8   8   8   4   8
#     4   9  17  27  39  58  86 116 139 165 208 259
#     4   9  17  29  43  58  80 110 141 172 207 250
#     4   9  16  26  41  61  83 105 134 172 209 249
#     4   8  13  22  39  62  83 103 130 166 209 255
#     4   9  17  28  43  62  83 111 146 179 211 250
#     4   9  18  30  44  66  93 123 159 191 223 266
#     4   9  17  29  45  65  91 122 153 188 227 264
#
# _framework density 16.573440999999999
#
# number of rings (size 3 to 8) (size 9 to 14) (size 15 to 20)
#    0.000    3.154    0.000    1.385    1.077    4.615 
#    0.000    1.538    0.000    2.308    0.000    4.308 
#    0.000    1.231    0.000    3.385    0.000    0.154 
#
# Total GULP energy -289723.788677 kJ/mol
# GULP energy per Si atom -5571.611321 kJ/mol
# Density = 1.653572 g / cm^3
# Si number density = 16.573441 Si / 1000 Ang^3
#
#
#
# Elastic Constant Matrix: (Units=GPa)
#
#
# Indices 1 2 3 4 5 6 
#
# 1 161.1151 71.4686 30.3320 0.0000 0.0000 0.0000
# 2 71.4686 80.5643 6.4450 0.0000 0.0000 0.0000
# 3 30.3320 6.4450 48.5791 0.0000 0.0000 0.0000
# 4 0.0000 0.0000 0.0000 19.7793 0.0000 0.0000
# 5 0.0000 0.0000 0.0000 0.0000 -0.8674 0.0000
# 6 0.0000 0.0000 0.0000 0.0000 0.0000 21.9168
#
#
#
# Elastic Compliance Matrix: (Units=1/GPa)
#
#
# Indices 1 2 3 4 5 6 
#
# 1 0.011750 -0.009942 -0.006017 0.000000 0.000000 0.000000
# 2 -0.009942 0.020958 0.003427 0.000000 0.000000 0.000000
# 3 -0.006017 0.003427 0.023887 0.000000 0.000000 0.000000
# 4 0.000000 0.000000 0.000000 0.050558 0.000000 0.000000
# 5 0.000000 0.000000 0.000000 0.000000 -1.152870 0.000000
# 6 0.000000 0.000000 0.000000 0.000000 0.000000 0.045627
#
#
# Mechanical properties :
#
#
# Convention : Reuss Voigt Hill
#
# Bulk Modulus (GPa) = 31.71521 56.30553 44.01037
# Shear Modulus (GPa) = -5.18395 20.29992 7.55799
#
# Velocity S-wave (km/s) = -1.77050 3.50358 2.13780
# Velocity P-wave (km/s) = 3.87275 7.10027 5.71892
#
# Compressibility (1/GPa) = 0.03153061
#
# Stress axis : x y z
#
# Youngs Moduli (GPa) = 85.10932 47.71539 41.86304
#
# Poissons Ratio (x) = 0.47437 0.25190
# Poissons Ratio (y) = 0.84613 -0.14346
# Poissons Ratio (z) = 0.51213 -0.16352
#
# Static dielectric constant tensor:
#      x y z
#    x 1.557490 0.000000 0.000000 
#    y 0.000000 1.540300 0.000000 
#    z 0.000000 0.000000 1.627070 
# 
# From -- ./inp_files/13387.got.cif
#   From: 2010.05.17/outbox.cif.g08.bks.cpg/sg47_7_cif.got.tgz:13387.got - 2010.06.03 20:15:42.
