data_PCOD9389772
_publ_section_title
;
Structure prediction by ZEFSAII (Michael W. Deem and Ramdas Pophale) SiO2 
 PCOD9389772
Probable space group: P N N N
;
_chemical_formula_sum "Si O2"
_cell_formula_units_Z 58
_cell_length_a 15.905363
_cell_length_b 9.289316
_cell_length_c 18.903977
_cell_angle_alpha 90.000000
_cell_angle_beta 90.000000
_cell_angle_gamma 90.000000
_cell_volume 2793.061524
_symmetry_space_group_name_H-M "P N N N"
_symmetry_group_IT_number 48
_space_group.IT_coordinate_system_code '2'
_symmetry_cell_setting 'orthorhombic'
loop_
_space_group_symop_operation_xyz
x,y,z
1/2-x,1/2-y,z
x,1/2-y,1/2-z
1/2-x,y,1/2-z
-x,-y,-z
1/2+x,1/2+y,-z
-x,1/2+y,1/2+z
1/2+x,-y,1/2+z
loop_
_atom_site_type_symbol
_atom_site_label
_atom_site_fract_x
_atom_site_fract_y
_atom_site_fract_z
Si Si1 0.754430 0.997236 0.855602
Si Si2 0.932761 0.728163 0.171912
Si Si3 0.845871 0.216389 0.018923
Si Si4 0.915767 0.916342 0.029049
Si Si5 0.433543 0.550261 0.594058
Si Si6 0.886965 0.874174 0.547613
Si Si7 0.750000 0.750000 0.750000
Si Si8 0.878131 0.241945 0.635824
O O1 0.701269 0.921460 0.918432
O O2 0.786042 0.869071 0.804639
O O3 0.832174 0.103974 0.865612
O O4 0.682806 0.117241 0.833512
O O5 0.897324 0.750000 0.250000
O O6 0.914904 0.837358 0.105941
O O7 0.910830 0.563750 0.153100
O O8 0.033961 0.738178 0.173722
O O9 0.750000 0.250000 0.003489
O O10 0.882888 0.302493 0.085113
O O11 0.851965 0.047767 0.030521
O O12 0.894972 0.273750 0.948972
O O13 0.892207 0.793083 0.972997
O O14 0.000000 0.000000 0.000000
O O15 0.532718 0.587314 0.596673
O O16 0.408191 0.460585 0.523757
#
# Coordination Sequence:
#
# PCOD9389772 Si02
#       8
#     8   8   8   8   8   8   2   8
#     4  11  24  40  53  89 132 183 220 255 309 380
#     4  11  24  41  66  93 130 176 221 262 335 407
#     4  12  21  39  68 104 128 160 214 282 346 389
#     4  11  22  38  67  99 128 165 221 285 321 388
#     4  10  18  37  63  93 119 158 214 274 325 378
#     4  10  18  36  62  85 124 167 217 270 320 352
#     4  12  32  38  48  84 156 190 208 248 312 382
#     4  11  21  38  67  89 125 177 220 264 316 395
#
# _framework density 20.765744000000002
#
# number of rings (size 3 to 8) (size 9 to 14) (size 15 to 20)
#    0.000    1.103    6.897    0.828    3.862    0.552 
#    0.000    2.759    0.000    2.483    0.000    0.000 
#    0.000    0.000    0.000    0.000    0.000    0.000 
#
# Total GULP energy -323169.259950 kJ/mol
# GULP energy per Si atom -5571.883792 kJ/mol
# Density = 2.071848 g / cm^3
# Si number density = 20.765744 Si / 1000 Ang^3
#
#
#
# Elastic Constant Matrix: (Units=GPa)
#
#
# Indices 1 2 3 4 5 6 
#
# 1 22.8860 17.2795 4.8246 0.0000 0.0000 0.0000
# 2 17.2795 177.7723 39.7383 0.0000 0.0000 0.0000
# 3 4.8246 39.7383 84.5532 0.0000 0.0000 0.0000
# 4 0.0000 0.0000 0.0000 39.5996 0.0000 0.0000
# 5 0.0000 0.0000 0.0000 0.0000 0.2383 0.0000
# 6 0.0000 0.0000 0.0000 0.0000 0.0000 31.6178
#
#
#
# Elastic Compliance Matrix: (Units=1/GPa)
#
#
# Indices 1 2 3 4 5 6 
#
# 1 0.047183 -0.004452 -0.000600 0.000000 0.000000 0.000000
# 2 -0.004452 0.006706 -0.002897 0.000000 0.000000 0.000000
# 3 -0.000600 -0.002897 0.013223 0.000000 0.000000 0.000000
# 4 0.000000 0.000000 0.000000 0.025253 0.000000 0.000000
# 5 0.000000 0.000000 0.000000 0.000000 4.196119 0.000000
# 6 0.000000 0.000000 0.000000 0.000000 0.000000 0.031628
#
#
# Mechanical properties :
#
#
# Convention : Reuss Voigt Hill
#
# Bulk Modulus (GPa) = 19.52654 45.43292 32.47973
# Shear Modulus (GPa) = 1.14861 29.18242 15.16552
#
# Velocity S-wave (km/s) = 0.74453 3.75282 2.70536
# Velocity P-wave (km/s) = 3.18791 6.38001 5.04318
#
# Compressibility (1/GPa) = 0.05121234
#
# Stress axis : x y z
#
# Youngs Moduli (GPa) = 21.19424 149.12901 75.62664
#
# Poissons Ratio (x) = 0.66393 0.04536
# Poissons Ratio (y) = 0.09436 0.21913
# Poissons Ratio (z) = 0.01271 0.43210
#
# Static dielectric constant tensor:
#      x y z
#    x 1.752260 0.000000 0.000000 
#    y 0.000000 1.780350 0.000000 
#    z 0.000000 0.000000 1.834330 
# 
# From -- ./inp_files/32030.got.cif
#   From: 2010.05.17/outbox.cif.g08.bks.cpg/sg48_17_cif.got.tgz:32030.got - 2010.06.03 20:39:00.
