data_PCOD9389787
_publ_section_title
;
Structure prediction by ZEFSAII (Michael W. Deem and Ramdas Pophale) SiO2 
 PCOD9389787
Probable space group: P N N N
;
_chemical_formula_sum "Si O2"
_cell_formula_units_Z 32
_cell_length_a 13.958537
_cell_length_b 9.022889
_cell_length_c 10.995443
_cell_angle_alpha 90.000000
_cell_angle_beta 90.000000
_cell_angle_gamma 90.000000
_cell_volume 1384.835692
_symmetry_space_group_name_H-M "P N N N"
_symmetry_group_IT_number 48
_space_group.IT_coordinate_system_code '2'
_symmetry_cell_setting 'orthorhombic'
loop_
_space_group_symop_operation_xyz
x,y,z
1/2-x,1/2-y,z
x,1/2-y,1/2-z
1/2-x,y,1/2-z
-x,-y,-z
1/2+x,1/2+y,-z
-x,1/2+y,1/2+z
1/2+x,-y,1/2+z
loop_
_atom_site_type_symbol
_atom_site_label
_atom_site_fract_x
_atom_site_fract_y
_atom_site_fract_z
Si Si1 0.215360 0.413824 0.958987
Si Si2 0.591915 0.420659 0.945060
Si Si3 0.362570 0.415373 0.283311
Si Si4 0.641872 0.188047 0.126909
O O1 0.250000 0.250000 0.927041
O O2 0.158969 0.512860 0.862149
O O3 0.312320 0.497251 0.003763
O O4 0.141229 0.418891 0.071934
O O5 0.592315 0.455958 0.800430
O O6 0.500000 0.500000 0.000000
O O7 0.596272 0.256096 0.003851
O O8 0.395310 0.250000 0.250000
O O9 0.250000 0.421009 0.250000
O O10 0.750000 0.250000 0.123124
O O11 0.596929 0.250000 0.250000
#
# Coordination Sequence:
#
# PCOD9389787 Si02
#       4
#     8   8   8   8
#     4  10  18  37  67  86 113 163 219 255 310 389
#     4  10  20  34  58  89 128 160 198 262 324 358
#     4   9  15  31  59  86 111 152 208 253 308 370
#     4   9  20  38  57  83 118 165 211 248 306 382
#
# _framework density 23.107436
#
# number of rings (size 3 to 8) (size 9 to 14) (size 15 to 20)
#    0.000    2.500    5.000    0.000    0.000    2.000 
#    0.000   16.250    5.500    0.000    0.000    0.000 
#    0.000    0.000    0.000    0.000    0.000    0.000 
#
# Total GULP energy -178209.211631 kJ/mol
# GULP energy per Si atom -5569.037863 kJ/mol
# Density = 2.305484 g / cm^3
# Si number density = 23.107436 Si / 1000 Ang^3
#
#
#
# Elastic Constant Matrix: (Units=GPa)
#
#
# Indices 1 2 3 4 5 6 
#
# 1 68.1931 7.6893 24.6107 0.0000 0.0000 0.0000
# 2 7.6893 162.9564 59.2100 0.0000 0.0000 0.0000
# 3 24.6107 59.2100 84.5471 0.0000 0.0000 0.0000
# 4 0.0000 0.0000 0.0000 31.1240 0.0000 0.0000
# 5 0.0000 0.0000 0.0000 0.0000 7.5512 0.0000
# 6 0.0000 0.0000 0.0000 0.0000 0.0000 9.3736
#
#
#
# Elastic Compliance Matrix: (Units=1/GPa)
#
#
# Indices 1 2 3 4 5 6 
#
# 1 0.016590 0.001304 -0.005742 0.000000 0.000000 0.000000
# 2 0.001304 0.008334 -0.006216 0.000000 0.000000 0.000000
# 3 -0.005742 -0.006216 0.017852 0.000000 0.000000 0.000000
# 4 0.000000 0.000000 0.000000 0.032130 0.000000 0.000000
# 5 0.000000 0.000000 0.000000 0.000000 0.132430 0.000000
# 6 0.000000 0.000000 0.000000 0.000000 0.000000 0.106683
#
#
# Mechanical properties :
#
#
# Convention : Reuss Voigt Hill
#
# Bulk Modulus (GPa) = 46.58283 55.41296 50.99790
# Shear Modulus (GPa) = 14.59936 24.55551 19.57743
#
# Velocity S-wave (km/s) = 2.51630 3.26339 2.91389
# Velocity P-wave (km/s) = 5.35213 6.18323 5.78263
#
# Compressibility (1/GPa) = 0.02146714
#
# Stress axis : x y z
#
# Youngs Moduli (GPa) = 60.27905 119.99715 56.01600
#
# Poissons Ratio (x) = -0.15642 0.32164
# Poissons Ratio (y) = -0.07858 0.34817
# Poissons Ratio (z) = 0.34612 0.74585
#
# Static dielectric constant tensor:
#      x y z
#    x 1.870490 0.000000 0.000000 
#    y 0.000000 1.934620 0.000000 
#    z 0.000000 0.000000 2.028750 
# 
# From -- ./inp_files/10153.got.cif
#   From: 2010.05.17/outbox.cif.g08.bks.cpg/sg48_6_cif.got.tgz:10153.got - 2010.06.03 20:39:00.
