data_PCOD9389664
_publ_section_title
;
Structure prediction by ZEFSAII (Michael W. Deem and Ramdas Pophale) SiO2 
 PCOD9389664
Probable space group: P N N N
;
_chemical_formula_sum "Si O2"
_cell_formula_units_Z 56
_cell_length_a 19.718283
_cell_length_b 8.853868
_cell_length_c 14.681315
_cell_angle_alpha 90.000000
_cell_angle_beta 90.000000
_cell_angle_gamma 90.000000
_cell_volume 2563.109116
_symmetry_space_group_name_H-M "P N N N"
_symmetry_group_IT_number 48
_space_group.IT_coordinate_system_code '2'
_symmetry_cell_setting 'orthorhombic'
loop_
_space_group_symop_operation_xyz
x,y,z
1/2-x,1/2-y,z
x,1/2-y,1/2-z
1/2-x,y,1/2-z
-x,-y,-z
1/2+x,1/2+y,-z
-x,1/2+y,1/2+z
1/2+x,-y,1/2+z
loop_
_atom_site_type_symbol
_atom_site_label
_atom_site_fract_x
_atom_site_fract_y
_atom_site_fract_z
Si Si1 0.927777 0.233831 0.844448
Si Si2 0.813163 0.866323 0.434587
Si Si3 0.688959 0.017575 0.866375
Si Si4 0.334562 0.043392 0.325324
Si Si5 0.908839 0.844933 0.982931
Si Si6 0.947766 0.181171 0.043458
Si Si7 0.320527 0.819333 0.851570
O O1 0.967563 0.250000 0.750000
O O2 0.864000 0.347985 0.850618
O O3 0.897770 0.067125 0.835899
O O4 0.960682 0.246227 0.942005
O O5 0.750000 0.750000 0.424780
O O6 0.882263 0.769862 0.440879
O O7 0.813044 0.955551 0.531645
O O8 0.813795 0.999665 0.359745
O O9 0.671917 0.908464 0.779732
O O10 0.767377 0.052917 0.847944
O O11 0.346320 0.150347 0.411290
O O12 0.975295 0.806888 0.922084
O O13 0.924317 0.007097 0.029733
O O14 0.887477 0.266752 0.093832
O O15 0.250000 0.750000 0.890910
O O16 0.326197 0.750000 0.750000
#
# Coordination Sequence:
#
# PCOD9389664 Si02
#       7
#     8   8   8   8   8   8   8
#     4   9  17  31  57  92 123 167 216 264 321 391
#     4  12  23  40  67 101 130 169 216 281 354 409
#     4  10  18  31  55  92 130 171 205 259 323 395
#     4   9  18  32  52  90 138 167 212 250 315 406
#     4  10  22  39  61  97 133 179 219 269 332 399
#     4  10  21  43  67  88 132 181 225 273 332 404
#     4  11  26  48  71  94 123 171 236 292 349 398
#
# _framework density 21.848465999999998
#
# number of rings (size 3 to 8) (size 9 to 14) (size 15 to 20)
#    0.000    1.857    2.857    1.286    2.000    2.857 
#    2.571    9.286    0.000    0.000    0.000    0.000 
#    0.000    0.000    0.000    0.000    0.000    0.000 
#
# Total GULP energy -311795.780712 kJ/mol
# GULP energy per Si atom -5567.781798 kJ/mol
# Density = 2.179874 g / cm^3
# Si number density = 21.848466 Si / 1000 Ang^3
#
#
#
# Elastic Constant Matrix: (Units=GPa)
#
#
# Indices 1 2 3 4 5 6 
#
# 1 107.7836 31.5298 13.8174 0.0000 0.0000 0.0000
# 2 31.5298 95.3490 31.9918 0.0000 0.0000 0.0000
# 3 13.8174 31.9918 84.6780 0.0000 0.0000 0.0000
# 4 0.0000 0.0000 0.0000 30.0277 0.0000 0.0000
# 5 0.0000 0.0000 0.0000 0.0000 11.0611 0.0000
# 6 0.0000 0.0000 0.0000 0.0000 0.0000 21.7164
#
#
#
# Elastic Compliance Matrix: (Units=1/GPa)
#
#
# Indices 1 2 3 4 5 6 
#
# 1 0.010286 -0.003250 -0.000450 0.000000 0.000000 0.000000
# 2 -0.003250 0.013037 -0.004395 0.000000 0.000000 0.000000
# 3 -0.000450 -0.004395 0.013543 0.000000 0.000000 0.000000
# 4 0.000000 0.000000 0.000000 0.033303 0.000000 0.000000
# 5 0.000000 0.000000 0.000000 0.000000 0.090407 0.000000
# 6 0.000000 0.000000 0.000000 0.000000 0.000000 0.046048
#
#
# Mechanical properties :
#
#
# Convention : Reuss Voigt Hill
#
# Bulk Modulus (GPa) = 48.36725 49.16541 48.76633
# Shear Modulus (GPa) = 21.76669 26.59247 24.17958
#
# Velocity S-wave (km/s) = 3.15978 3.49253 3.33031
# Velocity P-wave (km/s) = 5.95801 6.23020 6.09563
#
# Compressibility (1/GPa) = 0.02067515
#
# Stress axis : x y z
#
# Youngs Moduli (GPa) = 97.21557 76.70309 73.83628
#
# Poissons Ratio (x) = 0.24931 0.03326
# Poissons Ratio (y) = 0.31598 0.32452
# Poissons Ratio (z) = 0.04379 0.33712
#
# Static dielectric constant tensor:
#      x y z
#    x 1.816850 0.000000 0.000000 
#    y 0.000000 1.877250 0.000000 
#    z 0.000000 0.000000 1.967070 
# 
# From -- ./inp_files/28349.got.cif
#   From: 2010.05.17/outbox.cif.g08.bks.cpg/sg48_15_cif.got.tgz:28349.got - 2010.06.03 20:39:00.
