data_PCOD9389868
_publ_section_title
;
Structure prediction by ZEFSAII (Michael W. Deem and Ramdas Pophale) SiO2 
 PCOD9389868
Probable space group: P N N N
;
_chemical_formula_sum "Si O2"
_cell_formula_units_Z 48
_cell_length_a 20.427249
_cell_length_b 8.590989
_cell_length_c 16.096721
_cell_angle_alpha 90.000000
_cell_angle_beta 90.000000
_cell_angle_gamma 90.000000
_cell_volume 2824.817938
_symmetry_space_group_name_H-M "P N N N"
_symmetry_group_IT_number 48
_space_group.IT_coordinate_system_code '2'
_symmetry_cell_setting 'orthorhombic'
loop_
_space_group_symop_operation_xyz
x,y,z
1/2-x,1/2-y,z
x,1/2-y,1/2-z
1/2-x,y,1/2-z
-x,-y,-z
1/2+x,1/2+y,-z
-x,1/2+y,1/2+z
1/2+x,-y,1/2+z
loop_
_atom_site_type_symbol
_atom_site_label
_atom_site_fract_x
_atom_site_fract_y
_atom_site_fract_z
Si Si1 0.935850 0.943470 0.050091
Si Si2 0.050902 0.365168 0.022151
Si Si3 0.003209 0.652179 0.675925
Si Si4 0.823572 0.076858 0.935344
Si Si5 0.173134 0.556611 0.077877
Si Si6 0.388428 0.570772 0.241292
O O1 0.944207 0.038194 0.134115
O O2 0.943731 0.758971 0.052130
O O3 0.872638 0.987578 0.996185
O O4 0.000000 0.000000 0.000000
O O5 0.120749 0.445040 0.035544
O O6 0.027654 0.266501 0.104305
O O7 0.000000 0.500000 0.000000
O O8 0.033677 0.750000 0.750000
O O9 0.946602 0.548545 0.720036
O O10 0.833904 0.262263 0.948999
O O11 0.748688 0.023402 0.941678
O O12 0.843150 0.056819 0.839401
O O13 0.153450 0.542852 0.175389
O O14 0.412714 0.750000 0.250000
#
# Coordination Sequence:
#
# PCOD9389868 Si02
#       6
#     8   8   8   8   8   8
#     4  10  20  35  54  72 111 151 192 240 279 327
#     4  11  22  35  55  81 110 151 194 239 288 340
#     4  11  21  36  55  82 112 149 198 242 293 337
#     4  10  19  35  52  80 115 160 188 228 277 336
#     4  10  20  32  54  81 116 151 194 223 280 349
#     4  10  19  32  52  80 117 158 187 224 279 344
#
# _framework density 16.992245
#
# number of rings (size 3 to 8) (size 9 to 14) (size 15 to 20)
#    0.000    1.667    5.000    2.500    2.333    2.667 
#    0.000    0.000    0.000    0.000    0.000    9.333 
#    0.000    8.000    0.000    0.000    0.000    0.000 
#
# Total GULP energy -267453.094576 kJ/mol
# GULP energy per Si atom -5571.939470 kJ/mol
# Density = 1.695357 g / cm^3
# Si number density = 16.992245 Si / 1000 Ang^3
#
#
#
# Elastic Constant Matrix: (Units=GPa)
#
#
# Indices 1 2 3 4 5 6 
#
# 1 95.1349 69.6338 37.0841 0.0000 0.0000 0.0000
# 2 69.6338 108.7283 51.5608 0.0000 0.0000 0.0000
# 3 37.0841 51.5608 57.5199 0.0000 0.0000 0.0000
# 4 0.0000 0.0000 0.0000 34.0255 0.0000 0.0000
# 5 0.0000 0.0000 0.0000 0.0000 -103.7806 0.0000
# 6 0.0000 0.0000 0.0000 0.0000 0.0000 28.8428
#
#
#
# Elastic Compliance Matrix: (Units=1/GPa)
#
#
# Indices 1 2 3 4 5 6 
#
# 1 0.019984 -0.011634 -0.002455 0.000000 0.000000 0.000000
# 2 -0.011634 0.022771 -0.012911 0.000000 0.000000 0.000000
# 3 -0.002455 -0.012911 0.030541 0.000000 0.000000 0.000000
# 4 0.000000 0.000000 0.000000 0.029390 0.000000 0.000000
# 5 0.000000 0.000000 0.000000 0.000000 -0.009636 0.000000
# 6 0.000000 0.000000 0.000000 0.000000 0.000000 0.034671
#
#
# Mechanical properties :
#
#
# Convention : Reuss Voigt Hill
#
# Bulk Modulus (GPa) = 51.82494 64.21562 58.02028
# Shear Modulus (GPa) = 26.57400 -1.30881 12.63259
#
# Velocity S-wave (km/s) = 3.95889 -0.87858 2.72955
# Velocity P-wave (km/s) = 7.17374 6.06992 6.64479
#
# Compressibility (1/GPa) = 0.01929573
#
# Stress axis : x y z
#
# Youngs Moduli (GPa) = 50.03963 43.91565 32.74241
#
# Poissons Ratio (x) = 0.51093 0.08038
# Poissons Ratio (y) = 0.58218 0.42273
# Poissons Ratio (z) = 0.12285 0.56699
#
# Static dielectric constant tensor:
#      x y z
#    x 1.558350 0.000000 0.000000 
#    y 0.000000 1.640380 0.000000 
#    z 0.000000 0.000000 1.589810 
# 
# From -- ./inp_files/14313.got.cif
#   From: 2010.05.17/outbox.cif.g08.bks.cpg/sg48_8_cif.got.tgz:14313.got - 2010.06.03 20:39:00.
