data_PCOD9389176
_publ_section_title
;
Structure prediction by ZEFSAII (Michael W. Deem and Ramdas Pophale) SiO2 
 PCOD9389176
Probable space group: P M M M
;
_chemical_formula_sum "Si O2"
_cell_formula_units_Z 52
_cell_length_a 14.295248
_cell_length_b 7.829415
_cell_length_c 27.297900
_cell_angle_alpha 90.000000
_cell_angle_beta 90.000000
_cell_angle_gamma 90.000000
_cell_volume 3055.274576
_symmetry_space_group_name_H-M "P M M M"
_symmetry_group_IT_number 47
_symmetry_cell_setting 'orthorhombic'
loop_
_space_group_symop_operation_xyz
x,y,z
-x,-y,z
x,-y,-z
-x,y,-z
-x,-y,-z
x,y,-z
-x,y,z
x,-y,z
loop_
_atom_site_type_symbol
_atom_site_label
_atom_site_fract_x
_atom_site_fract_y
_atom_site_fract_z
Si Si1 0.893408 0.202324 0.500000
Si Si2 0.611173 0.200577 0.130866
Si Si3 0.892148 0.796134 0.711134
Si Si4 0.107386 0.297298 0.000000
Si Si5 0.386440 0.500000 0.944098
Si Si6 0.893431 0.297293 0.604364
Si Si7 0.106039 0.204185 0.104619
Si Si8 0.774670 0.207720 0.197031
O O1 0.849005 0.252987 0.551940
O O2 0.000000 0.278205 0.500000
O O3 0.900453 0.000000 0.500000
O O4 0.500000 0.214308 0.138598
O O5 0.637633 0.331302 0.087451
O O6 0.669711 0.248069 0.179559
O O7 0.632106 0.000000 0.118945
O O8 0.854912 0.763985 0.656280
O O9 0.822523 0.729286 0.753084
O O10 0.000000 0.729116 0.715075
O O11 0.898956 0.000000 0.717432
O O12 0.149327 0.241755 0.948419
O O13 0.102673 0.500000 0.000000
O O14 0.000000 0.226166 0.000000
O O15 0.500000 0.500000 0.947342
O O16 0.349613 0.500000 0.000000
O O17 0.898624 0.500000 0.607002
O O18 0.000000 0.224712 0.602699
O O19 0.162913 0.267189 0.151055
O O20 0.000000 0.273443 0.105286
O O21 0.100947 0.000000 0.109276
O O22 0.778435 0.000000 0.199319
#
# Coordination Sequence:
#
# PCOD9389176 Si02
#       8
#     4   8   8   4   4   8   8   8
#     4   9  15  23  37  55  75 107 152 189 218 255
#     4   9  18  34  53  71  93 118 143 177 223 271
#     4   9  16  27  43  61  84 114 148 187 223 256
#     4   9  17  29  41  55  78 103 128 164 206 246
#     4   9  18  34  54  74  93 113 141 176 218 273
#     4   9  16  25  36  54  82 113 145 183 223 259
#     4   9  16  28  45  60  76 102 135 169 205 246
#     4   9  17  30  46  65  84 107 142 178 214 260
#
# _framework density 17.019746000000001
#
# number of rings (size 3 to 8) (size 9 to 14) (size 15 to 20)
#    0.000    3.000    0.000    1.385    0.000    5.846 
#    4.154    1.538    0.000    3.692    0.000    0.000 
#    0.000    0.000    0.000    0.692    0.000   16.385 
#
# Total GULP energy -289500.269012 kJ/mol
# GULP energy per Si atom -5567.312866 kJ/mol
# Density = 1.698101 g / cm^3
# Si number density = 17.019746 Si / 1000 Ang^3
#
#
#
# Elastic Constant Matrix: (Units=GPa)
#
#
# Indices 1 2 3 4 5 6 
#
# 1 50.5259 15.6531 46.5274 0.0000 0.0000 0.0000
# 2 15.6531 44.2503 23.6811 0.0000 0.0000 0.0000
# 3 46.5274 23.6811 173.0890 0.0000 0.0000 0.0000
# 4 0.0000 0.0000 0.0000 -19.9672 0.0000 0.0000
# 5 0.0000 0.0000 0.0000 0.0000 4.2701 0.0000
# 6 0.0000 0.0000 0.0000 0.0000 0.0000 4.1317
#
#
#
# Elastic Compliance Matrix: (Units=1/GPa)
#
#
# Indices 1 2 3 4 5 6 
#
# 1 0.027843 -0.006306 -0.006622 0.000000 0.000000 0.000000
# 2 -0.006306 0.025812 -0.001836 0.000000 0.000000 0.000000
# 3 -0.006622 -0.001836 0.007809 0.000000 0.000000 0.000000
# 4 0.000000 0.000000 0.000000 -0.050082 0.000000 0.000000
# 5 0.000000 0.000000 0.000000 0.000000 0.234186 0.000000
# 6 0.000000 0.000000 0.000000 0.000000 0.000000 0.242032
#
#
# Mechanical properties :
#
#
# Convention : Reuss Voigt Hill
#
# Bulk Modulus (GPa) = 31.31243 48.84317 40.07780
# Shear Modulus (GPa) = 9.47379 9.82049 9.64714
#
# Velocity S-wave (km/s) = 2.36187 2.40470 2.38338
# Velocity P-wave (km/s) = 5.08680 6.03907 5.58327
#
# Compressibility (1/GPa) = 0.03193620
#
# Stress axis : x y z
#
# Youngs Moduli (GPa) = 35.91576 38.74159 128.06425
#
# Poissons Ratio (x) = 0.24429 0.84800
# Poissons Ratio (y) = 0.22647 0.23519
# Poissons Ratio (z) = 0.23782 0.07115
#
# Static dielectric constant tensor:
#      x y z
#    x 1.589410 0.000000 0.000000 
#    y 0.000000 1.608660 0.000000 
#    z 0.000000 0.000000 1.614310 
# 
# From -- ./inp_files/33799.got.cif
#   From: 2010.05.17/outbox.cif.g08.bks.cpg/sg47_17_cif.got.tgz:33799.got - 2010.06.03 20:15:42.
