data_PCOD9389981
_publ_section_title
;
Structure prediction by ZEFSAII (Michael W. Deem and Ramdas Pophale) SiO2 
 PCOD9389981
Probable space group: P N N N
;
_chemical_formula_sum "Si O2"
_cell_formula_units_Z 48
_cell_length_a 16.400236
_cell_length_b 5.094603
_cell_length_c 27.766761
_cell_angle_alpha 90.000000
_cell_angle_beta 90.000000
_cell_angle_gamma 90.000000
_cell_volume 2319.987617
_symmetry_space_group_name_H-M "P N N N"
_symmetry_group_IT_number 48
_space_group.IT_coordinate_system_code '2'
_symmetry_cell_setting 'orthorhombic'
loop_
_space_group_symop_operation_xyz
x,y,z
1/2-x,1/2-y,z
x,1/2-y,1/2-z
1/2-x,y,1/2-z
-x,-y,-z
1/2+x,1/2+y,-z
-x,1/2+y,1/2+z
1/2+x,-y,1/2+z
loop_
_atom_site_type_symbol
_atom_site_label
_atom_site_fract_x
_atom_site_fract_y
_atom_site_fract_z
Si Si1 0.659618 0.306303 0.456338
Si Si2 0.659146 0.674344 0.902862
Si Si3 0.030179 0.285831 0.695871
Si Si4 0.923483 0.326175 0.943751
Si Si5 0.583649 0.785263 0.803914
Si Si6 0.396831 0.299401 0.904558
O O1 0.750000 0.250000 0.475737
O O2 0.595488 0.298999 0.499951
O O3 0.658752 0.584844 0.430284
O O4 0.633872 0.086297 0.418131
O O5 0.750000 0.750000 0.917962
O O6 0.635909 0.378951 0.916562
O O7 0.646233 0.725804 0.846264
O O8 0.597518 0.876970 0.928690
O O9 0.063177 0.250000 0.750000
O O10 0.092702 0.255491 0.652294
O O11 0.988538 0.570545 0.691488
O O12 0.958147 0.069485 0.690525
O O13 0.013585 0.248054 0.927504
O O14 0.617381 0.750000 0.750000
#
# Coordination Sequence:
#
# PCOD9389981 Si02
#       6
#     8   8   8   8   8   8
#     4  12  26  42  62  93 128 161 199 254 314 360
#     4  12  22  36  58  86 127 168 203 254 301 352
#     4  10  20  37  64  91 118 153 201 256 304 354
#     4  12  24  42  62  90 121 166 213 245 292 363
#     4  10  19  35  55  83 121 159 201 252 303 354
#     4  12  22  42  69  90 121 159 211 252 295 365
#
# _framework density 20.689764
#
# number of rings (size 3 to 8) (size 9 to 14) (size 15 to 20)
#    0.000    0.667    3.333    6.000    0.000    0.333 
#    0.000    0.000    0.000    8.000    0.000    0.000 
#    0.000    0.000    0.000    0.000    0.000    0.000 
#
# Total GULP energy -268621.297681 kJ/mol
# GULP energy per Si atom -5596.277035 kJ/mol
# Density = 2.064267 g / cm^3
# Si number density = 20.689764 Si / 1000 Ang^3
#
#
#
# Elastic Constant Matrix: (Units=GPa)
#
#
# Indices 1 2 3 4 5 6 
#
# 1 32.3720 -0.3167 2.8149 0.0000 0.0000 0.0000
# 2 -0.3167 55.7812 12.8894 0.0000 0.0000 0.0000
# 3 2.8149 12.8894 110.9012 0.0000 0.0000 0.0000
# 4 0.0000 0.0000 0.0000 26.5839 0.0000 0.0000
# 5 0.0000 0.0000 0.0000 0.0000 -0.3550 0.0000
# 6 0.0000 0.0000 0.0000 0.0000 0.0000 23.6711
#
#
#
# Elastic Compliance Matrix: (Units=1/GPa)
#
#
# Indices 1 2 3 4 5 6 
#
# 1 0.030967 0.000367 -0.000829 0.000000 0.000000 0.000000
# 2 0.000367 0.018426 -0.002151 0.000000 0.000000 0.000000
# 3 -0.000829 -0.002151 0.009288 0.000000 0.000000 0.000000
# 4 0.000000 0.000000 0.000000 0.037617 0.000000 0.000000
# 5 0.000000 0.000000 0.000000 0.000000 -2.816682 0.000000
# 6 0.000000 0.000000 0.000000 0.000000 0.000000 0.042246
#
#
# Mechanical properties :
#
#
# Convention : Reuss Voigt Hill
#
# Bulk Modulus (GPa) = 18.70687 25.53661 22.12174
# Shear Modulus (GPa) = -1.88317 22.22445 10.17064
#
# Velocity S-wave (km/s) = -0.95508 3.28102 2.21956
# Velocity P-wave (km/s) = 2.80089 5.16942 4.15740
#
# Compressibility (1/GPa) = 0.05345631
#
# Stress axis : x y z
#
# Youngs Moduli (GPa) = 32.29293 54.27027 107.66516
#
# Poissons Ratio (x) = -0.01993 0.08922
# Poissons Ratio (y) = -0.01186 0.23158
# Poissons Ratio (z) = 0.02676 0.11673
#
# Static dielectric constant tensor:
#      x y z
#    x 1.713630 0.000000 0.000000 
#    y 0.000000 1.713680 0.000000 
#    z 0.000000 0.000000 1.750830 
# 
# From -- ./inp_files/6464.got.cif
#   From: 2010.05.17/outbox.cif.g08.bks.cpg/sg48_4_cif.got.tgz:6464.got - 2010.06.03 20:39:00.
