data_PCOD9389667
_publ_section_title
;
Structure prediction by ZEFSAII (Michael W. Deem and Ramdas Pophale) SiO2 
 PCOD9389667
Probable space group: P N N N
;
_chemical_formula_sum "Si O2"
_cell_formula_units_Z 44
_cell_length_a 9.603009
_cell_length_b 13.656088
_cell_length_c 18.830229
_cell_angle_alpha 90.000000
_cell_angle_beta 90.000000
_cell_angle_gamma 90.000000
_cell_volume 2469.387493
_symmetry_space_group_name_H-M "P N N N"
_symmetry_group_IT_number 48
_space_group.IT_coordinate_system_code '2'
_symmetry_cell_setting 'orthorhombic'
loop_
_space_group_symop_operation_xyz
x,y,z
1/2-x,1/2-y,z
x,1/2-y,1/2-z
1/2-x,y,1/2-z
-x,-y,-z
1/2+x,1/2+y,-z
-x,1/2+y,1/2+z
1/2+x,-y,1/2+z
loop_
_atom_site_type_symbol
_atom_site_label
_atom_site_fract_x
_atom_site_fract_y
_atom_site_fract_z
Si Si1 0.750000 0.750000 0.250000
Si Si2 0.555655 0.440525 0.201572
Si Si3 0.250000 0.750000 0.250000
Si Si4 0.324765 0.646206 0.658752
Si Si5 0.502824 0.620036 0.299434
Si Si6 0.968828 0.963084 0.578497
Si Si7 0.225500 0.365962 0.334236
O O1 0.641661 0.685607 0.295682
O O2 0.582151 0.371153 0.270793
O O3 0.704030 0.435708 0.163409
O O4 0.514430 0.545911 0.232125
O O5 0.434609 0.394661 0.154973
O O6 0.359724 0.681880 0.293129
O O7 0.250000 0.750000 0.658561
O O8 0.424205 0.625399 0.593841
O O9 0.502530 0.552177 0.368174
O O10 0.822356 0.922580 0.609576
O O11 0.000000 0.000000 0.500000
O O12 0.250000 0.250000 0.339660
O O13 0.250000 0.393584 0.250000
#
# Coordination Sequence:
#
# PCOD9389667 Si02
#       7
#     2   8   2   8   8   8   8
#     4  10  20  34  60  82  98 138 198 246 268 310
#     4  10  18  31  58  88 115 138 182 244 299 334
#     4  10  20  34  60  82 102 134 200 252 272 310
#     4  10  19  32  56  88 118 145 185 235 295 353
#     4  10  19  35  54  82 107 140 188 236 282 324
#     4  11  23  41  56  79 124 163 186 230 300 364
#     4  11  20  33  61  92 117 143 195 247 294 350
#
# _framework density 17.818183000000001
#
# number of rings (size 3 to 8) (size 9 to 14) (size 15 to 20)
#    0.000    1.636    3.636    5.455    2.545    0.000 
#    3.273    0.909    0.000    0.000    0.000    0.000 
#    0.000    0.000    0.000    0.000    0.000    0.000 
#
# Total GULP energy -245207.373901 kJ/mol
# GULP energy per Si atom -5572.894861 kJ/mol
# Density = 1.777763 g / cm^3
# Si number density = 17.818183 Si / 1000 Ang^3
#
#
#
# Elastic Constant Matrix: (Units=GPa)
#
#
# Indices 1 2 3 4 5 6 
#
# 1 145.8089 54.4839 49.3628 0.0000 0.0000 0.0000
# 2 54.4839 91.9191 21.9830 0.0000 0.0000 0.0000
# 3 49.3628 21.9830 60.0297 0.0000 0.0000 0.0000
# 4 0.0000 0.0000 0.0000 15.2461 0.0000 0.0000
# 5 0.0000 0.0000 0.0000 0.0000 6.3624 0.0000
# 6 0.0000 0.0000 0.0000 0.0000 0.0000 40.7819
#
#
#
# Elastic Compliance Matrix: (Units=1/GPa)
#
#
# Indices 1 2 3 4 5 6 
#
# 1 0.011184 -0.004855 -0.007419 0.000000 0.000000 0.000000
# 2 -0.004855 0.014031 -0.001146 0.000000 0.000000 0.000000
# 3 -0.007419 -0.001146 0.023179 0.000000 0.000000 0.000000
# 4 0.000000 0.000000 0.000000 0.065591 0.000000 0.000000
# 5 0.000000 0.000000 0.000000 0.000000 0.157173 0.000000
# 6 0.000000 0.000000 0.000000 0.000000 0.000000 0.024521
#
#
# Mechanical properties :
#
#
# Convention : Reuss Voigt Hill
#
# Bulk Modulus (GPa) = 46.39464 61.04633 53.72048
# Shear Modulus (GPa) = 15.16523 23.93995 19.55259
#
# Velocity S-wave (km/s) = 2.92054 3.66945 3.31620
# Velocity P-wave (km/s) = 6.12104 7.23106 6.69908
#
# Compressibility (1/GPa) = 0.02155422
#
# Stress axis : x y z
#
# Youngs Moduli (GPa) = 89.41349 71.27135 43.14328
#
# Poissons Ratio (x) = 0.34602 0.32007
# Poissons Ratio (y) = 0.43410 0.04944
# Poissons Ratio (z) = 0.66334 0.08167
#
# Static dielectric constant tensor:
#      x y z
#    x 1.658150 0.000000 0.000000 
#    y 0.000000 1.659930 0.000000 
#    z 0.000000 0.000000 1.615970 
# 
# From -- ./inp_files/30216.got.cif
#   From: 2010.05.17/outbox.cif.g08.bks.cpg/sg48_16_cif.got.tgz:30216.got - 2010.06.03 20:39:00.
