data_PCOD9389895
_publ_section_title
;
Structure prediction by ZEFSAII (Michael W. Deem and Ramdas Pophale) SiO2 
 PCOD9389895
Probable space group: P N N N
;
_chemical_formula_sum "Si O2"
_cell_formula_units_Z 64
_cell_length_a 16.957930
_cell_length_b 23.212462
_cell_length_c 7.371733
_cell_angle_alpha 90.000000
_cell_angle_beta 90.000000
_cell_angle_gamma 90.000000
_cell_volume 2901.774373
_symmetry_space_group_name_H-M "P N N N"
_symmetry_group_IT_number 48
_space_group.IT_coordinate_system_code '2'
_symmetry_cell_setting 'orthorhombic'
loop_
_space_group_symop_operation_xyz
x,y,z
1/2-x,1/2-y,z
x,1/2-y,1/2-z
1/2-x,y,1/2-z
-x,-y,-z
1/2+x,1/2+y,-z
-x,1/2+y,1/2+z
1/2+x,-y,1/2+z
loop_
_atom_site_type_symbol
_atom_site_label
_atom_site_fract_x
_atom_site_fract_y
_atom_site_fract_z
Si Si1 0.841854 0.015587 0.471377
Si Si2 0.341854 0.515587 0.971377
Si Si3 0.579065 0.132916 0.037195
Si Si4 0.420935 0.632916 0.962805
Si Si5 0.899335 0.608502 0.468595
Si Si6 0.250000 0.183701 0.971579
Si Si7 0.600665 0.891498 0.031405
Si Si8 0.658382 0.250000 0.028144
O O1 0.844108 0.015201 0.250000
O O2 0.750000 0.014483 0.522934
O O3 0.883971 0.073695 0.536503
O O4 0.884237 0.956924 0.531519
O O5 0.383971 0.573695 0.036503
O O6 0.384237 0.456924 0.031519
O O7 0.599298 0.132569 0.250000
O O8 0.615760 0.191843 0.963847
O O9 0.485148 0.130782 0.020245
O O10 0.384240 0.691843 0.036153
O O11 0.514852 0.630782 0.979755
O O12 0.827993 0.649348 0.529919
O O13 0.896295 0.607654 0.250000
O O14 0.250000 0.250000 0.029392
O O15 0.250000 0.183469 0.750000
O O16 0.327993 0.149348 0.029919
O O17 0.750000 0.250000 0.977871
O O18 0.654842 0.250000 0.250000
#
# Coordination Sequence:
#
# PCOD9389895 Si02
#       8
#     8   8   8   8   8   8   8   8
#     4   9  16  30  52  75  97 128 169 206 238 284
#     4   9  16  30  52  75  97 128 169 206 238 284
#     4  10  20  32  51  76 102 128 161 206 250 290
#     4  10  20  32  51  76 102 128 161 206 250 290
#     4  10  19  33  53  75  99 128 166 206 244 291
#     4   9  18  32  51  73  97 130 170 204 235 285
#     4  10  19  33  53  75  99 128 166 206 244 291
#     4   9  18  34  53  74  99 132 170 201 235 289
#
# _framework density 22.05547
#
# number of rings (size 3 to 8) (size 9 to 14) (size 15 to 20)
#    0.000    2.500    1.250    1.500    1.750    3.000 
#    0.000    0.625    0.000    6.000    0.000    0.000 
#    0.000    0.000    0.000    0.000    0.000    0.000 
#
# Total GULP energy -357755.419837 kJ/mol
# GULP energy per Si atom -5589.928435 kJ/mol
# Density = 2.200527 g / cm^3
# Si number density = 22.055470 Si / 1000 Ang^3
#
#
#
# Elastic Constant Matrix: (Units=GPa)
#
#
# Indices 1 2 3 4 5 6 
#
# 1 171.7184 129.3285 -14.3670 0.0000 0.0000 0.0000
# 2 129.3285 256.9462 8.1560 0.0000 0.0000 0.0000
# 3 -14.3670 8.1560 77.1720 0.0000 0.0000 0.0000
# 4 0.0000 0.0000 0.0000 -15.6286 0.0000 0.0000
# 5 0.0000 0.0000 0.0000 0.0000 8.2994 0.0000
# 6 0.0000 0.0000 0.0000 0.0000 0.0000 14.8111
#
#
#
# Elastic Compliance Matrix: (Units=1/GPa)
#
#
# Indices 1 2 3 4 5 6 
#
# 1 0.009786 -0.005000 0.002350 0.000000 0.000000 0.000000
# 2 -0.005000 0.006460 -0.001614 0.000000 0.000000 0.000000
# 3 0.002350 -0.001614 0.013566 0.000000 0.000000 0.000000
# 4 0.000000 0.000000 0.000000 -0.063985 0.000000 0.000000
# 5 0.000000 0.000000 0.000000 0.000000 0.120491 0.000000
# 6 0.000000 0.000000 0.000000 0.000000 0.000000 0.067517
#
#
# Mechanical properties :
#
#
# Convention : Reuss Voigt Hill
#
# Bulk Modulus (GPa) = 46.98144 83.56352 65.27248
# Shear Modulus (GPa) = 29.50606 27.01098 28.25852
#
# Velocity S-wave (km/s) = 3.66158 3.50334 3.58334
# Velocity P-wave (km/s) = 6.26290 7.37121 6.83954
#
# Compressibility (1/GPa) = 0.02128500
#
# Stress axis : x y z
#
# Youngs Moduli (GPa) = 102.18711 154.80322 73.71290
#
# Poissons Ratio (x) = 0.77404 -0.17325
# Poissons Ratio (y) = 0.51095 0.11894
# Poissons Ratio (z) = -0.24017 0.24979
#
# Static dielectric constant tensor:
#      x y z
#    x 1.729350 0.000000 0.000000 
#    y 0.000000 1.779170 0.000000 
#    z 0.000000 0.000000 1.864620 
# 
# From -- ./inp_files/20453.got.cif
#   From: 2010.05.17/outbox.cif.g08.bks.cpg/sg48_11_cif.got.tgz:20453.got - 2010.06.03 20:39:00.
