data_PCOD9389386
_publ_section_title
;
Structure prediction by ZEFSAII (Michael W. Deem and Ramdas Pophale) SiO2 
 PCOD9389386
Probable space group: P M M M
;
_chemical_formula_sum "Si O2"
_cell_formula_units_Z 48
_cell_length_a 9.000000
_cell_length_b 15.000000
_cell_length_c 18.000000
_cell_angle_alpha 90.000000
_cell_angle_beta 90.000000
_cell_angle_gamma 90.000000
_cell_volume 2430.000000
_symmetry_space_group_name_H-M "P M M M"
_symmetry_group_IT_number 47
_symmetry_cell_setting 'orthorhombic'
loop_
_space_group_symop_operation_xyz
x,y,z
-x,-y,z
x,-y,-z
-x,y,-z
-x,-y,-z
x,y,-z
-x,y,z
x,-y,z
loop_
_atom_site_type_symbol
_atom_site_label
_atom_site_fract_x
_atom_site_fract_y
_atom_site_fract_z
Si Si1 0.323734 0.136917 0.304919
Si Si2 0.677881 0.718948 0.079099
Si Si3 0.168676 0.600375 0.805530
Si Si4 0.180977 0.601385 0.500000
Si Si5 0.174886 0.683142 0.344991
Si Si6 0.680856 0.904602 0.135473
Si Si7 0.822260 0.000000 0.414170
O O1 0.500000 0.124504 0.311744
O O2 0.274729 0.237800 0.314877
O O3 0.279868 0.105576 0.222397
O O4 0.241398 0.083230 0.369146
O O5 0.500000 0.721462 0.077289
O O6 0.724401 0.663169 0.149589
O O7 0.733411 0.819372 0.090863
O O8 0.731560 0.682370 0.000000
O O9 0.189419 0.500000 0.830364
O O10 0.185248 0.607124 0.717107
O O11 0.000000 0.629095 0.821845
O O12 0.233880 0.500000 0.500000
O O13 0.224995 0.651220 0.425317
O O14 0.000000 0.598815 0.500000
O O15 0.000000 0.710016 0.349328
O O16 0.500000 0.903875 0.132674
O O17 0.732398 0.000000 0.107326
O O18 0.775416 0.000000 0.500000
O O19 0.000000 0.000000 0.411796
#
# Coordination Sequence:
#
# PCOD9389386 Si02
#       7
#     8   8   8   4   8   8   4
#     4  11  21  36  58  83 112 148 189 233 282 338
#     4  10  21  37  58  85 115 147 187 237 291 348
#     4  10  21  37  58  83 112 151 197 240 285 342
#     4   9  18  34  57  82 109 142 183 233 282 333
#     4  10  20  35  57  84 113 146 188 235 285 341
#     4   9  17  33  57  83 110 142 181 224 274 334
#     4  11  25  41  57  81 116 153 194 240 284 332
#
# _framework density 19.753086
#
# number of rings (size 3 to 8) (size 9 to 14) (size 15 to 20)
#    0.000    2.000    2.500    1.250    1.167    4.000 
#    0.000    3.333    0.000    2.000    0.000    1.167 
#    0.000    0.000    0.000    0.000    0.000    0.000 
#
# Total GULP energy -267572.411124 kJ/mol
# GULP energy per Si atom -5574.425232 kJ/mol
# Density = 1.970813 g / cm^3
# Si number density = 19.753086 Si / 1000 Ang^3
#
#
#
# Elastic Constant Matrix: (Units=GPa)
#
#
# Indices 1 2 3 4 5 6 
#
# 1 -2.9329 89.8371 27.4880 0.0000 0.0000 0.0000
# 2 89.8371 -204.5167 17.6373 0.0000 0.0000 0.0000
# 3 27.4880 17.6373 94.0542 0.0000 0.0000 0.0000
# 4 0.0000 0.0000 0.0000 -38.6656 0.0000 0.0000
# 5 0.0000 0.0000 0.0000 0.0000 21.1425 0.0000
# 6 0.0000 0.0000 0.0000 0.0000 0.0000 16.0601
#
#
#
# Elastic Compliance Matrix: (Units=1/GPa)
#
#
# Indices 1 2 3 4 5 6 
#
# 1 0.042482 0.017310 -0.015662 0.000000 0.000000 0.000000
# 2 0.017310 0.002242 -0.005479 0.000000 0.000000 0.000000
# 3 -0.015662 -0.005479 0.016237 0.000000 0.000000 0.000000
# 4 0.000000 0.000000 0.000000 -0.025863 0.000000 0.000000
# 5 0.000000 0.000000 0.000000 0.000000 0.047298 0.000000
# 6 0.000000 0.000000 0.000000 0.000000 0.000000 0.062266
#
#
# Mechanical properties :
#
#
# Convention : Reuss Voigt Hill
#
# Bulk Modulus (GPa) = 18.76210 17.39216 18.07713
# Shear Modulus (GPa) = 29.39612 -16.84979 6.27317
#
# Velocity S-wave (km/s) = 3.86188 -2.92382 1.78401
# Velocity P-wave (km/s) = 5.42258 1.60449 3.66265
#
# Compressibility (1/GPa) = 0.05329894
#
# Stress axis : x y z
#
# Youngs Moduli (GPa) = 23.53931 446.09247 61.58796
#
# Poissons Ratio (x) = -7.72198 0.96458
# Poissons Ratio (y) = -0.40747 0.33747
# Poissons Ratio (z) = 0.36867 2.44433
#
# Static dielectric constant tensor:
#      x y z
#    x 1.676670 0.000000 0.000000 
#    y 0.000000 2.289480 0.000000 
#    z 0.000000 0.000000 1.718300 
# 
# From -- ./inp_files/26484.got.cif
#   From: 2010.05.17/outbox.ucp.g08.bks.cvg/sg47_14_cif.got.tgz:26484.got - 2010.06.11 16:36:43.
