data_PCOD9389217
_publ_section_title
;
Structure prediction by ZEFSAII (Michael W. Deem and Ramdas Pophale) SiO2 
 PCOD9389217
Probable space group: P M M M
;
_chemical_formula_sum "Si O2"
_cell_formula_units_Z 40
_cell_length_a 21.000000
_cell_length_b 9.000000
_cell_length_c 12.000000
_cell_angle_alpha 90.000000
_cell_angle_beta 90.000000
_cell_angle_gamma 90.000000
_cell_volume 2268.000000
_symmetry_space_group_name_H-M "P M M M"
_symmetry_group_IT_number 47
_symmetry_cell_setting 'orthorhombic'
loop_
_space_group_symop_operation_xyz
x,y,z
-x,-y,z
x,-y,-z
-x,y,-z
-x,-y,-z
x,y,-z
-x,y,z
x,-y,z
loop_
_atom_site_type_symbol
_atom_site_label
_atom_site_fract_x
_atom_site_fract_y
_atom_site_fract_z
Si Si1 0.571657 0.818759 0.371660
Si Si2 0.931412 0.318433 0.255058
Si Si3 0.900909 0.323875 0.500000
Si Si4 0.194663 0.678991 0.127701
Si Si5 0.302740 0.172798 0.732107
Si Si6 0.771782 0.834062 0.500000
O O1 0.583658 0.772624 0.500000
O O2 0.500000 0.775164 0.341828
O O3 0.626214 0.767985 0.288019
O O4 0.574390 0.000000 0.372517
O O5 0.929415 0.500000 0.255109
O O6 0.927600 0.267199 0.383244
O O7 0.868696 0.267114 0.191333
O O8 0.000000 0.275243 0.206629
O O9 0.912331 0.500000 0.500000
O O10 0.826218 0.288338 0.500000
O O11 0.194583 0.500000 0.132420
O O12 0.257610 0.738267 0.186321
O O13 0.192029 0.725494 0.000000
O O14 0.270578 0.177491 0.609884
O O15 0.305145 0.000000 0.766738
O O16 0.801442 0.000000 0.500000
#
# Coordination Sequence:
#
# PCOD9389217 Si02
#       6
#     8   8   4   8   8   4
#     4   8  13  23  43  73 104 128 151 184 229 280
#     4   9  17  29  47  71  95 118 150 197 245 285
#     4  10  17  28  48  71  95 122 154 188 233 292
#     4  10  21  35  50  69  92 123 166 207 239 275
#     4  10  18  30  50  74 100 127 156 191 235 284
#     4  10  18  27  44  73 102 125 150 186 232 286
#
# _framework density 17.636683999999999
#
# number of rings (size 3 to 8) (size 9 to 14) (size 15 to 20)
#    0.000    2.600    3.000    0.900    0.000    2.000 
#    0.000    2.000    0.000    4.200    0.000    7.000 
#    0.000    0.000    0.000    0.000    0.000    0.000 
#
# Total GULP energy -222756.194347 kJ/mol
# GULP energy per Si atom -5568.904859 kJ/mol
# Density = 1.759654 g / cm^3
# Si number density = 17.636684 Si / 1000 Ang^3
#
#
#
# Elastic Constant Matrix: (Units=GPa)
#
#
# Indices 1 2 3 4 5 6 
#
# 1 163.0239 10.7917 70.8905 0.0000 0.0000 0.0000
# 2 10.7917 -7.3237 18.9283 0.0000 0.0000 0.0000
# 3 70.8905 18.9283 102.3378 0.0000 0.0000 0.0000
# 4 0.0000 0.0000 0.0000 13.1078 0.0000 0.0000
# 5 0.0000 0.0000 0.0000 0.0000 -10.7392 0.0000
# 6 0.0000 0.0000 0.0000 0.0000 0.0000 18.1982
#
#
#
# Elastic Compliance Matrix: (Units=1/GPa)
#
#
# Indices 1 2 3 4 5 6 
#
# 1 0.008740 -0.001873 -0.005708 0.000000 0.000000 0.000000
# 2 -0.001873 -0.091980 0.018310 0.000000 0.000000 0.000000
# 3 -0.005708 0.018310 0.010339 0.000000 0.000000 0.000000
# 4 0.000000 0.000000 0.000000 0.076290 0.000000 0.000000
# 5 0.000000 0.000000 0.000000 0.000000 -0.093117 0.000000
# 6 0.000000 0.000000 0.000000 0.000000 0.000000 0.054950
#
#
# Mechanical properties :
#
#
# Convention : Reuss Voigt Hill
#
# Bulk Modulus (GPa) = -19.43897 51.02878 15.79490
# Shear Modulus (GPa) = -68.13591 14.60853 -26.76369
#
# Velocity S-wave (km/s) = -6.22229 2.88115 -3.89974
# Velocity P-wave (km/s) = 7.91634 6.32963 3.36186
#
# Compressibility (1/GPa) = -0.05144305
#
# Stress axis : x y z
#
# Youngs Moduli (GPa) = 114.41452 -10.87193 96.72255
#
# Poissons Ratio (x) = -0.02037 0.55208
# Poissons Ratio (y) = 0.21434 -1.77101
# Poissons Ratio (z) = 0.65307 0.19907
#
# Static dielectric constant tensor:
#      x y z
#    x 1.632070 0.000000 0.000000 
#    y 0.000000 1.609380 0.000000 
#    z 0.000000 0.000000 1.591490 
# 
# From -- ./inp_files/4042.got.cif
#   From: 2010.05.17/outbox.ucp.g08.bks.cvg/sg47_3_cif.got.tgz:4042.got - 2010.06.11 16:36:43.
