data_PCOD9389946
_publ_section_title
;
Structure prediction by ZEFSAII (Michael W. Deem and Ramdas Pophale) SiO2 
 PCOD9389946
Probable space group: P N N N
;
_chemical_formula_sum "Si O2"
_cell_formula_units_Z 38
_cell_length_a 6.901095
_cell_length_b 17.458398
_cell_length_c 14.698860
_cell_angle_alpha 90.000000
_cell_angle_beta 90.000000
_cell_angle_gamma 90.000000
_cell_volume 1770.948979
_symmetry_space_group_name_H-M "P N N N"
_symmetry_group_IT_number 48
_space_group.IT_coordinate_system_code '2'
_symmetry_cell_setting 'orthorhombic'
loop_
_space_group_symop_operation_xyz
x,y,z
1/2-x,1/2-y,z
x,1/2-y,1/2-z
1/2-x,y,1/2-z
-x,-y,-z
1/2+x,1/2+y,-z
-x,1/2+y,1/2+z
1/2+x,-y,1/2+z
loop_
_atom_site_type_symbol
_atom_site_label
_atom_site_fract_x
_atom_site_fract_y
_atom_site_fract_z
Si Si1 0.970918 0.108335 0.677751
Si Si2 0.367399 0.323669 0.515163
Si Si3 0.440689 0.946422 0.371325
Si Si4 0.250000 0.750000 0.250000
Si Si5 0.250000 0.750000 0.932446
Si Si6 0.486370 0.383705 0.070365
O O1 0.789867 0.055743 0.649084
O O2 0.881428 0.193734 0.690470
O O3 0.114563 0.113356 0.593833
O O4 0.466593 0.085965 0.721129
O O5 0.250000 0.250000 0.550484
O O6 0.579450 0.295146 0.485865
O O7 0.236341 0.355326 0.432626
O O8 0.466735 0.895884 0.462308
O O9 0.507531 0.032744 0.387874
O O10 0.374336 0.681081 0.887963
#
# Coordination Sequence:
#
# PCOD9389946 Si02
#       6
#     8   8   8   2   4   8
#     4  10  19  34  54  80 119 157 179 235 294 330
#     4  10  21  32  58  85 113 150 190 222 283 351
#     4   9  20  35  53  78 120 148 185 234 286 341
#     4   8  18  28  54  68 116 156 166 210 292 348
#     4  10  19  38  55  82 117 149 184 244 283 337
#     4  10  20  36  55  82 111 152 194 228 281 349
#
# _framework density 21.457421
#
# number of rings (size 3 to 8) (size 9 to 14) (size 15 to 20)
#    0.000    2.526    2.105    0.632    8.842    1.684 
#    0.000    0.000    0.000    0.000    0.000   32.421 
#    0.000    0.000    0.000    0.000    0.000    0.000 
#
# Total GULP energy -211864.593535 kJ/mol
# GULP energy per Si atom -5575.384040 kJ/mol
# Density = 2.140858 g / cm^3
# Si number density = 21.457421 Si / 1000 Ang^3
#
#
#
# Elastic Constant Matrix: (Units=GPa)
#
#
# Indices 1 2 3 4 5 6 
#
# 1 94.4904 15.0984 4.9759 0.0000 0.0000 0.0000
# 2 15.0984 106.6440 9.7148 0.0000 0.0000 0.0000
# 3 4.9759 9.7148 14.4532 0.0000 0.0000 0.0000
# 4 0.0000 0.0000 0.0000 42.4182 0.0000 0.0000
# 5 0.0000 0.0000 0.0000 0.0000 13.8161 0.0000
# 6 0.0000 0.0000 0.0000 0.0000 0.0000 -1.9378
#
#
#
# Elastic Compliance Matrix: (Units=1/GPa)
#
#
# Indices 1 2 3 4 5 6 
#
# 1 0.010941 -0.001285 -0.002903 0.000000 0.000000 0.000000
# 2 -0.001285 0.010139 -0.006373 0.000000 0.000000 0.000000
# 3 -0.002903 -0.006373 0.074472 0.000000 0.000000 0.000000
# 4 0.000000 0.000000 0.000000 0.023575 0.000000 0.000000
# 5 0.000000 0.000000 0.000000 0.000000 0.072379 0.000000
# 6 0.000000 0.000000 0.000000 0.000000 0.000000 -0.516043
#
#
# Mechanical properties :
#
#
# Convention : Reuss Voigt Hill
#
# Bulk Modulus (GPa) = 13.43534 30.57400 22.00467
# Shear Modulus (GPa) = -17.94660 23.24586 2.64963
#
# Velocity S-wave (km/s) = -2.89516 3.29500 1.11244
# Velocity P-wave (km/s) = 2.21382 5.36243 3.45360
#
# Compressibility (1/GPa) = 0.07443058
#
# Stress axis : x y z
#
# Youngs Moduli (GPa) = 91.39739 98.62499 13.42788
#
# Poissons Ratio (x) = 0.12669 0.03899
# Poissons Ratio (y) = 0.11740 0.08558
# Poissons Ratio (z) = 0.26536 0.62854
#
# Static dielectric constant tensor:
#      x y z
#    x 1.846610 0.000000 0.000000 
#    y 0.000000 1.776760 0.000000 
#    z 0.000000 0.000000 1.761090 
# 
# From -- ./inp_files/29310.got.cif
#   From: 2010.05.17/outbox.cif.g08.bks.cpg/sg48_15_cif.got.tgz:29310.got - 2010.06.03 20:39:00.
