data_PCOD9389749
_publ_section_title
;
Structure prediction by ZEFSAII (Michael W. Deem and Ramdas Pophale) SiO2 
 PCOD9389749
Probable space group: P N N N
;
_chemical_formula_sum "Si O2"
_cell_formula_units_Z 64
_cell_length_a 9.117705
_cell_length_b 11.484561
_cell_length_c 30.266007
_cell_angle_alpha 90.000000
_cell_angle_beta 90.000000
_cell_angle_gamma 90.000000
_cell_volume 3169.239526
_symmetry_space_group_name_H-M "P N N N"
_symmetry_group_IT_number 48
_space_group.IT_coordinate_system_code '2'
_symmetry_cell_setting 'orthorhombic'
loop_
_space_group_symop_operation_xyz
x,y,z
1/2-x,1/2-y,z
x,1/2-y,1/2-z
1/2-x,y,1/2-z
-x,-y,-z
1/2+x,1/2+y,-z
-x,1/2+y,1/2+z
1/2+x,-y,1/2+z
loop_
_atom_site_type_symbol
_atom_site_label
_atom_site_fract_x
_atom_site_fract_y
_atom_site_fract_z
Si Si1 0.425623 0.233177 0.799380
Si Si2 0.086054 0.314610 0.607707
Si Si3 0.582245 0.740744 0.697370
Si Si4 0.750355 0.516451 0.508195
Si Si5 0.354338 0.859751 0.647025
Si Si6 0.069958 0.987562 0.655759
Si Si7 0.029946 0.936354 0.940009
Si Si8 0.013544 0.092698 0.561091
O O1 0.250000 0.250000 0.795751
O O2 0.487006 0.250000 0.750000
O O3 0.466652 0.314534 0.841290
O O4 0.460208 0.103474 0.816580
O O5 0.250000 0.250000 0.607863
O O6 0.059677 0.437539 0.583634
O O7 0.995124 0.221323 0.579735
O O8 0.750000 0.750000 0.683549
O O9 0.572876 0.750000 0.750000
O O10 0.489670 0.849160 0.679321
O O11 0.513184 0.622358 0.677070
O O12 0.857336 0.432577 0.480457
O O13 0.628833 0.449547 0.535707
O O14 0.653875 0.587303 0.472037
O O15 0.866448 0.579326 0.540862
O O16 0.250000 0.750000 0.655048
O O17 0.245427 0.966058 0.655585
O O18 0.419762 0.850020 0.598107
O O19 0.035828 0.010633 0.604140
#
# Coordination Sequence:
#
# PCOD9389749 Si02
#       8
#     8   8   8   8   8   8   8   8
#     4   9  18  31  57  95 118 150 196 235 293 363
#     4  10  18  35  57  82 121 151 184 237 300 345
#     4  10  24  42  61  89 120 160 209 247 312 371
#     4  10  22  37  59  81 120 151 205 239 289 358
#     4  10  21  39  61  88 121 157 198 255 301 354
#     4  10  20  38  63  87 126 157 198 255 298 359
#     4  11  21  39  56  91 118 153 196 248 298 345
#     4  10  20  40  59  85 116 161 192 241 300 351
#
# _framework density 20.194119000000001
#
# number of rings (size 3 to 8) (size 9 to 14) (size 15 to 20)
#    0.000    2.000    2.500    1.500    1.750    5.750 
#    4.500    2.500    0.000    0.000    0.000    0.875 
#    0.000    0.000    0.000    0.000    0.000    0.000 
#
# Total GULP energy -356730.780250 kJ/mol
# GULP energy per Si atom -5573.918441 kJ/mol
# Density = 2.014816 g / cm^3
# Si number density = 20.194119 Si / 1000 Ang^3
#
#
#
# Elastic Constant Matrix: (Units=GPa)
#
#
# Indices 1 2 3 4 5 6 
#
# 1 106.1216 10.6918 46.7876 0.0000 0.0000 0.0000
# 2 10.6918 39.9157 25.9182 0.0000 0.0000 0.0000
# 3 46.7876 25.9182 117.3881 0.0000 0.0000 0.0000
# 4 0.0000 0.0000 0.0000 19.2871 0.0000 0.0000
# 5 0.0000 0.0000 0.0000 0.0000 24.0568 0.0000
# 6 0.0000 0.0000 0.0000 0.0000 0.0000 7.0688
#
#
#
# Elastic Compliance Matrix: (Units=1/GPa)
#
#
# Indices 1 2 3 4 5 6 
#
# 1 0.011433 -0.000121 -0.004530 0.000000 0.000000 0.000000
# 2 -0.000121 0.029247 -0.006409 0.000000 0.000000 0.000000
# 3 -0.004530 -0.006409 0.011739 0.000000 0.000000 0.000000
# 4 0.000000 0.000000 0.000000 0.051848 0.000000 0.000000
# 5 0.000000 0.000000 0.000000 0.000000 0.041568 0.000000
# 6 0.000000 0.000000 0.000000 0.000000 0.000000 0.141468
#
#
# Mechanical properties :
#
#
# Convention : Reuss Voigt Hill
#
# Bulk Modulus (GPa) = 33.00488 47.80228 40.40358
# Shear Modulus (GPa) = 15.64834 22.08437 18.86636
#
# Velocity S-wave (km/s) = 2.78672 3.31056 3.05987
# Velocity P-wave (km/s) = 5.17046 6.19159 5.70392
#
# Compressibility (1/GPa) = 0.03029855
#
# Stress axis : x y z
#
# Youngs Moduli (GPa) = 87.46947 34.19166 85.18320
#
# Poissons Ratio (x) = 0.00413 0.38588
# Poissons Ratio (y) = 0.01057 0.54596
# Poissons Ratio (z) = 0.39624 0.21914
#
# Static dielectric constant tensor:
#      x y z
#    x 1.722290 0.000000 0.000000 
#    y 0.000000 1.776420 0.000000 
#    z 0.000000 0.000000 1.740550 
# 
# From -- ./inp_files/38847.got.cif
#   From: 2010.05.17/outbox.cif.g08.bks.cpg/sg48_20_cif.got.tgz:38847.got - 2010.06.03 20:39:00.
