data_PCOD9389658
_publ_section_title
;
Structure prediction by ZEFSAII (Michael W. Deem and Ramdas Pophale) SiO2 
 PCOD9389658
Probable space group: P N N N
;
_chemical_formula_sum "Si O2"
_cell_formula_units_Z 56
_cell_length_a 18.217805
_cell_length_b 12.256178
_cell_length_c 11.722485
_cell_angle_alpha 90.000000
_cell_angle_beta 90.000000
_cell_angle_gamma 90.000000
_cell_volume 2617.404198
_symmetry_space_group_name_H-M "P N N N"
_symmetry_group_IT_number 48
_space_group.IT_coordinate_system_code '2'
_symmetry_cell_setting 'orthorhombic'
loop_
_space_group_symop_operation_xyz
x,y,z
1/2-x,1/2-y,z
x,1/2-y,1/2-z
1/2-x,y,1/2-z
-x,-y,-z
1/2+x,1/2+y,-z
-x,1/2+y,1/2+z
1/2+x,-y,1/2+z
loop_
_atom_site_type_symbol
_atom_site_label
_atom_site_fract_x
_atom_site_fract_y
_atom_site_fract_z
Si Si1 0.841760 0.022199 0.484294
Si Si2 0.782274 0.635909 0.873266
Si Si3 0.440232 0.226692 0.096201
Si Si4 0.918361 0.684181 0.143252
Si Si5 0.414406 0.866874 0.208167
Si Si6 0.015121 0.467409 0.368572
Si Si7 0.583428 0.132882 0.195149
O O1 0.876844 0.077678 0.597912
O O2 0.846667 0.108174 0.383516
O O3 0.772035 0.960723 0.536927
O O4 0.883313 0.922773 0.416358
O O5 0.750000 0.750000 0.915239
O O6 0.750000 0.610957 0.750000
O O7 0.868658 0.663152 0.861579
O O8 0.455972 0.343711 0.149965
O O9 0.511800 0.150124 0.112021
O O10 0.424903 0.261094 0.966125
O O11 0.884570 0.750000 0.250000
O O12 0.001611 0.656804 0.174316
O O13 0.382285 0.750000 0.250000
O O14 0.426088 0.950725 0.312547
O O15 0.000000 0.500000 0.500000
O O16 0.940768 0.456358 0.290504
O O17 0.594621 0.250000 0.250000
#
# Coordination Sequence:
#
# PCOD9389658 Si02
#       7
#     8   8   8   8   8   8   8
#     4  11  21  39  60  87 133 173 207 278 337 391
#     4  10  24  37  61  90 121 167 227 266 323 384
#     4  10  21  36  56  87 133 168 210 268 327 404
#     4  10  18  31  53  86 125 166 205 247 321 406
#     4  11  21  31  53  85 127 169 214 248 324 411
#     4  11  21  31  51  88 130 170 205 257 332 404
#     4  10  21  34  60  92 130 174 205 257 357 421
#
# _framework density 21.395244000000002
#
# number of rings (size 3 to 8) (size 9 to 14) (size 15 to 20)
#    0.000    1.571    2.857    3.857   12.000    0.000 
#    0.000    0.000    0.000    7.286    0.000    0.000 
#    0.000    3.429    0.000    0.000    0.000    0.000 
#
# Total GULP energy -311745.348032 kJ/mol
# GULP energy per Si atom -5566.881215 kJ/mol
# Density = 2.134655 g / cm^3
# Si number density = 21.395244 Si / 1000 Ang^3
#
#
#
# Elastic Constant Matrix: (Units=GPa)
#
#
# Indices 1 2 3 4 5 6 
#
# 1 13.4845 3.9314 9.2834 0.0000 0.0000 0.0000
# 2 3.9314 91.2951 43.5260 0.0000 0.0000 0.0000
# 3 9.2834 43.5260 155.5598 0.0000 0.0000 0.0000
# 4 0.0000 0.0000 0.0000 43.8310 0.0000 0.0000
# 5 0.0000 0.0000 0.0000 0.0000 20.4589 0.0000
# 6 0.0000 0.0000 0.0000 0.0000 0.0000 17.0894
#
#
#
# Elastic Compliance Matrix: (Units=1/GPa)
#
#
# Indices 1 2 3 4 5 6 
#
# 1 0.077471 -0.001306 -0.004258 0.000000 0.000000 0.000000
# 2 -0.001306 0.012662 -0.003465 0.000000 0.000000 0.000000
# 3 -0.004258 -0.003465 0.007652 0.000000 0.000000 0.000000
# 4 0.000000 0.000000 0.000000 0.022815 0.000000 0.000000
# 5 0.000000 0.000000 0.000000 0.000000 0.048879 0.000000
# 6 0.000000 0.000000 0.000000 0.000000 0.000000 0.058516
#
#
# Mechanical properties :
#
#
# Convention : Reuss Voigt Hill
#
# Bulk Modulus (GPa) = 12.54276 41.53565 27.03921
# Shear Modulus (GPa) = 18.34006 29.84910 24.09458
#
# Velocity S-wave (km/s) = 2.93098 3.73919 3.35948
# Velocity P-wave (km/s) = 4.16285 6.17234 5.26436
#
# Compressibility (1/GPa) = 0.07972726
#
# Stress axis : x y z
#
# Youngs Moduli (GPa) = 12.90803 78.97882 130.68567
#
# Poissons Ratio (x) = 0.10316 0.55643
# Poissons Ratio (y) = 0.01686 0.45280
# Poissons Ratio (z) = 0.05496 0.27365
#
# Static dielectric constant tensor:
#      x y z
#    x 1.788330 0.000000 0.000000 
#    y 0.000000 1.903340 0.000000 
#    z 0.000000 0.000000 1.900950 
# 
# From -- ./inp_files/22900.got.cif
#   From: 2010.05.17/outbox.cif.g08.bks.cpg/sg48_12_cif.got.tgz:22900.got - 2010.06.03 20:39:00.
