data_PCOD9389724
_publ_section_title
;
Structure prediction by ZEFSAII (Michael W. Deem and Ramdas Pophale) SiO2 
 PCOD9389724
Probable space group: P N N N
;
_chemical_formula_sum "Si O2"
_cell_formula_units_Z 48
_cell_length_a 19.827749
_cell_length_b 9.058338
_cell_length_c 11.396424
_cell_angle_alpha 90.000000
_cell_angle_beta 90.000000
_cell_angle_gamma 90.000000
_cell_volume 2046.871283
_symmetry_space_group_name_H-M "P N N N"
_symmetry_group_IT_number 48
_space_group.IT_coordinate_system_code '2'
_symmetry_cell_setting 'orthorhombic'
loop_
_space_group_symop_operation_xyz
x,y,z
1/2-x,1/2-y,z
x,1/2-y,1/2-z
1/2-x,y,1/2-z
-x,-y,-z
1/2+x,1/2+y,-z
-x,1/2+y,1/2+z
1/2+x,-y,1/2+z
loop_
_atom_site_type_symbol
_atom_site_label
_atom_site_fract_x
_atom_site_fract_y
_atom_site_fract_z
Si Si1 0.816800 0.168622 0.125949
Si Si2 0.172938 0.390262 0.499630
Si Si3 0.421303 0.641595 0.531506
Si Si4 0.815758 0.571924 0.918303
Si Si5 0.417540 0.403499 0.210708
Si Si6 0.478710 0.113205 0.823509
O O1 0.750000 0.250000 0.072017
O O2 0.820012 0.250000 0.250000
O O3 0.888199 0.206865 0.068088
O O4 0.814567 0.991809 0.113260
O O5 0.175460 0.213128 0.505550
O O6 0.235834 0.444367 0.418054
O O7 0.105792 0.412765 0.422882
O O8 0.360137 0.561699 0.463909
O O9 0.435037 0.527863 0.637787
O O10 0.485832 0.658179 0.447356
O O11 0.851517 0.603922 0.794973
O O12 0.453674 0.250000 0.250000
O O13 0.461885 0.543123 0.245016
O O14 0.449132 0.250000 0.750000
#
# Coordination Sequence:
#
# PCOD9389724 Si02
#       6
#     8   8   8   8   8   8
#     4  11  23  38  56  79 113 156 203 249 297 347
#     4  10  18  34  59  84 116 148 187 248 305 363
#     4  10  21  39  57  80 119 156 193 250 296 349
#     4   9  18  33  57  87 115 148 187 236 312 370
#     4   9  18  33  57  89 118 145 186 241 304 370
#     4  10  21  37  59  84 116 159 200 237 293 362
#
# _framework density 23.450424999999999
#
# number of rings (size 3 to 8) (size 9 to 14) (size 15 to 20)
#    0.000    2.167    1.667    1.500    0.000    4.000 
#    0.000    0.000    0.000   10.000    0.000    0.000 
#    0.000    0.000    0.000    0.000    0.000    0.000 
#
# Total GULP energy -267450.029770 kJ/mol
# GULP energy per Si atom -5571.875620 kJ/mol
# Density = 2.339705 g / cm^3
# Si number density = 23.450425 Si / 1000 Ang^3
#
#
#
# Elastic Constant Matrix: (Units=GPa)
#
#
# Indices 1 2 3 4 5 6 
#
# 1 30.8261 -5.1232 -5.9321 0.0000 0.0000 0.0000
# 2 -5.1232 71.2210 31.0575 0.0000 0.0000 0.0000
# 3 -5.9321 31.0575 45.0962 0.0000 0.0000 0.0000
# 4 0.0000 0.0000 0.0000 30.4963 0.0000 0.0000
# 5 0.0000 0.0000 0.0000 0.0000 7.4908 0.0000
# 6 0.0000 0.0000 0.0000 0.0000 0.0000 16.3209
#
#
#
# Elastic Compliance Matrix: (Units=1/GPa)
#
#
# Indices 1 2 3 4 5 6 
#
# 1 0.033307 0.000694 0.003904 0.000000 0.000000 0.000000
# 2 0.000694 0.020082 -0.013739 0.000000 0.000000 0.000000
# 3 0.003904 -0.013739 0.032150 0.000000 0.000000 0.000000
# 4 0.000000 0.000000 0.000000 0.032791 0.000000 0.000000
# 5 0.000000 0.000000 0.000000 0.000000 0.133497 0.000000
# 6 0.000000 0.000000 0.000000 0.000000 0.000000 0.061271
#
#
# Mechanical properties :
#
#
# Convention : Reuss Voigt Hill
#
# Bulk Modulus (GPa) = 14.86876 20.79418 17.83147
# Shear Modulus (GPa) = 14.13227 19.33767 16.73497
#
# Velocity S-wave (km/s) = 2.45755 2.87473 2.67429
# Velocity P-wave (km/s) = 3.79565 4.46154 4.14200
#
# Compressibility (1/GPa) = 0.06725509
#
# Stress axis : x y z
#
# Youngs Moduli (GPa) = 30.02412 49.79598 31.10382
#
# Poissons Ratio (x) = -0.03454 -0.12142
# Poissons Ratio (y) = -0.02082 0.42734
# Poissons Ratio (z) = -0.11720 0.68415
#
# Static dielectric constant tensor:
#      x y z
#    x 1.920140 0.000000 0.000000 
#    y 0.000000 1.917640 0.000000 
#    z 0.000000 0.000000 1.942050 
# 
# From -- ./inp_files/18821.got.cif
#   From: 2010.05.17/outbox.cif.g08.bks.cpg/sg48_10_cif.got.tgz:18821.got - 2010.06.03 20:39:00.
