data_PCOD9389911
_publ_section_title
;
Structure prediction by ZEFSAII (Michael W. Deem and Ramdas Pophale) SiO2 
 PCOD9389911
Probable space group: P N N N
;
_chemical_formula_sum "Si O2"
_cell_formula_units_Z 58
_cell_length_a 20.035686
_cell_length_b 5.041634
_cell_length_c 30.917999
_cell_angle_alpha 90.000000
_cell_angle_beta 90.000000
_cell_angle_gamma 90.000000
_cell_volume 3123.107334
_symmetry_space_group_name_H-M "P N N N"
_symmetry_group_IT_number 48
_space_group.IT_coordinate_system_code '2'
_symmetry_cell_setting 'orthorhombic'
loop_
_space_group_symop_operation_xyz
x,y,z
1/2-x,1/2-y,z
x,1/2-y,1/2-z
1/2-x,y,1/2-z
-x,-y,-z
1/2+x,1/2+y,-z
-x,1/2+y,1/2+z
1/2+x,-y,1/2+z
loop_
_atom_site_type_symbol
_atom_site_label
_atom_site_fract_x
_atom_site_fract_y
_atom_site_fract_z
Si Si1 0.203330 0.505030 0.040428
Si Si2 0.750000 0.750000 0.750000
Si Si3 0.642146 0.402564 0.629298
Si Si4 0.343274 0.100190 0.319611
Si Si5 0.463560 0.268702 0.553864
Si Si6 0.500919 0.367976 0.202239
Si Si7 0.584289 0.274743 0.006051
Si Si8 0.015309 0.367769 0.849962
O O1 0.250000 0.750000 0.052347
O O2 0.157885 0.471956 0.082892
O O3 0.250000 0.250000 0.030645
O O4 0.153548 0.629335 0.004727
O O5 0.702187 0.935564 0.721620
O O6 0.672474 0.607935 0.663086
O O7 0.563096 0.387254 0.637606
O O8 0.667014 0.111052 0.642124
O O9 0.420898 0.106796 0.305370
O O10 0.538193 0.191447 0.536981
O O11 0.453364 0.567816 0.537193
O O12 0.453314 0.270307 0.605077
O O13 0.415502 0.060196 0.529148
O O14 0.511953 0.250000 0.250000
O O15 0.526324 0.657562 0.188518
O O16 0.531067 0.158177 0.168029
#
# Coordination Sequence:
#
# PCOD9389911 Si02
#       8
#     8   2   8   8   8   8   8   8
#     4  12  24  37  54  74 104 139 171 207 266 332
#     4  12  24  38  48  62  84 122 188 210 288 294
#     4  10  22  38  48  69  92 122 168 217 267 311
#     4  10  23  34  49  61  87 121 165 223 262 312
#     4  10  19  35  56  77 100 128 171 225 268 306
#     4  10  19  34  47  71  96 129 161 210 264 320
#     4  10  21  35  53  78 104 129 169 219 269 309
#     4  10  19  33  56  71  97 126 172 212 270 315
#
# _framework density 18.571249000000002
#
# number of rings (size 3 to 8) (size 9 to 14) (size 15 to 20)
#    0.000    1.655    2.069    2.897    2.897    1.103 
#    0.000    0.000    0.000    0.000    0.000    0.000 
#    0.000    0.000    0.000    0.000    0.000  144.828 
#
# Total GULP energy -323433.890516 kJ/mol
# GULP energy per Si atom -5576.446388 kJ/mol
# Density = 1.852898 g / cm^3
# Si number density = 18.571249 Si / 1000 Ang^3
#
#
#
# Elastic Constant Matrix: (Units=GPa)
#
#
# Indices 1 2 3 4 5 6 
#
# 1 17.5765 4.8671 5.4520 0.0000 0.0000 0.0000
# 2 4.8671 87.3280 5.4276 0.0000 0.0000 0.0000
# 3 5.4520 5.4276 66.2569 0.0000 0.0000 0.0000
# 4 0.0000 0.0000 0.0000 20.9573 0.0000 0.0000
# 5 0.0000 0.0000 0.0000 0.0000 10.8051 0.0000
# 6 0.0000 0.0000 0.0000 0.0000 0.0000 19.2532
#
#
#
# Elastic Compliance Matrix: (Units=1/GPa)
#
#
# Indices 1 2 3 4 5 6 
#
# 1 0.059161 -0.003010 -0.004622 0.000000 0.000000 0.000000
# 2 -0.003010 0.011663 -0.000708 0.000000 0.000000 0.000000
# 3 -0.004622 -0.000708 0.015531 0.000000 0.000000 0.000000
# 4 0.000000 0.000000 0.000000 0.047716 0.000000 0.000000
# 5 0.000000 0.000000 0.000000 0.000000 0.092549 0.000000
# 6 0.000000 0.000000 0.000000 0.000000 0.000000 0.051939
#
#
# Mechanical properties :
#
#
# Convention : Reuss Voigt Hill
#
# Bulk Modulus (GPa) = 14.35204 22.51720 18.43462
# Shear Modulus (GPa) = 15.70039 20.56410 18.13225
#
# Velocity S-wave (km/s) = 2.91075 3.33123 3.12807
# Velocity P-wave (km/s) = 4.36366 5.19107 4.79525
#
# Compressibility (1/GPa) = 0.06967650
#
# Stress axis : x y z
#
# Youngs Moduli (GPa) = 16.90297 85.74254 64.38726
#
# Poissons Ratio (x) = 0.25809 0.29757
# Poissons Ratio (y) = 0.05088 0.04557
# Poissons Ratio (z) = 0.07812 0.06068
#
# Static dielectric constant tensor:
#      x y z
#    x 1.668870 0.000000 0.000000 
#    y 0.000000 1.651370 0.000000 
#    z 0.000000 0.000000 1.698850 
# 
# From -- ./inp_files/39163.got.cif
#   From: 2010.05.17/outbox.cif.g08.bks.cpg/sg48_20_cif.got.tgz:39163.got - 2010.06.03 20:39:00.
