data_PCOD9389494
_publ_section_title
;
Structure prediction by ZEFSAII (Michael W. Deem and Ramdas Pophale) SiO2 
 PCOD9389494
Probable space group: P N N N
;
_chemical_formula_sum "Si O2"
_cell_formula_units_Z 48
_cell_length_a 12.331750
_cell_length_b 5.139983
_cell_length_c 30.059385
_cell_angle_alpha 90.000000
_cell_angle_beta 90.000000
_cell_angle_gamma 90.000000
_cell_volume 1905.313678
_symmetry_space_group_name_H-M "P N N N"
_symmetry_group_IT_number 48
_space_group.IT_coordinate_system_code '2'
_symmetry_cell_setting 'orthorhombic'
loop_
_space_group_symop_operation_xyz
x,y,z
1/2-x,1/2-y,z
x,1/2-y,1/2-z
1/2-x,y,1/2-z
-x,-y,-z
1/2+x,1/2+y,-z
-x,1/2+y,1/2+z
1/2+x,-y,1/2+z
loop_
_atom_site_type_symbol
_atom_site_label
_atom_site_fract_x
_atom_site_fract_y
_atom_site_fract_z
Si Si1 0.439493 0.498071 0.719422
Si Si2 0.409667 0.596389 0.619107
Si Si3 0.384988 0.387752 0.937879
Si Si4 0.697059 0.009910 0.798853
Si Si5 0.639450 0.854024 0.918249
Si Si6 0.886826 0.340330 0.525880
O O1 0.408966 0.250000 0.750000
O O2 0.385053 0.540740 0.670930
O O3 0.568878 0.476620 0.708478
O O4 0.423244 0.750000 0.750000
O O5 0.393098 0.891952 0.601403
O O6 0.540520 0.556348 0.612543
O O7 0.352472 0.380188 0.587544
O O8 0.341460 0.564588 0.978671
O O9 0.485342 0.267098 0.968101
O O10 0.750000 0.250000 0.825034
O O11 0.750000 0.016930 0.750000
O O12 0.750000 0.750000 0.815907
O O13 0.750000 0.750000 0.898567
O O14 0.604097 0.596640 0.943876
O O15 0.665684 0.085806 0.952312
#
# Coordination Sequence:
#
# PCOD9389494 Si02
#       6
#     8   8   8   8   8   8
#     4  12  21  32  45  59  83 117 162 201 244 281
#     4  10  21  32  46  66  91 119 158 214 240 266
#     4   9  17  33  49  69  84 111 163 196 237 276
#     4  10  16  29  41  53  68  98 148 199 216 274
#     4  10  19  32  45  72 100 122 150 187 245 290
#     4   9  17  30  53  66  89 122 148 191 230 293
#
# _framework density 25.192703999999999
#
# number of rings (size 3 to 8) (size 9 to 14) (size 15 to 20)
#    0.000    2.000    3.333    2.500    0.000    4.667 
#    0.000    3.333    0.000    0.000    0.000    0.000 
#    0.000    0.000    0.000    0.000    0.000  175.000 
#
# Total GULP energy -267303.694468 kJ/mol
# GULP energy per Si atom -5568.826968 kJ/mol
# Density = 2.513536 g / cm^3
# Si number density = 25.192704 Si / 1000 Ang^3
#
#
#
# Elastic Constant Matrix: (Units=GPa)
#
#
# Indices 1 2 3 4 5 6 
#
# 1 32.0776 6.8172 4.0183 0.0000 0.0000 0.0000
# 2 6.8172 199.6318 53.4966 0.0000 0.0000 0.0000
# 3 4.0183 53.4966 177.3001 0.0000 0.0000 0.0000
# 4 0.0000 0.0000 0.0000 -153.7752 0.0000 0.0000
# 5 0.0000 0.0000 0.0000 0.0000 -29.5825 0.0000
# 6 0.0000 0.0000 0.0000 0.0000 0.0000 31.5707
#
#
#
# Elastic Compliance Matrix: (Units=1/GPa)
#
#
# Indices 1 2 3 4 5 6 
#
# 1 0.031431 -0.000960 -0.000423 0.000000 0.000000 0.000000
# 2 -0.000960 0.005479 -0.001631 0.000000 0.000000 0.000000
# 3 -0.000423 -0.001631 0.006142 0.000000 0.000000 0.000000
# 4 0.000000 0.000000 0.000000 -0.006503 0.000000 0.000000
# 5 0.000000 0.000000 0.000000 0.000000 -0.033804 0.000000
# 6 0.000000 0.000000 0.000000 0.000000 0.000000 0.031675
#
#
# Mechanical properties :
#
#
# Convention : Reuss Voigt Hill
#
# Bulk Modulus (GPa) = 27.00939 59.74151 43.37545
# Shear Modulus (GPa) = 94.71380 -7.37890 43.66745
#
# Velocity S-wave (km/s) = 6.13819 -1.71328 4.16785
# Velocity P-wave (km/s) = 7.80902 4.45550 6.35737
#
# Compressibility (1/GPa) = 0.03702416
#
# Stress axis : x y z
#
# Youngs Moduli (GPa) = 31.81531 182.50820 162.81347
#
# Poissons Ratio (x) = 0.17522 0.06882
# Poissons Ratio (y) = 0.03055 0.26563
# Poissons Ratio (z) = 0.01345 0.29776
#
# Static dielectric constant tensor:
#      x y z
#    x 2.378300 0.000000 0.000000 
#    y 0.000000 1.951900 0.000000 
#    z 0.000000 0.000000 1.964840 
# 
# From -- ./inp_files/37980.got.cif
#   From: 2010.05.17/outbox.cif.g08.bks.cpg/sg48_19_cif.got.tgz:37980.got - 2010.06.03 20:39:00.
