data_PCOD9389283
_publ_section_title
;
Structure prediction by ZEFSAII (Michael W. Deem and Ramdas Pophale) SiO2 
 PCOD9389283
Probable space group: P M M M
;
_chemical_formula_sum "Si O2"
_cell_formula_units_Z 52
_cell_length_a 21.000000
_cell_length_b 9.000000
_cell_length_c 15.000000
_cell_angle_alpha 90.000000
_cell_angle_beta 90.000000
_cell_angle_gamma 90.000000
_cell_volume 2835.000000
_symmetry_space_group_name_H-M "P M M M"
_symmetry_group_IT_number 47
_symmetry_cell_setting 'orthorhombic'
loop_
_space_group_symop_operation_xyz
x,y,z
-x,-y,z
x,-y,-z
-x,y,-z
-x,-y,-z
x,y,-z
-x,y,z
x,-y,z
loop_
_atom_site_type_symbol
_atom_site_label
_atom_site_fract_x
_atom_site_fract_y
_atom_site_fract_z
Si Si1 0.426279 0.181232 0.247064
Si Si2 0.074722 0.319451 0.000000
Si Si3 0.803236 0.670666 0.338034
Si Si4 0.069264 0.831147 0.393595
Si Si5 0.675357 0.175207 0.100026
Si Si6 0.811396 0.672285 0.126759
Si Si7 0.328263 0.821060 0.397556
O O1 0.500000 0.231703 0.241617
O O2 0.377699 0.232084 0.169150
O O3 0.388484 0.223025 0.337060
O O4 0.428517 0.000000 0.243131
O O5 0.121877 0.275650 0.917668
O O6 0.070285 0.500000 0.000000
O O7 0.000000 0.267445 0.000000
O O8 0.796209 0.500000 0.366113
O O9 0.867820 0.738905 0.375854
O O10 0.813686 0.678654 0.232549
O O11 0.738588 0.755610 0.363317
O O12 0.064859 0.840209 0.500000
O O13 0.000000 0.773023 0.361052
O O14 0.076890 0.000000 0.359116
O O15 0.745762 0.245256 0.102998
O O16 0.683830 0.000000 0.118607
O O17 0.650322 0.193054 0.000000
O O18 0.804009 0.500000 0.100538
O O19 0.337313 0.777886 0.500000
O O20 0.323316 0.000000 0.392613
#
# Coordination Sequence:
#
# PCOD9389283 Si02
#       7
#     8   4   8   8   8   8   8
#     4   9  18  33  53  80 112 141 174 221 270 317
#     4   9  18  34  55  77 102 135 176 218 259 309
#     4  11  22  33  51  80 108 136 177 226 270 315
#     4   9  19  36  55  74 100 137 177 215 262 320
#     4  10  19  32  55  83 108 138 173 214 265 321
#     4  10  20  34  54  77 102 140 179 214 258 314
#     4  10  20  34  54  78 105 143 185 223 269 324
#
# _framework density 18.342151999999999
#
# number of rings (size 3 to 8) (size 9 to 14) (size 15 to 20)
#    0.000    2.231    2.308    1.385    0.000    4.615 
#    0.000    5.385    0.000    2.769    0.000    2.154 
#    0.000    0.000    0.000    0.000    0.000    0.000 
#
# Total GULP energy -289549.383274 kJ/mol
# GULP energy per Si atom -5568.257371 kJ/mol
# Density = 1.830040 g / cm^3
# Si number density = 18.342152 Si / 1000 Ang^3
#
#
#
# Elastic Constant Matrix: (Units=GPa)
#
#
# Indices 1 2 3 4 5 6 
#
# 1 200.4882 33.4630 76.6278 0.0000 0.0000 0.0000
# 2 33.4630 15.7993 32.6574 0.0000 0.0000 0.0000
# 3 76.6278 32.6574 89.7630 0.0000 0.0000 0.0000
# 4 0.0000 0.0000 0.0000 8.1292 0.0000 0.0000
# 5 0.0000 0.0000 0.0000 0.0000 30.8772 0.0000
# 6 0.0000 0.0000 0.0000 0.0000 0.0000 8.5764
#
#
#
# Elastic Compliance Matrix: (Units=1/GPa)
#
#
# Indices 1 2 3 4 5 6 
#
# 1 0.007867 -0.011213 -0.002636 0.000000 0.000000 0.000000
# 2 -0.011213 0.271222 -0.089103 0.000000 0.000000 0.000000
# 3 -0.002636 -0.089103 0.045808 0.000000 0.000000 0.000000
# 4 0.000000 0.000000 0.000000 0.123013 0.000000 0.000000
# 5 0.000000 0.000000 0.000000 0.000000 0.032386 0.000000
# 6 0.000000 0.000000 0.000000 0.000000 0.000000 0.116599
#
#
# Mechanical properties :
#
#
# Convention : Reuss Voigt Hill
#
# Bulk Modulus (GPa) = 8.40393 65.72741 37.06567
# Shear Modulus (GPa) = 5.93497 20.40339 13.16918
#
# Velocity S-wave (km/s) = 1.80076 3.33885 2.68241
# Velocity P-wave (km/s) = 2.98586 7.12571 5.46311
#
# Compressibility (1/GPa) = 0.11899196
#
# Stress axis : x y z
#
# Youngs Moduli (GPa) = 127.11381 3.68702 21.83014
#
# Poissons Ratio (x) = 0.04134 0.05755
# Poissons Ratio (y) = 1.42535 1.94513
# Poissons Ratio (z) = 0.33510 0.32852
#
# Static dielectric constant tensor:
#      x y z
#    x 1.612700 0.000000 0.000000 
#    y 0.000000 1.645990 0.000000 
#    z 0.000000 0.000000 1.826920 
# 
# From -- ./inp_files/25034.got.cif
#   From: 2010.05.17/outbox.ucp.g08.bks.cvg/sg47_13_cif.got.tgz:25034.got - 2010.06.11 16:36:43.
