data_PCOD9389519
_publ_section_title
;
Structure prediction by ZEFSAII (Michael W. Deem and Ramdas Pophale) SiO2 
 PCOD9389519
Probable space group: P N N N
;
_chemical_formula_sum "Si O2"
_cell_formula_units_Z 44
_cell_length_a 24.924058
_cell_length_b 5.051681
_cell_length_c 17.057346
_cell_angle_alpha 90.000000
_cell_angle_beta 90.000000
_cell_angle_gamma 90.000000
_cell_volume 2147.662977
_symmetry_space_group_name_H-M "P N N N"
_symmetry_group_IT_number 48
_space_group.IT_coordinate_system_code '2'
_symmetry_cell_setting 'orthorhombic'
loop_
_space_group_symop_operation_xyz
x,y,z
1/2-x,1/2-y,z
x,1/2-y,1/2-z
1/2-x,y,1/2-z
-x,-y,-z
1/2+x,1/2+y,-z
-x,1/2+y,1/2+z
1/2+x,-y,1/2+z
loop_
_atom_site_type_symbol
_atom_site_label
_atom_site_fract_x
_atom_site_fract_y
_atom_site_fract_z
Si Si1 0.451859 0.726137 0.619616
Si Si2 0.414138 0.445957 0.029638
Si Si3 0.329604 0.662520 0.663466
Si Si4 0.693734 0.843708 0.436082
Si Si5 0.551259 0.506370 0.802580
Si Si6 0.500000 0.000000 0.000000
O O1 0.393824 0.700500 0.655957
O O2 0.479079 0.453682 0.593821
O O3 0.443251 0.836094 0.528228
O O4 0.491865 0.900369 0.669529
O O5 0.414400 0.543973 0.118515
O O6 0.357163 0.364240 0.993563
O O7 0.451837 0.192062 0.030945
O O8 0.313182 0.750000 0.750000
O O9 0.317497 0.367857 0.633674
O O10 0.303889 0.869823 0.603314
O O11 0.750000 0.750000 0.472331
O O12 0.548870 0.250000 0.750000
O O13 0.572710 0.750000 0.750000
#
# Coordination Sequence:
#
# PCOD9389519 Si02
#       6
#     8   8   8   8   8   4
#     4  10  22  35  59  84 124 165 204 243 289 372
#     4  10  23  38  62  85 122 162 206 252 302 366
#     4  11  23  39  59  92 127 163 203 256 311 359
#     4  11  24  42  64  88 116 163 219 259 301 365
#     4  11  25  36  57  90 127 158 195 247 311 372
#     4  10  16  34  58  80 114 152 202 238 290 352
#
# _framework density 20.487385
#
# number of rings (size 3 to 8) (size 9 to 14) (size 15 to 20)
#    0.000    1.455    1.818    3.818   10.182    5.091 
#    0.000    0.000    0.000    0.545    0.000    1.273 
#    0.000    0.000    0.000    0.000    0.000    0.000 
#
# Total GULP energy -245101.515969 kJ/mol
# GULP energy per Si atom -5570.488999 kJ/mol
# Density = 2.044075 g / cm^3
# Si number density = 20.487385 Si / 1000 Ang^3
#
#
#
# Elastic Constant Matrix: (Units=GPa)
#
#
# Indices 1 2 3 4 5 6 
#
# 1 113.8724 -6.6807 33.4341 0.0000 0.0000 0.0000
# 2 -6.6807 62.7791 28.8413 0.0000 0.0000 0.0000
# 3 33.4341 28.8413 121.8244 0.0000 0.0000 0.0000
# 4 0.0000 0.0000 0.0000 43.8469 0.0000 0.0000
# 5 0.0000 0.0000 0.0000 0.0000 -3.2892 0.0000
# 6 0.0000 0.0000 0.0000 0.0000 0.0000 12.2968
#
#
#
# Elastic Compliance Matrix: (Units=1/GPa)
#
#
# Indices 1 2 3 4 5 6 
#
# 1 0.009912 0.002586 -0.003332 0.000000 0.000000 0.000000
# 2 0.002586 0.018547 -0.005101 0.000000 0.000000 0.000000
# 3 -0.003332 -0.005101 0.010331 0.000000 0.000000 0.000000
# 4 0.000000 0.000000 0.000000 0.022807 0.000000 0.000000
# 5 0.000000 0.000000 0.000000 0.000000 -0.304023 0.000000
# 6 0.000000 0.000000 0.000000 0.000000 0.000000 0.081322
#
#
# Mechanical properties :
#
#
# Convention : Reuss Voigt Hill
#
# Bulk Modulus (GPa) = 36.90688 45.51837 41.21262
# Shear Modulus (GPa) = -35.61793 26.76298 -4.42747
#
# Velocity S-wave (km/s) = -4.17409 3.61822 -1.47165
# Velocity P-wave (km/s) = 2.27534 6.30249 4.15597
#
# Compressibility (1/GPa) = 0.02709522
#
# Stress axis : x y z
#
# Youngs Moduli (GPa) = 100.88881 53.91619 96.79922
#
# Poissons Ratio (x) = -0.13941 0.32258
# Poissons Ratio (y) = -0.26087 0.49374
# Poissons Ratio (z) = 0.33621 0.27501
#
# Static dielectric constant tensor:
#      x y z
#    x 1.740190 0.000000 0.000000 
#    y 0.000000 1.778470 0.000000 
#    z 0.000000 0.000000 1.794580 
# 
# From -- ./inp_files/28718.got.cif
#   From: 2010.05.17/outbox.cif.g08.bks.cpg/sg48_15_cif.got.tgz:28718.got - 2010.06.03 20:39:00.
