data_PCOD9389665
_publ_section_title
;
Structure prediction by ZEFSAII (Michael W. Deem and Ramdas Pophale) SiO2 
 PCOD9389665
Probable space group: P N N N
;
_chemical_formula_sum "Si O2"
_cell_formula_units_Z 58
_cell_length_a 18.546120
_cell_length_b 16.643273
_cell_length_c 8.109391
_cell_angle_alpha 90.000000
_cell_angle_beta 90.000000
_cell_angle_gamma 90.000000
_cell_volume 2503.110622
_symmetry_space_group_name_H-M "P N N N"
_symmetry_group_IT_number 48
_space_group.IT_coordinate_system_code '2'
_symmetry_cell_setting 'orthorhombic'
loop_
_space_group_symop_operation_xyz
x,y,z
1/2-x,1/2-y,z
x,1/2-y,1/2-z
1/2-x,y,1/2-z
-x,-y,-z
1/2+x,1/2+y,-z
-x,1/2+y,1/2+z
1/2+x,-y,1/2+z
loop_
_atom_site_type_symbol
_atom_site_label
_atom_site_fract_x
_atom_site_fract_y
_atom_site_fract_z
Si Si1 0.539007 0.415715 0.047819
Si Si2 0.250000 0.750000 0.250000
Si Si3 0.773904 0.882972 0.064762
Si Si4 0.578207 0.680402 0.042622
Si Si5 0.144975 0.043930 0.425858
Si Si6 0.125783 0.881912 0.278016
Si Si7 0.971675 0.639989 0.094559
Si Si8 0.325357 0.956369 0.732383
O O1 0.471259 0.361410 0.091771
O O2 0.585926 0.375708 0.898820
O O3 0.500000 0.500000 0.000000
O O4 0.599322 0.419709 0.185150
O O5 0.189548 0.817547 0.310626
O O6 0.750000 0.856872 0.250000
O O7 0.838229 0.827010 0.008348
O O8 0.708193 0.890286 0.937875
O O9 0.808672 0.971685 0.101465
O O10 0.550792 0.769717 0.057735
O O11 0.561027 0.632831 0.216930
O O12 0.067846 0.082083 0.466065
O O13 0.149589 0.975470 0.288637
O O14 0.162802 0.995420 0.591990
O O15 0.057343 0.870779 0.398786
O O16 0.250000 0.907894 0.750000
#
# Coordination Sequence:
#
# PCOD9389665 Si02
#       8
#     8   2   8   8   8   8   8   8
#     4  11  20  36  63  92 118 168 215 263 316 391
#     4  12  28  44  60  98 136 164 216 278 352 404
#     4   9  16  31  51  92 123 154 196 253 311 366
#     4  10  18  31  56  87 128 157 205 259 310 372
#     4  10  20  38  61  90 125 157 206 259 313 382
#     4  11  25  40  64  88 123 166 206 267 323 383
#     4  10  19  36  55  89 122 163 206 258 315 369
#     4   9  18  33  56  89 119 151 211 259 304 372
#
# _framework density 23.171171000000001
#
# number of rings (size 3 to 8) (size 9 to 14) (size 15 to 20)
#    0.000    2.207    4.138    2.897    3.862    0.552 
#    0.000    0.000    0.000    8.276    0.000    0.000 
#    0.000    0.000    0.000    0.000    0.000    0.000 
#
# Total GULP energy -323231.468911 kJ/mol
# GULP energy per Si atom -5572.956361 kJ/mol
# Density = 2.311843 g / cm^3
# Si number density = 23.171171 Si / 1000 Ang^3
#
#
#
# Elastic Constant Matrix: (Units=GPa)
#
#
# Indices 1 2 3 4 5 6 
#
# 1 194.3929 45.9938 18.1359 0.0000 0.0000 0.0000
# 2 45.9938 48.8118 8.0029 0.0000 0.0000 0.0000
# 3 18.1359 8.0029 32.4083 0.0000 0.0000 0.0000
# 4 0.0000 0.0000 0.0000 14.1983 0.0000 0.0000
# 5 0.0000 0.0000 0.0000 0.0000 17.2165 0.0000
# 6 0.0000 0.0000 0.0000 0.0000 0.0000 23.0105
#
#
#
# Elastic Compliance Matrix: (Units=1/GPa)
#
#
# Indices 1 2 3 4 5 6 
#
# 1 0.006782 -0.006012 -0.002311 0.000000 0.000000 0.000000
# 2 -0.006012 0.026680 -0.003224 0.000000 0.000000 0.000000
# 3 -0.002311 -0.003224 0.032946 0.000000 0.000000 0.000000
# 4 0.000000 0.000000 0.000000 0.070431 0.000000 0.000000
# 5 0.000000 0.000000 0.000000 0.000000 0.058084 0.000000
# 6 0.000000 0.000000 0.000000 0.000000 0.000000 0.043458
#
#
# Mechanical properties :
#
#
# Convention : Reuss Voigt Hill
#
# Bulk Modulus (GPa) = 23.08694 46.65311 34.87003
# Shear Modulus (GPa) = 18.12164 24.45041 21.28602
#
# Velocity S-wave (km/s) = 2.79960 3.25192 3.03420
# Velocity P-wave (km/s) = 4.52058 5.85473 5.23036
#
# Compressibility (1/GPa) = 0.04331453
#
# Stress axis : x y z
#
# Youngs Moduli (GPa) = 147.44442 37.48096 30.35305
#
# Poissons Ratio (x) = 0.22533 0.07014
# Poissons Ratio (y) = 0.88641 0.09786
# Poissons Ratio (z) = 0.34072 0.12084
#
# Static dielectric constant tensor:
#      x y z
#    x 1.953160 0.000000 0.000000 
#    y 0.000000 1.961800 0.000000 
#    z 0.000000 0.000000 1.966950 
# 
# From -- ./inp_files/14443.got.cif
#   From: 2010.05.17/outbox.cif.g08.bks.cpg/sg48_8_cif.got.tgz:14443.got - 2010.06.03 20:39:00.
