data_PCOD9389870
_publ_section_title
;
Structure prediction by ZEFSAII (Michael W. Deem and Ramdas Pophale) SiO2 
 PCOD9389870
Probable space group: P N N N
;
_chemical_formula_sum "Si O2"
_cell_formula_units_Z 48
_cell_length_a 8.847972
_cell_length_b 16.374659
_cell_length_c 16.996151
_cell_angle_alpha 90.000000
_cell_angle_beta 90.000000
_cell_angle_gamma 90.000000
_cell_volume 2462.445261
_symmetry_space_group_name_H-M "P N N N"
_symmetry_group_IT_number 48
_space_group.IT_coordinate_system_code '2'
_symmetry_cell_setting 'orthorhombic'
loop_
_space_group_symop_operation_xyz
x,y,z
1/2-x,1/2-y,z
x,1/2-y,1/2-z
1/2-x,y,1/2-z
-x,-y,-z
1/2+x,1/2+y,-z
-x,1/2+y,1/2+z
1/2+x,-y,1/2+z
loop_
_atom_site_type_symbol
_atom_site_label
_atom_site_fract_x
_atom_site_fract_y
_atom_site_fract_z
Si Si1 0.897653 0.079064 0.521728
Si Si2 0.582431 0.733210 0.520913
Si Si3 0.806568 0.022217 0.839503
Si Si4 0.335917 0.664416 0.914911
Si Si5 0.847838 0.637250 0.824779
Si Si6 0.087774 0.547002 0.720911
O O1 0.792689 0.072459 0.599199
O O2 0.778421 0.099890 0.453167
O O3 0.004333 0.158670 0.524482
O O4 0.000000 0.000000 0.500000
O O5 0.750000 0.750000 0.491330
O O6 0.473337 0.811208 0.527249
O O7 0.600774 0.702362 0.611893
O O8 0.750000 0.036441 0.750000
O O9 0.762733 0.929229 0.864129
O O10 0.987292 0.018238 0.828106
O O11 0.250000 0.750000 0.902402
O O12 0.388626 0.625389 0.834289
O O13 0.750000 0.665553 0.750000
O O14 0.987435 0.583072 0.792556
O O15 0.250000 0.516934 0.750000
#
# Coordination Sequence:
#
# PCOD9389870 Si02
#       6
#     8   8   8   8   8   8
#     4  11  22  39  61  80 118 163 200 250 310 359
#     4  11  21  37  57  88 123 163 201 250 297 367
#     4   9  20  37  57  83 111 151 199 243 302 360
#     4  10  23  34  51  83 121 154 195 238 299 361
#     4   9  18  32  54  82 122 164 194 222 285 374
#     4  10  19  32  52  83 120 157 193 240 285 360
#
# _framework density 19.492819000000001
#
# number of rings (size 3 to 8) (size 9 to 14) (size 15 to 20)
#    0.000    2.333    1.667    4.000    2.333    4.667 
#    0.000    0.000    0.000    4.500    0.000    1.167 
#    0.000    0.000    0.000    0.000    0.000    0.000 
#
# Total GULP energy -267520.200633 kJ/mol
# GULP energy per Si atom -5573.337513 kJ/mol
# Density = 1.944845 g / cm^3
# Si number density = 19.492819 Si / 1000 Ang^3
#
#
#
# Elastic Constant Matrix: (Units=GPa)
#
#
# Indices 1 2 3 4 5 6 
#
# 1 169.1971 42.7974 32.9222 0.0000 0.0000 0.0000
# 2 42.7974 49.8630 22.0880 0.0000 0.0000 0.0000
# 3 32.9222 22.0880 56.4931 0.0000 0.0000 0.0000
# 4 0.0000 0.0000 0.0000 17.8786 0.0000 0.0000
# 5 0.0000 0.0000 0.0000 0.0000 35.4394 0.0000
# 6 0.0000 0.0000 0.0000 0.0000 0.0000 22.5420
#
#
#
# Elastic Compliance Matrix: (Units=1/GPa)
#
#
# Indices 1 2 3 4 5 6 
#
# 1 0.007795 -0.005658 -0.002330 0.000000 0.000000 0.000000
# 2 -0.005658 0.028363 -0.007792 0.000000 0.000000 0.000000
# 3 -0.002330 -0.007792 0.022106 0.000000 0.000000 0.000000
# 4 0.000000 0.000000 0.000000 0.055933 0.000000 0.000000
# 5 0.000000 0.000000 0.000000 0.000000 0.028217 0.000000
# 6 0.000000 0.000000 0.000000 0.000000 0.000000 0.044362
#
#
# Mechanical properties :
#
#
# Convention : Reuss Voigt Hill
#
# Bulk Modulus (GPa) = 37.44955 52.35205 44.90080
# Shear Modulus (GPa) = 22.00339 27.02169 24.51254
#
# Velocity S-wave (km/s) = 3.36340 3.72726 3.54999
# Velocity P-wave (km/s) = 5.85977 6.74082 6.31568
#
# Compressibility (1/GPa) = 0.02670259
#
# Stress axis : x y z
#
# Youngs Moduli (GPa) = 128.28933 35.25718 45.23660
#
# Poissons Ratio (x) = 0.19949 0.10542
# Poissons Ratio (y) = 0.72587 0.35249
# Poissons Ratio (z) = 0.29896 0.27473
#
# Static dielectric constant tensor:
#      x y z
#    x 1.781450 0.000000 0.000000 
#    y 0.000000 1.694540 0.000000 
#    z 0.000000 0.000000 1.708800 
# 
# From -- ./inp_files/30251.got.cif
#   From: 2010.05.17/outbox.cif.g08.bks.cpg/sg48_16_cif.got.tgz:30251.got - 2010.06.03 20:39:00.
