data_PCOD9389945
_publ_section_title
;
Structure prediction by ZEFSAII (Michael W. Deem and Ramdas Pophale) SiO2 
 PCOD9389945
Probable space group: P N N N
;
_chemical_formula_sum "Si O2"
_cell_formula_units_Z 36
_cell_length_a 8.279576
_cell_length_b 27.042863
_cell_length_c 7.660971
_cell_angle_alpha 90.000000
_cell_angle_beta 90.000000
_cell_angle_gamma 90.000000
_cell_volume 1715.317757
_symmetry_space_group_name_H-M "P N N N"
_symmetry_group_IT_number 48
_space_group.IT_coordinate_system_code '2'
_symmetry_cell_setting 'orthorhombic'
loop_
_space_group_symop_operation_xyz
x,y,z
1/2-x,1/2-y,z
x,1/2-y,1/2-z
1/2-x,y,1/2-z
-x,-y,-z
1/2+x,1/2+y,-z
-x,1/2+y,1/2+z
1/2+x,-y,1/2+z
loop_
_atom_site_type_symbol
_atom_site_label
_atom_site_fract_x
_atom_site_fract_y
_atom_site_fract_z
Si Si1 0.346220 0.924193 0.990436
Si Si2 0.003747 0.811029 0.024015
Si Si3 0.250000 0.750000 0.250000
Si Si4 0.250000 0.496007 0.750000
Si Si5 0.750000 0.165314 0.250000
Si Si6 0.997646 0.577756 0.355288
Si Si7 0.750000 0.750000 0.250000
O O1 0.321388 0.871653 0.896689
O O2 0.373937 0.967266 0.849632
O O3 0.471163 0.918967 0.146935
O O4 0.169765 0.938077 0.066723
O O5 0.145288 0.787017 0.137123
O O6 0.968945 0.868518 0.062401
O O7 0.853650 0.782441 0.111745
O O8 0.092234 0.807852 0.833365
O O9 0.352468 0.460351 0.876008
#
# Coordination Sequence:
#
# PCOD9389945 Si02
#       7
#     8   8   2   4   4   8   2
#     4   9  19  33  52  80 110 147 194 235 268 338
#     4  10  20  37  61  87 113 153 195 246 299 357
#     4  10  20  36  64  82 104 152 208 234 284 376
#     4  11  19  30  52  80 110 146 186 236 285 333
#     4   9  18  35  61  85 112 151 201 235 276 349
#     4  10  19  34  54  76 112 151 189 230 289 349
#     4  10  22  38  62  96 128 148 190 254 326 368
#
# _framework density 20.987366000000002
#
# number of rings (size 3 to 8) (size 9 to 14) (size 15 to 20)
#    0.000    2.222    0.000    4.667    0.000    0.444 
#    0.000    0.000    0.000   45.333    0.000    0.000 
#    0.000    0.000    0.000    0.000    0.000    0.000 
#
# Total GULP energy -200421.489840 kJ/mol
# GULP energy per Si atom -5567.263607 kJ/mol
# Density = 2.093960 g / cm^3
# Si number density = 20.987366 Si / 1000 Ang^3
#
#
#
# Elastic Constant Matrix: (Units=GPa)
#
#
# Indices 1 2 3 4 5 6 
#
# 1 73.7958 30.3314 20.5070 0.0000 0.0000 0.0000
# 2 30.3314 87.3946 21.3767 0.0000 0.0000 0.0000
# 3 20.5070 21.3767 78.9496 0.0000 0.0000 0.0000
# 4 0.0000 0.0000 0.0000 24.8027 0.0000 0.0000
# 5 0.0000 0.0000 0.0000 0.0000 29.4612 0.0000
# 6 0.0000 0.0000 0.0000 0.0000 0.0000 -21.1285
#
#
#
# Elastic Compliance Matrix: (Units=1/GPa)
#
#
# Indices 1 2 3 4 5 6 
#
# 1 0.016408 -0.004982 -0.002913 0.000000 0.000000 0.000000
# 2 -0.004982 0.013767 -0.002433 0.000000 0.000000 0.000000
# 3 -0.002913 -0.002433 0.014082 0.000000 0.000000 0.000000
# 4 0.000000 0.000000 0.000000 0.040318 0.000000 0.000000
# 5 0.000000 0.000000 0.000000 0.000000 0.033943 0.000000
# 6 0.000000 0.000000 0.000000 0.000000 0.000000 -0.047329
#
#
# Mechanical properties :
#
#
# Convention : Reuss Voigt Hill
#
# Bulk Modulus (GPa) = 42.37367 42.73000 42.55184
# Shear Modulus (GPa) = 50.14448 17.82209 33.98328
#
# Velocity S-wave (km/s) = 4.89332 2.91723 4.02833
# Velocity P-wave (km/s) = 7.22219 5.63481 6.47731
#
# Compressibility (1/GPa) = 0.02359956
#
# Stress axis : x y z
#
# Youngs Moduli (GPa) = 60.94533 72.63915 71.01345
#
# Poissons Ratio (x) = 0.36190 0.20686
# Poissons Ratio (y) = 0.30364 0.17281
# Poissons Ratio (z) = 0.17753 0.17676
#
# Static dielectric constant tensor:
#      x y z
#    x 1.767680 0.000000 0.000000 
#    y 0.000000 1.745430 0.000000 
#    z 0.000000 0.000000 1.464240 
# 
# From -- ./inp_files/9184.got.cif
#   From: 2010.05.17/outbox.cif.g08.bks.cpg/sg48_5_cif.got.tgz:9184.got - 2010.06.03 20:39:00.
