data_PCOD9389086
_publ_section_title
;
Structure prediction by ZEFSAII (Michael W. Deem and Ramdas Pophale) SiO2 
 PCOD9389086
Probable space group: P M M M
;
_chemical_formula_sum "Si O2"
_cell_formula_units_Z 52
_cell_length_a 7.753716
_cell_length_b 37.308805
_cell_length_c 9.734576
_cell_angle_alpha 90.000000
_cell_angle_beta 90.000000
_cell_angle_gamma 90.000000
_cell_volume 2816.036429
_symmetry_space_group_name_H-M "P M M M"
_symmetry_group_IT_number 47
_symmetry_cell_setting 'orthorhombic'
loop_
_space_group_symop_operation_xyz
x,y,z
-x,-y,z
x,-y,-z
-x,y,-z
-x,-y,-z
x,y,-z
-x,y,z
x,-y,z
loop_
_atom_site_type_symbol
_atom_site_label
_atom_site_fract_x
_atom_site_fract_y
_atom_site_fract_z
Si Si1 0.290964 0.172016 0.841211
Si Si2 0.807911 0.907708 0.167173
Si Si3 0.206049 0.394705 0.343471
Si Si4 0.500000 0.958844 0.167960
Si Si5 0.292664 0.682952 0.340211
Si Si6 0.289301 0.761229 0.660055
Si Si7 0.210735 0.459939 0.158681
O O1 0.500000 0.171433 0.839907
O O2 0.230614 0.133121 0.790068
O O3 0.230626 0.205274 0.749843
O O4 0.236400 0.176359 0.000000
O O5 0.666026 0.936121 0.212781
O O6 0.000000 0.918106 0.208047
O O7 0.799801 0.906951 0.000000
O O8 0.275393 0.395504 0.500000
O O9 0.237630 0.355222 0.280833
O O10 0.273148 0.427570 0.253281
O O11 0.000000 0.398862 0.352150
O O12 0.500000 0.000000 0.213169
O O13 0.500000 0.959251 0.000000
O O14 0.235239 0.682345 0.500000
O O15 0.500000 0.683211 0.338941
O O16 0.234858 0.721801 0.286075
O O17 0.239020 0.764565 0.500000
O O18 0.500000 0.761557 0.662324
O O19 0.263123 0.500000 0.203591
O O20 0.000000 0.459445 0.160568
O O21 0.262378 0.455145 0.000000
#
# Coordination Sequence:
#
# PCOD9389086 Si02
#       7
#     8   8   8   4   8   8   8
#     4   9  15  25  42  61  83 112 144 178 218 262
#     4   9  16  26  40  59  86 119 151 185 230 279
#     4   9  16  25  40  62  81  97 125 166 205 239
#     4   9  16  26  40  60  87 119 157 195 229 273
#     4   8  14  26  42  58  80 111 140 165 203 254
#     4   8  14  25  42  62  82 109 146 181 211 249
#     4   8  14  25  40  57  78 104 131 159 198 249
#
# _framework density 18.465672000000001
#
# number of rings (size 3 to 8) (size 9 to 14) (size 15 to 20)
#    0.000    3.462    0.769    1.385    0.000    0.615 
#    0.000    4.615    0.000    3.231    0.000    3.231 
#    0.000    1.231    0.000    1.385    0.000    1.538 
#
# Total GULP energy -289497.626671 kJ/mol
# GULP energy per Si atom -5567.262051 kJ/mol
# Density = 1.842364 g / cm^3
# Si number density = 18.465672 Si / 1000 Ang^3
#
#
#
# Elastic Constant Matrix: (Units=GPa)
#
#
# Indices 1 2 3 4 5 6 
#
# 1 49.4019 48.0870 13.9116 0.0000 0.0000 0.0000
# 2 48.0870 222.0785 59.9791 0.0000 0.0000 0.0000
# 3 13.9116 59.9791 31.2145 0.0000 0.0000 0.0000
# 4 0.0000 0.0000 0.0000 35.9947 0.0000 0.0000
# 5 0.0000 0.0000 0.0000 0.0000 2.1699 0.0000
# 6 0.0000 0.0000 0.0000 0.0000 0.0000 18.6388
#
#
#
# Elastic Compliance Matrix: (Units=1/GPa)
#
#
# Indices 1 2 3 4 5 6 
#
# 1 0.025685 -0.005135 -0.001581 0.000000 0.000000 0.000000
# 2 -0.005135 0.010387 -0.017671 0.000000 0.000000 0.000000
# 3 -0.001581 -0.017671 0.066696 0.000000 0.000000 0.000000
# 4 0.000000 0.000000 0.000000 0.027782 0.000000 0.000000
# 5 0.000000 0.000000 0.000000 0.000000 0.460847 0.000000
# 6 0.000000 0.000000 0.000000 0.000000 0.000000 0.053651
#
#
# Mechanical properties :
#
#
# Convention : Reuss Voigt Hill
#
# Bulk Modulus (GPa) = 18.52011 60.73893 39.62952
# Shear Modulus (GPa) = 7.02424 23.40850 15.21637
#
# Velocity S-wave (km/s) = 1.95249 3.56431 2.87372
# Velocity P-wave (km/s) = 3.89027 7.06423 5.70252
#
# Compressibility (1/GPa) = 0.05399535
#
# Stress axis : x y z
#
# Youngs Moduli (GPa) = 38.93260 96.27119 14.99341
#
# Poissons Ratio (x) = 0.49432 0.02370
# Poissons Ratio (y) = 0.19991 0.26495
# Poissons Ratio (z) = 0.06155 1.70120
#
# Static dielectric constant tensor:
#      x y z
#    x 1.683810 0.000000 0.000000 
#    y 0.000000 1.652190 0.000000 
#    z 0.000000 0.000000 1.617550 
# 
# From -- ./inp_files/15489.got.cif
#   From: 2010.05.17/outbox.cif.g08.bks.cpg/sg47_8_cif.got.tgz:15489.got - 2010.06.03 20:15:42.
