data_PCOD9389326
_publ_section_title
;
Structure prediction by ZEFSAII (Michael W. Deem and Ramdas Pophale) SiO2 
 PCOD9389326
Probable space group: P M M M
;
_chemical_formula_sum "Si O2"
_cell_formula_units_Z 64
_cell_length_a 15.000000
_cell_length_b 24.000000
_cell_length_c 9.000000
_cell_angle_alpha 90.000000
_cell_angle_beta 90.000000
_cell_angle_gamma 90.000000
_cell_volume 3240.000000
_symmetry_space_group_name_H-M "P M M M"
_symmetry_group_IT_number 47
_symmetry_cell_setting 'orthorhombic'
loop_
_space_group_symop_operation_xyz
x,y,z
-x,-y,z
x,-y,-z
-x,y,-z
-x,-y,-z
x,y,-z
-x,y,z
x,-y,z
loop_
_atom_site_type_symbol
_atom_site_label
_atom_site_fract_x
_atom_site_fract_y
_atom_site_fract_z
Si Si1 0.730012 0.864889 0.663812
Si Si2 0.601428 0.345920 0.175088
Si Si3 0.278392 0.435760 0.323448
Si Si4 0.271386 0.268525 0.665213
Si Si5 0.600456 0.060132 0.822822
Si Si6 0.097247 0.432438 0.827335
Si Si7 0.899890 0.732165 0.831966
Si Si8 0.900240 0.132436 0.168190
O O1 0.708372 0.884791 0.500000
O O2 0.727883 0.798171 0.665402
O O3 0.659417 0.889115 0.775139
O O4 0.827008 0.884658 0.714783
O O5 0.500000 0.338062 0.220873
O O6 0.645185 0.397873 0.257089
O O7 0.658791 0.292651 0.220178
O O8 0.605837 0.355124 0.000000
O O9 0.278348 0.433923 0.500000
O O10 0.289571 0.500000 0.275992
O O11 0.183313 0.414982 0.262742
O O12 0.292140 0.288959 0.500000
O O13 0.173068 0.286086 0.715534
O O14 0.500000 0.065511 0.765739
O O15 0.636904 0.000000 0.772223
O O16 0.596542 0.058765 0.000000
O O17 0.096654 0.500000 0.823574
O O18 0.000000 0.414359 0.771830
O O19 0.105496 0.416236 0.000000
O O20 0.901564 0.799840 0.831225
O O21 0.000000 0.713505 0.801397
O O22 0.875170 0.715627 0.000000
O O23 0.000000 0.113292 0.200493
O O24 0.875981 0.115612 0.000000
#
# Coordination Sequence:
#
# PCOD9389326 Si02
#       8
#     8   8   8   8   8   8   8   8
#     4  10  20  32  51  81 112 143 176 212 262 320
#     4  11  25  43  61  79 101 135 179 226 273 316
#     4  10  21  37  59  86 113 141 173 213 264 320
#     4  10  21  36  54  79 112 145 176 214 262 318
#     4   9  19  36  56  77 102 135 177 224 270 314
#     4   8  14  27  50  80 113 147 179 211 250 299
#     4   8  14  27  49  76 106 140 177 216 256 302
#     4   8  14  26  46  72 102 139 181 219 255 300
#
# _framework density 19.753086
#
# number of rings (size 3 to 8) (size 9 to 14) (size 15 to 20)
#    0.000    2.750    0.000    3.000    0.000    5.250 
#    0.000    8.750    0.000    4.125    0.000    2.625 
#    0.000    0.000    0.000    0.000    0.000    0.000 
#
# Total GULP energy -356681.344202 kJ/mol
# GULP energy per Si atom -5573.146003 kJ/mol
# Density = 1.970813 g / cm^3
# Si number density = 19.753086 Si / 1000 Ang^3
#
#
#
# Elastic Constant Matrix: (Units=GPa)
#
#
# Indices 1 2 3 4 5 6 
#
# 1 51.9777 10.2141 34.9580 0.0000 0.0000 0.0000
# 2 10.2141 25.2637 16.8831 0.0000 0.0000 0.0000
# 3 34.9580 16.8831 27.9221 0.0000 0.0000 0.0000
# 4 0.0000 0.0000 0.0000 29.1855 0.0000 0.0000
# 5 0.0000 0.0000 0.0000 0.0000 66.2514 0.0000
# 6 0.0000 0.0000 0.0000 0.0000 0.0000 19.3605
#
#
#
# Elastic Compliance Matrix: (Units=1/GPa)
#
#
# Indices 1 2 3 4 5 6 
#
# 1 3.501866 2.540758 -5.920554 0.000000 0.000000 0.000000
# 2 2.540758 1.909854 -4.335785 0.000000 0.000000 0.000000
# 3 -5.920554 -4.335785 10.069893 0.000000 0.000000 0.000000
# 4 0.000000 0.000000 0.000000 0.034264 0.000000 0.000000
# 5 0.000000 0.000000 0.000000 0.000000 0.015094 0.000000
# 6 0.000000 0.000000 0.000000 0.000000 0.000000 0.051652
#
#
# Mechanical properties :
#
#
# Convention : Reuss Voigt Hill
#
# Bulk Modulus (GPa) = 19.82125 25.47487 22.64806
# Shear Modulus (GPa) = 0.16113 25.83336 12.99725
#
# Velocity S-wave (km/s) = 0.28592 3.62029 2.56791
# Velocity P-wave (km/s) = 3.18831 5.51362 4.50363
#
# Compressibility (1/GPa) = 0.05045092
#
# Stress axis : x y z
#
# Youngs Moduli (GPa) = 0.28556 0.52360 0.09931
#
# Poissons Ratio (x) = -1.33034 0.58795
# Poissons Ratio (y) = -0.72554 0.43057
# Poissons Ratio (z) = 1.69069 2.27022
#
# Static dielectric constant tensor:
#      x y z
#    x 1.683480 0.000000 0.000000 
#    y 0.000000 1.733190 0.000000 
#    z 0.000000 0.000000 1.688540 
# 
# From -- ./inp_files/7944.got.cif
#   From: 2010.05.17/outbox.ucp.g08.bks.cvg/sg47_4_cif.got.tgz:7944.got - 2010.06.11 16:36:43.
