data_PCOD9389317
_publ_section_title
;
Structure prediction by ZEFSAII (Michael W. Deem and Ramdas Pophale) SiO2 
 PCOD9389317
Probable space group: P M M M
;
_chemical_formula_sum "Si O2"
_cell_formula_units_Z 56
_cell_length_a 21.000000
_cell_length_b 15.000000
_cell_length_c 9.000000
_cell_angle_alpha 90.000000
_cell_angle_beta 90.000000
_cell_angle_gamma 90.000000
_cell_volume 2835.000000
_symmetry_space_group_name_H-M "P M M M"
_symmetry_group_IT_number 47
_symmetry_cell_setting 'orthorhombic'
loop_
_space_group_symop_operation_xyz
x,y,z
-x,-y,z
x,-y,-z
-x,y,-z
-x,-y,-z
x,y,-z
-x,y,z
x,-y,z
loop_
_atom_site_type_symbol
_atom_site_label
_atom_site_fract_x
_atom_site_fract_y
_atom_site_fract_z
Si Si1 0.244505 0.900886 0.675942
Si Si2 0.660348 0.771565 0.828972
Si Si3 0.817241 0.604259 0.170677
Si Si4 0.680762 0.599332 0.323200
Si Si5 0.092825 0.095999 0.322961
Si Si6 0.069022 0.708089 0.678933
Si Si7 0.575437 0.103825 0.336952
O O1 0.257269 0.894955 0.500000
O O2 0.278508 0.820561 0.758258
O O3 0.168855 0.897727 0.693488
O O4 0.265129 0.000000 0.727384
O O5 0.643109 0.680447 0.746939
O O6 0.605545 0.842001 0.795035
O O7 0.670640 0.754560 0.000000
O O8 0.834707 0.500000 0.172553
O O9 0.752324 0.612292 0.262617
O O10 0.873277 0.659331 0.243942
O O11 0.806264 0.630972 0.000000
O O12 0.680608 0.604541 0.500000
O O13 0.659813 0.500000 0.278208
O O14 0.078898 0.093495 0.500000
O O15 0.067281 0.189442 0.267859
O O16 0.072508 0.000000 0.260738
O O17 0.078625 0.708492 0.500000
O O18 0.000000 0.666436 0.708939
O O19 0.597735 0.137249 0.500000
O O20 0.500000 0.110364 0.334569
O O21 0.591973 0.000000 0.328906
#
# Coordination Sequence:
#
# PCOD9389317 Si02
#       7
#     8   8   8   8   8   8   8
#     4   9  17  30  49  72 100 137 180 222 262 310
#     4  12  23  32  50  81 115 147 176 214 266 319
#     4  10  21  37  56  77 102 131 163 206 266 327
#     4  10  21  38  60  82 104 134 173 217 264 316
#     4   8  15  29  48  69  94 126 165 210 257 300
#     4  10  20  32  49  74 100 130 172 216 254 302
#     4   9  19  37  59  81 109 150 197 236 265 299
#
# _framework density 19.753086
#
# number of rings (size 3 to 8) (size 9 to 14) (size 15 to 20)
#    0.000    2.286    0.000    4.714    0.000    6.286 
#    0.000    3.571    0.000    1.714    0.000    4.000 
#    0.000    0.000    0.000    0.000    0.000    0.000 
#
# Total GULP energy -312278.604187 kJ/mol
# GULP energy per Si atom -5576.403646 kJ/mol
# Density = 1.970813 g / cm^3
# Si number density = 19.753086 Si / 1000 Ang^3
#
#
#
# Elastic Constant Matrix: (Units=GPa)
#
#
# Indices 1 2 3 4 5 6 
#
# 1 59.8100 15.4091 3.7613 0.0000 0.0000 0.0000
# 2 15.4091 80.4676 34.5503 0.0000 0.0000 0.0000
# 3 3.7613 34.5503 46.3876 0.0000 0.0000 0.0000
# 4 0.0000 0.0000 0.0000 2.8245 0.0000 0.0000
# 5 0.0000 0.0000 0.0000 0.0000 -222.7415 0.0000
# 6 0.0000 0.0000 0.0000 0.0000 0.0000 24.2237
#
#
#
# Elastic Compliance Matrix: (Units=1/GPa)
#
#
# Indices 1 2 3 4 5 6 
#
# 1 0.017668 -0.004070 0.001599 0.000000 0.000000 0.000000
# 2 -0.004070 0.019208 -0.013976 0.000000 0.000000 0.000000
# 3 0.001599 -0.013976 0.031838 0.000000 0.000000 0.000000
# 4 0.000000 0.000000 0.000000 0.354044 0.000000 0.000000
# 5 0.000000 0.000000 0.000000 0.000000 -0.004490 0.000000
# 6 0.000000 0.000000 0.000000 0.000000 0.000000 0.041282
#
#
# Mechanical properties :
#
#
# Convention : Reuss Voigt Hill
#
# Bulk Modulus (GPa) = 27.91870 32.67851 30.29861
# Shear Modulus (GPa) = 9.91309 -30.27570 -10.18131
#
# Velocity S-wave (km/s) = 2.24263 -3.91923 -2.27277
# Velocity P-wave (km/s) = 4.56841 1.97511 2.91285
#
# Compressibility (1/GPa) = 0.03581828
#
# Stress axis : x y z
#
# Youngs Moduli (GPa) = 56.60090 52.06267 31.40939
#
# Poissons Ratio (x) = 0.21187 -0.05021
# Poissons Ratio (y) = 0.23034 0.43898
# Poissons Ratio (z) = -0.09048 0.72764
#
# Static dielectric constant tensor:
#      x y z
#    x 1.721850 0.000000 0.000000 
#    y 0.000000 1.744290 0.000000 
#    z 0.000000 0.000000 1.666510 
# 
# From -- ./inp_files/11263.got.cif
#   From: 2010.05.17/outbox.ucp.g08.bks.cvg/sg47_6_cif.got.tgz:11263.got - 2010.06.11 16:36:43.
