data_PCOD9389256
_publ_section_title
;
Structure prediction by ZEFSAII (Michael W. Deem and Ramdas Pophale) SiO2 
 PCOD9389256
Probable space group: P M M M
;
_chemical_formula_sum "Si O2"
_cell_formula_units_Z 64
_cell_length_a 9.000000
_cell_length_b 18.000000
_cell_length_c 24.000000
_cell_angle_alpha 90.000000
_cell_angle_beta 90.000000
_cell_angle_gamma 90.000000
_cell_volume 3888.000000
_symmetry_space_group_name_H-M "P M M M"
_symmetry_group_IT_number 47
_symmetry_cell_setting 'orthorhombic'
loop_
_space_group_symop_operation_xyz
x,y,z
-x,-y,z
x,-y,-z
-x,y,-z
-x,-y,-z
x,y,-z
-x,y,z
x,-y,z
loop_
_atom_site_type_symbol
_atom_site_label
_atom_site_fract_x
_atom_site_fract_y
_atom_site_fract_z
Si Si1 0.171834 0.192718 0.273803
Si Si2 0.663944 0.912926 0.205096
Si Si3 0.172187 0.699172 0.166604
Si Si4 0.175929 0.084659 0.909370
Si Si5 0.676395 0.233319 0.059496
Si Si6 0.674856 0.691715 0.655625
Si Si7 0.327390 0.415018 0.762106
Si Si8 0.680927 0.418499 0.564250
O O1 0.276728 0.124351 0.260430
O O2 0.192442 0.244619 0.218761
O O3 0.228702 0.238916 0.325948
O O4 0.000000 0.172898 0.277878
O O5 0.500000 0.883381 0.189108
O O6 0.780997 0.902941 0.155235
O O7 0.652307 0.000000 0.212758
O O8 0.260759 0.725677 0.113111
O O9 0.227963 0.621411 0.190530
O O10 0.000000 0.698376 0.152516
O O11 0.261912 0.149537 0.939679
O O12 0.000000 0.091813 0.917446
O O13 0.219423 0.000000 0.924021
O O14 0.500000 0.231307 0.062894
O O15 0.720353 0.267810 0.000000
O O16 0.500000 0.711119 0.650515
O O17 0.686562 0.631862 0.705573
O O18 0.730880 0.649603 0.601251
O O19 0.500000 0.409540 0.779194
O O20 0.290430 0.500000 0.751524
O O21 0.723078 0.411947 0.500000
O O22 0.500000 0.418294 0.566935
O O23 0.728675 0.500000 0.585060
#
# Coordination Sequence:
#
# PCOD9389256 Si02
#       8
#     8   8   8   8   8   8   8   8
#     4  10  19  30  45  66  92 122 154 189 231 275
#     4  10  19  30  47  69  92 120 152 186 226 273
#     4  10  20  33  49  68  90 117 147 183 229 279
#     4  10  20  33  49  69  93 121 151 183 221 267
#     4  11  23  36  51  69  89 116 151 190 228 270
#     4   9  16  26  43  67  95 126 160 197 232 269
#     4   9  17  29  47  70  94 120 149 185 229 276
#     4   8  13  22  39  65  96 129 166 205 238 268
#
# _framework density 16.460905
#
# number of rings (size 3 to 8) (size 9 to 14) (size 15 to 20)
#    0.000    2.375    1.250    2.625    0.000    5.500 
#    0.000    1.250    0.000    1.875    0.000    3.500 
#    0.000    0.500    0.000    5.750    0.000    1.625 
#
# Total GULP energy -356500.703571 kJ/mol
# GULP energy per Si atom -5570.323493 kJ/mol
# Density = 1.642344 g / cm^3
# Si number density = 16.460905 Si / 1000 Ang^3
#
#
#
# Elastic Constant Matrix: (Units=GPa)
#
#
# Indices 1 2 3 4 5 6 
#
# 1 20.4069 5.6488 19.7021 0.0000 0.0000 0.0000
# 2 5.6488 10.7682 8.1605 0.0000 0.0000 0.0000
# 3 19.7021 8.1605 41.0736 0.0000 0.0000 0.0000
# 4 0.0000 0.0000 0.0000 200.9705 0.0000 0.0000
# 5 0.0000 0.0000 0.0000 0.0000 -121.9388 0.0000
# 6 0.0000 0.0000 0.0000 0.0000 0.0000 13.1590
#
#
#
# Elastic Compliance Matrix: (Units=1/GPa)
#
#
# Indices 1 2 3 4 5 6 
#
# 1 0.094096 -0.017842 -0.041591 0.000000 0.000000 0.000000
# 2 -0.017842 0.112710 -0.013835 0.000000 0.000000 0.000000
# 3 -0.041591 -0.013835 0.047045 0.000000 0.000000 0.000000
# 4 0.000000 0.000000 0.000000 0.004976 0.000000 0.000000
# 5 0.000000 0.000000 0.000000 0.000000 -0.008201 0.000000
# 6 0.000000 0.000000 0.000000 0.000000 0.000000 0.075994
#
#
# Mechanical properties :
#
#
# Convention : Reuss Voigt Hill
#
# Bulk Modulus (GPa) = 9.31823 15.47460 12.39641
# Shear Modulus (GPa) = 9.82458 21.02063 15.42260
#
# Velocity S-wave (km/s) = 2.44569 3.57739 3.06424
# Velocity P-wave (km/s) = 3.69436 5.14635 4.47958
#
# Compressibility (1/GPa) = 0.10731649
#
# Stress axis : x y z
#
# Youngs Moduli (GPa) = 10.62746 8.87230 21.25607
#
# Poissons Ratio (x) = 0.15830 0.88406
# Poissons Ratio (y) = 0.18961 0.29408
# Poissons Ratio (z) = 0.44200 0.12275
#
# Static dielectric constant tensor:
#      x y z
#    x 1.561090 0.000000 0.000000 
#    y 0.000000 1.581180 0.000000 
#    z 0.000000 0.000000 1.564400 
# 
# From -- ./inp_files/10201.got.cif
#   From: 2010.05.17/outbox.ucp.g08.bks.cvg/sg47_6_cif.got.tgz:10201.got - 2010.06.11 16:36:43.
