data_PCOD9389991
_publ_section_title
;
Structure prediction by ZEFSAII (Michael W. Deem and Ramdas Pophale) SiO2 
 PCOD9389991
Probable space group: P N N N
;
_chemical_formula_sum "Si O2"
_cell_formula_units_Z 58
_cell_length_a 12.357606
_cell_length_b 8.817891
_cell_length_c 26.371521
_cell_angle_alpha 90.000000
_cell_angle_beta 90.000000
_cell_angle_gamma 90.000000
_cell_volume 2873.652500
_symmetry_space_group_name_H-M "P N N N"
_symmetry_group_IT_number 48
_space_group.IT_coordinate_system_code '2'
_symmetry_cell_setting 'orthorhombic'
loop_
_space_group_symop_operation_xyz
x,y,z
1/2-x,1/2-y,z
x,1/2-y,1/2-z
1/2-x,y,1/2-z
-x,-y,-z
1/2+x,1/2+y,-z
-x,1/2+y,1/2+z
1/2+x,-y,1/2+z
loop_
_atom_site_type_symbol
_atom_site_label
_atom_site_fract_x
_atom_site_fract_y
_atom_site_fract_z
Si Si1 0.661823 0.985814 0.817156
Si Si2 0.370311 0.716555 0.399651
Si Si3 0.036674 0.765315 0.694340
Si Si4 0.389429 0.468554 0.144797
Si Si5 0.361268 0.663352 0.589671
Si Si6 0.434323 0.380824 0.534053
Si Si7 0.452561 0.365057 0.035535
Si Si8 0.250000 0.750000 0.250000
O O1 0.569371 0.872469 0.800196
O O2 0.781612 0.919631 0.825526
O O3 0.632344 0.054500 0.872163
O O4 0.677170 0.131768 0.781484
O O5 0.250000 0.750000 0.421884
O O6 0.472279 0.709883 0.435864
O O7 0.388156 0.850040 0.358845
O O8 0.086676 0.750000 0.750000
O O9 0.108807 0.833261 0.649257
O O10 0.990839 0.606426 0.672510
O O11 0.389924 0.422037 0.085463
O O12 0.250000 0.750000 0.581381
O O13 0.362771 0.490618 0.569034
O O14 0.450649 0.763648 0.559697
O O15 0.500000 0.500000 0.500000
O O16 0.383823 0.252303 0.498443
O O17 0.500000 0.500000 0.000000
#
# Coordination Sequence:
#
# PCOD9389991 Si02
#       8
#     8   8   8   8   8   8   8   2
#     4  11  21  35  55  87 123 158 191 240 307 388
#     4  10  19  35  58  83 120 159 187 237 306 372
#     4  11  23  38  61  85 114 156 203 259 312 362
#     4  10  20  37  55  88 129 156 187 253 308 373
#     4  10  23  43  60  81 121 160 210 259 296 354
#     4  10  20  37  59  85 116 159 205 244 295 368
#     4  10  20  37  62  90 119 152 202 246 308 366
#     4  12  20  32  58  92 120 158 206 232 312 404
#
# _framework density 20.183371000000001
#
# number of rings (size 3 to 8) (size 9 to 14) (size 15 to 20)
#    0.000    1.655    4.828    1.241    0.000    3.034 
#    0.000    2.069    0.000    0.000    0.000    0.000 
#    0.000    0.000    0.000    0.000    0.000    0.000 
#
# Total GULP energy -323448.015418 kJ/mol
# GULP energy per Si atom -5576.689921 kJ/mol
# Density = 2.013743 g / cm^3
# Si number density = 20.183371 Si / 1000 Ang^3
#
#
#
# Elastic Constant Matrix: (Units=GPa)
#
#
# Indices 1 2 3 4 5 6 
#
# 1 49.7185 19.5282 17.1809 0.0000 0.0000 0.0000
# 2 19.5282 94.0196 31.7055 0.0000 0.0000 0.0000
# 3 17.1809 31.7055 100.0803 0.0000 0.0000 0.0000
# 4 0.0000 0.0000 0.0000 31.5639 0.0000 0.0000
# 5 0.0000 0.0000 0.0000 0.0000 0.3370 0.0000
# 6 0.0000 0.0000 0.0000 0.0000 0.0000 24.3975
#
#
#
# Elastic Compliance Matrix: (Units=1/GPa)
#
#
# Indices 1 2 3 4 5 6 
#
# 1 0.022519 -0.003777 -0.002669 0.000000 0.000000 0.000000
# 2 -0.003777 0.012542 -0.003325 0.000000 0.000000 0.000000
# 3 -0.002669 -0.003325 0.011504 0.000000 0.000000 0.000000
# 4 0.000000 0.000000 0.000000 0.031682 0.000000 0.000000
# 5 0.000000 0.000000 0.000000 0.000000 2.967268 0.000000
# 6 0.000000 0.000000 0.000000 0.000000 0.000000 0.040988
#
#
# Mechanical properties :
#
#
# Convention : Reuss Voigt Hill
#
# Bulk Modulus (GPa) = 37.00690 42.29418 39.65054
# Shear Modulus (GPa) = 1.60511 22.95327 12.27919
#
# Velocity S-wave (km/s) = 0.89274 3.37595 2.46922
# Velocity P-wave (km/s) = 4.40883 6.01636 5.27420
#
# Compressibility (1/GPa) = 0.02702199
#
# Stress axis : x y z
#
# Youngs Moduli (GPa) = 44.40649 79.73319 86.92992
#
# Poissons Ratio (x) = 0.30117 0.23204
# Poissons Ratio (y) = 0.16773 0.28903
# Poissons Ratio (z) = 0.11853 0.26510
#
# Static dielectric constant tensor:
#      x y z
#    x 1.692900 0.000000 0.000000 
#    y 0.000000 1.737610 0.000000 
#    z 0.000000 0.000000 1.721490 
# 
# From -- ./inp_files/11548.got.cif
#   From: 2010.05.17/outbox.cif.g08.bks.cpg/sg48_6_cif.got.tgz:11548.got - 2010.06.03 20:39:00.
