data_PCOD9389508
_publ_section_title
;
Structure prediction by ZEFSAII (Michael W. Deem and Ramdas Pophale) SiO2 
 PCOD9389508
Probable space group: P N N N
;
_chemical_formula_sum "Si O2"
_cell_formula_units_Z 52
_cell_length_a 27.261782
_cell_length_b 5.262604
_cell_length_c 19.182105
_cell_angle_alpha 90.000000
_cell_angle_beta 90.000000
_cell_angle_gamma 90.000000
_cell_volume 2752.017530
_symmetry_space_group_name_H-M "P N N N"
_symmetry_group_IT_number 48
_space_group.IT_coordinate_system_code '2'
_symmetry_cell_setting 'orthorhombic'
loop_
_space_group_symop_operation_xyz
x,y,z
1/2-x,1/2-y,z
x,1/2-y,1/2-z
1/2-x,y,1/2-z
-x,-y,-z
1/2+x,1/2+y,-z
-x,1/2+y,1/2+z
1/2+x,-y,1/2+z
loop_
_atom_site_type_symbol
_atom_site_label
_atom_site_fract_x
_atom_site_fract_y
_atom_site_fract_z
Si Si1 0.939964 0.759263 0.498482
Si Si2 0.489302 0.250000 0.750000
Si Si3 0.809922 0.749764 0.669871
Si Si4 0.308889 0.751389 0.414000
Si Si5 0.917517 0.153832 0.178063
Si Si6 0.997005 0.487856 0.882582
Si Si7 0.119252 0.731530 0.534672
O O1 0.917033 0.481361 0.497468
O O2 0.961424 0.834584 0.573278
O O3 0.982618 0.786790 0.439708
O O4 0.902494 0.984968 0.476290
O O5 0.451881 0.423036 0.795882
O O6 0.522195 0.375623 0.689886
O O7 0.750000 0.750000 0.671209
O O8 0.826335 0.750000 0.750000
O O9 0.825154 0.494980 0.630477
O O10 0.825176 0.996410 0.625999
O O11 0.250000 0.750000 0.416827
O O12 0.331356 0.772594 0.490593
O O13 0.894391 0.250000 0.250000
O O14 0.956763 0.351672 0.146130
O O15 0.879255 0.138565 0.115046
#
# Coordination Sequence:
#
# PCOD9389508 Si02
#       7
#     8   4   8   8   8   8   8
#     4  10  21  33  54  77 105 139 178 219 273 325
#     4  10  16  32  52  74 102 141 189 224 260 310
#     4   9  17  32  56  80 101 130 172 221 268 322
#     4  10  20  34  56  83 108 139 182 226 276 327
#     4   9  19  32  52  79 105 140 187 224 263 313
#     4   9  19  31  52  76 103 138 182 224 264 318
#     4  11  21  36  54  79 111 142 178 232 273 319
#
# _framework density 18.895227999999999
#
# number of rings (size 3 to 8) (size 9 to 14) (size 15 to 20)
#    0.000    2.308    1.538    1.385    2.154    3.692 
#    0.000    0.000    6.769    1.385    0.000    0.000 
#    0.000    0.000    0.000    0.000    0.000    0.000 
#
# Total GULP energy -289762.023758 kJ/mol
# GULP energy per Si atom -5572.346611 kJ/mol
# Density = 1.885222 g / cm^3
# Si number density = 18.895228 Si / 1000 Ang^3
#
#
#
# Elastic Constant Matrix: (Units=GPa)
#
#
# Indices 1 2 3 4 5 6 
#
# 1 13.9922 9.6896 27.4160 0.0000 0.0000 0.0000
# 2 9.6896 80.9089 31.0143 0.0000 0.0000 0.0000
# 3 27.4160 31.0143 182.1902 0.0000 0.0000 0.0000
# 4 0.0000 0.0000 0.0000 31.7721 0.0000 0.0000
# 5 0.0000 0.0000 0.0000 0.0000 26.7116 0.0000
# 6 0.0000 0.0000 0.0000 0.0000 0.0000 3.9017
#
#
#
# Elastic Compliance Matrix: (Units=1/GPa)
#
#
# Indices 1 2 3 4 5 6 
#
# 1 0.104898 -0.006966 -0.014599 0.000000 0.000000 0.000000
# 2 -0.006966 0.013685 -0.001281 0.000000 0.000000 0.000000
# 3 -0.014599 -0.001281 0.007904 0.000000 0.000000 0.000000
# 4 0.000000 0.000000 0.000000 0.031474 0.000000 0.000000
# 5 0.000000 0.000000 0.000000 0.000000 0.037437 0.000000
# 6 0.000000 0.000000 0.000000 0.000000 0.000000 0.256298
#
#
# Mechanical properties :
#
#
# Convention : Reuss Voigt Hill
#
# Bulk Modulus (GPa) = 12.37734 45.92568 29.15151
# Shear Modulus (GPa) = 9.53616 26.40851 17.97234
#
# Velocity S-wave (km/s) = 2.24896 3.74254 3.08743
# Velocity P-wave (km/s) = 3.64808 6.56001 5.30765
#
# Compressibility (1/GPa) = 0.08079280
#
# Stress axis : x y z
#
# Youngs Moduli (GPa) = 9.53311 73.07254 126.52209
#
# Poissons Ratio (x) = 0.50905 1.84711
# Poissons Ratio (y) = 0.06641 0.16211
# Poissons Ratio (z) = 0.13917 0.09363
#
# Static dielectric constant tensor:
#      x y z
#    x 1.644720 0.000000 0.000000 
#    y 0.000000 1.724720 0.000000 
#    z 0.000000 0.000000 1.706470 
# 
# From -- ./inp_files/29595.got.cif
#   From: 2010.05.17/outbox.cif.g08.bks.cpg/sg48_15_cif.got.tgz:29595.got - 2010.06.03 20:39:00.
