data_PCOD9389150
_publ_section_title
;
Structure prediction by ZEFSAII (Michael W. Deem and Ramdas Pophale) SiO2 
 PCOD9389150
Probable space group: P M M M
;
_chemical_formula_sum "Si O2"
_cell_formula_units_Z 36
_cell_length_a 7.599933
_cell_length_b 25.888840
_cell_length_c 10.032701
_cell_angle_alpha 90.000000
_cell_angle_beta 90.000000
_cell_angle_gamma 90.000000
_cell_volume 1973.968529
_symmetry_space_group_name_H-M "P M M M"
_symmetry_group_IT_number 47
_symmetry_cell_setting 'orthorhombic'
loop_
_space_group_symop_operation_xyz
x,y,z
-x,-y,z
x,-y,-z
-x,y,-z
-x,-y,-z
x,y,-z
-x,y,z
x,-y,z
loop_
_atom_site_type_symbol
_atom_site_label
_atom_site_fract_x
_atom_site_fract_y
_atom_site_fract_z
Si Si1 0.289374 0.149645 0.850033
Si Si2 0.290942 0.359180 0.658388
Si Si3 0.000000 0.558556 0.338564
Si Si4 0.211067 0.057322 0.349008
Si Si5 0.285852 0.265084 0.153700
O O1 0.500000 0.153515 0.858042
O O2 0.252272 0.103643 0.749550
O O3 0.226337 0.207017 0.809575
O O4 0.223355 0.138795 0.000000
O O5 0.265844 0.349546 0.500000
O O6 0.500000 0.368124 0.679396
O O7 0.232908 0.309740 0.744717
O O8 0.172231 0.408152 0.697405
O O9 0.000000 0.500000 0.287178
O O10 0.000000 0.555660 0.500000
O O11 0.275597 0.066790 0.500000
O O12 0.000000 0.054754 0.355320
O O13 0.273826 0.000000 0.306568
O O14 0.500000 0.265050 0.155518
O O15 0.232935 0.274878 0.000000
#
# Coordination Sequence:
#
# PCOD9389150 Si02
#       5
#     8   8   4   8   8
#     4   9  18  32  50  73  98 123 156 199 246 297
#     4   9  17  30  50  74  98 129 168 204 243 293
#     4   9  18  32  49  73 105 133 162 207 250 283
#     4   9  19  35  50  65  91 127 164 201 243 292
#     4   8  15  30  50  70  96 128 157 191 240 292
#
# _framework density 18.237373000000002
#
# number of rings (size 3 to 8) (size 9 to 14) (size 15 to 20)
#    0.000    3.222    0.000    2.000    0.000    3.111 
#    2.000    8.333    0.000    1.333    0.000    3.111 
#    0.000    0.000    0.000    0.000    0.000    0.000 
#
# Total GULP energy -200537.017127 kJ/mol
# GULP energy per Si atom -5570.472698 kJ/mol
# Density = 1.819586 g / cm^3
# Si number density = 18.237373 Si / 1000 Ang^3
#
#
#
# Elastic Constant Matrix: (Units=GPa)
#
#
# Indices 1 2 3 4 5 6 
#
# 1 53.6866 45.5530 26.8139 0.0000 0.0000 0.0000
# 2 45.5530 215.0344 107.2782 0.0000 0.0000 0.0000
# 3 26.8139 107.2782 75.7852 0.0000 0.0000 0.0000
# 4 0.0000 0.0000 0.0000 -51.7541 0.0000 0.0000
# 5 0.0000 0.0000 0.0000 0.0000 19.3679 0.0000
# 6 0.0000 0.0000 0.0000 0.0000 0.0000 29.6375
#
#
#
# Elastic Compliance Matrix: (Units=1/GPa)
#
#
# Indices 1 2 3 4 5 6 
#
# 1 0.023102 -0.002778 -0.004242 0.000000 0.000000 0.000000
# 2 -0.002778 0.016163 -0.021897 0.000000 0.000000 0.000000
# 3 -0.004242 -0.021897 0.045692 0.000000 0.000000 0.000000
# 4 0.000000 0.000000 0.000000 -0.019322 0.000000 0.000000
# 5 0.000000 0.000000 0.000000 0.000000 0.051632 0.000000
# 6 0.000000 0.000000 0.000000 0.000000 0.000000 0.033741
#
#
# Mechanical properties :
#
#
# Convention : Reuss Voigt Hill
#
# Bulk Modulus (GPa) = 36.86691 78.19962 57.53327
# Shear Modulus (GPa) = 22.94828 10.44099 16.69463
#
# Velocity S-wave (km/s) = 3.55112 2.39530 3.02885
# Velocity P-wave (km/s) = 6.08874 7.11490 6.62173
#
# Compressibility (1/GPa) = 0.02712459
#
# Stress axis : x y z
#
# Youngs Moduli (GPa) = 43.28603 61.87037 21.88576
#
# Poissons Ratio (x) = 0.17187 0.09283
# Poissons Ratio (y) = 0.12024 0.47922
# Poissons Ratio (z) = 0.18361 1.35475
#
# Static dielectric constant tensor:
#      x y z
#    x 1.674230 0.000000 0.000000 
#    y 0.000000 1.624010 0.000000 
#    z 0.000000 0.000000 1.613460 
# 
# From -- ./inp_files/1438.got.cif
#   From: 2010.05.17/outbox.cif.g08.bks.cpg/sg47_1_cif.got.tgz:1438.got - 2010.06.03 20:15:42.
