data_PCOD9389830
_publ_section_title
;
Structure prediction by ZEFSAII (Michael W. Deem and Ramdas Pophale) SiO2 
 PCOD9389830
Probable space group: P N N N
;
_chemical_formula_sum "Si O2"
_cell_formula_units_Z 42
_cell_length_a 21.071408
_cell_length_b 12.345109
_cell_length_c 7.085523
_cell_angle_alpha 90.000000
_cell_angle_beta 90.000000
_cell_angle_gamma 90.000000
_cell_volume 1843.148798
_symmetry_space_group_name_H-M "P N N N"
_symmetry_group_IT_number 48
_space_group.IT_coordinate_system_code '2'
_symmetry_cell_setting 'orthorhombic'
loop_
_space_group_symop_operation_xyz
x,y,z
1/2-x,1/2-y,z
x,1/2-y,1/2-z
1/2-x,y,1/2-z
-x,-y,-z
1/2+x,1/2+y,-z
-x,1/2+y,1/2+z
1/2+x,-y,1/2+z
loop_
_atom_site_type_symbol
_atom_site_label
_atom_site_fract_x
_atom_site_fract_y
_atom_site_fract_z
Si Si1 0.750000 0.750000 0.250000
Si Si2 0.887985 0.483385 0.467268
Si Si3 0.014004 0.350914 0.497537
Si Si4 0.531516 0.613152 0.450736
Si Si5 0.240310 0.874256 0.979732
Si Si6 0.330481 0.435626 0.570022
O O1 0.710968 0.669207 0.383159
O O2 0.949393 0.408224 0.433842
O O3 0.829182 0.414476 0.547519
O O4 0.855619 0.522425 0.273685
O O5 0.921905 0.586372 0.567453
O O6 0.007849 0.224283 0.458964
O O7 0.021010 0.367881 0.725778
O O8 0.500000 0.500000 0.500000
O O9 0.603932 0.602116 0.515479
O O10 0.250000 0.750000 0.040232
O O11 0.250000 0.871231 0.750000
O O12 0.291135 0.968709 0.029047
#
# Coordination Sequence:
#
# PCOD9389830 Si02
#       6
#     2   8   8   8   8   8
#     4  12  16  32  54  84 110 136 168 224 284 318
#     4   9  16  33  50  75 105 135 170 219 274 317
#     4   9  19  34  53  74 107 142 178 221 269 334
#     4  10  21  35  51  78 108 143 182 224 273 331
#     4   9  17  28  45  75 105 131 167 221 272 320
#     4  10  19  30  52  80 107 134 176 221 272 328
#
# _framework density 22.787091
#
# number of rings (size 3 to 8) (size 9 to 14) (size 15 to 20)
#    0.000    2.476    2.857    2.286    2.667    0.000 
#    3.429    2.857    0.000    1.143    0.000    1.333 
#    0.000    0.000    0.000    0.000    0.000    0.000 
#
# Total GULP energy -234116.683142 kJ/mol
# GULP energy per Si atom -5574.206741 kJ/mol
# Density = 2.273523 g / cm^3
# Si number density = 22.787091 Si / 1000 Ang^3
#
#
#
# Elastic Constant Matrix: (Units=GPa)
#
#
# Indices 1 2 3 4 5 6 
#
# 1 156.8796 95.1326 21.4056 0.0000 0.0000 0.0000
# 2 95.1326 230.0137 30.3578 0.0000 0.0000 0.0000
# 3 21.4056 30.3578 80.3465 0.0000 0.0000 0.0000
# 4 0.0000 0.0000 0.0000 -28.9044 0.0000 0.0000
# 5 0.0000 0.0000 0.0000 0.0000 -41.9682 0.0000
# 6 0.0000 0.0000 0.0000 0.0000 0.0000 -4.9271
#
#
#
# Elastic Compliance Matrix: (Units=1/GPa)
#
#
# Indices 1 2 3 4 5 6 
#
# 1 0.008583 -0.003419 -0.000995 0.000000 0.000000 0.000000
# 2 -0.003419 0.005937 -0.001333 0.000000 0.000000 0.000000
# 3 -0.000995 -0.001333 0.013215 0.000000 0.000000 0.000000
# 4 0.000000 0.000000 0.000000 -0.034597 0.000000 0.000000
# 5 0.000000 0.000000 0.000000 0.000000 -0.023828 0.000000
# 6 0.000000 0.000000 0.000000 0.000000 0.000000 -0.202958
#
#
# Mechanical properties :
#
#
# Convention : Reuss Voigt Hill
#
# Bulk Modulus (GPa) = 61.56581 84.55906 73.06244
# Shear Modulus (GPa) = -23.06908 6.19631 -8.43639
#
# Velocity S-wave (km/s) = -3.18524 1.65079 -1.92621
# Velocity P-wave (km/s) = 3.68088 6.38924 5.21398
#
# Compressibility (1/GPa) = 0.01624278
#
# Stress axis : x y z
#
# Youngs Moduli (GPa) = 116.50731 168.42472 75.67342
#
# Poissons Ratio (x) = 0.57578 0.07530
# Poissons Ratio (y) = 0.39829 0.10084
# Poissons Ratio (z) = 0.11593 0.22444
#
# Static dielectric constant tensor:
#      x y z
#    x 1.848840 0.000000 0.000000 
#    y 0.000000 1.917580 0.000000 
#    z 0.000000 0.000000 1.968130 
# 
# From -- ./inp_files/22088.got.cif
#   From: 2010.05.17/outbox.cif.g08.bks.cpg/sg48_12_cif.got.tgz:22088.got - 2010.06.03 20:39:00.
