data_PCOD9389064
_publ_section_title
;
Structure prediction by ZEFSAII (Michael W. Deem and Ramdas Pophale) SiO2 
 PCOD9389064
Probable space group: P M M M
;
_chemical_formula_sum "Si O2"
_cell_formula_units_Z 52
_cell_length_a 7.506282
_cell_length_b 19.502790
_cell_length_c 16.637413
_cell_angle_alpha 90.000000
_cell_angle_beta 90.000000
_cell_angle_gamma 90.000000
_cell_volume 2435.608147
_symmetry_space_group_name_H-M "P M M M"
_symmetry_group_IT_number 47
_symmetry_cell_setting 'orthorhombic'
loop_
_space_group_symop_operation_xyz
x,y,z
-x,-y,z
x,-y,-z
-x,y,-z
-x,-y,-z
x,y,-z
-x,y,z
x,-y,z
loop_
_atom_site_type_symbol
_atom_site_label
_atom_site_fract_x
_atom_site_fract_y
_atom_site_fract_z
Si Si1 0.797899 0.076745 0.235325
Si Si2 0.716061 0.576362 0.339362
Si Si3 0.710343 0.366539 0.830283
Si Si4 0.717161 0.419944 0.000000
Si Si5 0.705656 0.082401 0.585482
Si Si6 0.209365 0.721301 0.411945
Si Si7 0.783645 0.778502 0.757945
O O1 0.803968 0.092454 0.331196
O O2 0.716073 0.148719 0.207477
O O3 0.000000 0.072523 0.204908
O O4 0.718021 0.000000 0.224950
O O5 0.500000 0.577459 0.339506
O O6 0.772801 0.500000 0.363679
O O7 0.779351 0.593259 0.248386
O O8 0.774117 0.640220 0.393551
O O9 0.500000 0.382155 0.832084
O O10 0.783169 0.387233 0.916867
O O11 0.734368 0.286543 0.811446
O O12 0.759273 0.500000 0.000000
O O13 0.500000 0.413381 0.000000
O O14 0.779249 0.108261 0.500000
O O15 0.500000 0.104669 0.592841
O O16 0.701921 0.000000 0.579412
O O17 0.287084 0.736082 0.500000
O O18 0.281587 0.760080 0.332844
O O19 0.000000 0.737909 0.414609
O O20 0.000000 0.781739 0.755518
#
# Coordination Sequence:
#
# PCOD9389064 Si02
#       7
#     8   8   8   4   8   8   8
#     4   9  17  28  43  63  83 107 146 192 232 271
#     4   9  17  29  45  65  89 115 144 182 224 260
#     4   9  17  30  49  72  96 122 150 176 210 264
#     4   9  16  28  51  81 106 125 148 180 215 255
#     4   8  14  24  36  52  78 109 138 175 228 282
#     4   9  18  31  44  58  80 115 156 190 222 265
#     4   9  18  32  47  63  89 122 151 186 232 273
#
# _framework density 21.349903000000001
#
# number of rings (size 3 to 8) (size 9 to 14) (size 15 to 20)
#    0.000    3.154    0.000    0.923    0.000    4.308 
#    0.000    5.000    0.000    1.846    0.000    0.538 
#    0.000    4.308    0.000    0.000    0.000    0.000 
#
# Total GULP energy -289773.753159 kJ/mol
# GULP energy per Si atom -5572.572176 kJ/mol
# Density = 2.130131 g / cm^3
# Si number density = 21.349903 Si / 1000 Ang^3
#
#
#
# Elastic Constant Matrix: (Units=GPa)
#
#
# Indices 1 2 3 4 5 6 
#
# 1 56.6688 -15.2131 -0.0165 0.0000 0.0000 0.0000
# 2 -15.2131 137.8870 28.9805 0.0000 0.0000 0.0000
# 3 -0.0165 28.9805 83.3276 0.0000 0.0000 0.0000
# 4 0.0000 0.0000 0.0000 2.8359 0.0000 0.0000
# 5 0.0000 0.0000 0.0000 0.0000 -30.9652 0.0000
# 6 0.0000 0.0000 0.0000 0.0000 0.0000 16.5689
#
#
#
# Elastic Compliance Matrix: (Units=1/GPa)
#
#
# Indices 1 2 3 4 5 6 
#
# 1 0.018228 0.002169 -0.000751 0.000000 0.000000 0.000000
# 2 0.002169 0.008082 -0.002811 0.000000 0.000000 0.000000
# 3 -0.000751 -0.002811 0.012978 0.000000 0.000000 0.000000
# 4 0.000000 0.000000 0.000000 0.352618 0.000000 0.000000
# 5 0.000000 0.000000 0.000000 0.000000 -0.032294 0.000000
# 6 0.000000 0.000000 0.000000 0.000000 0.000000 0.060354
#
#
# Mechanical properties :
#
#
# Convention : Reuss Voigt Hill
#
# Bulk Modulus (GPa) = 27.39406 33.93170 30.66288
# Shear Modulus (GPa) = 11.49637 15.29675 13.39656
#
# Velocity S-wave (km/s) = 2.32302 2.67962 2.50767
# Velocity P-wave (km/s) = 4.47818 5.04989 4.77261
#
# Compressibility (1/GPa) = 0.03650427
#
# Stress axis : x y z
#
# Youngs Moduli (GPa) = 54.85932 123.72685 77.05254
#
# Poissons Ratio (x) = -0.26835 0.05785
# Poissons Ratio (y) = -0.11899 0.21656
# Poissons Ratio (z) = 0.04118 0.34774
#
# Static dielectric constant tensor:
#      x y z
#    x 1.819480 0.000000 0.000000 
#    y 0.000000 1.815690 0.000000 
#    z 0.000000 0.000000 1.777280 
# 
# From -- ./inp_files/21458.got.cif
#   From: 2010.05.17/outbox.cif.g08.bks.cpg/sg47_11_cif.got.tgz:21458.got - 2010.06.03 20:15:42.
