data_PCOD9389832
_publ_section_title
;
Structure prediction by ZEFSAII (Michael W. Deem and Ramdas Pophale) SiO2 
 PCOD9389832
Probable space group: P N N N
;
_chemical_formula_sum "Si O2"
_cell_formula_units_Z 32
_cell_length_a 10.118534
_cell_length_b 5.200524
_cell_length_c 31.069321
_cell_angle_alpha 90.000000
_cell_angle_beta 90.000000
_cell_angle_gamma 90.000000
_cell_volume 1634.919834
_symmetry_space_group_name_H-M "P N N N"
_symmetry_group_IT_number 48
_space_group.IT_coordinate_system_code '2'
_symmetry_cell_setting 'orthorhombic'
loop_
_space_group_symop_operation_xyz
x,y,z
1/2-x,1/2-y,z
x,1/2-y,1/2-z
1/2-x,y,1/2-z
-x,-y,-z
1/2+x,1/2+y,-z
-x,1/2+y,1/2+z
1/2+x,-y,1/2+z
loop_
_atom_site_type_symbol
_atom_site_label
_atom_site_fract_x
_atom_site_fract_y
_atom_site_fract_z
Si Si1 0.011074 0.819889 0.586441
Si Si2 0.599957 0.993390 0.269556
Si Si3 0.598579 0.689479 0.132302
Si Si4 0.750000 0.750000 0.533288
Si Si5 0.250000 0.750000 0.522476
O O1 0.032267 0.533604 0.604554
O O2 0.129267 0.847479 0.551978
O O3 0.872558 0.837619 0.562447
O O4 0.026873 0.038930 0.623188
O O5 0.539526 0.250000 0.250000
O O6 0.750000 0.995819 0.250000
O O7 0.527468 0.750000 0.250000
O O8 0.605791 0.935058 0.319970
O O9 0.750000 0.750000 0.120045
O O10 0.790424 0.499874 0.505320
#
# Coordination Sequence:
#
# PCOD9389832 Si02
#       5
#     8   8   8   4   4
#     4  12  25  40  64  89 126 165 209 259 314 371
#     4  10  19  30  53  86 130 151 184 245 314 349
#     4  12  21  38  59  93 130 160 198 254 315 369
#     4  12  26  44  60  90 123 168 213 260 318 376
#     4  12  22  42  66  90 119 158 221 272 316 358
#
# _framework density 19.572825000000002
#
# number of rings (size 3 to 8) (size 9 to 14) (size 15 to 20)
#    0.000    0.500    5.000    6.000    3.500    0.000 
#    0.000    0.000    0.000    0.000    0.000   13.125 
#    0.000    0.000    0.000    0.000    0.000    0.000 
#
# Total GULP energy -178504.871456 kJ/mol
# GULP energy per Si atom -5578.277233 kJ/mol
# Density = 1.952828 g / cm^3
# Si number density = 19.572825 Si / 1000 Ang^3
#
#
#
# Elastic Constant Matrix: (Units=GPa)
#
#
# Indices 1 2 3 4 5 6 
#
# 1 66.6512 3.2098 33.7403 0.0000 0.0000 0.0000
# 2 3.2098 160.1200 23.0991 0.0000 0.0000 0.0000
# 3 33.7403 23.0991 76.1728 0.0000 0.0000 0.0000
# 4 0.0000 0.0000 0.0000 55.9802 0.0000 0.0000
# 5 0.0000 0.0000 0.0000 0.0000 -22.5575 0.0000
# 6 0.0000 0.0000 0.0000 0.0000 0.0000 12.9476
#
#
#
# Elastic Compliance Matrix: (Units=1/GPa)
#
#
# Indices 1 2 3 4 5 6 
#
# 1 0.019461 0.000892 -0.008891 0.000000 0.000000 0.000000
# 2 0.000892 0.006572 -0.002388 0.000000 0.000000 0.000000
# 3 -0.008891 -0.002388 0.017790 0.000000 0.000000 0.000000
# 4 0.000000 0.000000 0.000000 0.017863 0.000000 0.000000
# 5 0.000000 0.000000 0.000000 0.000000 -0.044331 0.000000
# 6 0.000000 0.000000 0.000000 0.000000 0.000000 0.077235
#
#
# Mechanical properties :
#
#
# Convention : Reuss Voigt Hill
#
# Bulk Modulus (GPa) = 43.38327 47.00471 45.19399
# Shear Modulus (GPa) = 40.63477 25.46705 33.05091
#
# Velocity S-wave (km/s) = 4.56135 3.61105 4.11373
# Velocity P-wave (km/s) = 7.06784 6.43845 6.76047
#
# Compressibility (1/GPa) = 0.02305036
#
# Stress axis : x y z
#
# Youngs Moduli (GPa) = 51.38409 152.16173 56.20996
#
# Poissons Ratio (x) = -0.13580 0.49976
# Poissons Ratio (y) = -0.04586 0.13424
# Poissons Ratio (z) = 0.45685 0.36340
#
# Static dielectric constant tensor:
#      x y z
#    x 1.605060 0.000000 0.000000 
#    y 0.000000 1.701050 0.000000 
#    z 0.000000 0.000000 1.784990 
# 
# From -- ./inp_files/1093.got.cif
#   From: 2010.05.17/outbox.cif.g08.bks.cpg/sg48_1_cif.got.tgz:1093.got - 2010.06.03 20:39:00.
