data_PCOD9389979
_publ_section_title
;
Structure prediction by ZEFSAII (Michael W. Deem and Ramdas Pophale) SiO2 
 PCOD9389979
Probable space group: P N N N
;
_chemical_formula_sum "Si O2"
_cell_formula_units_Z 64
_cell_length_a 24.266782
_cell_length_b 9.481430
_cell_length_c 15.743159
_cell_angle_alpha 90.000000
_cell_angle_beta 90.000000
_cell_angle_gamma 90.000000
_cell_volume 3622.245766
_symmetry_space_group_name_H-M "P N N N"
_symmetry_group_IT_number 48
_space_group.IT_coordinate_system_code '2'
_symmetry_cell_setting 'orthorhombic'
loop_
_space_group_symop_operation_xyz
x,y,z
1/2-x,1/2-y,z
x,1/2-y,1/2-z
1/2-x,y,1/2-z
-x,-y,-z
1/2+x,1/2+y,-z
-x,1/2+y,1/2+z
1/2+x,-y,1/2+z
loop_
_atom_site_type_symbol
_atom_site_label
_atom_site_fract_x
_atom_site_fract_y
_atom_site_fract_z
Si Si1 0.974486 0.583326 0.248545
Si Si2 0.803122 0.897932 0.797662
Si Si3 0.741412 0.901157 0.515563
Si Si4 0.350639 0.924112 0.042809
Si Si5 0.306822 0.824227 0.564313
Si Si6 0.544042 0.060431 0.068008
Si Si7 0.077358 0.671778 0.659306
Si Si8 0.895722 0.089416 0.731360
O O1 0.961210 0.750000 0.250000
O O2 0.959845 0.524040 0.155609
O O3 0.946125 0.484204 0.320012
O O4 0.040619 0.567179 0.253803
O O5 0.811148 0.750000 0.750000
O O6 0.750000 0.965709 0.750000
O O7 0.789610 0.876026 0.895602
O O8 0.856654 0.990061 0.785357
O O9 0.750000 0.750000 0.472518
O O10 0.800205 0.968686 0.538807
O O11 0.709175 0.018402 0.462580
O O12 0.381212 0.932329 0.132568
O O13 0.325687 0.770963 0.016998
O O14 0.395929 0.959156 0.972388
O O15 0.250000 0.750000 0.596769
O O16 0.359744 0.828107 0.625623
O O17 0.542279 0.227578 0.094593
O O18 0.500000 0.000000 0.000000
O O19 0.075634 0.750000 0.750000
O O20 0.881588 0.250000 0.750000
#
# Coordination Sequence:
#
# PCOD9389979 Si02
#       8
#     8   8   8   8   8   8   8   8
#     4  10  22  39  58  84 118 146 190 238 283 333
#     4  11  20  34  49  73 112 152 187 228 273 331
#     4  11  20  35  51  80 114 146 185 231 279 331
#     4  10  19  35  55  79 106 146 187 227 277 332
#     4   9  20  35  58  82 110 141 185 234 283 340
#     4  10  19  37  61  80 109 147 187 229 277 334
#     4   9  20  39  61  84 109 148 188 230 285 346
#     4  11  21  33  53  77 109 149 189 230 273 327
#
# _framework density 17.668596999999998
#
# number of rings (size 3 to 8) (size 9 to 14) (size 15 to 20)
#    0.000    1.875    3.750    0.750    0.000    3.000 
#    2.250    0.625    0.000    0.000    0.000    3.500 
#    0.000    0.000    0.000    0.000    0.000    0.000 
#
# Total GULP energy -356760.299582 kJ/mol
# GULP energy per Si atom -5574.379681 kJ/mol
# Density = 1.762838 g / cm^3
# Si number density = 17.668597 Si / 1000 Ang^3
#
#
#
# Elastic Constant Matrix: (Units=GPa)
#
#
# Indices 1 2 3 4 5 6 
#
# 1 80.0475 71.0128 28.1130 0.0000 0.0000 0.0000
# 2 71.0128 131.6223 38.5074 0.0000 0.0000 0.0000
# 3 28.1130 38.5074 50.7735 0.0000 0.0000 0.0000
# 4 0.0000 0.0000 0.0000 -18.2595 0.0000 0.0000
# 5 0.0000 0.0000 0.0000 0.0000 17.5959 0.0000
# 6 0.0000 0.0000 0.0000 0.0000 0.0000 27.8321
#
#
#
# Elastic Compliance Matrix: (Units=1/GPa)
#
#
# Indices 1 2 3 4 5 6 
#
# 1 0.024770 -0.012018 -0.004600 0.000000 0.000000 0.000000
# 2 -0.012018 0.015595 -0.005173 0.000000 0.000000 0.000000
# 3 -0.004600 -0.005173 0.026166 0.000000 0.000000 0.000000
# 4 0.000000 0.000000 0.000000 -0.054766 0.000000 0.000000
# 5 0.000000 0.000000 0.000000 0.000000 0.056831 0.000000
# 6 0.000000 0.000000 0.000000 0.000000 0.000000 0.035930
#
#
# Mechanical properties :
#
#
# Convention : Reuss Voigt Hill
#
# Bulk Modulus (GPa) = 43.57719 59.74553 51.66136
# Shear Modulus (GPa) = 32.10125 13.75438 22.92782
#
# Velocity S-wave (km/s) = 4.26708 2.79313 3.60621
# Velocity P-wave (km/s) = 6.99961 6.65507 6.82951
#
# Compressibility (1/GPa) = 0.02294778
#
# Stress axis : x y z
#
# Youngs Moduli (GPa) = 40.37194 64.12382 38.21771
#
# Poissons Ratio (x) = 0.77063 0.17581
# Poissons Ratio (y) = 0.48518 0.19771
# Poissons Ratio (z) = 0.18572 0.33172
#
# Static dielectric constant tensor:
#      x y z
#    x 1.602690 0.000000 0.000000 
#    y 0.000000 1.535650 0.000000 
#    z 0.000000 0.000000 1.603980 
# 
# From -- ./inp_files/28652.got.cif
#   From: 2010.05.17/outbox.cif.g08.bks.cpg/sg48_15_cif.got.tgz:28652.got - 2010.06.03 20:39:00.
