data_PCOD9389440
_publ_section_title
;
Structure prediction by ZEFSAII (Michael W. Deem and Ramdas Pophale) SiO2 
 PCOD9389440
Probable space group: P M M M
;
_chemical_formula_sum "Si O2"
_cell_formula_units_Z 56
_cell_length_a 9.000000
_cell_length_b 21.000000
_cell_length_c 15.000000
_cell_angle_alpha 90.000000
_cell_angle_beta 90.000000
_cell_angle_gamma 90.000000
_cell_volume 2835.000000
_symmetry_space_group_name_H-M "P M M M"
_symmetry_group_IT_number 47
_symmetry_cell_setting 'orthorhombic'
loop_
_space_group_symop_operation_xyz
x,y,z
-x,-y,z
x,-y,-z
-x,y,-z
-x,-y,-z
x,y,-z
-x,y,z
x,-y,z
loop_
_atom_site_type_symbol
_atom_site_label
_atom_site_fract_x
_atom_site_fract_y
_atom_site_fract_z
Si Si1 0.331535 0.613882 0.824913
Si Si2 0.327510 0.573091 0.376986
Si Si3 0.176952 0.925664 0.683984
Si Si4 0.173161 0.731732 0.895399
Si Si5 0.324721 0.803450 0.750083
Si Si6 0.177301 0.289425 0.600257
Si Si7 0.836816 0.500000 0.898940
Si Si8 0.667998 0.923317 0.500000
O O1 0.500000 0.635601 0.843726
O O2 0.330063 0.581308 0.728927
O O3 0.214730 0.669785 0.838329
O O4 0.267400 0.559713 0.885233
O O5 0.500000 0.578408 0.405844
O O6 0.276819 0.500000 0.398522
O O7 0.237239 0.637118 0.402327
O O8 0.259815 0.874075 0.742382
O O9 0.237418 0.908032 0.586347
O O10 0.000000 0.918422 0.688541
O O11 0.212485 0.000000 0.701475
O O12 0.278907 0.782118 0.848855
O O13 0.000000 0.747999 0.884417
O O14 0.201404 0.721063 0.000000
O O15 0.500000 0.801656 0.736357
O O16 0.253159 0.755083 0.675775
O O17 0.205171 0.263329 0.500000
O O18 0.000000 0.290405 0.615822
O O19 0.000000 0.500000 0.849945
O O20 0.870353 0.500000 0.000000
O O21 0.500000 0.896716 0.500000
O O22 0.653958 0.000000 0.500000
#
# Coordination Sequence:
#
# PCOD9389440 Si02
#       8
#     8   8   8   8   8   8   4   4
#     4  11  21  36  57  83 114 149 192 244 304 369
#     4  10  21  39  61  85 116 155 201 254 313 372
#     4  10  21  38  61  90 127 170 212 254 306 368
#     4  11  24  42  64  90 121 157 200 250 308 376
#     4  12  25  41  65  94 127 165 207 257 310 368
#     4  11  25  43  63  89 122 161 209 261 312 370
#     4  11  23  35  49  75 110 149 192 237 295 364
#     4   9  17  31  53  85 125 165 206 249 294 351
#
# _framework density 19.753086
#
# number of rings (size 3 to 8) (size 9 to 14) (size 15 to 20)
#    0.000    1.286    2.143    3.857    1.000    7.429 
#    0.000    1.429    0.000    0.429    0.000    3.000 
#    0.000    0.000    0.000    0.000    0.000    0.000 
#
# Total GULP energy -312062.980742 kJ/mol
# GULP energy per Si atom -5572.553228 kJ/mol
# Density = 1.970813 g / cm^3
# Si number density = 19.753086 Si / 1000 Ang^3
#
#
#
# Elastic Constant Matrix: (Units=GPa)
#
#
# Indices 1 2 3 4 5 6 
#
# 1 92.0198 40.0046 31.7887 0.0000 0.0000 0.0000
# 2 40.0046 92.2949 27.7159 0.0000 0.0000 0.0000
# 3 31.7887 27.7159 77.4631 0.0000 0.0000 0.0000
# 4 0.0000 0.0000 0.0000 12.7347 0.0000 0.0000
# 5 0.0000 0.0000 0.0000 0.0000 17.4559 0.0000
# 6 0.0000 0.0000 0.0000 0.0000 0.0000 36.2814
#
#
#
# Elastic Compliance Matrix: (Units=1/GPa)
#
#
# Indices 1 2 3 4 5 6 
#
# 1 0.014488 -0.005035 -0.004144 0.000000 0.000000 0.000000
# 2 -0.005035 0.013889 -0.002903 0.000000 0.000000 0.000000
# 3 -0.004144 -0.002903 0.015649 0.000000 0.000000 0.000000
# 4 0.000000 0.000000 0.000000 0.078525 0.000000 0.000000
# 5 0.000000 0.000000 0.000000 0.000000 0.057287 0.000000
# 6 0.000000 0.000000 0.000000 0.000000 0.000000 0.027562
#
#
# Mechanical properties :
#
#
# Convention : Reuss Voigt Hill
#
# Bulk Modulus (GPa) = 50.34958 51.19957 50.77457
# Shear Modulus (GPa) = 20.99208 24.11230 22.55219
#
# Velocity S-wave (km/s) = 3.26348 3.49762 3.38258
# Velocity P-wave (km/s) = 6.30438 6.50286 6.40439
#
# Compressibility (1/GPa) = 0.01986114
#
# Stress axis : x y z
#
# Youngs Moduli (GPa) = 69.02382 71.99868 63.90348
#
# Poissons Ratio (x) = 0.36253 0.26480
# Poissons Ratio (y) = 0.34755 0.18552
# Poissons Ratio (z) = 0.28602 0.20902
#
# Static dielectric constant tensor:
#      x y z
#    x 1.682430 0.000000 0.000000 
#    y 0.000000 1.688170 0.000000 
#    z 0.000000 0.000000 1.731500 
# 
# From -- ./inp_files/21634.got.cif
#   From: 2010.05.17/outbox.ucp.g08.bks.cvg/sg47_11_cif.got.tgz:21634.got - 2010.06.11 16:36:43.
