data_PCOD9389123
_publ_section_title
;
Structure prediction by ZEFSAII (Michael W. Deem and Ramdas Pophale) SiO2 
 PCOD9389123
Probable space group: P M M M
;
_chemical_formula_sum "Si O2"
_cell_formula_units_Z 48
_cell_length_a 15.639754
_cell_length_b 14.181115
_cell_length_c 10.635337
_cell_angle_alpha 90.000000
_cell_angle_beta 90.000000
_cell_angle_gamma 90.000000
_cell_volume 2358.802354
_symmetry_space_group_name_H-M "P M M M"
_symmetry_group_IT_number 47
_symmetry_cell_setting 'orthorhombic'
loop_
_space_group_symop_operation_xyz
x,y,z
-x,-y,z
x,-y,-z
-x,y,-z
-x,-y,-z
x,y,-z
-x,y,z
x,-y,z
loop_
_atom_site_type_symbol
_atom_site_label
_atom_site_fract_x
_atom_site_fract_y
_atom_site_fract_z
Si Si1 0.592426 0.304172 0.645608
Si Si2 0.595420 0.107167 0.756847
Si Si3 0.230057 0.613652 0.645994
Si Si4 0.098247 0.115020 0.642418
Si Si5 0.222025 0.113293 0.863978
Si Si6 0.097759 0.614646 0.858987
O O1 0.590660 0.332291 0.500000
O O2 0.500000 0.331704 0.702293
O O3 0.597862 0.190954 0.656406
O O4 0.679064 0.348534 0.696377
O O5 0.500000 0.111106 0.815589
O O6 0.676705 0.127047 0.844153
O O7 0.605761 0.000000 0.707395
O O8 0.217131 0.644136 0.500000
O O9 0.233191 0.500000 0.644241
O O10 0.156607 0.643004 0.742723
O O11 0.119643 0.145128 0.500000
O O12 0.165840 0.146677 0.746685
O O13 0.000000 0.142331 0.670238
O O14 0.099551 0.000000 0.641522
O O15 0.210392 0.000000 0.866396
O O16 0.194829 0.150231 0.000000
O O17 0.096184 0.500000 0.857125
O O18 0.000000 0.647033 0.843699
O O19 0.127366 0.640952 0.000000
#
# Coordination Sequence:
#
# PCOD9389123 Si02
#       6
#     8   8   8   8   8   8
#     4   9  18  32  49  71 100 132 168 210 252 298
#     4   9  18  32  49  69  94 126 165 210 259 305
#     4   9  17  29  48  76 108 140 170 201 243 295
#     4   8  14  25  41  62  89 120 153 190 234 286
#     4   9  17  28  44  68  94 119 150 191 241 294
#     4   8  14  26  46  73 105 140 174 206 244 292
#
# _framework density 20.349309999999999
#
# number of rings (size 3 to 8) (size 9 to 14) (size 15 to 20)
#    0.000    3.333    0.000    1.000    0.000    2.333 
#    0.000   10.833    0.000    2.500    0.000    2.333 
#    0.000    0.000    0.000    0.000    0.000    0.000 
#
# Total GULP energy -267349.973848 kJ/mol
# GULP energy per Si atom -5569.791122 kJ/mol
# Density = 2.030299 g / cm^3
# Si number density = 20.349310 Si / 1000 Ang^3
#
#
#
# Elastic Constant Matrix: (Units=GPa)
#
#
# Indices 1 2 3 4 5 6 
#
# 1 147.7535 23.6848 101.4650 0.0000 0.0000 0.0000
# 2 23.6848 55.6549 10.1235 0.0000 0.0000 0.0000
# 3 101.4650 10.1235 121.7445 0.0000 0.0000 0.0000
# 4 0.0000 0.0000 0.0000 -1.0770 0.0000 0.0000
# 5 0.0000 0.0000 0.0000 0.0000 27.0550 0.0000
# 6 0.0000 0.0000 0.0000 0.0000 0.0000 -17.2317
#
#
#
# Elastic Compliance Matrix: (Units=1/GPa)
#
#
# Indices 1 2 3 4 5 6 
#
# 1 0.016964 -0.004719 -0.013746 0.000000 0.000000 0.000000
# 2 -0.004719 0.019557 0.002307 0.000000 0.000000 0.000000
# 3 -0.013746 0.002307 0.019478 0.000000 0.000000 0.000000
# 4 0.000000 0.000000 0.000000 -0.928527 0.000000 0.000000
# 5 0.000000 0.000000 0.000000 0.000000 0.036962 0.000000
# 6 0.000000 0.000000 0.000000 0.000000 0.000000 -0.058033
#
#
# Mechanical properties :
#
#
# Convention : Reuss Voigt Hill
#
# Bulk Modulus (GPa) = 42.22514 66.18883 54.20699
# Shear Modulus (GPa) = -5.85900 14.40790 4.27445
#
# Velocity S-wave (km/s) = -1.69866 2.66377 1.45090
# Velocity P-wave (km/s) = 4.11679 6.48520 5.43165
#
# Compressibility (1/GPa) = 0.02368257
#
# Stress axis : x y z
#
# Youngs Moduli (GPa) = 58.94846 51.13389 51.33938
#
# Poissons Ratio (x) = 0.24130 0.70570
# Poissons Ratio (y) = 0.27818 -0.11842
# Poissons Ratio (z) = 0.81029 -0.11795
#
# Static dielectric constant tensor:
#      x y z
#    x 1.747480 0.000000 0.000000 
#    y 0.000000 1.731550 0.000000 
#    z 0.000000 0.000000 1.707650 
# 
# From -- ./inp_files/17507.got.cif
#   From: 2010.05.17/outbox.cif.g08.bks.cpg/sg47_9_cif.got.tgz:17507.got - 2010.06.03 20:15:42.
