data_PCOD9389477
_publ_section_title
;
Structure prediction by ZEFSAII (Michael W. Deem and Ramdas Pophale) SiO2 
 PCOD9389477
Probable space group: P N N N
;
_chemical_formula_sum "Si O2"
_cell_formula_units_Z 40
_cell_length_a 10.436321
_cell_length_b 8.543020
_cell_length_c 21.396567
_cell_angle_alpha 90.000000
_cell_angle_beta 90.000000
_cell_angle_gamma 90.000000
_cell_volume 1907.668681
_symmetry_space_group_name_H-M "P N N N"
_symmetry_group_IT_number 48
_space_group.IT_coordinate_system_code '2'
_symmetry_cell_setting 'orthorhombic'
loop_
_space_group_symop_operation_xyz
x,y,z
1/2-x,1/2-y,z
x,1/2-y,1/2-z
1/2-x,y,1/2-z
-x,-y,-z
1/2+x,1/2+y,-z
-x,1/2+y,1/2+z
1/2+x,-y,1/2+z
loop_
_atom_site_type_symbol
_atom_site_label
_atom_site_fract_x
_atom_site_fract_y
_atom_site_fract_z
Si Si1 0.250000 0.250000 0.502182
Si Si2 0.489803 0.271309 0.091881
Si Si3 0.101665 0.960592 0.174560
Si Si4 0.750000 0.250000 0.595877
Si Si5 0.613238 0.907072 0.794448
Si Si6 0.856598 0.439491 0.014591
O O1 0.371793 0.220863 0.456831
O O2 0.280396 0.409354 0.539385
O O3 0.485696 0.432334 0.130414
O O4 0.462599 0.139032 0.144065
O O5 0.614628 0.214825 0.055277
O O6 0.133059 0.800801 0.139786
O O7 0.245281 0.040580 0.182040
O O8 0.059786 0.963147 0.246630
O O9 0.789672 0.110902 0.549801
O O10 0.611158 0.750000 0.750000
O O11 0.000000 0.500000 0.000000
#
# Coordination Sequence:
#
# PCOD9389477 Si02
#       6
#     4   8   8   4   8   8
#     4  10  16  34  49  74 108 141 178 224 262 322
#     4  10  15  31  52  74 108 144 183 218 264 336
#     4  10  17  28  47  77 113 138 173 222 285 340
#     4  12  22  35  50  84 121 142 172 234 282 338
#     4   9  16  28  53  79 108 149 170 220 288 334
#     4  10  22  34  55  75 109 153 181 222 275 328
#
# _framework density 20.968001000000001
#
# number of rings (size 3 to 8) (size 9 to 14) (size 15 to 20)
#    0.000    2.000    4.000    4.800    0.000    2.400 
#    0.000    0.000    0.000    0.000    0.000    6.300 
#   18.000    0.000    0.000    0.000    0.000    0.000 
#
# Total GULP energy -222803.265046 kJ/mol
# GULP energy per Si atom -5570.081626 kJ/mol
# Density = 2.092028 g / cm^3
# Si number density = 20.968001 Si / 1000 Ang^3
#
#
#
# Elastic Constant Matrix: (Units=GPa)
#
#
# Indices 1 2 3 4 5 6 
#
# 1 53.5315 15.3641 16.3012 0.0000 0.0000 0.0000
# 2 15.3641 78.1151 15.9660 0.0000 0.0000 0.0000
# 3 16.3012 15.9660 62.0392 0.0000 0.0000 0.0000
# 4 0.0000 0.0000 0.0000 12.3066 0.0000 0.0000
# 5 0.0000 0.0000 0.0000 0.0000 4.5445 0.0000
# 6 0.0000 0.0000 0.0000 0.0000 0.0000 23.4896
#
#
#
# Elastic Compliance Matrix: (Units=1/GPa)
#
#
# Indices 1 2 3 4 5 6 
#
# 1 0.021025 -0.003173 -0.004708 0.000000 0.000000 0.000000
# 2 -0.003173 0.013991 -0.002767 0.000000 0.000000 0.000000
# 3 -0.004708 -0.002767 0.018068 0.000000 0.000000 0.000000
# 4 0.000000 0.000000 0.000000 0.081257 0.000000 0.000000
# 5 0.000000 0.000000 0.000000 0.000000 0.220044 0.000000
# 6 0.000000 0.000000 0.000000 0.000000 0.000000 0.042572
#
#
# Mechanical properties :
#
#
# Convention : Reuss Voigt Hill
#
# Bulk Modulus (GPa) = 31.45800 32.10537 31.78169
# Shear Modulus (GPa) = 11.65911 17.80512 14.73211
#
# Velocity S-wave (km/s) = 2.36062 2.91719 2.65354
# Velocity P-wave (km/s) = 4.73977 5.16638 4.95767
#
# Compressibility (1/GPa) = 0.03178841
#
# Stress axis : x y z
#
# Youngs Moduli (GPa) = 47.56258 71.47319 55.34667
#
# Poissons Ratio (x) = 0.22679 0.26056
# Poissons Ratio (y) = 0.15092 0.15314
# Poissons Ratio (z) = 0.22392 0.19776
#
# Static dielectric constant tensor:
#      x y z
#    x 1.731640 0.000000 0.000000 
#    y 0.000000 1.920640 0.000000 
#    z 0.000000 0.000000 1.796840 
# 
# From -- ./inp_files/34052.got.cif
#   From: 2010.05.17/outbox.cif.g08.bks.cpg/sg48_18_cif.got.tgz:34052.got - 2010.06.03 20:39:00.
