data_PCOD9389539
_publ_section_title
;
Structure prediction by ZEFSAII (Michael W. Deem and Ramdas Pophale) SiO2 
 PCOD9389539
Probable space group: P N N N
;
_chemical_formula_sum "Si O2"
_cell_formula_units_Z 48
_cell_length_a 21.132710
_cell_length_b 7.237091
_cell_length_c 12.153882
_cell_angle_alpha 90.000000
_cell_angle_beta 90.000000
_cell_angle_gamma 90.000000
_cell_volume 1858.806756
_symmetry_space_group_name_H-M "P N N N"
_symmetry_group_IT_number 48
_space_group.IT_coordinate_system_code '2'
_symmetry_cell_setting 'orthorhombic'
loop_
_space_group_symop_operation_xyz
x,y,z
1/2-x,1/2-y,z
x,1/2-y,1/2-z
1/2-x,y,1/2-z
-x,-y,-z
1/2+x,1/2+y,-z
-x,1/2+y,1/2+z
1/2+x,-y,1/2+z
loop_
_atom_site_type_symbol
_atom_site_label
_atom_site_fract_x
_atom_site_fract_y
_atom_site_fract_z
Si Si1 0.908476 0.400155 0.082302
Si Si2 0.909027 0.531279 0.750616
Si Si3 0.504745 0.281451 0.584420
Si Si4 0.399681 0.438230 0.811294
Si Si5 0.335494 0.046891 0.462171
Si Si6 0.805990 0.983218 0.573616
O O1 0.902767 0.420334 0.211422
O O2 0.944903 0.591242 0.050600
O O3 0.955587 0.255040 0.026312
O O4 0.843086 0.399884 0.018009
O O5 0.926933 0.750000 0.750000
O O6 0.954345 0.404684 0.828044
O O7 0.890858 0.490230 0.623743
O O8 0.841385 0.499833 0.810594
O O9 0.469386 0.387966 0.858150
O O10 0.376911 0.250000 0.750000
O O11 0.355475 0.489547 0.912514
O O12 0.267376 0.969343 0.428102
O O13 0.321150 0.267705 0.454375
#
# Coordination Sequence:
#
# PCOD9389539 Si02
#       6
#     8   8   8   8   8   8
#     4   9  17  30  47  68  97 132 164 197 246 306
#     4   9  18  29  45  67  96 135 163 196 248 299
#     4   9  17  31  49  61  94 140 163 199 243 302
#     4  10  18  31  46  70  98 130 169 196 244 315
#     4  10  17  27  45  68  99 130 152 198 252 306
#     4   9  16  28  44  67  96 133 151 189 254 313
#
# _framework density 25.823018000000001
#
# number of rings (size 3 to 8) (size 9 to 14) (size 15 to 20)
#    0.000    2.667    3.333    0.500    2.333    2.667 
#    0.000    3.333    0.000    0.000    0.000    0.000 
#    0.000  129.333   21.000    0.333    0.000    0.000 
#
# Total GULP energy -268456.869236 kJ/mol
# GULP energy per Si atom -5592.851442 kJ/mol
# Density = 2.576424 g / cm^3
# Si number density = 25.823018 Si / 1000 Ang^3
#
#
#
# Elastic Constant Matrix: (Units=GPa)
#
#
# Indices 1 2 3 4 5 6 
#
# 1 111.9528 10.5533 39.1197 0.0000 0.0000 0.0000
# 2 10.5533 95.8524 47.9883 0.0000 0.0000 0.0000
# 3 39.1197 47.9883 187.4741 0.0000 0.0000 0.0000
# 4 0.0000 0.0000 0.0000 32.2805 0.0000 0.0000
# 5 0.0000 0.0000 0.0000 0.0000 43.1984 0.0000
# 6 0.0000 0.0000 0.0000 0.0000 0.0000 21.3927
#
#
#
# Elastic Compliance Matrix: (Units=1/GPa)
#
#
# Indices 1 2 3 4 5 6 
#
# 1 0.009635 -0.000062 -0.001995 0.000000 0.000000 0.000000
# 2 -0.000062 0.011967 -0.003050 0.000000 0.000000 0.000000
# 3 -0.001995 -0.003050 0.006531 0.000000 0.000000 0.000000
# 4 0.000000 0.000000 0.000000 0.030978 0.000000 0.000000
# 5 0.000000 0.000000 0.000000 0.000000 0.023149 0.000000
# 6 0.000000 0.000000 0.000000 0.000000 0.000000 0.046745
#
#
# Mechanical properties :
#
#
# Convention : Reuss Voigt Hill
#
# Bulk Modulus (GPa) = 55.80715 65.62242 60.71478
# Shear Modulus (GPa) = 34.43712 39.21552 36.82632
#
# Velocity S-wave (km/s) = 3.65579 3.90118 3.78048
# Velocity P-wave (km/s) = 6.28315 6.76460 6.52832
#
# Compressibility (1/GPa) = 0.01791885
#
# Stress axis : x y z
#
# Youngs Moduli (GPa) = 103.78633 83.56590 153.11512
#
# Poissons Ratio (x) = 0.00520 0.30541
# Poissons Ratio (y) = 0.00646 0.46702
# Poissons Ratio (z) = 0.20701 0.25489
#
# Static dielectric constant tensor:
#      x y z
#    x 1.985440 0.000000 0.000000 
#    y 0.000000 2.158430 0.000000 
#    z 0.000000 0.000000 2.035890 
# 
# From -- ./inp_files/21598.got.cif
#   From: 2010.05.17/outbox.cif.g08.bks.cpg/sg48_11_cif.got.tgz:21598.got - 2010.06.03 20:39:00.
