data_PCOD9389828
_publ_section_title
;
Structure prediction by ZEFSAII (Michael W. Deem and Ramdas Pophale) SiO2 
 PCOD9389828
Probable space group: P N N N
;
_chemical_formula_sum "Si O2"
_cell_formula_units_Z 56
_cell_length_a 11.479906
_cell_length_b 22.902678
_cell_length_c 10.214076
_cell_angle_alpha 90.000000
_cell_angle_beta 90.000000
_cell_angle_gamma 90.000000
_cell_volume 2685.490894
_symmetry_space_group_name_H-M "P N N N"
_symmetry_group_IT_number 48
_space_group.IT_coordinate_system_code '2'
_symmetry_cell_setting 'orthorhombic'
loop_
_space_group_symop_operation_xyz
x,y,z
1/2-x,1/2-y,z
x,1/2-y,1/2-z
1/2-x,y,1/2-z
-x,-y,-z
1/2+x,1/2+y,-z
-x,1/2+y,1/2+z
1/2+x,-y,1/2+z
loop_
_atom_site_type_symbol
_atom_site_label
_atom_site_fract_x
_atom_site_fract_y
_atom_site_fract_z
Si Si1 0.621112 0.279847 0.952570
Si Si2 0.888443 0.162973 0.230876
Si Si3 0.543195 0.336721 0.515248
Si Si4 0.654144 0.512260 0.046852
Si Si5 0.598536 0.950482 0.984363
Si Si6 0.718399 0.103083 0.608641
Si Si7 0.475368 0.454889 0.200697
O O1 0.750000 0.250000 0.958987
O O2 0.587887 0.304601 0.095466
O O3 0.541894 0.225142 0.909280
O O4 0.636828 0.339801 0.871443
O O5 0.750000 0.165101 0.250000
O O6 0.947264 0.184209 0.364221
O O7 0.936040 0.097777 0.223012
O O8 0.445872 0.386364 0.525288
O O9 0.663339 0.371551 0.545338
O O10 0.785670 0.532889 0.062223
O O11 0.666610 0.447271 0.982264
O O12 0.597266 0.550869 0.932237
O O13 0.563842 0.508487 0.167294
O O14 0.609001 0.954172 0.825778
O O15 0.500000 0.000000 0.000000
O O16 0.750000 0.078004 0.750000
#
# Coordination Sequence:
#
# PCOD9389828 Si02
#       7
#     8   8   8   8   8   8   8
#     4  10  19  30  50  79 111 141 177 231 290 340
#     4  11  17  32  53  82 111 135 177 236 280 348
#     4  10  21  31  50  80 108 146 181 220 295 334
#     4  11  21  40  56  81 116 151 193 233 285 354
#     4  11  22  36  56  83 115 151 188 241 281 349
#     4  11  20  32  52  76 113 150 185 229 285 343
#     4  10  23  35  58  82 111 155 187 231 297 341
#
# _framework density 20.852798
#
# number of rings (size 3 to 8) (size 9 to 14) (size 15 to 20)
#    0.000    1.429    5.714    1.714    2.000    2.571 
#    0.000    0.000    0.000    0.857    0.000    4.000 
#    0.000    0.000    0.000    0.000    0.000    0.000 
#
# Total GULP energy -312205.786187 kJ/mol
# GULP energy per Si atom -5575.103325 kJ/mol
# Density = 2.080534 g / cm^3
# Si number density = 20.852798 Si / 1000 Ang^3
#
#
#
# Elastic Constant Matrix: (Units=GPa)
#
#
# Indices 1 2 3 4 5 6 
#
# 1 63.2125 8.7654 -12.2500 0.0000 0.0000 0.0000
# 2 8.7654 74.0647 -7.6582 0.0000 0.0000 0.0000
# 3 -12.2500 -7.6582 35.3483 0.0000 0.0000 0.0000
# 4 0.0000 0.0000 0.0000 23.8465 0.0000 0.0000
# 5 0.0000 0.0000 0.0000 0.0000 -56.6886 0.0000
# 6 0.0000 0.0000 0.0000 0.0000 0.0000 14.6125
#
#
#
# Elastic Compliance Matrix: (Units=1/GPa)
#
#
# Indices 1 2 3 4 5 6 
#
# 1 0.017108 -0.001444 0.005616 0.000000 0.000000 0.000000
# 2 -0.001444 0.013933 0.002518 0.000000 0.000000 0.000000
# 3 0.005616 0.002518 0.030782 0.000000 0.000000 0.000000
# 4 0.000000 0.000000 0.000000 0.041935 0.000000 0.000000
# 5 0.000000 0.000000 0.000000 0.000000 -0.017640 0.000000
# 6 0.000000 0.000000 0.000000 0.000000 0.000000 0.068435
#
#
# Mechanical properties :
#
#
# Convention : Reuss Voigt Hill
#
# Bulk Modulus (GPa) = 13.29729 16.70441 15.00085
# Shear Modulus (GPa) = 30.07707 8.60529 19.34118
#
# Velocity S-wave (km/s) = 3.80195 2.03363 3.04881
# Velocity P-wave (km/s) = 5.06593 3.67997 4.42752
#
# Compressibility (1/GPa) = 0.07520330
#
# Stress axis : x y z
#
# Youngs Moduli (GPa) = 58.45136 71.77216 32.48683
#
# Poissons Ratio (x) = 0.10364 -0.18245
# Poissons Ratio (y) = 0.08441 -0.08181
# Poissons Ratio (z) = -0.32827 -0.18073
#
# Static dielectric constant tensor:
#      x y z
#    x 1.752740 0.000000 0.000000 
#    y 0.000000 1.867760 0.000000 
#    z 0.000000 0.000000 1.879160 
# 
# From -- ./inp_files/20392.got.cif
#   From: 2010.05.17/outbox.cif.g08.bks.cpg/sg48_11_cif.got.tgz:20392.got - 2010.06.03 20:39:00.
