data_PCOD9389517
_publ_section_title
;
Structure prediction by ZEFSAII (Michael W. Deem and Ramdas Pophale) SiO2 
 PCOD9389517
Probable space group: P N N N
;
_chemical_formula_sum "Si O2"
_cell_formula_units_Z 64
_cell_length_a 16.981614
_cell_length_b 21.318678
_cell_length_c 9.108787
_cell_angle_alpha 90.000000
_cell_angle_beta 90.000000
_cell_angle_gamma 90.000000
_cell_volume 3297.613722
_symmetry_space_group_name_H-M "P N N N"
_symmetry_group_IT_number 48
_space_group.IT_coordinate_system_code '2'
_symmetry_cell_setting 'orthorhombic'
loop_
_space_group_symop_operation_xyz
x,y,z
1/2-x,1/2-y,z
x,1/2-y,1/2-z
1/2-x,y,1/2-z
-x,-y,-z
1/2+x,1/2+y,-z
-x,1/2+y,1/2+z
1/2+x,-y,1/2+z
loop_
_atom_site_type_symbol
_atom_site_label
_atom_site_fract_x
_atom_site_fract_y
_atom_site_fract_z
Si Si1 0.002005 0.055834 0.214254
Si Si2 0.601640 0.396992 0.981302
Si Si3 0.261860 0.681942 0.921643
Si Si4 0.869488 0.533114 0.934848
Si Si5 0.788721 0.509279 0.407976
Si Si6 0.422493 0.423421 0.753014
Si Si7 0.460837 0.676755 0.278451
Si Si8 0.606918 0.105603 0.026976
O O1 0.981691 0.088607 0.060226
O O2 0.935798 0.086380 0.322022
O O3 0.087326 0.060876 0.291263
O O4 0.980165 0.981908 0.205287
O O5 0.650386 0.341962 0.058533
O O6 0.655577 0.457993 0.013381
O O7 0.595364 0.368432 0.819235
O O8 0.250000 0.750000 0.994090
O O9 0.250000 0.688034 0.750000
O O10 0.195728 0.631693 0.968243
O O11 0.777079 0.531606 0.976500
O O12 0.906608 0.564627 0.080065
O O13 0.892996 0.459920 0.940555
O O14 0.750000 0.484996 0.250000
O O15 0.844782 0.563904 0.347385
O O16 0.456068 0.353945 0.764964
O O17 0.452773 0.750000 0.250000
O O18 0.442246 0.658852 0.445054
#
# Coordination Sequence:
#
# PCOD9389517 Si02
#       8
#     8   8   8   8   8   8   8   8
#     4  10  18  33  62  83 104 139 197 251 290 330
#     4  11  22  36  54  84 114 156 191 238 286 343
#     4  11  21  34  54  78 113 155 199 237 263 338
#     4  10  16  33  62  84 103 141 189 253 291 342
#     4   9  18  32  61  88 111 140 190 253 302 345
#     4   9  18  34  57  85 109 150 190 237 293 342
#     4  12  25  39  53  77 123 165 187 228 284 357
#     4  11  19  36  56  79 109 151 197 224 283 346
#
# _framework density 19.407972999999998
#
# number of rings (size 3 to 8) (size 9 to 14) (size 15 to 20)
#    0.000    1.625    5.000    2.625    0.000    2.500 
#    0.000    1.250    0.000    3.375    0.000    0.000 
#    0.000    0.000   31.750    0.000    0.000    0.000 
#
# Total GULP energy -356603.459188 kJ/mol
# GULP energy per Si atom -5571.929050 kJ/mol
# Density = 1.936380 g / cm^3
# Si number density = 19.407973 Si / 1000 Ang^3
#
#
#
# Elastic Constant Matrix: (Units=GPa)
#
#
# Indices 1 2 3 4 5 6 
#
# 1 80.7494 20.3701 24.7550 0.0000 0.0000 0.0000
# 2 20.3701 58.5268 26.7076 0.0000 0.0000 0.0000
# 3 24.7550 26.7076 59.8642 0.0000 0.0000 0.0000
# 4 0.0000 0.0000 0.0000 14.0885 0.0000 0.0000
# 5 0.0000 0.0000 0.0000 0.0000 24.3359 0.0000
# 6 0.0000 0.0000 0.0000 0.0000 0.0000 43.7093
#
#
#
# Elastic Compliance Matrix: (Units=1/GPa)
#
#
# Indices 1 2 3 4 5 6 
#
# 1 0.014567 -0.002915 -0.004724 0.000000 0.000000 0.000000
# 2 -0.002915 0.022037 -0.008626 0.000000 0.000000 0.000000
# 3 -0.004724 -0.008626 0.022506 0.000000 0.000000 0.000000
# 4 0.000000 0.000000 0.000000 0.070980 0.000000 0.000000
# 5 0.000000 0.000000 0.000000 0.000000 0.041092 0.000000
# 6 0.000000 0.000000 0.000000 0.000000 0.000000 0.022878
#
#
# Mechanical properties :
#
#
# Convention : Reuss Voigt Hill
#
# Bulk Modulus (GPa) = 37.61984 38.08955 37.85470
# Shear Modulus (GPa) = 21.23594 24.91392 23.07493
#
# Velocity S-wave (km/s) = 3.31144 3.58676 3.45184
# Velocity P-wave (km/s) = 5.83495 6.06807 5.95265
#
# Compressibility (1/GPa) = 0.02658172
#
# Stress axis : x y z
#
# Youngs Moduli (GPa) = 68.64679 45.37803 44.43200
#
# Poissons Ratio (x) = 0.13226 0.20988
# Poissons Ratio (y) = 0.20008 0.38328
# Poissons Ratio (z) = 0.32426 0.39145
#
# Static dielectric constant tensor:
#      x y z
#    x 1.776770 0.000000 0.000000 
#    y 0.000000 1.669280 0.000000 
#    z 0.000000 0.000000 1.719880 
# 
# From -- ./inp_files/14565.got.cif
#   From: 2010.05.17/outbox.cif.g08.bks.cpg/sg48_8_cif.got.tgz:14565.got - 2010.06.03 20:39:00.
