data_PCOD9389321
_publ_section_title
;
Structure prediction by ZEFSAII (Michael W. Deem and Ramdas Pophale) SiO2 
 PCOD9389321
Probable space group: P M M M
;
_chemical_formula_sum "Si O2"
_cell_formula_units_Z 52
_cell_length_a 9.000000
_cell_length_b 15.000000
_cell_length_c 21.000000
_cell_angle_alpha 90.000000
_cell_angle_beta 90.000000
_cell_angle_gamma 90.000000
_cell_volume 2835.000000
_symmetry_space_group_name_H-M "P M M M"
_symmetry_group_IT_number 47
_symmetry_cell_setting 'orthorhombic'
loop_
_space_group_symop_operation_xyz
x,y,z
-x,-y,z
x,-y,-z
-x,y,-z
-x,-y,-z
x,y,-z
-x,y,z
x,-y,z
loop_
_atom_site_type_symbol
_atom_site_label
_atom_site_fract_x
_atom_site_fract_y
_atom_site_fract_z
Si Si1 0.821297 0.219430 0.381924
Si Si2 0.680088 0.712231 0.927760
Si Si3 0.324005 0.105183 0.727282
Si Si4 0.321062 0.605725 0.672638
Si Si5 0.679888 0.900961 0.876484
Si Si6 0.319593 0.108040 0.500000
Si Si7 0.825671 0.606483 0.810730
O O1 0.773842 0.166281 0.318045
O O2 0.754037 0.319674 0.373001
O O3 0.747931 0.161076 0.439086
O O4 0.000000 0.223235 0.389084
O O5 0.500000 0.706746 0.921693
O O6 0.725332 0.815695 0.917192
O O7 0.753686 0.656197 0.870958
O O8 0.718788 0.684078 0.000000
O O9 0.500000 0.126940 0.719363
O O10 0.285592 0.115510 0.801889
O O11 0.306772 0.000000 0.711602
O O12 0.500000 0.615789 0.671218
O O13 0.287537 0.500000 0.658614
O O14 0.259996 0.624295 0.744251
O O15 0.500000 0.904600 0.880084
O O16 0.734890 0.000000 0.894591
O O17 0.500000 0.114829 0.500000
O O18 0.285024 0.000000 0.500000
O O19 0.816512 0.500000 0.821347
O O20 0.000000 0.630382 0.803778
#
# Coordination Sequence:
#
# PCOD9389321 Si02
#       7
#     8   8   8   8   8   4   8
#     4  12  24  37  58  88 122 156 189 232 284 335
#     4  10  20  32  49  75 105 141 186 231 276 334
#     4   9  17  31  53  79 107 144 191 238 283 336
#     4  10  21  39  64  90 115 146 186 232 281 336
#     4   8  15  29  49  73 101 134 176 227 277 324
#     4  11  25  45  66  87 118 163 209 244 274 319
#     4  10  21  37  57  81 109 141 179 228 287 343
#
# _framework density 18.342151999999999
#
# number of rings (size 3 to 8) (size 9 to 14) (size 15 to 20)
#    0.000    2.077    0.000    4.846    0.000    6.769 
#    0.000    3.462    0.000    3.692    0.000    1.077 
#    0.000    0.000    0.000    0.000    0.000    0.000 
#
# Total GULP energy -290273.898894 kJ/mol
# GULP energy per Si atom -5582.190363 kJ/mol
# Density = 1.830040 g / cm^3
# Si number density = 18.342152 Si / 1000 Ang^3
#
#
#
# Elastic Constant Matrix: (Units=GPa)
#
#
# Indices 1 2 3 4 5 6 
#
# 1 98.4757 51.8943 38.7173 0.0000 0.0000 0.0000
# 2 51.8943 112.2222 60.1553 0.0000 0.0000 0.0000
# 3 38.7173 60.1553 71.2656 0.0000 0.0000 0.0000
# 4 0.0000 0.0000 0.0000 32.1085 0.0000 0.0000
# 5 0.0000 0.0000 0.0000 0.0000 15.7932 0.0000
# 6 0.0000 0.0000 0.0000 0.0000 0.0000 25.6662
#
#
#
# Elastic Compliance Matrix: (Units=1/GPa)
#
#
# Indices 1 2 3 4 5 6 
#
# 1 0.013999 -0.004377 -0.003911 0.000000 0.000000 0.000000
# 2 -0.004377 0.017643 -0.012515 0.000000 0.000000 0.000000
# 3 -0.003911 -0.012515 0.026720 0.000000 0.000000 0.000000
# 4 0.000000 0.000000 0.000000 0.031144 0.000000 0.000000
# 5 0.000000 0.000000 0.000000 0.000000 0.063318 0.000000
# 6 0.000000 0.000000 0.000000 0.000000 0.000000 0.038962
#
#
# Mechanical properties :
#
#
# Convention : Reuss Voigt Hill
#
# Bulk Modulus (GPa) = 59.67455 64.83304 62.25379
# Shear Modulus (GPa) = 20.92244 23.46004 22.19124
#
# Velocity S-wave (km/s) = 3.38105 3.58022 3.48206
# Velocity P-wave (km/s) = 6.91714 7.24665 7.08381
#
# Compressibility (1/GPa) = 0.01675756
#
# Stress axis : x y z
#
# Youngs Moduli (GPa) = 71.43365 56.67843 37.42486
#
# Poissons Ratio (x) = 0.24810 0.14635
# Poissons Ratio (y) = 0.31269 0.46836
# Poissons Ratio (z) = 0.27934 0.70931
#
# Static dielectric constant tensor:
#      x y z
#    x 1.615740 0.000000 0.000000 
#    y 0.000000 1.653930 0.000000 
#    z 0.000000 0.000000 1.624350 
# 
# From -- ./inp_files/29546.got.cif
#   From: 2010.05.17/outbox.ucp.g08.bks.cvg/sg47_15_cif.got.tgz:29546.got - 2010.06.11 16:36:43.
