data_PCOD9389338
_publ_section_title
;
Structure prediction by ZEFSAII (Michael W. Deem and Ramdas Pophale) SiO2 
 PCOD9389338
Probable space group: P M M M
;
_chemical_formula_sum "Si O2"
_cell_formula_units_Z 40
_cell_length_a 27.000000
_cell_length_b 9.000000
_cell_length_c 9.000000
_cell_angle_alpha 90.000000
_cell_angle_beta 90.000000
_cell_angle_gamma 90.000000
_cell_volume 2187.000000
_symmetry_space_group_name_H-M "P M M M"
_symmetry_group_IT_number 47
_symmetry_cell_setting 'orthorhombic'
loop_
_space_group_symop_operation_xyz
x,y,z
-x,-y,z
x,-y,-z
-x,y,-z
-x,-y,-z
x,y,-z
-x,y,z
x,-y,z
loop_
_atom_site_type_symbol
_atom_site_label
_atom_site_fract_x
_atom_site_fract_y
_atom_site_fract_z
Si Si1 0.647053 0.820976 0.330652
Si Si2 0.554592 0.674174 0.178294
Si Si3 0.053733 0.324797 0.680126
Si Si4 0.846529 0.821678 0.673943
Si Si5 0.253448 0.818552 0.830064
O O1 0.645026 0.771292 0.500000
O O2 0.599331 0.764021 0.245669
O O3 0.698002 0.768507 0.256782
O O4 0.647529 0.000000 0.327372
O O5 0.500000 0.725532 0.228051
O O6 0.559262 0.500000 0.216382
O O7 0.556077 0.685014 0.000000
O O8 0.053549 0.308372 0.500000
O O9 0.057086 0.500000 0.710904
O O10 0.102357 0.242950 0.735556
O O11 0.000000 0.270035 0.733591
O O12 0.842060 0.781590 0.500000
O O13 0.797729 0.768478 0.757543
O O14 0.848610 0.000000 0.682462
O O15 0.253049 0.000000 0.825188
O O16 0.256637 0.772836 0.000000
#
# Coordination Sequence:
#
# PCOD9389338 Si02
#       5
#     8   8   8   8   8
#     4  10  20  33  51  76 103 129 161 202 244 287
#     4   9  19  36  55  74  99 132 167 201 239 285
#     4   8  14  25  41  62  89 119 148 180 223 274
#     4   9  16  26  43  67  91 114 146 190 232 269
#     4   9  17  30  48  68  92 124 158 191 233 284
#
# _framework density 18.289895000000001
#
# number of rings (size 3 to 8) (size 9 to 14) (size 15 to 20)
#    0.000    3.000    0.000    2.400    0.000    5.200 
#    0.000    6.000    0.000    4.800    0.000    4.200 
#    0.000    0.000    0.000    0.000    0.000    0.000 
#
# Total GULP energy -222817.010650 kJ/mol
# GULP energy per Si atom -5570.425266 kJ/mol
# Density = 1.824827 g / cm^3
# Si number density = 18.289895 Si / 1000 Ang^3
#
#
#
# Elastic Constant Matrix: (Units=GPa)
#
#
# Indices 1 2 3 4 5 6 
#
# 1 171.5380 27.6252 44.0528 0.0000 0.0000 0.0000
# 2 27.6252 -5.9524 17.4403 0.0000 0.0000 0.0000
# 3 44.0528 17.4403 27.0942 0.0000 0.0000 0.0000
# 4 0.0000 0.0000 0.0000 10.3104 0.0000 0.0000
# 5 0.0000 0.0000 0.0000 0.0000 31.3855 0.0000
# 6 0.0000 0.0000 0.0000 0.0000 0.0000 52.8884
#
#
#
# Elastic Compliance Matrix: (Units=1/GPa)
#
#
# Indices 1 2 3 4 5 6 
#
# 1 0.010006 -0.000426 -0.015994 0.000000 0.000000 0.000000
# 2 -0.000426 -0.058194 0.038151 0.000000 0.000000 0.000000
# 3 -0.015994 0.038151 0.038356 0.000000 0.000000 0.000000
# 4 0.000000 0.000000 0.000000 0.096990 0.000000 0.000000
# 5 0.000000 0.000000 0.000000 0.000000 0.031862 0.000000
# 6 0.000000 0.000000 0.000000 0.000000 0.000000 0.018908
#
#
# Mechanical properties :
#
#
# Convention : Reuss Voigt Hill
#
# Bulk Modulus (GPa) = 29.73523 41.21292 35.47407
# Shear Modulus (GPa) = 47.31504 25.82096 36.56800
#
# Velocity S-wave (km/s) = 5.09172 3.76142 4.47627
# Velocity P-wave (km/s) = 7.13166 6.43789 6.79364
#
# Compressibility (1/GPa) = 0.03363014
#
# Stress axis : x y z
#
# Youngs Moduli (GPa) = 99.94297 -17.18393 26.07151
#
# Poissons Ratio (x) = -0.00732 0.41700
# Poissons Ratio (y) = 0.04256 -0.99466
# Poissons Ratio (z) = 1.59852 0.65559
#
# Static dielectric constant tensor:
#      x y z
#    x 1.644800 0.000000 0.000000 
#    y 0.000000 1.613270 0.000000 
#    z 0.000000 0.000000 1.623760 
# 
# From -- ./inp_files/1386.got.cif
#   From: 2010.05.17/outbox.ucp.g08.bks.cvg/sg47_1_cif.got.tgz:1386.got - 2010.06.11 16:36:43.
