data_PCOD9389358
_publ_section_title
;
Structure prediction by ZEFSAII (Michael W. Deem and Ramdas Pophale) SiO2 
 PCOD9389358
Probable space group: P M M M
;
_chemical_formula_sum "Si O2"
_cell_formula_units_Z 48
_cell_length_a 9.000000
_cell_length_b 9.000000
_cell_length_c 30.000000
_cell_angle_alpha 90.000000
_cell_angle_beta 90.000000
_cell_angle_gamma 90.000000
_cell_volume 2430.000000
_symmetry_space_group_name_H-M "P M M M"
_symmetry_group_IT_number 47
_symmetry_cell_setting 'orthorhombic'
loop_
_space_group_symop_operation_xyz
x,y,z
-x,-y,z
x,-y,-z
-x,y,-z
-x,-y,-z
x,y,-z
-x,y,z
x,-y,z
loop_
_atom_site_type_symbol
_atom_site_label
_atom_site_fract_x
_atom_site_fract_y
_atom_site_fract_z
Si Si1 0.818344 0.330438 0.500000
Si Si2 0.170133 0.336281 0.834625
Si Si3 0.666082 0.000000 0.947702
Si Si4 0.328640 0.323832 0.669787
Si Si5 0.323109 0.666484 0.072445
Si Si6 0.328634 0.172966 0.760762
Si Si7 0.178605 0.832131 0.411222
O O1 0.769891 0.500000 0.500000
O O2 0.767814 0.247302 0.455881
O O3 0.000000 0.329488 0.500000
O O4 0.179099 0.500000 0.812737
O O5 0.281732 0.338681 0.875799
O O6 0.221426 0.211667 0.800971
O O7 0.000000 0.316612 0.850007
O O8 0.734310 0.165835 0.939546
O O9 0.500000 0.000000 0.925574
O O10 0.647290 0.000000 0.000000
O O11 0.500000 0.275627 0.663312
O O12 0.323253 0.500000 0.668609
O O13 0.282231 0.265155 0.717832
O O14 0.229563 0.256524 0.631493
O O15 0.500000 0.670092 0.063412
O O16 0.271774 0.500000 0.055079
O O17 0.500000 0.213002 0.772339
O O18 0.325200 0.000000 0.749912
O O19 0.000000 0.835113 0.412959
O O20 0.233578 0.000000 0.409033
#
# Coordination Sequence:
#
# PCOD9389358 Si02
#       7
#     4   8   4   8   8   8   8
#     4   9  17  31  52  77 104 135 172 212 256 307
#     4  10  21  36  54  78 108 141 178 223 271 318
#     4   9  18  32  53  83 113 141 183 235 279 326
#     4  10  21  37  56  77 103 137 175 215 261 314
#     4   9  18  33  54  79 109 146 185 227 277 330
#     4  10  21  36  55  78 104 137 176 217 263 318
#     4  10  20  34  54  79 106 136 171 213 260 311
#
# _framework density 19.753086
#
# number of rings (size 3 to 8) (size 9 to 14) (size 15 to 20)
#    0.000    2.333    0.000    2.250    1.167    6.000 
#    0.000    2.083    0.000    3.500    0.000    2.333 
#    0.000    0.000    0.000    0.000    0.000    0.000 
#
# Total GULP energy -267203.015505 kJ/mol
# GULP energy per Si atom -5566.729490 kJ/mol
# Density = 1.970813 g / cm^3
# Si number density = 19.753086 Si / 1000 Ang^3
#
#
#
# Elastic Constant Matrix: (Units=GPa)
#
#
# Indices 1 2 3 4 5 6 
#
# 1 -7.6418 5.6927 14.2254 0.0000 0.0000 0.0000
# 2 5.6927 119.2246 41.9922 0.0000 0.0000 0.0000
# 3 14.2254 41.9922 49.9667 0.0000 0.0000 0.0000
# 4 0.0000 0.0000 0.0000 32.6091 0.0000 0.0000
# 5 0.0000 0.0000 0.0000 0.0000 2.6284 0.0000
# 6 0.0000 0.0000 0.0000 0.0000 0.0000 14.5917
#
#
#
# Elastic Compliance Matrix: (Units=1/GPa)
#
#
# Indices 1 2 3 4 5 6 
#
# 1 -0.082244 -0.006136 0.028571 0.000000 0.000000 0.000000
# 2 -0.006136 0.011456 -0.007881 0.000000 0.000000 0.000000
# 3 0.028571 -0.007881 0.018502 0.000000 0.000000 0.000000
# 4 0.000000 0.000000 0.000000 0.030666 0.000000 0.000000
# 5 0.000000 0.000000 0.000000 0.000000 0.380457 0.000000
# 6 0.000000 0.000000 0.000000 0.000000 0.000000 0.068532
#
#
# Mechanical properties :
#
#
# Convention : Reuss Voigt Hill
#
# Bulk Modulus (GPa) = -43.14736 31.70778 -5.71979
# Shear Modulus (GPa) = 12.80291 16.60846 14.70569
#
# Velocity S-wave (km/s) = 2.54864 2.90281 2.73147
# Velocity P-wave (km/s) = 3.63731 5.22704 2.65442
#
# Compressibility (1/GPa) = -0.02317639
#
# Stress axis : x y z
#
# Youngs Moduli (GPa) = -12.15901 87.28850 54.04757
#
# Poissons Ratio (x) = 0.53562 -1.54422
# Poissons Ratio (y) = -0.07461 0.42594
# Poissons Ratio (z) = 0.34740 0.68791
#
# Static dielectric constant tensor:
#      x y z
#    x 1.699730 0.000000 0.000000 
#    y 0.000000 1.753010 0.000000 
#    z 0.000000 0.000000 1.671400 
# 
# From -- ./inp_files/34100.got.cif
#   From: 2010.05.17/outbox.ucp.g08.bks.cvg/sg47_18_cif.got.tgz:34100.got - 2010.06.11 16:36:43.
