data_PCOD9389114
_publ_section_title
;
Structure prediction by ZEFSAII (Michael W. Deem and Ramdas Pophale) SiO2 
 PCOD9389114
Probable space group: P M M M
;
_chemical_formula_sum "Si O2"
_cell_formula_units_Z 52
_cell_length_a 35.111386
_cell_length_b 7.484804
_cell_length_c 9.507875
_cell_angle_alpha 90.000000
_cell_angle_beta 90.000000
_cell_angle_gamma 90.000000
_cell_volume 2498.687067
_symmetry_space_group_name_H-M "P M M M"
_symmetry_group_IT_number 47
_symmetry_cell_setting 'orthorhombic'
loop_
_space_group_symop_operation_xyz
x,y,z
-x,-y,z
x,-y,-z
-x,y,-z
-x,-y,-z
x,y,-z
-x,y,z
x,-y,z
loop_
_atom_site_type_symbol
_atom_site_label
_atom_site_fract_x
_atom_site_fract_y
_atom_site_fract_z
Si Si1 0.696090 0.780836 0.161272
Si Si2 0.459080 0.285349 0.336305
Si Si3 0.146038 0.286402 0.339480
Si Si4 0.000000 0.718116 0.662198
Si Si5 0.375709 0.788335 0.660108
Si Si6 0.925950 0.718614 0.838201
Si Si7 0.768168 0.213863 0.339850
O O1 0.658645 0.719604 0.245245
O O2 0.734241 0.721404 0.241350
O O3 0.695993 0.000000 0.161312
O O4 0.695561 0.723874 0.000000
O O5 0.458339 0.224908 0.500000
O O6 0.500000 0.224283 0.276043
O O7 0.459890 0.500000 0.337000
O O8 0.418034 0.234932 0.276612
O O9 0.142535 0.216916 0.500000
O O10 0.141644 0.500000 0.347316
O O11 0.112803 0.220979 0.237711
O O12 0.189001 0.251186 0.289509
O O13 0.037676 0.773796 0.746304
O O14 0.000000 0.500000 0.660413
O O15 0.000000 0.776464 0.500000
O O16 0.375098 0.714632 0.500000
O O17 0.369724 0.000000 0.648145
O O18 0.925904 0.500000 0.839445
O O19 0.928512 0.776143 0.000000
O O20 0.764792 0.283194 0.500000
O O21 0.764312 0.000000 0.347005
#
# Coordination Sequence:
#
# PCOD9389114 Si02
#       7
#     8   8   8   4   8   8   8
#     4   9  17  29  45  64  86 112 141 174 213 255
#     4   8  14  25  41  62  88 115 141 171 209 251
#     4   9  17  29  44  63  88 115 141 172 213 257
#     4   9  15  23  37  57  82 113 148 183 218 258
#     4   9  16  26  43  66  87 107 136 175 213 247
#     4   9  16  25  38  58  85 115 145 178 216 257
#     4   9  17  30  48  67  86 111 145 181 213 250
#
# _framework density 20.810931
#
# number of rings (size 3 to 8) (size 9 to 14) (size 15 to 20)
#    0.000    3.154    0.000    1.615    0.000    5.538 
#    0.000    2.308    0.000    5.538    0.000    3.769 
#    0.000    4.308    0.000    0.000    0.000    0.000 
#
# Total GULP energy -290000.520480 kJ/mol
# GULP energy per Si atom -5576.933086 kJ/mol
# Density = 2.076356 g / cm^3
# Si number density = 20.810931 Si / 1000 Ang^3
#
#
#
# Elastic Constant Matrix: (Units=GPa)
#
#
# Indices 1 2 3 4 5 6 
#
# 1 253.3337 0.9832 132.2557 0.0000 0.0000 0.0000
# 2 0.9832 56.0301 5.6594 0.0000 0.0000 0.0000
# 3 132.2557 5.6594 127.3108 0.0000 0.0000 0.0000
# 4 0.0000 0.0000 0.0000 -0.9877 0.0000 0.0000
# 5 0.0000 0.0000 0.0000 0.0000 -21.0370 0.0000
# 6 0.0000 0.0000 0.0000 0.0000 0.0000 17.4825
#
#
#
# Elastic Compliance Matrix: (Units=1/GPa)
#
#
# Indices 1 2 3 4 5 6 
#
# 1 0.008657 0.000760 -0.009027 0.000000 0.000000 0.000000
# 2 0.000760 0.017995 -0.001589 0.000000 0.000000 0.000000
# 3 -0.009027 -0.001589 0.017303 0.000000 0.000000 0.000000
# 4 0.000000 0.000000 0.000000 -1.012473 0.000000 0.000000
# 5 0.000000 0.000000 0.000000 0.000000 -0.047535 0.000000
# 6 0.000000 0.000000 0.000000 0.000000 0.000000 0.057200
#
#
# Mechanical properties :
#
#
# Convention : Reuss Voigt Hill
#
# Bulk Modulus (GPa) = 41.25090 79.38570 60.31830
# Shear Modulus (GPa) = -5.37023 18.94332 6.78654
#
# Velocity S-wave (km/s) = -1.60813 3.02032 1.80780
# Velocity P-wave (km/s) = 4.05175 7.09874 5.77965
#
# Compressibility (1/GPa) = 0.02424190
#
# Stress axis : x y z
#
# Youngs Moduli (GPa) = 115.51138 55.57174 57.79259
#
# Poissons Ratio (x) = -0.04223 0.52170
# Poissons Ratio (y) = -0.08778 0.09185
# Poissons Ratio (z) = 1.04274 0.08832
#
# Static dielectric constant tensor:
#      x y z
#    x 1.744480 0.000000 0.000000 
#    y 0.000000 1.802720 0.000000 
#    z 0.000000 0.000000 1.705460 
# 
# From -- ./inp_files/14133.got.cif
#   From: 2010.05.17/outbox.cif.g08.bks.cpg/sg47_8_cif.got.tgz:14133.got - 2010.06.03 20:15:42.
