data_PCOD9389412
_publ_section_title
;
Structure prediction by ZEFSAII (Michael W. Deem and Ramdas Pophale) SiO2 
 PCOD9389412
Probable space group: P M M M
;
_chemical_formula_sum "Si O2"
_cell_formula_units_Z 52
_cell_length_a 15.000000
_cell_length_b 9.000000
_cell_length_c 21.000000
_cell_angle_alpha 90.000000
_cell_angle_beta 90.000000
_cell_angle_gamma 90.000000
_cell_volume 2835.000000
_symmetry_space_group_name_H-M "P M M M"
_symmetry_group_IT_number 47
_symmetry_cell_setting 'orthorhombic'
loop_
_space_group_symop_operation_xyz
x,y,z
-x,-y,z
x,-y,-z
-x,y,-z
-x,-y,-z
x,y,-z
-x,y,z
x,-y,z
loop_
_atom_site_type_symbol
_atom_site_label
_atom_site_fract_x
_atom_site_fract_y
_atom_site_fract_z
Si Si1 0.721785 0.322818 0.071342
Si Si2 0.215654 0.319572 0.623595
Si Si3 0.104362 0.326032 0.252478
Si Si4 0.104280 0.318147 0.500000
Si Si5 0.605623 0.175494 0.182290
Si Si6 0.102605 0.822945 0.116555
Si Si7 0.397991 0.679561 0.680070
O O1 0.721860 0.500000 0.080136
O O2 0.663381 0.247775 0.126436
O O3 0.822086 0.261004 0.077285
O O4 0.687808 0.289554 0.000000
O O5 0.214454 0.500000 0.620972
O O6 0.164548 0.278130 0.688475
O O7 0.159543 0.269005 0.562399
O O8 0.319154 0.275027 0.631718
O O9 0.124314 0.500000 0.237511
O O10 0.116589 0.228295 0.189694
O O11 0.000000 0.318956 0.270900
O O12 0.103198 0.500000 0.500000
O O13 0.000000 0.272150 0.500000
O O14 0.500000 0.194335 0.169003
O O15 0.622504 0.252511 0.250486
O O16 0.624688 0.000000 0.186675
O O17 0.000000 0.784855 0.099671
O O18 0.113031 0.000000 0.110660
O O19 0.500000 0.722008 0.662791
O O20 0.395708 0.500000 0.685255
#
# Coordination Sequence:
#
# PCOD9389412 Si02
#       7
#     8   8   8   4   8   8   8
#     4  11  24  39  55  76 103 138 177 213 253 308
#     4   9  16  26  42  66  97 132 168 207 252 300
#     4   9  16  27  46  71  96 123 160 208 260 311
#     4   9  16  26  41  65 100 137 171 209 254 302
#     4  10  21  37  58  83 108 134 167 211 262 312
#     4  10  21  36  54  77 104 134 171 218 270 317
#     4   9  17  30  49  73 101 132 166 205 251 303
#
# _framework density 18.342151999999999
#
# number of rings (size 3 to 8) (size 9 to 14) (size 15 to 20)
#    0.000    2.385    0.000    2.769    0.000    6.769 
#    0.000    3.462    0.000    2.308    0.000    2.154 
#    0.000    7.385    0.000    0.000    0.000    0.000 
#
# Total GULP energy -290178.277746 kJ/mol
# GULP energy per Si atom -5580.351495 kJ/mol
# Density = 1.830040 g / cm^3
# Si number density = 18.342152 Si / 1000 Ang^3
#
#
#
# Elastic Constant Matrix: (Units=GPa)
#
#
# Indices 1 2 3 4 5 6 
#
# 1 114.7361 26.4167 70.3675 0.0000 0.0000 0.0000
# 2 26.4167 29.1456 14.6839 0.0000 0.0000 0.0000
# 3 70.3675 14.6839 70.7715 0.0000 0.0000 0.0000
# 4 0.0000 0.0000 0.0000 -7.6731 0.0000 0.0000
# 5 0.0000 0.0000 0.0000 0.0000 22.7151 0.0000
# 6 0.0000 0.0000 0.0000 0.0000 0.0000 22.5699
#
#
#
# Elastic Compliance Matrix: (Units=1/GPa)
#
#
# Indices 1 2 3 4 5 6 
#
# 1 0.025368 -0.011485 -0.022840 0.000000 0.000000 0.000000
# 2 -0.011485 0.043516 0.002391 0.000000 0.000000 0.000000
# 3 -0.022840 0.002391 0.036343 0.000000 0.000000 0.000000
# 4 0.000000 0.000000 0.000000 -0.130326 0.000000 0.000000
# 5 0.000000 0.000000 0.000000 0.000000 0.044024 0.000000
# 6 0.000000 0.000000 0.000000 0.000000 0.000000 0.044307
#
#
# Mechanical properties :
#
#
# Convention : Reuss Voigt Hill
#
# Bulk Modulus (GPa) = 24.17887 48.62104 36.39995
# Shear Modulus (GPa) = 35.48983 14.40141 24.94562
#
# Velocity S-wave (km/s) = 4.40350 2.80510 3.69184
# Velocity P-wave (km/s) = 6.25021 6.08743 6.16936
#
# Compressibility (1/GPa) = 0.04135842
#
# Stress axis : x y z
#
# Youngs Moduli (GPa) = 39.42030 22.98013 27.51541
#
# Poissons Ratio (x) = 0.26394 0.62845
# Poissons Ratio (y) = 0.45276 -0.06579
# Poissons Ratio (z) = 0.90035 -0.05495
#
# Static dielectric constant tensor:
#      x y z
#    x 1.654860 0.000000 0.000000 
#    y 0.000000 1.605810 0.000000 
#    z 0.000000 0.000000 1.615310 
# 
# From -- ./inp_files/6995.got.cif
#   From: 2010.05.17/outbox.ucp.g08.bks.cvg/sg47_4_cif.got.tgz:6995.got - 2010.06.11 16:36:43.
