data_PCOD9389157
_publ_section_title
;
Structure prediction by ZEFSAII (Michael W. Deem and Ramdas Pophale) SiO2 
 PCOD9389157
Probable space group: P M M M
;
_chemical_formula_sum "Si O2"
_cell_formula_units_Z 52
_cell_length_a 7.381767
_cell_length_b 26.090047
_cell_length_c 12.696592
_cell_angle_alpha 90.000000
_cell_angle_beta 90.000000
_cell_angle_gamma 90.000000
_cell_volume 2445.244880
_symmetry_space_group_name_H-M "P M M M"
_symmetry_group_IT_number 47
_symmetry_cell_setting 'orthorhombic'
loop_
_space_group_symop_operation_xyz
x,y,z
-x,-y,z
x,-y,-z
-x,y,-z
-x,-y,-z
x,y,-z
-x,y,z
x,-y,z
loop_
_atom_site_type_symbol
_atom_site_label
_atom_site_fract_x
_atom_site_fract_y
_atom_site_fract_z
Si Si1 0.779803 0.438929 0.000000
Si Si2 0.220188 0.500000 0.621945
Si Si3 0.200316 0.299374 0.675436
Si Si4 0.722006 0.058524 0.000000
Si Si5 0.217786 0.188136 0.614354
Si Si6 0.778459 0.403522 0.764588
Si Si7 0.713358 0.140508 0.834578
Si Si8 0.281167 0.252985 0.111877
O O1 0.723031 0.412547 0.112214
O O2 0.728925 0.500000 0.000000
O O3 0.000000 0.438052 0.000000
O O4 0.281822 0.500000 0.500000
O O5 0.272461 0.548436 0.692709
O O6 0.000000 0.500000 0.617854
O O7 0.285137 0.247198 0.627533
O O8 0.287499 0.354393 0.696159
O O9 0.186773 0.281818 0.795894
O O10 0.000000 0.306240 0.627271
O O11 0.782220 0.091124 0.102875
O O12 0.500000 0.056466 0.000000
O O13 0.784116 0.000000 0.000000
O O14 0.274438 0.168929 0.500000
O O15 0.264389 0.150473 0.710165
O O16 0.000000 0.192549 0.617123
O O17 0.000000 0.399591 0.767150
O O18 0.500000 0.139716 0.854732
O O19 0.779152 0.193937 0.883540
O O20 0.500000 0.253917 0.127224
O O21 0.240159 0.276338 0.000000
#
# Coordination Sequence:
#
# PCOD9389157 Si02
#       8
#     4   4   8   4   8   8   8   8
#     4   9  14  22  35  48  73 103 127 165 214 265
#     4   9  16  25  37  53  76 108 142 172 212 274
#     4   9  18  28  41  64  89 114 148 188 229 273
#     4   9  16  28  50  79 107 131 155 192 243 286
#     4   9  18  32  47  65  93 128 162 197 240 282
#     4   9  16  25  36  55  80 107 138 176 225 269
#     4   9  16  29  49  72  96 124 159 193 228 275
#     4   9  16  27  42  61  90 123 148 174 216 269
#
# _framework density 21.265764000000001
#
# number of rings (size 3 to 8) (size 9 to 14) (size 15 to 20)
#    0.000    3.000    1.538    0.000    1.077    1.231 
#    0.000    3.462    0.000    1.385    0.000    3.769 
#    0.000    2.462    0.000    0.000    0.000    0.000 
#
# Total GULP energy -289515.960305 kJ/mol
# GULP energy per Si atom -5567.614621 kJ/mol
# Density = 2.121736 g / cm^3
# Si number density = 21.265764 Si / 1000 Ang^3
#
#
#
# Elastic Constant Matrix: (Units=GPa)
#
#
# Indices 1 2 3 4 5 6 
#
# 1 67.4486 3.2076 -4.0181 0.0000 0.0000 0.0000
# 2 3.2076 146.7137 49.5682 0.0000 0.0000 0.0000
# 3 -4.0181 49.5682 147.7065 0.0000 0.0000 0.0000
# 4 0.0000 0.0000 0.0000 26.5710 0.0000 0.0000
# 5 0.0000 0.0000 0.0000 0.0000 -8.2062 0.0000
# 6 0.0000 0.0000 0.0000 0.0000 0.0000 -25.6705
#
#
#
# Elastic Compliance Matrix: (Units=1/GPa)
#
#
# Indices 1 2 3 4 5 6 
#
# 1 0.014885 -0.000521 0.000580 0.000000 0.000000 0.000000
# 2 -0.000521 0.007706 -0.002600 0.000000 0.000000 0.000000
# 3 0.000580 -0.002600 0.007659 0.000000 0.000000 0.000000
# 4 0.000000 0.000000 0.000000 0.037635 0.000000 0.000000
# 5 0.000000 0.000000 0.000000 0.000000 -0.121859 0.000000
# 6 0.000000 0.000000 0.000000 0.000000 0.000000 -0.038955
#
#
# Mechanical properties :
#
#
# Convention : Reuss Voigt Hill
#
# Bulk Modulus (GPa) = 39.73521 51.04268 45.38894
# Shear Modulus (GPa) = -62.92724 19.41293 -21.75715
#
# Velocity S-wave (km/s) = -5.44565 3.02466 -3.20207
# Velocity P-wave (km/s) = 4.56229 6.02100 2.77830
#
# Compressibility (1/GPa) = 0.02516660
#
# Stress axis : x y z
#
# Youngs Moduli (GPa) = 67.17973 129.77103 130.57325
#
# Poissons Ratio (x) = 0.06766 -0.07572
# Poissons Ratio (y) = 0.03502 0.33951
# Poissons Ratio (z) = -0.03896 0.33743
#
# Static dielectric constant tensor:
#      x y z
#    x 1.870620 0.000000 0.000000 
#    y 0.000000 1.800690 0.000000 
#    z 0.000000 0.000000 1.767470 
# 
# From -- ./inp_files/15565.got.cif
#   From: 2010.05.17/outbox.cif.g08.bks.cpg/sg47_8_cif.got.tgz:15565.got - 2010.06.03 20:15:42.
