data_PCOD9389345
_publ_section_title
;
Structure prediction by ZEFSAII (Michael W. Deem and Ramdas Pophale) SiO2 
 PCOD9389345
Probable space group: P M M M
;
_chemical_formula_sum "Si O2"
_cell_formula_units_Z 64
_cell_length_a 15.000000
_cell_length_b 9.000000
_cell_length_c 24.000000
_cell_angle_alpha 90.000000
_cell_angle_beta 90.000000
_cell_angle_gamma 90.000000
_cell_volume 3240.000000
_symmetry_space_group_name_H-M "P M M M"
_symmetry_group_IT_number 47
_symmetry_cell_setting 'orthorhombic'
loop_
_space_group_symop_operation_xyz
x,y,z
-x,-y,z
x,-y,-z
-x,y,-z
-x,-y,-z
x,y,-z
-x,y,z
x,-y,z
loop_
_atom_site_type_symbol
_atom_site_label
_atom_site_fract_x
_atom_site_fract_y
_atom_site_fract_z
Si Si1 0.903556 0.820867 0.091142
Si Si2 0.600345 0.181533 0.834491
Si Si3 0.737020 0.829021 0.742536
Si Si4 0.709622 0.181088 0.059205
Si Si5 0.099982 0.677526 0.437705
Si Si6 0.748676 0.164145 0.617011
Si Si7 0.097792 0.326310 0.211721
Si Si8 0.598775 0.662919 0.433899
O O1 0.812380 0.770338 0.063131
O O2 0.898136 0.766451 0.154635
O O3 0.000000 0.770624 0.068739
O O4 0.903436 0.000000 0.089147
O O5 0.500000 0.235331 0.832960
O O6 0.658109 0.224760 0.781525
O O7 0.652974 0.233064 0.888856
O O8 0.597846 0.000000 0.835654
O O9 0.711219 0.828894 0.678854
O O10 0.823585 0.730575 0.750441
O O11 0.758908 0.000000 0.758996
O O12 0.710381 0.000000 0.061390
O O13 0.670737 0.225556 0.000000
O O14 0.128999 0.726049 0.500000
O O15 0.097223 0.500000 0.438611
O O16 0.169183 0.728817 0.392529
O O17 0.000000 0.732744 0.428062
O O18 0.668445 0.211911 0.578676
O O19 0.781537 0.000000 0.605046
O O20 0.107107 0.500000 0.198510
O O21 0.000000 0.303216 0.237115
O O22 0.591973 0.652417 0.500000
O O23 0.500000 0.690874 0.411209
O O24 0.629961 0.500000 0.413337
#
# Coordination Sequence:
#
# PCOD9389345 Si02
#       8
#     8   8   8   8   8   8   8   8
#     4   9  16  28  48  72 102 138 167 199 252 313
#     4   9  17  31  51  72  98 134 173 215 264 313
#     4  10  21  37  53  73 104 142 178 210 257 319
#     4   9  16  26  45  76 107 132 167 215 261 310
#     4   9  19  37  59  80 106 145 187 221 259 314
#     4  11  23  34  51  81 112 140 175 223 273 320
#     4  10  20  33  52  77 101 129 170 216 256 299
#     4   9  19  37  59  80 105 141 181 218 261 317
#
# _framework density 19.753086
#
# number of rings (size 3 to 8) (size 9 to 14) (size 15 to 20)
#    0.000    2.500    1.250    1.875    0.000    5.750 
#    0.000    7.500    0.000    0.750    0.000    1.750 
#    0.000    1.000    0.000    0.000    0.000    0.000 
#
# Total GULP energy -356322.078620 kJ/mol
# GULP energy per Si atom -5567.532478 kJ/mol
# Density = 1.970813 g / cm^3
# Si number density = 19.753086 Si / 1000 Ang^3
#
#
#
# Elastic Constant Matrix: (Units=GPa)
#
#
# Indices 1 2 3 4 5 6 
#
# 1 100.2179 23.7418 57.6128 0.0000 0.0000 0.0000
# 2 23.7418 -8.2671 23.1955 0.0000 0.0000 0.0000
# 3 57.6128 23.1955 58.5266 0.0000 0.0000 0.0000
# 4 0.0000 0.0000 0.0000 268.0227 0.0000 0.0000
# 5 0.0000 0.0000 0.0000 0.0000 -396.2476 0.0000
# 6 0.0000 0.0000 0.0000 0.0000 0.0000 10.8213
#
#
#
# Elastic Compliance Matrix: (Units=1/GPa)
#
#
# Indices 1 2 3 4 5 6 
#
# 1 0.022961 0.001195 -0.023076 0.000000 0.000000 0.000000
# 2 0.001195 -0.057212 0.021498 0.000000 0.000000 0.000000
# 3 -0.023076 0.021498 0.031282 0.000000 0.000000 0.000000
# 4 0.000000 0.000000 0.000000 0.003731 0.000000 0.000000
# 5 0.000000 0.000000 0.000000 0.000000 -0.002524 0.000000
# 6 0.000000 0.000000 0.000000 0.000000 0.000000 0.092411
#
#
# Mechanical properties :
#
#
# Convention : Reuss Voigt Hill
#
# Bulk Modulus (GPa) = -267.73968 39.95304 -113.89332
# Shear Modulus (GPa) = 55.45051 -20.41890 17.51580
#
# Velocity S-wave (km/s) = 5.30403 -3.21862 2.98104
# Velocity P-wave (km/s) = 9.91600 2.54115 6.77752
#
# Compressibility (1/GPa) = -0.00373497
#
# Stress axis : x y z
#
# Youngs Moduli (GPa) = 43.55200 -17.47900 31.96755
#
# Poissons Ratio (x) = 0.02088 0.73768
# Poissons Ratio (y) = -0.05203 -0.68724
# Poissons Ratio (z) = 1.00501 0.37577
#
# Static dielectric constant tensor:
#      x y z
#    x 1.691910 0.000000 0.000000 
#    y 0.000000 1.702680 0.000000 
#    z 0.000000 0.000000 1.759710 
# 
# From -- ./inp_files/25564.got.cif
#   From: 2010.05.17/outbox.ucp.g08.bks.cvg/sg47_13_cif.got.tgz:25564.got - 2010.06.11 16:36:43.
