data_PCOD9389925
_publ_section_title
;
Structure prediction by ZEFSAII (Michael W. Deem and Ramdas Pophale) SiO2 
 PCOD9389925
Probable space group: P N N N
;
_chemical_formula_sum "Si O2"
_cell_formula_units_Z 48
_cell_length_a 9.361347
_cell_length_b 8.248704
_cell_length_c 25.940590
_cell_angle_alpha 90.000000
_cell_angle_beta 90.000000
_cell_angle_gamma 90.000000
_cell_volume 2003.105912
_symmetry_space_group_name_H-M "P N N N"
_symmetry_group_IT_number 48
_space_group.IT_coordinate_system_code '2'
_symmetry_cell_setting 'orthorhombic'
loop_
_space_group_symop_operation_xyz
x,y,z
1/2-x,1/2-y,z
x,1/2-y,1/2-z
1/2-x,y,1/2-z
-x,-y,-z
1/2+x,1/2+y,-z
-x,1/2+y,1/2+z
1/2+x,-y,1/2+z
loop_
_atom_site_type_symbol
_atom_site_label
_atom_site_fract_x
_atom_site_fract_y
_atom_site_fract_z
Si Si1 0.646123 0.392092 0.451095
Si Si2 0.831364 0.579180 0.298769
Si Si3 0.931866 0.366994 0.933273
Si Si4 0.392547 0.450785 0.913657
Si Si5 0.833015 0.079414 0.799751
Si Si6 0.179673 0.418825 0.406770
O O1 0.750000 0.250000 0.432746
O O2 0.574576 0.345569 0.505103
O O3 0.522098 0.472358 0.417846
O O4 0.763953 0.538808 0.454136
O O5 0.750000 0.750000 0.304104
O O6 0.750000 0.496980 0.250000
O O7 0.830172 0.508853 0.356875
O O8 0.999636 0.604964 0.287661
O O9 0.771006 0.423852 0.922986
O O10 0.020032 0.218259 0.909621
O O11 0.519924 0.571946 0.928176
O O12 0.750000 0.250000 0.812991
O O13 0.750000 0.017859 0.750000
O O14 0.828382 0.950494 0.845586
O O15 0.250000 0.250000 0.420274
#
# Coordination Sequence:
#
# PCOD9389925 Si02
#       6
#     8   8   8   8   8   8
#     4  11  24  40  62  92 125 163 209 263 320 378
#     4  10  19  33  58  89 117 153 201 254 308 369
#     4  11  24  41  64  91 124 169 214 263 323 390
#     4  11  23  42  63  89 125 165 212 264 321 391
#     4  10  20  35  58  88 120 159 206 257 316 389
#     4  11  23  39  61  89 123 161 208 268 329 384
#
# _framework density 23.962786000000001
#
# number of rings (size 3 to 8) (size 9 to 14) (size 15 to 20)
#    0.000    1.333    0.000    8.000    0.000    7.000 
#    0.000    0.000    0.000    2.500    0.000   18.667 
#    0.000    0.000    0.000    0.000    0.000    0.000 
#
# Total GULP energy -267878.680617 kJ/mol
# GULP energy per Si atom -5580.805846 kJ/mol
# Density = 2.390825 g / cm^3
# Si number density = 23.962786 Si / 1000 Ang^3
#
#
#
# Elastic Constant Matrix: (Units=GPa)
#
#
# Indices 1 2 3 4 5 6 
#
# 1 131.2259 10.0819 17.6423 0.0000 0.0000 0.0000
# 2 10.0819 63.8995 10.1317 0.0000 0.0000 0.0000
# 3 17.6423 10.1317 73.0973 0.0000 0.0000 0.0000
# 4 0.0000 0.0000 0.0000 21.4678 0.0000 0.0000
# 5 0.0000 0.0000 0.0000 0.0000 38.9478 0.0000
# 6 0.0000 0.0000 0.0000 0.0000 0.0000 27.1514
#
#
#
# Elastic Compliance Matrix: (Units=1/GPa)
#
#
# Indices 1 2 3 4 5 6 
#
# 1 0.007934 -0.000970 -0.001781 0.000000 0.000000 0.000000
# 2 -0.000970 0.016120 -0.002000 0.000000 0.000000 0.000000
# 3 -0.001781 -0.002000 0.014387 0.000000 0.000000 0.000000
# 4 0.000000 0.000000 0.000000 0.046581 0.000000 0.000000
# 5 0.000000 0.000000 0.000000 0.000000 0.025675 0.000000
# 6 0.000000 0.000000 0.000000 0.000000 0.000000 0.036831
#
#
# Mechanical properties :
#
#
# Convention : Reuss Voigt Hill
#
# Bulk Modulus (GPa) = 34.55353 38.21495 36.38424
# Shear Modulus (GPa) = 29.99825 32.87119 31.43472
#
# Velocity S-wave (km/s) = 3.54201 3.70775 3.62583
# Velocity P-wave (km/s) = 5.58380 5.85765 5.72236
#
# Compressibility (1/GPa) = 0.02894060
#
# Stress axis : x y z
#
# Youngs Moduli (GPa) = 126.03475 62.03588 69.50524
#
# Poissons Ratio (x) = 0.06015 0.12376
# Poissons Ratio (y) = 0.12219 0.13903
# Poissons Ratio (z) = 0.22442 0.12409
#
# Static dielectric constant tensor:
#      x y z
#    x 1.918000 0.000000 0.000000 
#    y 0.000000 2.029650 0.000000 
#    z 0.000000 0.000000 1.970420 
# 
# From -- ./inp_files/38702.got.cif
#   From: 2010.05.17/outbox.cif.g08.bks.cpg/sg48_20_cif.got.tgz:38702.got - 2010.06.03 20:39:00.
