data_PCOD9389070
_publ_section_title
;
Structure prediction by ZEFSAII (Michael W. Deem and Ramdas Pophale) SiO2 
 PCOD9389070
Probable space group: P M M M
;
_chemical_formula_sum "Si O2"
_cell_formula_units_Z 56
_cell_length_a 7.496249
_cell_length_b 21.123289
_cell_length_c 16.475410
_cell_angle_alpha 90.000000
_cell_angle_beta 90.000000
_cell_angle_gamma 90.000000
_cell_volume 2608.805947
_symmetry_space_group_name_H-M "P M M M"
_symmetry_group_IT_number 47
_symmetry_cell_setting 'orthorhombic'
loop_
_space_group_symop_operation_xyz
x,y,z
-x,-y,z
x,-y,-z
-x,y,-z
-x,-y,-z
x,y,-z
-x,y,z
x,-y,z
loop_
_atom_site_type_symbol
_atom_site_label
_atom_site_fract_x
_atom_site_fract_y
_atom_site_fract_z
Si Si1 0.286415 0.370815 0.674133
Si Si2 0.717805 0.572826 0.000000
Si Si3 0.701671 0.799154 0.828131
Si Si4 0.214585 0.102940 0.413052
Si Si5 0.281072 0.664224 0.144939
Si Si6 0.281316 0.500000 0.593402
Si Si7 0.210549 0.235908 0.648258
Si Si8 0.711639 0.068751 0.771911
O O1 0.500000 0.375500 0.678651
O O2 0.221642 0.357855 0.765710
O O3 0.220023 0.436037 0.637063
O O4 0.244975 0.307675 0.622771
O O5 0.772840 0.613262 0.921665
O O6 0.777675 0.500000 0.000000
O O7 0.500000 0.571381 0.000000
O O8 0.500000 0.807042 0.859648
O O9 0.780351 0.736736 0.870799
O O10 0.694321 0.776085 0.734143
O O11 0.785352 0.868952 0.817751
O O12 0.279747 0.077335 0.500000
O O13 0.261195 0.177623 0.408415
O O14 0.270979 0.075922 0.325927
O O15 0.000000 0.096654 0.413656
O O16 0.500000 0.666576 0.145182
O O17 0.500000 0.500000 0.595325
O O18 0.227909 0.500000 0.500000
O O19 0.000000 0.229369 0.663732
O O20 0.500000 0.068976 0.787876
O O21 0.784739 0.000000 0.795181
#
# Coordination Sequence:
#
# PCOD9389070 Si02
#       8
#     8   4   8   8   8   4   8   8
#     4   9  17  29  45  61  81 109 141 175 218 262
#     4   9  16  22  34  64 100 118 136 171 209 249
#     4   8  14  27  44  60  81 108 139 169 204 250
#     4   9  18  30  41  55  79 111 141 170 214 269
#     4   8  14  24  39  60  86 116 140 165 206 252
#     4   9  18  30  43  60  80 104 139 181 219 257
#     4   9  16  27  43  61  78 100 137 179 211 246
#     4   9  17  28  42  60  80 103 137 181 218 249
#
# _framework density 21.465758999999998
#
# number of rings (size 3 to 8) (size 9 to 14) (size 15 to 20)
#    0.000    3.286    0.000    1.286    1.000    2.000 
#    0.000    1.786    0.000    0.429    0.000    8.500 
#    0.000   13.143    0.000    0.000    0.000   39.643 
#
# Total GULP energy -311956.615769 kJ/mol
# GULP energy per Si atom -5570.653853 kJ/mol
# Density = 2.141690 g / cm^3
# Si number density = 21.465759 Si / 1000 Ang^3
#
#
#
# Elastic Constant Matrix: (Units=GPa)
#
#
# Indices 1 2 3 4 5 6 
#
# 1 58.6216 6.6116 1.6868 0.0000 0.0000 0.0000
# 2 6.6116 233.6337 55.4873 0.0000 0.0000 0.0000
# 3 1.6868 55.4873 51.4949 0.0000 0.0000 0.0000
# 4 0.0000 0.0000 0.0000 4.0715 0.0000 0.0000
# 5 0.0000 0.0000 0.0000 0.0000 8.7784 0.0000
# 6 0.0000 0.0000 0.0000 0.0000 0.0000 -14.9988
#
#
#
# Elastic Compliance Matrix: (Units=1/GPa)
#
#
# Indices 1 2 3 4 5 6 
#
# 1 0.017113 -0.000472 -0.000052 0.000000 0.000000 0.000000
# 2 -0.000472 0.005765 -0.006197 0.000000 0.000000 0.000000
# 3 -0.000052 -0.006197 0.026098 0.000000 0.000000 0.000000
# 4 0.000000 0.000000 0.000000 0.245610 0.000000 0.000000
# 5 0.000000 0.000000 0.000000 0.000000 0.113916 0.000000
# 6 0.000000 0.000000 0.000000 0.000000 0.000000 -0.066672
#
#
# Mechanical properties :
#
#
# Convention : Reuss Voigt Hill
#
# Bulk Modulus (GPa) = 28.14099 52.36906 40.25503
# Shear Modulus (GPa) = 13.61963 18.23453 15.92708
#
# Velocity S-wave (km/s) = 2.52162 2.91773 2.72688
# Velocity P-wave (km/s) = 4.64933 5.98334 5.35802
#
# Compressibility (1/GPa) = 0.03553535
#
# Stress axis : x y z
#
# Youngs Moduli (GPa) = 58.43419 173.45211 38.31659
#
# Poissons Ratio (x) = 0.08186 0.00199
# Poissons Ratio (y) = 0.02758 0.23744
# Poissons Ratio (z) = 0.00304 1.07485
#
# Static dielectric constant tensor:
#      x y z
#    x 1.792860 0.000000 0.000000 
#    y 0.000000 1.835530 0.000000 
#    z 0.000000 0.000000 1.740530 
# 
# From -- ./inp_files/21641.got.cif
#   From: 2010.05.17/outbox.cif.g08.bks.cpg/sg47_11_cif.got.tgz:21641.got - 2010.06.03 20:15:42.
