data_PCOD9389127
_publ_section_title
;
Structure prediction by ZEFSAII (Michael W. Deem and Ramdas Pophale) SiO2 
 PCOD9389127
Probable space group: P M M M
;
_chemical_formula_sum "Si O2"
_cell_formula_units_Z 44
_cell_length_a 18.066792
_cell_length_b 7.422658
_cell_length_c 16.069709
_cell_angle_alpha 90.000000
_cell_angle_beta 90.000000
_cell_angle_gamma 90.000000
_cell_volume 2155.006120
_symmetry_space_group_name_H-M "P M M M"
_symmetry_group_IT_number 47
_symmetry_cell_setting 'orthorhombic'
loop_
_space_group_symop_operation_xyz
x,y,z
-x,-y,z
x,-y,-z
-x,y,-z
-x,-y,-z
x,y,-z
-x,y,z
x,-y,z
loop_
_atom_site_type_symbol
_atom_site_label
_atom_site_fract_x
_atom_site_fract_y
_atom_site_fract_z
Si Si1 0.915185 0.719929 0.000000
Si Si2 0.309996 0.207451 0.760904
Si Si3 0.754936 0.213672 0.408896
Si Si4 0.850968 0.281530 0.174607
Si Si5 0.586469 0.780436 0.907297
Si Si6 0.081007 0.283166 0.346497
O O1 0.877109 0.779236 0.915246
O O2 0.913728 0.500000 0.000000
O O3 0.000000 0.775251 0.000000
O O4 0.291458 0.287696 0.669730
O O5 0.229980 0.211040 0.804381
O O6 0.366855 0.286147 0.828258
O O7 0.333246 0.000000 0.747624
O O8 0.737119 0.287766 0.500000
O O9 0.843266 0.231834 0.392796
O O10 0.740841 0.000000 0.410008
O O11 0.847750 0.500000 0.175028
O O12 0.905112 0.229865 0.250280
O O13 0.500000 0.733209 0.899688
O O14 0.590970 0.000000 0.907225
O O15 0.612374 0.722658 0.000000
O O16 0.079061 0.500000 0.350033
O O17 0.000000 0.218452 0.375506
#
# Coordination Sequence:
#
# PCOD9389127 Si02
#       6
#     4   8   8   8   8   8
#     4   9  16  26  41  59  80 111 148 178 207 249
#     4   9  17  29  46  65  85 112 142 174 210 248
#     4   9  18  31  44  60  84 113 143 174 215 264
#     4   9  17  28  42  61  84 112 144 177 212 252
#     4   8  14  25  43  68  93 114 138 169 205 247
#     4   9  17  29  44  61  82 108 142 185 224 254
#
# _framework density 20.417576
#
# number of rings (size 3 to 8) (size 9 to 14) (size 15 to 20)
#    0.000    3.182    0.000    1.091    1.273    3.273 
#    0.000    1.818    0.000    3.273    0.000    5.091 
#    0.000    0.000    0.000    9.091    0.000    9.455 
#
# Total GULP energy -245257.628224 kJ/mol
# GULP energy per Si atom -5574.037005 kJ/mol
# Density = 2.037111 g / cm^3
# Si number density = 20.417576 Si / 1000 Ang^3
#
#
#
# Elastic Constant Matrix: (Units=GPa)
#
#
# Indices 1 2 3 4 5 6 
#
# 1 75.9505 0.9985 71.3906 0.0000 0.0000 0.0000
# 2 0.9985 65.1930 9.4824 0.0000 0.0000 0.0000
# 3 71.3906 9.4824 200.8498 0.0000 0.0000 0.0000
# 4 0.0000 0.0000 0.0000 -1.6938 0.0000 0.0000
# 5 0.0000 0.0000 0.0000 0.0000 12.6467 0.0000
# 6 0.0000 0.0000 0.0000 0.0000 0.0000 14.0052
#
#
#
# Elastic Compliance Matrix: (Units=1/GPa)
#
#
# Indices 1 2 3 4 5 6 
#
# 1 0.019807 0.000726 -0.007074 0.000000 0.000000 0.000000
# 2 0.000726 0.015472 -0.000988 0.000000 0.000000 0.000000
# 3 -0.007074 -0.000988 0.007540 0.000000 0.000000 0.000000
# 4 0.000000 0.000000 0.000000 -0.590387 0.000000 0.000000
# 5 0.000000 0.000000 0.000000 0.000000 0.079072 0.000000
# 6 0.000000 0.000000 0.000000 0.000000 0.000000 0.071402
#
#
# Mechanical properties :
#
#
# Convention : Reuss Voigt Hill
#
# Bulk Modulus (GPa) = 35.53138 56.19290 45.86214
# Shear Modulus (GPa) = -13.40341 22.33308 4.46483
#
# Velocity S-wave (km/s) = -2.56494 3.31088 1.48037
# Velocity P-wave (km/s) = 2.94419 6.49596 5.04310
#
# Compressibility (1/GPa) = 0.02814413
#
# Stress axis : x y z
#
# Youngs Moduli (GPa) = 50.48833 64.63406 132.62540
#
# Poissons Ratio (x) = -0.04690 0.93824
# Poissons Ratio (y) = -0.03664 0.13108
# Poissons Ratio (z) = 0.35717 0.06388
#
# Static dielectric constant tensor:
#      x y z
#    x 1.680470 0.000000 0.000000 
#    y 0.000000 1.793730 0.000000 
#    z 0.000000 0.000000 1.759690 
# 
# From -- ./inp_files/6158.got.cif
#   From: 2010.05.17/outbox.cif.g08.bks.cpg/sg47_4_cif.got.tgz:6158.got - 2010.06.03 20:15:42.
