data_PCOD9389350
_publ_section_title
;
Structure prediction by ZEFSAII (Michael W. Deem and Ramdas Pophale) SiO2 
 PCOD9389350
Probable space group: P M M M
;
_chemical_formula_sum "Si O2"
_cell_formula_units_Z 52
_cell_length_a 15.000000
_cell_length_b 21.000000
_cell_length_c 9.000000
_cell_angle_alpha 90.000000
_cell_angle_beta 90.000000
_cell_angle_gamma 90.000000
_cell_volume 2835.000000
_symmetry_space_group_name_H-M "P M M M"
_symmetry_group_IT_number 47
_symmetry_cell_setting 'orthorhombic'
loop_
_space_group_symop_operation_xyz
x,y,z
-x,-y,z
x,-y,-z
-x,y,-z
-x,-y,-z
x,y,-z
-x,y,z
x,-y,z
loop_
_atom_site_type_symbol
_atom_site_label
_atom_site_fract_x
_atom_site_fract_y
_atom_site_fract_z
Si Si1 0.679601 0.884881 0.177271
Si Si2 0.778531 0.683590 0.177858
Si Si3 0.863829 0.071903 0.678790
Si Si4 0.601952 0.252800 0.819299
Si Si5 0.398997 0.000000 0.664607
Si Si6 0.098023 0.786431 0.675623
Si Si7 0.103142 0.574251 0.321175
O O1 0.767588 0.910974 0.257688
O O2 0.643105 0.815835 0.224102
O O3 0.614396 0.938584 0.233986
O O4 0.692313 0.884116 0.000000
O O5 0.675456 0.694581 0.224229
O O6 0.831771 0.746716 0.230334
O O7 0.828575 0.623420 0.248368
O O8 0.782079 0.679346 0.000000
O O9 0.866677 0.069041 0.500000
O O10 0.909520 0.139127 0.718002
O O11 0.890615 0.000000 0.729840
O O12 0.500000 0.260802 0.766808
O O13 0.599010 0.252599 0.000000
O O14 0.500000 0.000000 0.631230
O O15 0.350380 0.000000 0.500000
O O16 0.121634 0.783465 0.500000
O O17 0.000000 0.756953 0.692966
O O18 0.107675 0.580690 0.500000
O O19 0.121619 0.500000 0.284868
O O20 0.000000 0.587474 0.277445
#
# Coordination Sequence:
#
# PCOD9389350 Si02
#       7
#     8   8   8   8   4   8   8
#     4  11  20  33  53  73  96 130 175 222 275 335
#     4  11  21  34  56  85 114 143 180 228 274 314
#     4  10  20  34  52  72  99 135 177 227 281 329
#     4   9  19  35  53  75 105 140 178 221 269 321
#     4  11  23  35  47  69 100 129 166 223 285 338
#     4  10  21  36  54  76 105 144 186 224 269 332
#     4   9  19  37  60  86 118 154 185 212 254 318
#
# _framework density 18.342151999999999
#
# number of rings (size 3 to 8) (size 9 to 14) (size 15 to 20)
#    0.000    1.923    2.308    2.538    0.000    4.308 
#    0.000    2.308    0.000    5.077    0.000    5.385 
#    0.000    0.000    0.000    0.000    0.000    0.000 
#
# Total GULP energy -289483.196723 kJ/mol
# GULP energy per Si atom -5566.984552 kJ/mol
# Density = 1.830040 g / cm^3
# Si number density = 18.342152 Si / 1000 Ang^3
#
#
#
# Elastic Constant Matrix: (Units=GPa)
#
#
# Indices 1 2 3 4 5 6 
#
# 1 101.3191 69.1307 8.5954 0.0000 0.0000 0.0000
# 2 69.1307 130.2565 24.5829 0.0000 0.0000 0.0000
# 3 8.5954 24.5829 -22.4204 0.0000 0.0000 0.0000
# 4 0.0000 0.0000 0.0000 24.1111 0.0000 0.0000
# 5 0.0000 0.0000 0.0000 0.0000 13.1291 0.0000
# 6 0.0000 0.0000 0.0000 0.0000 0.0000 33.3154
#
#
#
# Elastic Compliance Matrix: (Units=1/GPa)
#
#
# Indices 1 2 3 4 5 6 
#
# 1 0.015299 -0.007645 -0.002517 0.000000 0.000000 0.000000
# 2 -0.007645 0.010181 0.008232 0.000000 0.000000 0.000000
# 3 -0.002517 0.008232 -0.036541 0.000000 0.000000 0.000000
# 4 0.000000 0.000000 0.000000 0.041475 0.000000 0.000000
# 5 0.000000 0.000000 0.000000 0.000000 0.076167 0.000000
# 6 0.000000 0.000000 0.000000 0.000000 0.000000 0.030016
#
#
# Mechanical properties :
#
#
# Convention : Reuss Voigt Hill
#
# Bulk Modulus (GPa) = -67.02402 45.97477 -10.52462
# Shear Modulus (GPa) = 36.90510 21.23420 29.06965
#
# Velocity S-wave (km/s) = 4.49044 3.40615 3.98534
# Velocity P-wave (km/s) = 3.12008 6.37092 3.92771
#
# Compressibility (1/GPa) = -0.01492003
#
# Stress axis : x y z
#
# Youngs Moduli (GPa) = 65.36179 98.22316 -27.36646
#
# Poissons Ratio (x) = 0.75090 -0.06888
# Poissons Ratio (y) = 0.49968 0.22528
# Poissons Ratio (z) = 0.16450 -0.80857
#
# Static dielectric constant tensor:
#      x y z
#    x 1.839320 0.000000 0.000000 
#    y 0.000000 1.638080 0.000000 
#    z 0.000000 0.000000 1.620410 
# 
# From -- ./inp_files/6952.got.cif
#   From: 2010.05.17/outbox.ucp.g08.bks.cvg/sg47_4_cif.got.tgz:6952.got - 2010.06.11 16:36:43.
