data_PCOD9389555
_publ_section_title
;
Structure prediction by ZEFSAII (Michael W. Deem and Ramdas Pophale) SiO2 
 PCOD9389555
Probable space group: P N N N
;
_chemical_formula_sum "Si O2"
_cell_formula_units_Z 58
_cell_length_a 5.077200
_cell_length_b 16.531545
_cell_length_c 30.440013
_cell_angle_alpha 90.000000
_cell_angle_beta 90.000000
_cell_angle_gamma 90.000000
_cell_volume 2554.950842
_symmetry_space_group_name_H-M "P N N N"
_symmetry_group_IT_number 48
_space_group.IT_coordinate_system_code '2'
_symmetry_cell_setting 'orthorhombic'
loop_
_space_group_symop_operation_xyz
x,y,z
1/2-x,1/2-y,z
x,1/2-y,1/2-z
1/2-x,y,1/2-z
-x,-y,-z
1/2+x,1/2+y,-z
-x,1/2+y,1/2+z
1/2+x,-y,1/2+z
loop_
_atom_site_type_symbol
_atom_site_label
_atom_site_fract_x
_atom_site_fract_y
_atom_site_fract_z
Si Si1 0.003364 0.368782 0.180315
Si Si2 0.301085 0.634053 0.072918
Si Si3 0.250000 0.750000 0.750000
Si Si4 0.954289 0.943563 0.290574
Si Si5 0.965411 0.089088 0.836726
Si Si6 0.496456 0.596313 0.871882
Si Si7 0.315664 0.035543 0.461227
Si Si8 0.328536 0.167366 0.981445
O O1 0.927617 0.306807 0.218648
O O2 0.988876 0.460240 0.200185
O O3 0.780439 0.368151 0.142816
O O4 0.279157 0.357450 0.155697
O O5 0.357999 0.643254 0.123897
O O6 0.201887 0.541284 0.064449
O O7 0.576173 0.642588 0.047496
O O8 0.068692 0.683663 0.050980
O O9 0.750000 0.939057 0.250000
O O10 0.769767 0.896419 0.325641
O O11 0.250326 0.910188 0.297518
O O12 0.979437 0.996216 0.854136
O O13 0.536788 0.588130 0.923980
O O14 0.112934 0.095437 0.484843
O O15 0.500000 0.000000 0.500000
O O16 0.250000 0.250000 0.005276
#
# Coordination Sequence:
#
# PCOD9389555 Si02
#       8
#     8   8   2   8   8   8   8   8
#     4  10  22  36  53  74 107 149 196 255 279 355
#     4  10  20  37  57  81 110 150 197 229 273 346
#     4  12  24  42  56  78 104 174 232 234 306 370
#     4  10  17  31  49  77 108 134 167 232 302 318
#     4   9  18  30  53  76 103 138 175 227 277 328
#     4   9  20  37  54  80 108 137 192 252 300 323
#     4   9  20  38  64  87 114 158 201 242 300 376
#     4  11  22  36  55  84 117 148 183 235 287 343
#
# _framework density 22.701024
#
# number of rings (size 3 to 8) (size 9 to 14) (size 15 to 20)
#    0.000    2.207    0.690    2.069    0.000   10.483 
#    2.483    0.000    0.000    0.000    0.000    0.000 
#    0.000   38.621    0.000    0.000    0.000    0.000 
#
# Total GULP energy -323536.587277 kJ/mol
# GULP energy per Si atom -5578.217022 kJ/mol
# Density = 2.264936 g / cm^3
# Si number density = 22.701024 Si / 1000 Ang^3
#
#
#
# Elastic Constant Matrix: (Units=GPa)
#
#
# Indices 1 2 3 4 5 6 
#
# 1 80.9207 -0.2760 -24.7044 0.0000 0.0000 0.0000
# 2 -0.2760 36.3543 0.3462 0.0000 0.0000 0.0000
# 3 -24.7044 0.3462 49.0730 0.0000 0.0000 0.0000
# 4 0.0000 0.0000 0.0000 16.0306 0.0000 0.0000
# 5 0.0000 0.0000 0.0000 0.0000 14.3148 0.0000
# 6 0.0000 0.0000 0.0000 0.0000 0.0000 13.9755
#
#
#
# Elastic Compliance Matrix: (Units=1/GPa)
#
#
# Indices 1 2 3 4 5 6 
#
# 1 0.014602 0.000041 0.007351 0.000000 0.000000 0.000000
# 2 0.000041 0.027509 -0.000173 0.000000 0.000000 0.000000
# 3 0.007351 -0.000173 0.024080 0.000000 0.000000 0.000000
# 4 0.000000 0.000000 0.000000 0.062381 0.000000 0.000000
# 5 0.000000 0.000000 0.000000 0.000000 0.069858 0.000000
# 6 0.000000 0.000000 0.000000 0.000000 0.000000 0.071554
#
#
# Mechanical properties :
#
#
# Convention : Reuss Voigt Hill
#
# Bulk Modulus (GPa) = 12.40284 13.00884 12.70584
# Shear Modulus (GPa) = 17.70398 21.59632 19.65015
#
# Velocity S-wave (km/s) = 2.79566 3.08772 2.94531
# Velocity P-wave (km/s) = 3.98702 4.29593 4.14435
#
# Compressibility (1/GPa) = 0.08062668
#
# Stress axis : x y z
#
# Youngs Moduli (GPa) = 68.48367 36.35174 41.52905
#
# Poissons Ratio (x) = -0.00149 -0.30527
# Poissons Ratio (y) = -0.00280 0.00720
# Poissons Ratio (z) = -0.50340 0.00631
#
# Static dielectric constant tensor:
#      x y z
#    x 1.892470 0.000000 0.000000 
#    y 0.000000 2.053640 0.000000 
#    z 0.000000 0.000000 1.919820 
# 
# From -- ./inp_files/37181.got.cif
#   From: 2010.05.17/outbox.cif.g08.bks.cpg/sg48_19_cif.got.tgz:37181.got - 2010.06.03 20:39:00.
