data_PCOD9389008
_publ_section_title
;
Structure prediction by ZEFSAII (Michael W. Deem and Ramdas Pophale) SiO2 
 PCOD9389008
Probable space group: P M M M
;
_chemical_formula_sum "Si O2"
_cell_formula_units_Z 44
_cell_length_a 9.590813
_cell_length_b 7.593014
_cell_length_c 29.748089
_cell_angle_alpha 90.000000
_cell_angle_beta 90.000000
_cell_angle_gamma 90.000000
_cell_volume 2166.350362
_symmetry_space_group_name_H-M "P M M M"
_symmetry_group_IT_number 47
_symmetry_cell_setting 'orthorhombic'
loop_
_space_group_symop_operation_xyz
x,y,z
-x,-y,z
x,-y,-z
-x,y,-z
-x,-y,-z
x,y,-z
-x,y,z
x,-y,z
loop_
_atom_site_type_symbol
_atom_site_label
_atom_site_fract_x
_atom_site_fract_y
_atom_site_fract_z
Si Si1 0.660400 0.283751 0.000000
Si Si2 0.160537 0.285289 0.449418
Si Si3 0.840648 0.290718 0.915679
Si Si4 0.159136 0.290557 0.280333
Si Si5 0.660087 0.716007 0.364429
Si Si6 0.841135 0.209287 0.817598
O O1 0.743885 0.224144 0.044286
O O2 0.659700 0.500000 0.000000
O O3 0.500000 0.227495 0.000000
O O4 0.199443 0.229448 0.500000
O O5 0.161990 0.500000 0.449325
O O6 0.261499 0.227015 0.409763
O O7 0.000000 0.232807 0.440952
O O8 0.851523 0.500000 0.922095
O O9 0.780314 0.262429 0.865658
O O10 0.000000 0.219055 0.917267
O O11 0.148526 0.500000 0.286619
O O12 0.254136 0.223504 0.320738
O O13 0.220325 0.262066 0.230420
O O14 0.000000 0.218918 0.281582
O O15 0.500000 0.772026 0.363257
O O16 0.660665 0.500000 0.364281
O O17 0.000000 0.283291 0.817533
O O18 0.848406 0.000000 0.817646
#
# Coordination Sequence:
#
# PCOD9389008 Si02
#       6
#     4   8   8   8   8   8
#     4   9  17  29  46  69  94 118 146 179 212 248
#     4   8  13  21  33  50  75 108 142 174 212 259
#     4   9  16  28  48  71  92 115 145 179 214 253
#     4   9  16  27  44  63  83 110 143 177 214 256
#     4   9  16  24  35  54  80 109 142 179 215 252
#     4   9  17  29  46  68  90 111 141 182 221 255
#
# _framework density 20.310659999999999
#
# number of rings (size 3 to 8) (size 9 to 14) (size 15 to 20)
#    0.000    3.182    0.000    1.909    0.000    5.818 
#    0.000    3.182    0.000    9.273    0.000    0.000 
#    0.000    0.727    0.000    8.364    0.000   10.727 
#
# Total GULP energy -245282.534335 kJ/mol
# GULP energy per Si atom -5574.603053 kJ/mol
# Density = 2.026443 g / cm^3
# Si number density = 20.310660 Si / 1000 Ang^3
#
#
#
# Elastic Constant Matrix: (Units=GPa)
#
#
# Indices 1 2 3 4 5 6 
#
# 1 109.5131 6.2506 120.3514 0.0000 0.0000 0.0000
# 2 6.2506 43.3628 0.9144 0.0000 0.0000 0.0000
# 3 120.3514 0.9144 240.0487 0.0000 0.0000 0.0000
# 4 0.0000 0.0000 0.0000 -48.2385 0.0000 0.0000
# 5 0.0000 0.0000 0.0000 0.0000 24.2870 0.0000
# 6 0.0000 0.0000 0.0000 0.0000 0.0000 -2.2161
#
#
#
# Elastic Compliance Matrix: (Units=1/GPa)
#
#
# Indices 1 2 3 4 5 6 
#
# 1 0.020661 -0.002760 -0.010348 0.000000 0.000000 0.000000
# 2 -0.002760 0.023432 0.001295 0.000000 0.000000 0.000000
# 3 -0.010348 0.001295 0.009349 0.000000 0.000000 0.000000
# 4 0.000000 0.000000 0.000000 -0.020730 0.000000 0.000000
# 5 0.000000 0.000000 0.000000 0.000000 0.041174 0.000000
# 6 0.000000 0.000000 0.000000 0.000000 0.000000 -0.451235
#
#
# Mechanical properties :
#
#
# Convention : Reuss Voigt Hill
#
# Bulk Modulus (GPa) = 33.54062 71.99529 52.76796
# Shear Modulus (GPa) = -14.54406 12.46034 -1.04186
#
# Velocity S-wave (km/s) = -2.67887 2.47956 -0.71699
# Velocity P-wave (km/s) = 2.64219 6.61223 5.03502
#
# Compressibility (1/GPa) = 0.02981459
#
# Stress axis : x y z
#
# Youngs Moduli (GPa) = 48.39963 42.67707 106.96173
#
# Poissons Ratio (x) = 0.11779 1.10687
# Poissons Ratio (y) = 0.13359 -0.13847
# Poissons Ratio (z) = 0.50085 -0.05525
#
# Static dielectric constant tensor:
#      x y z
#    x 1.688910 0.000000 0.000000 
#    y 0.000000 1.741440 0.000000 
#    z 0.000000 0.000000 1.731570 
# 
# From -- ./inp_files/2065.got.cif
#   From: 2010.05.17/outbox.cif.g08.bks.cpg/sg47_2_cif.got.tgz:2065.got - 2010.06.03 20:15:42.
