data_PCOD9389647
_publ_section_title
;
Structure prediction by ZEFSAII (Michael W. Deem and Ramdas Pophale) SiO2 
 PCOD9389647
Probable space group: P N N N
;
_chemical_formula_sum "Si O2"
_cell_formula_units_Z 60
_cell_length_a 5.909736
_cell_length_b 20.428911
_cell_length_c 23.524024
_cell_angle_alpha 90.000000
_cell_angle_beta 90.000000
_cell_angle_gamma 90.000000
_cell_volume 2840.042968
_symmetry_space_group_name_H-M "P N N N"
_symmetry_group_IT_number 48
_space_group.IT_coordinate_system_code '2'
_symmetry_cell_setting 'orthorhombic'
loop_
_space_group_symop_operation_xyz
x,y,z
1/2-x,1/2-y,z
x,1/2-y,1/2-z
1/2-x,y,1/2-z
-x,-y,-z
1/2+x,1/2+y,-z
-x,1/2+y,1/2+z
1/2+x,-y,1/2+z
loop_
_atom_site_type_symbol
_atom_site_label
_atom_site_fract_x
_atom_site_fract_y
_atom_site_fract_z
Si Si1 0.984015 0.880792 0.585756
Si Si2 0.614359 0.575214 0.305115
Si Si3 0.012499 0.010509 0.885792
Si Si4 0.170457 0.444915 0.190810
Si Si5 0.627193 0.329777 0.003073
Si Si6 0.869736 0.120047 0.596110
Si Si7 0.252115 0.059461 0.515025
Si Si8 0.750000 0.750000 0.556608
O O1 0.206557 0.854839 0.553194
O O2 0.005297 0.907931 0.649389
O O3 0.874527 0.939129 0.546024
O O4 0.818336 0.817212 0.588037
O O5 0.750000 0.598113 0.250000
O O6 0.800456 0.542353 0.345689
O O7 0.441330 0.515188 0.292907
O O8 0.483675 0.629630 0.342441
O O9 0.888870 0.954236 0.850236
O O10 0.131437 0.001600 0.947718
O O11 0.819508 0.064872 0.894565
O O12 0.250000 0.413839 0.250000
O O13 0.759183 0.325065 0.943307
O O14 0.442041 0.385876 0.992360
O O15 0.474136 0.268395 0.020796
O O16 0.060953 0.088981 0.555957
#
# Coordination Sequence:
#
# PCOD9389647 Si02
#       8
#     8   8   8   8   8   8   8   4
#     4  10  21  35  54  79 103 137 182 238 295 350
#     4  10  18  31  50  74 109 158 198 228 268 325
#     4   9  17  32  50  73 108 146 186 228 263 323
#     4  11  22  35  50  75 106 148 199 237 272 325
#     4   9  17  34  54  80 107 135 178 235 293 359
#     4   8  16  29  51  77 109 143 182 228 266 337
#     4   8  16  32  52  76 104 141 174 226 271 338
#     4  10  20  36  59  76  98 138 175 234 318 364
#
# _framework density 21.126439999999999
#
# number of rings (size 3 to 8) (size 9 to 14) (size 15 to 20)
#    0.000    2.667    1.333    0.400    0.000    2.667 
#    0.000   23.000    0.000    0.000    0.000    0.000 
#    0.000    0.000    0.000 2206.800    0.000    0.000 
#
# Total GULP energy -334380.984934 kJ/mol
# GULP energy per Si atom -5573.016416 kJ/mol
# Density = 2.107836 g / cm^3
# Si number density = 21.126440 Si / 1000 Ang^3
#
#
#
# Elastic Constant Matrix: (Units=GPa)
#
#
# Indices 1 2 3 4 5 6 
#
# 1 102.3668 22.6434 45.7707 0.0000 0.0000 0.0000
# 2 22.6434 61.7992 26.7001 0.0000 0.0000 0.0000
# 3 45.7707 26.7001 155.7395 0.0000 0.0000 0.0000
# 4 0.0000 0.0000 0.0000 15.8310 0.0000 0.0000
# 5 0.0000 0.0000 0.0000 0.0000 28.7672 0.0000
# 6 0.0000 0.0000 0.0000 0.0000 0.0000 28.3173
#
#
#
# Elastic Compliance Matrix: (Units=1/GPa)
#
#
# Indices 1 2 3 4 5 6 
#
# 1 0.011752 -0.003039 -0.002933 0.000000 0.000000 0.000000
# 2 -0.003039 0.018262 -0.002238 0.000000 0.000000 0.000000
# 3 -0.002933 -0.002238 0.007667 0.000000 0.000000 0.000000
# 4 0.000000 0.000000 0.000000 0.063167 0.000000 0.000000
# 5 0.000000 0.000000 0.000000 0.000000 0.034762 0.000000
# 6 0.000000 0.000000 0.000000 0.000000 0.000000 0.035314
#
#
# Mechanical properties :
#
#
# Convention : Reuss Voigt Hill
#
# Bulk Modulus (GPa) = 47.03329 56.68155 51.85742
# Shear Modulus (GPa) = 25.71619 29.56920 27.64270
#
# Velocity S-wave (km/s) = 3.49270 3.74522 3.62116
# Velocity P-wave (km/s) = 6.21099 6.75205 6.48716
#
# Compressibility (1/GPa) = 0.02126153
#
# Stress axis : x y z
#
# Youngs Moduli (GPa) = 85.08907 54.75947 130.43633
#
# Poissons Ratio (x) = 0.16641 0.38256
# Poissons Ratio (y) = 0.25858 0.29187
# Poissons Ratio (z) = 0.24956 0.12253
#
# Static dielectric constant tensor:
#      x y z
#    x 1.837930 0.000000 0.000000 
#    y 0.000000 1.759530 0.000000 
#    z 0.000000 0.000000 1.811850 
# 
# From -- ./inp_files/35456.got.cif
#   From: 2010.05.17/outbox.cif.g08.bks.cpg/sg48_18_cif.got.tgz:35456.got - 2010.06.03 20:39:00.
