data_PCOD9389311
_publ_section_title
;
Structure prediction by ZEFSAII (Michael W. Deem and Ramdas Pophale) SiO2 
 PCOD9389311
Probable space group: P M M M
;
_chemical_formula_sum "Si O2"
_cell_formula_units_Z 52
_cell_length_a 21.000000
_cell_length_b 15.000000
_cell_length_c 9.000000
_cell_angle_alpha 90.000000
_cell_angle_beta 90.000000
_cell_angle_gamma 90.000000
_cell_volume 2835.000000
_symmetry_space_group_name_H-M "P M M M"
_symmetry_group_IT_number 47
_symmetry_cell_setting 'orthorhombic'
loop_
_space_group_symop_operation_xyz
x,y,z
-x,-y,z
x,-y,-z
-x,y,-z
-x,-y,-z
x,y,-z
-x,y,z
x,-y,z
loop_
_atom_site_type_symbol
_atom_site_label
_atom_site_fract_x
_atom_site_fract_y
_atom_site_fract_z
Si Si1 0.701679 0.105758 0.822782
Si Si2 0.774320 0.600533 0.318471
Si Si3 0.365261 0.608704 0.671166
Si Si4 0.925069 0.103944 0.825451
Si Si5 0.500000 0.393900 0.318480
Si Si6 0.570380 0.891388 0.673378
Si Si7 0.182574 0.213078 0.323311
O O1 0.632821 0.136735 0.762154
O O2 0.758266 0.161974 0.750970
O O3 0.709170 0.000000 0.785137
O O4 0.703584 0.113279 0.000000
O O5 0.770814 0.596754 0.500000
O O6 0.790160 0.500000 0.269333
O O7 0.703497 0.626990 0.262083
O O8 0.818463 0.682852 0.278311
O O9 0.363582 0.639899 0.500000
O O10 0.368358 0.500000 0.666415
O O11 0.432121 0.641916 0.736451
O O12 0.881249 0.165017 0.726508
O O13 0.000000 0.118323 0.801975
O O14 0.911339 0.000000 0.795246
O O15 0.911342 0.119285 0.000000
O O16 0.500000 0.500000 0.286172
O O17 0.500000 0.386646 0.500000
O O18 0.576802 0.866343 0.500000
O O19 0.500000 0.861205 0.724769
O O20 0.569550 0.000000 0.679519
O O21 0.190905 0.208673 0.500000
#
# Coordination Sequence:
#
# PCOD9389311 Si02
#       7
#     8   8   8   8   4   8   8
#     4  10  20  32  47  69  99 136 175 211 250 305
#     4   8  15  28  44  63  92 131 171 210 254 302
#     4   7   9  15  29  49  74 106 146 192 240 288
#     4   9  19  37  59  81 107 138 166 194 239 303
#     4   7   8  10  22  46  70  96 138 189 236 280
#     4   8  14  26  45  68  94 125 163 212 267 312
#     4  11  21  31  50  78 106 135 169 211 255 297
#
# _framework density 18.342151999999999
#
# number of rings (size 3 to 8) (size 9 to 14) (size 15 to 20)
#    0.000    3.308    0.000    4.154    0.000    3.692 
#    0.000    2.308    1.692    2.308    0.000    3.231 
#    0.000    0.000    0.000    1.385    0.000    2.154 
#
# Total GULP energy -289623.249907 kJ/mol
# GULP energy per Si atom -5569.677883 kJ/mol
# Density = 1.830040 g / cm^3
# Si number density = 18.342152 Si / 1000 Ang^3
#
#
#
# Elastic Constant Matrix: (Units=GPa)
#
#
# Indices 1 2 3 4 5 6 
#
# 1 26.0642 40.6439 27.8118 0.0000 0.0000 0.0000
# 2 40.6439 63.8831 35.4777 0.0000 0.0000 0.0000
# 3 27.8118 35.4777 23.2069 0.0000 0.0000 0.0000
# 4 0.0000 0.0000 0.0000 -2.6752 0.0000 0.0000
# 5 0.0000 0.0000 0.0000 0.0000 60.9108 0.0000
# 6 0.0000 0.0000 0.0000 0.0000 0.0000 13.2612
#
#
#
# Elastic Compliance Matrix: (Units=1/GPa)
#
#
# Indices 1 2 3 4 5 6 
#
# 1 -0.131059 -0.025456 0.195982 0.000000 0.000000 0.000000
# 2 -0.025456 0.098724 -0.120417 0.000000 0.000000 0.000000
# 3 0.195982 -0.120417 -0.007691 0.000000 0.000000 0.000000
# 4 0.000000 0.000000 0.000000 -0.373803 0.000000 0.000000
# 5 0.000000 0.000000 0.000000 0.000000 0.016417 0.000000
# 6 0.000000 0.000000 0.000000 0.000000 0.000000 0.075408
#
#
# Mechanical properties :
#
#
# Convention : Reuss Voigt Hill
#
# Bulk Modulus (GPa) = 16.61397 35.66901 26.14149
# Shear Modulus (GPa) = -12.43296 14.91409 1.24056
#
# Velocity S-wave (km/s) = -2.60635 2.85459 0.82329
# Velocity P-wave (km/s) = 0.14159 5.50941 3.89703
#
# Compressibility (1/GPa) = 0.06019030
#
# Stress axis : x y z
#
# Youngs Moduli (GPa) = -7.63014 10.12929 -130.02751
#
# Poissons Ratio (x) = 0.25785 25.48300
# Poissons Ratio (y) = -0.19424 -15.65753
# Poissons Ratio (z) = 1.49537 1.21974
#
# Static dielectric constant tensor:
#      x y z
#    x 1.656300 0.000000 0.000000 
#    y 0.000000 1.663200 0.000000 
#    z 0.000000 0.000000 1.621470 
# 
# From -- ./inp_files/10983.got.cif
#   From: 2010.05.17/outbox.ucp.g08.bks.cvg/sg47_6_cif.got.tgz:10983.got - 2010.06.11 16:36:43.
