data_PCOD9389964
_publ_section_title
;
Structure prediction by ZEFSAII (Michael W. Deem and Ramdas Pophale) SiO2 
 PCOD9389964
Probable space group: P N N N
;
_chemical_formula_sum "Si O2"
_cell_formula_units_Z 64
_cell_length_a 17.080159
_cell_length_b 8.679091
_cell_length_c 22.868309
_cell_angle_alpha 90.000000
_cell_angle_beta 90.000000
_cell_angle_gamma 90.000000
_cell_volume 3390.003941
_symmetry_space_group_name_H-M "P N N N"
_symmetry_group_IT_number 48
_space_group.IT_coordinate_system_code '2'
_symmetry_cell_setting 'orthorhombic'
loop_
_space_group_symop_operation_xyz
x,y,z
1/2-x,1/2-y,z
x,1/2-y,1/2-z
1/2-x,y,1/2-z
-x,-y,-z
1/2+x,1/2+y,-z
-x,1/2+y,1/2+z
1/2+x,-y,1/2+z
loop_
_atom_site_type_symbol
_atom_site_label
_atom_site_fract_x
_atom_site_fract_y
_atom_site_fract_z
Si Si1 0.676230 0.865935 0.010658
Si Si2 0.240096 0.431252 0.318938
Si Si3 0.156387 0.578416 0.749744
Si Si4 0.321780 0.870300 0.086138
Si Si5 0.912006 0.934406 0.005581
Si Si6 0.671598 0.646814 0.356138
Si Si7 0.582133 0.555097 0.132885
Si Si8 0.599023 0.427226 0.885834
O O1 0.750000 0.750000 0.998303
O O2 0.602015 0.749389 0.005173
O O3 0.670005 0.010507 0.967418
O O4 0.685735 0.916899 0.078430
O O5 0.250000 0.250000 0.332898
O O6 0.250000 0.450609 0.250000
O O7 0.301331 0.527497 0.357350
O O8 0.157088 0.503385 0.337954
O O9 0.122966 0.750000 0.750000
O O10 0.250000 0.588546 0.750000
O O11 0.145596 0.473351 0.806925
O O12 0.124046 0.511572 0.689380
O O13 0.250000 0.750000 0.076078
O O14 0.392446 0.755203 0.102447
O O15 0.873169 0.997804 0.947182
O O16 0.883227 0.991897 0.069186
O O17 0.000000 0.000000 0.000000
O O18 0.750000 0.750000 0.340443
O O19 0.600670 0.765133 0.362575
O O20 0.489585 0.528564 0.129679
#
# Coordination Sequence:
#
# PCOD9389964 Si02
#       8
#     8   8   8   8   8   8   8   8
#     4  10  19  34  60  91 116 155 207 241 296 364
#     4  10  21  40  61  83 117 157 198 244 298 350
#     4  11  23  40  58  85 118 153 199 254 296 340
#     4  10  20  35  57  88 124 151 197 252 299 349
#     4   9  19  37  60  85 118 157 189 238 301 359
#     4  10  20  38  61  84 117 161 199 243 297 358
#     4  10  21  39  61  86 118 160 198 234 300 361
#     4  10  21  38  60  91 120 155 197 242 300 356
#
# _framework density 18.879033
#
# number of rings (size 3 to 8) (size 9 to 14) (size 15 to 20)
#    0.000    2.000    1.250    3.000    0.000    3.250 
#    9.000    8.125    0.000    0.000    0.000    0.000 
#    0.000    0.000    0.000    0.000    0.000    0.000 
#
# Total GULP energy -356396.482202 kJ/mol
# GULP energy per Si atom -5568.695034 kJ/mol
# Density = 1.883606 g / cm^3
# Si number density = 18.879033 Si / 1000 Ang^3
#
#
#
# Elastic Constant Matrix: (Units=GPa)
#
#
# Indices 1 2 3 4 5 6 
#
# 1 50.1264 18.0480 37.1214 0.0000 0.0000 0.0000
# 2 18.0480 108.4608 90.2882 0.0000 0.0000 0.0000
# 3 37.1214 90.2882 166.2741 0.0000 0.0000 0.0000
# 4 0.0000 0.0000 0.0000 3.7357 0.0000 0.0000
# 5 0.0000 0.0000 0.0000 0.0000 20.6154 0.0000
# 6 0.0000 0.0000 0.0000 0.0000 0.0000 14.0558
#
#
#
# Elastic Compliance Matrix: (Units=1/GPa)
#
#
# Indices 1 2 3 4 5 6 
#
# 1 0.023944 0.000850 -0.005807 0.000000 0.000000 0.000000
# 2 0.000850 0.016856 -0.009342 0.000000 0.000000 0.000000
# 3 -0.005807 -0.009342 0.012384 0.000000 0.000000 0.000000
# 4 0.000000 0.000000 0.000000 0.267686 0.000000 0.000000
# 5 0.000000 0.000000 0.000000 0.000000 0.048507 0.000000
# 6 0.000000 0.000000 0.000000 0.000000 0.000000 0.071145
#
#
# Mechanical properties :
#
#
# Convention : Reuss Voigt Hill
#
# Bulk Modulus (GPa) = 40.67714 68.41963 54.54838
# Shear Modulus (GPa) = 10.47525 19.64164 15.05845
#
# Velocity S-wave (km/s) = 2.35811 3.22901 2.82730
# Velocity P-wave (km/s) = 5.38583 7.08673 6.29400
#
# Compressibility (1/GPa) = 0.02458383
#
# Stress axis : x y z
#
# Youngs Moduli (GPa) = 41.76407 59.32727 80.75167
#
# Poissons Ratio (x) = -0.05041 0.46893
# Poissons Ratio (y) = -0.03549 0.75442
# Poissons Ratio (z) = 0.24253 0.55426
#
# Static dielectric constant tensor:
#      x y z
#    x 1.778730 0.000000 0.000000 
#    y 0.000000 1.681770 0.000000 
#    z 0.000000 0.000000 1.693160 
# 
# From -- ./inp_files/34701.got.cif
#   From: 2010.05.17/outbox.cif.g08.bks.cpg/sg48_18_cif.got.tgz:34701.got - 2010.06.03 20:39:00.
