data_PCOD9389755
_publ_section_title
;
Structure prediction by ZEFSAII (Michael W. Deem and Ramdas Pophale) SiO2 
 PCOD9389755
Probable space group: P N N N
;
_chemical_formula_sum "Si O2"
_cell_formula_units_Z 56
_cell_length_a 15.657573
_cell_length_b 12.722146
_cell_length_c 13.726071
_cell_angle_alpha 90.000000
_cell_angle_beta 90.000000
_cell_angle_gamma 90.000000
_cell_volume 2734.204926
_symmetry_space_group_name_H-M "P N N N"
_symmetry_group_IT_number 48
_space_group.IT_coordinate_system_code '2'
_symmetry_cell_setting 'orthorhombic'
loop_
_space_group_symop_operation_xyz
x,y,z
1/2-x,1/2-y,z
x,1/2-y,1/2-z
1/2-x,y,1/2-z
-x,-y,-z
1/2+x,1/2+y,-z
-x,1/2+y,1/2+z
1/2+x,-y,1/2+z
loop_
_atom_site_type_symbol
_atom_site_label
_atom_site_fract_x
_atom_site_fract_y
_atom_site_fract_z
Si Si1 0.948219 0.071985 0.694989
Si Si2 0.308879 0.548764 0.457675
Si Si3 0.426554 0.358779 0.526859
Si Si4 0.843661 0.220258 0.378732
Si Si5 0.381744 0.937113 0.526003
Si Si6 0.508494 0.652187 0.692296
Si Si7 0.536250 0.867745 0.386789
O O1 0.853824 0.076843 0.646321
O O2 0.991614 0.139829 0.780472
O O3 0.009568 0.081360 0.600283
O O4 0.956896 0.954492 0.735280
O O5 0.348694 0.439562 0.501810
O O6 0.334796 0.644602 0.528031
O O7 0.206295 0.546979 0.465639
O O8 0.466979 0.340481 0.420823
O O9 0.422286 0.242416 0.576299
O O10 0.750000 0.250000 0.346224
O O11 0.880700 0.331753 0.410314
O O12 0.906042 0.158720 0.307039
O O13 0.458190 0.909046 0.453105
O O14 0.396443 0.038169 0.594958
O O15 0.544491 0.750000 0.750000
#
# Coordination Sequence:
#
# PCOD9389755 Si02
#       7
#     8   8   8   8   8   8   8
#     4  11  21  37  64  93 120 167 216 261 317 404
#     4  10  20  39  64  88 122 167 216 261 325 389
#     4  11  21  40  62  89 125 172 210 263 323 404
#     4  10  18  35  59  86 117 151 203 264 319 374
#     4  10  22  38  59  91 126 166 205 270 329 379
#     4  11  20  34  59  89 119 156 209 260 315 383
#     4  11  23  38  61  89 130 165 216 262 330 384
#
# _framework density 20.481273000000002
#
# number of rings (size 3 to 8) (size 9 to 14) (size 15 to 20)
#    0.000    1.429    4.286    2.143    2.000    1.429 
#    0.000    0.714    0.000    6.000    0.000    0.000 
#    0.000    0.000    0.000    0.000    0.000    0.000 
#
# Total GULP energy -311947.535880 kJ/mol
# GULP energy per Si atom -5570.491712 kJ/mol
# Density = 2.043466 g / cm^3
# Si number density = 20.481273 Si / 1000 Ang^3
#
#
#
# Elastic Constant Matrix: (Units=GPa)
#
#
# Indices 1 2 3 4 5 6 
#
# 1 68.3072 15.7358 6.4780 0.0000 0.0000 0.0000
# 2 15.7358 152.6632 30.0500 0.0000 0.0000 0.0000
# 3 6.4780 30.0500 90.3078 0.0000 0.0000 0.0000
# 4 0.0000 0.0000 0.0000 42.3211 0.0000 0.0000
# 5 0.0000 0.0000 0.0000 0.0000 21.7264 0.0000
# 6 0.0000 0.0000 0.0000 0.0000 0.0000 22.5678
#
#
#
# Elastic Compliance Matrix: (Units=1/GPa)
#
#
# Indices 1 2 3 4 5 6 
#
# 1 0.015026 -0.001430 -0.000602 0.000000 0.000000 0.000000
# 2 -0.001430 0.007146 -0.002275 0.000000 0.000000 0.000000
# 3 -0.000602 -0.002275 0.011873 0.000000 0.000000 0.000000
# 4 0.000000 0.000000 0.000000 0.023629 0.000000 0.000000
# 5 0.000000 0.000000 0.000000 0.000000 0.046027 0.000000
# 6 0.000000 0.000000 0.000000 0.000000 0.000000 0.044311
#
#
# Mechanical properties :
#
#
# Convention : Reuss Voigt Hill
#
# Bulk Modulus (GPa) = 39.32265 46.20065 42.76165
# Shear Modulus (GPa) = 30.28397 34.59070 32.43733
#
# Velocity S-wave (km/s) = 3.84945 4.11407 3.98396
# Velocity P-wave (km/s) = 6.24489 6.72116 6.48740
#
# Compressibility (1/GPa) = 0.02543064
#
# Stress axis : x y z
#
# Youngs Moduli (GPa) = 66.54982 139.94565 84.22145
#
# Poissons Ratio (x) = 0.20017 0.05069
# Poissons Ratio (y) = 0.09519 0.19161
# Poissons Ratio (z) = 0.04006 0.31839
#
# Static dielectric constant tensor:
#      x y z
#    x 1.751770 0.000000 0.000000 
#    y 0.000000 1.788250 0.000000 
#    z 0.000000 0.000000 1.786650 
# 
# From -- ./inp_files/27311.got.cif
#   From: 2010.05.17/outbox.cif.g08.bks.cpg/sg48_14_cif.got.tgz:27311.got - 2010.06.03 20:39:00.
