data_PCOD9389104
_publ_section_title
;
Structure prediction by ZEFSAII (Michael W. Deem and Ramdas Pophale) SiO2 
 PCOD9389104
Probable space group: P M M M
;
_chemical_formula_sum "Si O2"
_cell_formula_units_Z 48
_cell_length_a 32.482449
_cell_length_b 7.512725
_cell_length_c 9.714372
_cell_angle_alpha 90.000000
_cell_angle_beta 90.000000
_cell_angle_gamma 90.000000
_cell_volume 2370.614778
_symmetry_space_group_name_H-M "P M M M"
_symmetry_group_IT_number 47
_symmetry_cell_setting 'orthorhombic'
loop_
_space_group_symop_operation_xyz
x,y,z
-x,-y,z
x,-y,-z
-x,y,-z
-x,-y,-z
x,y,-z
-x,y,z
x,-y,z
loop_
_atom_site_type_symbol
_atom_site_label
_atom_site_fract_x
_atom_site_fract_y
_atom_site_fract_z
Si Si1 0.713514 0.712580 0.157206
Si Si2 0.865286 0.289436 0.842764
Si Si3 0.210448 0.281598 0.658442
Si Si4 0.621040 0.786311 0.156542
Si Si5 0.454236 0.782760 0.659127
Si Si6 0.044226 0.785955 0.160441
O O1 0.718465 0.500000 0.148807
O O2 0.748962 0.777430 0.258793
O O3 0.667128 0.747293 0.207300
O O4 0.717319 0.782465 0.000000
O O5 0.858261 0.500000 0.854917
O O6 0.829639 0.220943 0.743506
O O7 0.911370 0.267077 0.783348
O O8 0.863769 0.216079 0.000000
O O9 0.210146 0.224353 0.500000
O O10 0.210331 0.500000 0.657047
O O11 0.583732 0.719351 0.249602
O O12 0.617336 0.000000 0.151448
O O13 0.618228 0.718275 0.000000
O O14 0.449551 0.729632 0.500000
O O15 0.500000 0.728481 0.706804
O O16 0.453773 0.000000 0.661208
O O17 0.000000 0.725291 0.219651
O O18 0.043618 0.000000 0.161195
O O19 0.044745 0.727458 0.000000
#
# Coordination Sequence:
#
# PCOD9389104 Si02
#       6
#     8   8   8   8   8   8
#     4   9  17  30  47  64  84 112 143 172 206 252
#     4   9  16  26  43  66  87 107 136 175 213 245
#     4   9  17  29  45  64  85 110 141 175 209 247
#     4   9  17  28  43  65  89 109 134 173 215 249
#     4   8  14  25  41  61  85 113 143 173 207 248
#     4   8  14  25  41  62  88 115 141 170 206 248
#
# _framework density 20.247910999999998
#
# number of rings (size 3 to 8) (size 9 to 14) (size 15 to 20)
#    0.000    3.333    0.000    1.500    0.000    3.333 
#    0.000    4.167    0.000    6.500    0.000    7.000 
#    0.000    0.000    0.000    0.000    0.000    0.000 
#
# Total GULP energy -267488.177541 kJ/mol
# GULP energy per Si atom -5572.670365 kJ/mol
# Density = 2.020183 g / cm^3
# Si number density = 20.247911 Si / 1000 Ang^3
#
#
#
# Elastic Constant Matrix: (Units=GPa)
#
#
# Indices 1 2 3 4 5 6 
#
# 1 250.1850 0.6866 115.3838 0.0000 0.0000 0.0000
# 2 0.6866 50.5385 5.3463 0.0000 0.0000 0.0000
# 3 115.3838 5.3463 88.7683 0.0000 0.0000 0.0000
# 4 0.0000 0.0000 0.0000 0.8451 0.0000 0.0000
# 5 0.0000 0.0000 0.0000 0.0000 -36.1182 0.0000
# 6 0.0000 0.0000 0.0000 0.0000 0.0000 19.4666
#
#
#
# Elastic Compliance Matrix: (Units=1/GPa)
#
#
# Indices 1 2 3 4 5 6 
#
# 1 0.010058 0.001254 -0.013149 0.000000 0.000000 0.000000
# 2 0.001254 0.020070 -0.002839 0.000000 0.000000 0.000000
# 3 -0.013149 -0.002839 0.028528 0.000000 0.000000 0.000000
# 4 0.000000 0.000000 0.000000 1.183258 0.000000 0.000000
# 5 0.000000 0.000000 0.000000 0.000000 -0.027687 0.000000
# 6 0.000000 0.000000 0.000000 0.000000 0.000000 0.051370
#
#
# Mechanical properties :
#
#
# Convention : Reuss Voigt Hill
#
# Bulk Modulus (GPa) = 34.26064 70.25835 52.25950
# Shear Modulus (GPa) = 3.83202 14.71038 9.27120
#
# Velocity S-wave (km/s) = 1.37719 2.69832 2.14214
# Velocity P-wave (km/s) = 4.41432 6.66950 5.65546
#
# Compressibility (1/GPa) = 0.02918802
#
# Stress axis : x y z
#
# Youngs Moduli (GPa) = 99.42447 49.82514 35.05341
#
# Poissons Ratio (x) = -0.06250 0.46092
# Poissons Ratio (y) = -0.12471 0.09952
# Poissons Ratio (z) = 1.30734 0.14147
#
# Static dielectric constant tensor:
#      x y z
#    x 1.730240 0.000000 0.000000 
#    y 0.000000 1.775120 0.000000 
#    z 0.000000 0.000000 1.688030 
# 
# From -- ./inp_files/13173.got.cif
#   From: 2010.05.17/outbox.cif.g08.bks.cpg/sg47_7_cif.got.tgz:13173.got - 2010.06.03 20:15:42.
