data_PCOD9389125
_publ_section_title
;
Structure prediction by ZEFSAII (Michael W. Deem and Ramdas Pophale) SiO2 
 PCOD9389125
Probable space group: P M M M
;
_chemical_formula_sum "Si O2"
_cell_formula_units_Z 56
_cell_length_a 8.125878
_cell_length_b 23.792315
_cell_length_c 14.859647
_cell_angle_alpha 90.000000
_cell_angle_beta 90.000000
_cell_angle_gamma 90.000000
_cell_volume 2872.866806
_symmetry_space_group_name_H-M "P M M M"
_symmetry_group_IT_number 47
_symmetry_cell_setting 'orthorhombic'
loop_
_space_group_symop_operation_xyz
x,y,z
-x,-y,z
x,-y,-z
-x,y,-z
-x,-y,-z
x,y,-z
-x,y,z
x,-y,z
loop_
_atom_site_type_symbol
_atom_site_label
_atom_site_fract_x
_atom_site_fract_y
_atom_site_fract_z
Si Si1 0.692597 0.205695 0.096138
Si Si2 0.699272 0.826833 0.293219
Si Si3 0.700708 0.062750 0.395770
Si Si4 0.698814 0.437868 0.795631
Si Si5 0.813242 0.710053 0.644945
Si Si6 0.814498 0.677632 0.143843
Si Si7 0.692659 0.592709 0.403670
O O1 0.500000 0.190806 0.095682
O O2 0.761792 0.182751 0.190766
O O3 0.707392 0.273377 0.100698
O O4 0.765366 0.187068 0.000000
O O5 0.500000 0.826542 0.290163
O O6 0.756736 0.885472 0.335082
O O7 0.749783 0.773685 0.354633
O O8 0.748869 0.070848 0.500000
O O9 0.500000 0.063170 0.393933
O O10 0.753118 0.000000 0.367430
O O11 0.500000 0.434773 0.792433
O O12 0.747319 0.500000 0.826208
O O13 0.757369 0.386582 0.857271
O O14 0.759965 0.429385 0.691864
O O15 0.813123 0.693246 0.750295
O O16 0.709603 0.660445 0.600395
O O17 0.000000 0.707342 0.611440
O O18 0.000000 0.682801 0.110021
O O19 0.764244 0.573718 0.500000
O O20 0.500000 0.577523 0.404113
#
# Coordination Sequence:
#
# PCOD9389125 Si02
#       7
#     8   8   8   8   8   8   8
#     4   9  17  29  46  68  93 119 145 176 219 271
#     4   9  16  27  45  67  90 117 150 186 222 263
#     4   8  14  25  42  65  91 119 154 193 226 255
#     4   9  17  29  45  63  83 111 147 184 223 268
#     4   9  17  28  41  59  84 112 142 178 223 271
#     4   9  17  29  45  64  86 112 142 177 217 262
#     4   9  17  28  41  58  82 112 146 184 224 267
#
# _framework density 19.492725
#
# number of rings (size 3 to 8) (size 9 to 14) (size 15 to 20)
#    0.000    3.143    0.000    1.286    0.000    5.143 
#    0.000    2.857    0.000    1.286    0.000   11.000 
#    0.000    0.000    0.000    7.143    0.000    7.429 
#
# Total GULP energy -311829.212024 kJ/mol
# GULP energy per Si atom -5568.378786 kJ/mol
# Density = 1.944836 g / cm^3
# Si number density = 19.492725 Si / 1000 Ang^3
#
#
#
# Elastic Constant Matrix: (Units=GPa)
#
#
# Indices 1 2 3 4 5 6 
#
# 1 15.2237 -1.8335 -2.1075 0.0000 0.0000 0.0000
# 2 -1.8335 133.0564 25.3261 0.0000 0.0000 0.0000
# 3 -2.1075 25.3261 51.5277 0.0000 0.0000 0.0000
# 4 0.0000 0.0000 0.0000 3.5187 0.0000 0.0000
# 5 0.0000 0.0000 0.0000 0.0000 -0.9678 0.0000
# 6 0.0000 0.0000 0.0000 0.0000 0.0000 -7.9914
#
#
#
# Elastic Compliance Matrix: (Units=1/GPa)
#
#
# Indices 1 2 3 4 5 6 
#
# 1 0.066084 0.000437 0.002488 0.000000 0.000000 0.000000
# 2 0.000437 0.008294 -0.004059 0.000000 0.000000 0.000000
# 3 0.002488 -0.004059 0.021504 0.000000 0.000000 0.000000
# 4 0.000000 0.000000 0.000000 0.284198 0.000000 0.000000
# 5 0.000000 0.000000 0.000000 0.000000 -1.033263 0.000000
# 6 0.000000 0.000000 0.000000 0.000000 0.000000 -0.125135
#
#
# Mechanical properties :
#
#
# Convention : Reuss Voigt Hill
#
# Bulk Modulus (GPa) = 10.68210 26.95312 18.81761
# Shear Modulus (GPa) = -6.71279 10.80675 2.04698
#
# Velocity S-wave (km/s) = -1.85775 2.35712 1.02587
# Velocity P-wave (km/s) = 0.94356 4.61143 3.32834
#
# Compressibility (1/GPa) = 0.09361457
#
# Stress axis : x y z
#
# Youngs Moduli (GPa) = 15.13224 120.56653 46.50364
#
# Poissons Ratio (x) = -0.05269 -0.11570
# Poissons Ratio (y) = -0.00661 0.18875
# Poissons Ratio (z) = -0.03765 0.48935
#
# Static dielectric constant tensor:
#      x y z
#    x 1.701790 0.000000 0.000000 
#    y 0.000000 1.677830 0.000000 
#    z 0.000000 0.000000 1.739180 
# 
# From -- ./inp_files/26950.got.cif
#   From: 2010.05.17/outbox.cif.g08.bks.cpg/sg47_14_cif.got.tgz:26950.got - 2010.06.03 20:15:42.
