data_PCOD9389290
_publ_section_title
;
Structure prediction by ZEFSAII (Michael W. Deem and Ramdas Pophale) SiO2 
 PCOD9389290
Probable space group: P M M M
;
_chemical_formula_sum "Si O2"
_cell_formula_units_Z 40
_cell_length_a 21.000000
_cell_length_b 12.000000
_cell_length_c 9.000000
_cell_angle_alpha 90.000000
_cell_angle_beta 90.000000
_cell_angle_gamma 90.000000
_cell_volume 2268.000000
_symmetry_space_group_name_H-M "P M M M"
_symmetry_group_IT_number 47
_symmetry_cell_setting 'orthorhombic'
loop_
_space_group_symop_operation_xyz
x,y,z
-x,-y,z
x,-y,-z
-x,y,-z
-x,-y,-z
x,y,-z
-x,y,z
x,-y,z
loop_
_atom_site_type_symbol
_atom_site_label
_atom_site_fract_x
_atom_site_fract_y
_atom_site_fract_z
Si Si1 0.929091 0.633255 0.824260
Si Si2 0.424855 0.265008 0.178644
Si Si3 0.925934 0.000000 0.680750
Si Si4 0.576643 0.500000 0.330970
Si Si5 0.834285 0.204428 0.679241
Si Si6 0.308181 0.132961 0.322179
O O1 0.927631 0.500000 0.808476
O O2 0.869678 0.687363 0.741273
O O3 0.000000 0.671410 0.771218
O O4 0.925190 0.658793 0.000000
O O5 0.500000 0.240721 0.219266
O O6 0.407697 0.386973 0.243883
O O7 0.370832 0.182896 0.243105
O O8 0.422190 0.266030 0.000000
O O9 0.882940 0.894333 0.725654
O O10 0.928371 0.000000 0.500000
O O11 0.000000 0.000000 0.732089
O O12 0.500000 0.500000 0.340674
O O13 0.602107 0.500000 0.500000
O O14 0.833220 0.205910 0.500000
O O15 0.760753 0.183581 0.726082
O O16 0.314413 0.152421 0.500000
O O17 0.304824 0.000000 0.298602
#
# Coordination Sequence:
#
# PCOD9389290 Si02
#       6
#     8   8   4   4   8   8
#     4   9  19  36  55  76 107 145 181 221 272 327
#     4  10  21  37  58  85 115 146 184 228 274 329
#     4   9  16  28  51  81 108 135 170 218 273 317
#     4   9  17  33  59  87 113 141 176 221 272 323
#     4  10  19  34  55  80 108 140 181 226 271 323
#     4  10  21  38  57  78 110 149 188 231 279 331
#
# _framework density 17.636683999999999
#
# number of rings (size 3 to 8) (size 9 to 14) (size 15 to 20)
#    0.000    2.400    1.000    2.100    0.000    5.600 
#    1.800    3.500    0.000    1.800    0.000    0.000 
#    0.000    0.000    0.000    0.000    0.000    0.000 
#
# Total GULP energy -222916.160745 kJ/mol
# GULP energy per Si atom -5572.904019 kJ/mol
# Density = 1.759654 g / cm^3
# Si number density = 17.636684 Si / 1000 Ang^3
#
#
#
# Elastic Constant Matrix: (Units=GPa)
#
#
# Indices 1 2 3 4 5 6 
#
# 1 166.5869 57.6738 48.9653 0.0000 0.0000 0.0000
# 2 57.6738 59.3069 29.2600 0.0000 0.0000 0.0000
# 3 48.9653 29.2600 43.2859 0.0000 0.0000 0.0000
# 4 0.0000 0.0000 0.0000 93.1206 0.0000 0.0000
# 5 0.0000 0.0000 0.0000 0.0000 30.6090 0.0000
# 6 0.0000 0.0000 0.0000 0.0000 0.0000 37.4945
#
#
#
# Elastic Compliance Matrix: (Units=1/GPa)
#
#
# Indices 1 2 3 4 5 6 
#
# 1 0.010425 -0.006482 -0.007412 0.000000 0.000000 0.000000
# 2 -0.006482 0.029328 -0.012493 0.000000 0.000000 0.000000
# 3 -0.007412 -0.012493 0.039932 0.000000 0.000000 0.000000
# 4 0.000000 0.000000 0.000000 0.010739 0.000000 0.000000
# 5 0.000000 0.000000 0.000000 0.000000 0.032670 0.000000
# 6 0.000000 0.000000 0.000000 0.000000 0.000000 0.026671
#
#
# Mechanical properties :
#
#
# Convention : Reuss Voigt Hill
#
# Bulk Modulus (GPa) = 37.15802 60.10865 48.63334
# Shear Modulus (GPa) = 23.63971 41.13018 32.38495
#
# Velocity S-wave (km/s) = 3.66508 4.83440 4.28977
# Velocity P-wave (km/s) = 6.24698 8.08193 7.22296
#
# Compressibility (1/GPa) = 0.02691209
#
# Stress axis : x y z
#
# Youngs Moduli (GPa) = 95.91900 34.09692 25.04284
#
# Poissons Ratio (x) = 0.22100 0.18562
# Poissons Ratio (y) = 0.62170 0.31286
# Poissons Ratio (z) = 0.71095 0.42597
#
# Static dielectric constant tensor:
#      x y z
#    x 1.590890 0.000000 0.000000 
#    y 0.000000 1.625010 0.000000 
#    z 0.000000 0.000000 1.597820 
# 
# From -- ./inp_files/10700.got.cif
#   From: 2010.05.17/outbox.ucp.g08.bks.cvg/sg47_6_cif.got.tgz:10700.got - 2010.06.11 16:36:43.
