data_PCOD9389397
_publ_section_title
;
Structure prediction by ZEFSAII (Michael W. Deem and Ramdas Pophale) SiO2 
 PCOD9389397
Probable space group: P M M M
;
_chemical_formula_sum "Si O2"
_cell_formula_units_Z 48
_cell_length_a 15.000000
_cell_length_b 9.000000
_cell_length_c 18.000000
_cell_angle_alpha 90.000000
_cell_angle_beta 90.000000
_cell_angle_gamma 90.000000
_cell_volume 2430.000000
_symmetry_space_group_name_H-M "P M M M"
_symmetry_group_IT_number 47
_symmetry_cell_setting 'orthorhombic'
loop_
_space_group_symop_operation_xyz
x,y,z
-x,-y,z
x,-y,-z
-x,y,-z
-x,-y,-z
x,y,-z
-x,y,z
x,-y,z
loop_
_atom_site_type_symbol
_atom_site_label
_atom_site_fract_x
_atom_site_fract_y
_atom_site_fract_z
Si Si1 0.719149 0.324851 0.082138
Si Si2 0.603968 0.827813 0.208126
Si Si3 0.784701 0.321355 0.420932
Si Si4 0.101935 0.176411 0.119664
Si Si5 0.402190 0.678966 0.632457
Si Si6 0.100983 0.824151 0.703997
O O1 0.714883 0.500000 0.096912
O O2 0.666006 0.237475 0.144742
O O3 0.821057 0.270666 0.082867
O O4 0.681434 0.295980 0.000000
O O5 0.500000 0.817889 0.185868
O O6 0.613146 0.738256 0.284492
O O7 0.626094 0.000000 0.221642
O O8 0.823565 0.270638 0.500000
O O9 0.788527 0.500000 0.419171
O O10 0.681533 0.275374 0.416031
O O11 0.832845 0.260583 0.348955
O O12 0.112643 0.200394 0.208300
O O13 0.000000 0.214174 0.099423
O O14 0.113823 0.000000 0.105157
O O15 0.500000 0.730396 0.607479
O O16 0.403359 0.500000 0.633988
O O17 0.000000 0.780265 0.685216
O O18 0.110406 0.000000 0.692003
#
# Coordination Sequence:
#
# PCOD9389397 Si02
#       6
#     8   8   8   8   8   8
#     4  11  24  38  53  78 112 146 177 213 260 314
#     4  10  21  37  58  82 106 135 175 223 269 313
#     4  10  21  34  49  75 109 141 174 213 257 306
#     4   9  19  37  60  83 106 136 177 223 267 312
#     4   9  18  34  56  79 104 137 175 214 259 312
#     4   9  19  36  56  77 101 132 173 218 262 309
#
# _framework density 19.753086
#
# number of rings (size 3 to 8) (size 9 to 14) (size 15 to 20)
#    0.000    2.333    0.000    3.000    0.000    8.667 
#    0.000    8.333    0.000    0.000    0.000    3.500 
#    0.000    0.000    0.000    0.000    0.000    0.000 
#
# Total GULP energy -267851.373155 kJ/mol
# GULP energy per Si atom -5580.236941 kJ/mol
# Density = 1.970813 g / cm^3
# Si number density = 19.753086 Si / 1000 Ang^3
#
#
#
# Elastic Constant Matrix: (Units=GPa)
#
#
# Indices 1 2 3 4 5 6 
#
# 1 50.9627 19.4969 37.6311 0.0000 0.0000 0.0000
# 2 19.4969 -13.4155 7.6886 0.0000 0.0000 0.0000
# 3 37.6311 7.6886 30.3398 0.0000 0.0000 0.0000
# 4 0.0000 0.0000 0.0000 27.0469 0.0000 0.0000
# 5 0.0000 0.0000 0.0000 0.0000 -134.4479 0.0000
# 6 0.0000 0.0000 0.0000 0.0000 0.0000 27.1982
#
#
#
# Elastic Compliance Matrix: (Units=1/GPa)
#
#
# Indices 1 2 3 4 5 6 
#
# 1 0.093062 0.060333 -0.130716 0.000000 0.000000 0.000000
# 2 0.060333 -0.025973 -0.068251 0.000000 0.000000 0.000000
# 3 -0.130716 -0.068251 0.212387 0.000000 0.000000 0.000000
# 4 0.000000 0.000000 0.000000 0.036973 0.000000 0.000000
# 5 0.000000 0.000000 0.000000 0.000000 -0.007438 0.000000
# 6 0.000000 0.000000 0.000000 0.000000 0.000000 0.036767
#
#
# Mechanical properties :
#
#
# Convention : Reuss Voigt Hill
#
# Bulk Modulus (GPa) = 452.95053 21.94670 237.44861
# Shear Modulus (GPa) = 8.01561 -15.83588 -3.91013
#
# Velocity S-wave (km/s) = 2.01661 -2.83449 -1.40847
# Velocity P-wave (km/s) = 15.33709 0.64978 10.85469
#
# Compressibility (1/GPa) = 0.00220775
#
# Stress axis : x y z
#
# Youngs Moduli (GPa) = 10.74553 -38.50198 4.70839
#
# Poissons Ratio (x) = 2.32295 0.61546
# Poissons Ratio (y) = -0.64831 0.32135
# Poissons Ratio (z) = 1.40462 -2.62780
#
# Static dielectric constant tensor:
#      x y z
#    x 1.712880 0.000000 0.000000 
#    y 0.000000 1.658970 0.000000 
#    z 0.000000 0.000000 1.739910 
# 
# From -- ./inp_files/6330.got.cif
#   From: 2010.05.17/outbox.ucp.g08.bks.cvg/sg47_4_cif.got.tgz:6330.got - 2010.06.11 16:36:43.
