data_PCOD9389622
_publ_section_title
;
Structure prediction by ZEFSAII (Michael W. Deem and Ramdas Pophale) SiO2 
 PCOD9389622
Probable space group: P N N N
;
_chemical_formula_sum "Si O2"
_cell_formula_units_Z 48
_cell_length_a 7.456659
_cell_length_b 8.593859
_cell_length_c 30.437156
_cell_angle_alpha 90.000000
_cell_angle_beta 90.000000
_cell_angle_gamma 90.000000
_cell_volume 1950.457883
_symmetry_space_group_name_H-M "P N N N"
_symmetry_group_IT_number 48
_space_group.IT_coordinate_system_code '2'
_symmetry_cell_setting 'orthorhombic'
loop_
_space_group_symop_operation_xyz
x,y,z
1/2-x,1/2-y,z
x,1/2-y,1/2-z
1/2-x,y,1/2-z
-x,-y,-z
1/2+x,1/2+y,-z
-x,1/2+y,1/2+z
1/2+x,-y,1/2+z
loop_
_atom_site_type_symbol
_atom_site_label
_atom_site_fract_x
_atom_site_fract_y
_atom_site_fract_z
Si Si1 0.143844 0.457672 0.558785
Si Si2 0.982949 0.251968 0.016111
Si Si3 0.444100 0.076514 0.654668
Si Si4 0.932202 0.455975 0.937356
Si Si5 0.031864 0.749783 0.698943
Si Si6 0.996650 0.917124 0.341432
O O1 0.085772 0.361263 0.516771
O O2 0.032321 0.413807 0.601852
O O3 0.352822 0.430835 0.564967
O O4 0.114498 0.637899 0.549532
O O5 0.094197 0.368827 0.046683
O O6 0.877157 0.359451 0.980418
O O7 0.224281 0.075270 0.657373
O O8 0.518821 0.237887 0.675288
O O9 0.514679 0.913915 0.674726
O O10 0.890038 0.422733 0.887145
O O11 0.250000 0.750000 0.696373
O O12 0.981622 0.750000 0.750000
O O13 0.962382 0.915210 0.680327
#
# Coordination Sequence:
#
# PCOD9389622 Si02
#       6
#     8   8   8   8   8   8
#     4  10  18  30  42  60  86 111 150 189 209 249
#     4  10  19  26  43  63  78 111 151 185 220 250
#     4   9  16  27  42  55  76 111 140 173 215 244
#     4  10  18  30  42  60  86 111 150 189 209 249
#     4   9  17  26  37  57  78  99 138 180 211 251
#     4   9  16  27  42  55  76 111 140 173 215 244
#
# _framework density 24.609605999999999
#
# number of rings (size 3 to 8) (size 9 to 14) (size 15 to 20)
#    0.000    2.500    1.667    2.000    0.000    3.333 
#    0.000    3.333    0.000    0.000    0.000    0.000 
#    0.000    0.000    0.000    0.000    0.000  393.333 
#
# Total GULP energy -267693.595894 kJ/mol
# GULP energy per Si atom -5576.949914 kJ/mol
# Density = 2.455359 g / cm^3
# Si number density = 24.609606 Si / 1000 Ang^3
#
#
#
# Elastic Constant Matrix: (Units=GPa)
#
#
# Indices 1 2 3 4 5 6 
#
# 1 56.6938 15.9144 5.8591 0.0000 0.0000 0.0000
# 2 15.9144 245.5201 72.3162 0.0000 0.0000 0.0000
# 3 5.8591 72.3162 87.5875 0.0000 0.0000 0.0000
# 4 0.0000 0.0000 0.0000 21.4484 0.0000 0.0000
# 5 0.0000 0.0000 0.0000 0.0000 0.4769 0.0000
# 6 0.0000 0.0000 0.0000 0.0000 0.0000 16.1022
#
#
#
# Elastic Compliance Matrix: (Units=1/GPa)
#
#
# Indices 1 2 3 4 5 6 
#
# 1 0.017972 -0.001071 -0.000318 0.000000 0.000000 0.000000
# 2 -0.001071 0.005446 -0.004424 0.000000 0.000000 0.000000
# 3 -0.000318 -0.004424 0.015091 0.000000 0.000000 0.000000
# 4 0.000000 0.000000 0.000000 0.046624 0.000000 0.000000
# 5 0.000000 0.000000 0.000000 0.000000 2.096882 0.000000
# 6 0.000000 0.000000 0.000000 0.000000 0.000000 0.062103
#
#
# Mechanical properties :
#
#
# Convention : Reuss Voigt Hill
#
# Bulk Modulus (GPa) = 37.19927 64.22007 50.70967
# Shear Modulus (GPa) = 2.20779 27.31961 14.76370
#
# Velocity S-wave (km/s) = 0.94820 3.33546 2.45198
# Velocity P-wave (km/s) = 4.04318 6.40202 5.35412
#
# Compressibility (1/GPa) = 0.02688225
#
# Stress axis : x y z
#
# Youngs Moduli (GPa) = 55.64150 183.63335 66.26262
#
# Poissons Ratio (x) = 0.19674 0.02105
# Poissons Ratio (y) = 0.05961 0.29318
# Poissons Ratio (z) = 0.01767 0.81248
#
# Static dielectric constant tensor:
#      x y z
#    x 2.105520 0.000000 0.000000 
#    y 0.000000 1.998040 0.000000 
#    z 0.000000 0.000000 1.939340 
# 
# From -- ./inp_files/11487.got.cif
#   From: 2010.05.17/outbox.cif.g08.bks.cpg/sg48_6_cif.got.tgz:11487.got - 2010.06.03 20:39:00.
