data_PCOD9389094
_publ_section_title
;
Structure prediction by ZEFSAII (Michael W. Deem and Ramdas Pophale) SiO2 
 PCOD9389094
Probable space group: P M M M
;
_chemical_formula_sum "Si O2"
_cell_formula_units_Z 52
_cell_length_a 7.321768
_cell_length_b 8.552344
_cell_length_c 36.679709
_cell_angle_alpha 90.000000
_cell_angle_beta 90.000000
_cell_angle_gamma 90.000000
_cell_volume 2296.820238
_symmetry_space_group_name_H-M "P M M M"
_symmetry_group_IT_number 47
_symmetry_cell_setting 'orthorhombic'
loop_
_space_group_symop_operation_xyz
x,y,z
-x,-y,z
x,-y,-z
-x,y,-z
-x,-y,-z
x,y,-z
-x,y,z
x,-y,z
loop_
_atom_site_type_symbol
_atom_site_label
_atom_site_fract_x
_atom_site_fract_y
_atom_site_fract_z
Si Si1 0.278094 0.000000 0.542470
Si Si2 0.282369 0.177978 0.805969
Si Si3 0.277895 0.823903 0.344866
Si Si4 0.778152 0.317164 0.039273
Si Si5 0.722879 0.678316 0.269640
Si Si6 0.722429 0.324857 0.581134
Si Si7 0.781786 0.176658 0.885043
O O1 0.218756 0.833914 0.560151
O O2 0.500000 0.000000 0.545821
O O3 0.230485 0.000000 0.500000
O O4 0.500000 0.168830 0.802141
O O5 0.214228 0.262847 0.769835
O O6 0.251173 0.253867 0.845663
O O7 0.210112 0.000000 0.806745
O O8 0.500000 0.822977 0.344447
O O9 0.217822 0.778669 0.304360
O O10 0.224743 0.705405 0.376739
O O11 0.221448 0.000000 0.354309
O O12 0.733019 0.500000 0.039210
O O13 0.711740 0.247901 0.077329
O O14 0.000000 0.305536 0.039478
O O15 0.718390 0.249344 0.000000
O O16 0.500000 0.683527 0.269276
O O17 0.776487 0.500000 0.275314
O O18 0.500000 0.325784 0.579130
O O19 0.781080 0.500000 0.569219
O O20 0.000000 0.170916 0.888606
O O21 0.710784 0.000000 0.882251
#
# Coordination Sequence:
#
# PCOD9389094 Si02
#       7
#     4   8   8   8   8   8   8
#     4   9  16  24  30  38  54  76 106 144 189 243
#     4   9  17  29  42  56  78 107 133 157 194 243
#     4   9  14  21  33  47  64  85 110 143 186 234
#     4   8  14  25  41  61  83 104 127 158 196 235
#     4   9  16  24  35  53  73  93 120 153 188 228
#     4   9  15  22  31  42  56  76 105 143 188 237
#     4   9  17  28  43  63  83 103 131 166 199 232
#
# _framework density 22.639996
#
# number of rings (size 3 to 8) (size 9 to 14) (size 15 to 20)
#    0.000    3.154    0.769    1.385    0.000    4.923 
#    0.000    3.077    0.000    0.462    0.000    3.231 
#    0.000    0.000    0.000    0.000    0.000    0.000 
#
# Total GULP energy -289990.352834 kJ/mol
# GULP energy per Si atom -5576.737555 kJ/mol
# Density = 2.258847 g / cm^3
# Si number density = 22.639996 Si / 1000 Ang^3
#
#
#
# Elastic Constant Matrix: (Units=GPa)
#
#
# Indices 1 2 3 4 5 6 
#
# 1 89.2348 1.4430 -0.1560 0.0000 0.0000 0.0000
# 2 1.4430 120.8452 76.1426 0.0000 0.0000 0.0000
# 3 -0.1560 76.1426 173.2868 0.0000 0.0000 0.0000
# 4 0.0000 0.0000 0.0000 13.5615 0.0000 0.0000
# 5 0.0000 0.0000 0.0000 0.0000 -0.1885 0.0000
# 6 0.0000 0.0000 0.0000 0.0000 0.0000 -15.3920
#
#
#
# Elastic Compliance Matrix: (Units=1/GPa)
#
#
# Indices 1 2 3 4 5 6 
#
# 1 0.011210 -0.000194 0.000095 0.000000 0.000000 0.000000
# 2 -0.000194 0.011447 -0.005030 0.000000 0.000000 0.000000
# 3 0.000095 -0.005030 0.007981 0.000000 0.000000 0.000000
# 4 0.000000 0.000000 0.000000 0.073738 0.000000 0.000000
# 5 0.000000 0.000000 0.000000 0.000000 -5.303888 0.000000
# 6 0.000000 0.000000 0.000000 0.000000 0.000000 -0.064969
#
#
# Mechanical properties :
#
#
# Convention : Reuss Voigt Hill
#
# Bulk Modulus (GPa) = 49.06676 59.80288 54.43482
# Shear Modulus (GPa) = -0.95285 19.99201 9.51958
#
# Velocity S-wave (km/s) = -0.64945 2.97482 2.05278
# Velocity P-wave (km/s) = 4.59970 6.18639 5.45109
#
# Compressibility (1/GPa) = 0.02038039
#
# Stress axis : x y z
#
# Youngs Moduli (GPa) = 89.20848 87.36245 125.29795
#
# Poissons Ratio (x) = 0.01694 -0.01194
# Poissons Ratio (y) = 0.01730 0.63023
# Poissons Ratio (z) = -0.00850 0.43942
#
# Static dielectric constant tensor:
#      x y z
#    x 1.824590 0.000000 0.000000 
#    y 0.000000 1.809250 0.000000 
#    z 0.000000 0.000000 1.845980 
# 
# From -- ./inp_files/34534.got.cif
#   From: 2010.05.17/outbox.cif.g08.bks.cpg/sg47_18_cif.got.tgz:34534.got - 2010.06.03 20:15:42.
