data_PCOD9389892
_publ_section_title
;
Structure prediction by ZEFSAII (Michael W. Deem and Ramdas Pophale) SiO2 
 PCOD9389892
Probable space group: P N N N
;
_chemical_formula_sum "Si O2"
_cell_formula_units_Z 64
_cell_length_a 5.236649
_cell_length_b 32.945028
_cell_length_c 19.618878
_cell_angle_alpha 90.000000
_cell_angle_beta 90.000000
_cell_angle_gamma 90.000000
_cell_volume 3384.679201
_symmetry_space_group_name_H-M "P N N N"
_symmetry_group_IT_number 48
_space_group.IT_coordinate_system_code '2'
_symmetry_cell_setting 'orthorhombic'
loop_
_space_group_symop_operation_xyz
x,y,z
1/2-x,1/2-y,z
x,1/2-y,1/2-z
1/2-x,y,1/2-z
-x,-y,-z
1/2+x,1/2+y,-z
-x,1/2+y,1/2+z
1/2+x,-y,1/2+z
loop_
_atom_site_type_symbol
_atom_site_label
_atom_site_fract_x
_atom_site_fract_y
_atom_site_fract_z
Si Si1 0.231567 0.096625 0.829311
Si Si2 0.246472 0.014380 0.458087
Si Si3 0.662665 0.663784 0.439018
Si Si4 0.329977 0.391134 0.424543
Si Si5 0.232283 0.542747 0.170080
Si Si6 0.496223 0.768806 0.674226
Si Si7 0.337316 0.650683 0.880541
Si Si8 0.165995 0.703766 0.480320
O O1 0.250000 0.107791 0.750000
O O2 0.265911 0.135325 0.876446
O O3 0.462976 0.065153 0.842025
O O4 0.962963 0.074369 0.842044
O O5 0.194931 0.062052 0.445465
O O6 0.500000 0.000000 0.500000
O O7 0.258472 0.992927 0.384348
O O8 0.000000 0.000000 0.500000
O O9 0.661472 0.634934 0.505838
O O10 0.382206 0.682656 0.433915
O O11 0.882593 0.697063 0.451315
O O12 0.570923 0.374024 0.380429
O O13 0.067171 0.380499 0.387448
O O14 0.250000 0.530339 0.250000
O O15 0.750000 0.750000 0.640318
O O16 0.502763 0.750000 0.750000
O O17 0.436423 0.816480 0.675230
O O18 0.250000 0.750000 0.639616
O O19 0.329898 0.678815 0.948522
O O20 0.250000 0.750000 0.487858
#
# Coordination Sequence:
#
# PCOD9389892 Si02
#       8
#     8   8   8   8   8   8   8   8
#     4  10  20  36  59  85 109 146 185 232 282 332
#     4  12  23  37  61  90 120 155 200 246 294 352
#     4  10  19  33  52  77 112 136 178 230 275 328
#     4  10  21  34  53  82 114 147 180 233 296 342
#     4  10  21  37  59  84 116 151 194 235 284 348
#     4  10  20  34  56  80 104 138 185 247 292 339
#     4  10  20  35  54  77 110 143 182 235 291 345
#     4  10  20  32  51  77 103 144 176 217 274 333
#
# _framework density 18.908735
#
# number of rings (size 3 to 8) (size 9 to 14) (size 15 to 20)
#    0.000    1.750    0.000    5.250    0.000    4.000 
#    0.000    0.000    8.250    2.250    0.000    0.000 
#    0.000    0.000    0.000    0.000    0.000    0.000 
#
# Total GULP energy -356859.986382 kJ/mol
# GULP energy per Si atom -5575.937287 kJ/mol
# Density = 1.886570 g / cm^3
# Si number density = 18.908735 Si / 1000 Ang^3
#
#
#
# Elastic Constant Matrix: (Units=GPa)
#
#
# Indices 1 2 3 4 5 6 
#
# 1 130.7853 36.5092 33.0809 0.0000 0.0000 0.0000
# 2 36.5092 112.5657 41.8608 0.0000 0.0000 0.0000
# 3 33.0809 41.8608 46.5302 0.0000 0.0000 0.0000
# 4 0.0000 0.0000 0.0000 40.5302 0.0000 0.0000
# 5 0.0000 0.0000 0.0000 0.0000 -0.8700 0.0000
# 6 0.0000 0.0000 0.0000 0.0000 0.0000 26.7170
#
#
#
# Elastic Compliance Matrix: (Units=1/GPa)
#
#
# Indices 1 2 3 4 5 6 
#
# 1 0.009376 -0.000845 -0.005906 0.000000 0.000000 0.000000
# 2 -0.000845 0.013426 -0.011478 0.000000 0.000000 0.000000
# 3 -0.005906 -0.011478 0.036017 0.000000 0.000000 0.000000
# 4 0.000000 0.000000 0.000000 0.024673 0.000000 0.000000
# 5 0.000000 0.000000 0.000000 0.000000 -1.149470 0.000000
# 6 0.000000 0.000000 0.000000 0.000000 0.000000 0.037429
#
#
# Mechanical properties :
#
#
# Convention : Reuss Voigt Hill
#
# Bulk Modulus (GPa) = 44.72080 56.97588 50.84834
# Shear Modulus (GPa) = -5.07801 25.17082 10.04641
#
# Velocity S-wave (km/s) = -1.64054 3.65248 2.30752
# Velocity P-wave (km/s) = 4.48483 6.92712 5.83518
#
# Compressibility (1/GPa) = 0.02236096
#
# Stress axis : x y z
#
# Youngs Moduli (GPa) = 106.65843 74.48122 27.76487
#
# Poissons Ratio (x) = 0.06291 0.16398
# Poissons Ratio (y) = 0.09009 0.31870
# Poissons Ratio (z) = 0.62991 0.85492
#
# Static dielectric constant tensor:
#      x y z
#    x 1.693430 0.000000 0.000000 
#    y 0.000000 1.659630 0.000000 
#    z 0.000000 0.000000 1.639940 
# 
# From -- ./inp_files/29684.got.cif
#   From: 2010.05.17/outbox.cif.g08.bks.cpg/sg48_15_cif.got.tgz:29684.got - 2010.06.03 20:39:00.
