data_PCOD9389899
_publ_section_title
;
Structure prediction by ZEFSAII (Michael W. Deem and Ramdas Pophale) SiO2 
 PCOD9389899
Probable space group: P N N N
;
_chemical_formula_sum "Si O2"
_cell_formula_units_Z 52
_cell_length_a 8.120557
_cell_length_b 17.159456
_cell_length_c 21.053897
_cell_angle_alpha 90.000000
_cell_angle_beta 90.000000
_cell_angle_gamma 90.000000
_cell_volume 2933.741393
_symmetry_space_group_name_H-M "P N N N"
_symmetry_group_IT_number 48
_space_group.IT_coordinate_system_code '2'
_symmetry_cell_setting 'orthorhombic'
loop_
_space_group_symop_operation_xyz
x,y,z
1/2-x,1/2-y,z
x,1/2-y,1/2-z
1/2-x,y,1/2-z
-x,-y,-z
1/2+x,1/2+y,-z
-x,1/2+y,1/2+z
1/2+x,-y,1/2+z
loop_
_atom_site_type_symbol
_atom_site_label
_atom_site_fract_x
_atom_site_fract_y
_atom_site_fract_z
Si Si1 0.304504 0.009909 0.815572
Si Si2 0.345281 0.430789 0.315738
Si Si3 0.648910 0.367851 0.121599
Si Si4 0.505483 0.293692 0.390412
Si Si5 0.381446 0.019955 0.430008
Si Si6 0.329000 0.412970 0.941026
Si Si7 0.750000 0.750000 0.500434
O O1 0.250000 0.049007 0.750000
O O2 0.269927 0.059016 0.879143
O O3 0.491595 0.982762 0.810287
O O4 0.194613 0.930915 0.824779
O O5 0.250000 0.424131 0.250000
O O6 0.401501 0.347319 0.343230
O O7 0.229767 0.468727 0.369095
O O8 0.558233 0.288406 0.140857
O O9 0.825141 0.340143 0.093997
O O10 0.524788 0.413661 0.075479
O O11 0.398199 0.275506 0.452555
O O12 0.285215 0.038009 0.494943
O O13 0.481741 0.939578 0.429805
O O14 0.302299 0.323657 0.958405
#
# Coordination Sequence:
#
# PCOD9389899 Si02
#       7
#     8   8   8   8   8   8   4
#     4  10  22  40  58  82 111 149 201 241 292 339
#     4  11  21  36  60  85 116 159 190 233 282 351
#     4   9  18  35  54  79 118 152 177 234 280 338
#     4  10  19  33  53  84 119 151 186 224 278 356
#     4  10  19  37  55  86 114 152 192 231 280 341
#     4  10  21  36  60  80 116 149 189 245 288 333
#     4  12  20  38  56  86 116 150 192 240 290 348
#
# _framework density 17.724806999999998
#
# number of rings (size 3 to 8) (size 9 to 14) (size 15 to 20)
#    0.000    1.846    3.077    1.846    0.000    0.615 
#    5.538   19.231    0.000    0.000    0.000    1.077 
#    0.000    0.000    0.000    0.000    0.000    0.000 
#
# Total GULP energy -290016.799701 kJ/mol
# GULP energy per Si atom -5577.246148 kJ/mol
# Density = 1.768446 g / cm^3
# Si number density = 17.724807 Si / 1000 Ang^3
#
#
#
# Elastic Constant Matrix: (Units=GPa)
#
#
# Indices 1 2 3 4 5 6 
#
# 1 89.9673 46.5738 71.4424 0.0000 0.0000 0.0000
# 2 46.5738 84.6751 61.8526 0.0000 0.0000 0.0000
# 3 71.4424 61.8526 149.1690 0.0000 0.0000 0.0000
# 4 0.0000 0.0000 0.0000 16.3153 0.0000 0.0000
# 5 0.0000 0.0000 0.0000 0.0000 24.4847 0.0000
# 6 0.0000 0.0000 0.0000 0.0000 0.0000 16.5291
#
#
#
# Elastic Compliance Matrix: (Units=1/GPa)
#
#
# Indices 1 2 3 4 5 6 
#
# 1 0.019653 -0.005643 -0.007072 0.000000 0.000000 0.000000
# 2 -0.005643 0.018562 -0.004994 0.000000 0.000000 0.000000
# 3 -0.007072 -0.004994 0.012162 0.000000 0.000000 0.000000
# 4 0.000000 0.000000 0.000000 0.061292 0.000000 0.000000
# 5 0.000000 0.000000 0.000000 0.000000 0.040842 0.000000
# 6 0.000000 0.000000 0.000000 0.000000 0.000000 0.060499
#
#
# Mechanical properties :
#
#
# Convention : Reuss Voigt Hill
#
# Bulk Modulus (GPa) = 66.85824 75.94990 71.40407
# Shear Modulus (GPa) = 19.73055 21.06199 20.39627
#
# Velocity S-wave (km/s) = 3.34002 3.45088 3.39590
# Velocity P-wave (km/s) = 7.25785 7.66946 7.46649
#
# Compressibility (1/GPa) = 0.01495702
#
# Stress axis : x y z
#
# Youngs Moduli (GPa) = 50.88354 53.87445 82.22576
#
# Poissons Ratio (x) = 0.30404 0.58153
# Poissons Ratio (y) = 0.28716 0.41061
# Poissons Ratio (z) = 0.35987 0.26903
#
# Static dielectric constant tensor:
#      x y z
#    x 1.633750 0.000000 0.000000 
#    y 0.000000 1.614080 0.000000 
#    z 0.000000 0.000000 1.608280 
# 
# From -- ./inp_files/30421.got.cif
#   From: 2010.05.17/outbox.cif.g08.bks.cpg/sg48_16_cif.got.tgz:30421.got - 2010.06.03 20:39:00.
