data_PCOD9389071
_publ_section_title
;
Structure prediction by ZEFSAII (Michael W. Deem and Ramdas Pophale) SiO2 
 PCOD9389071
Probable space group: P M M M
;
_chemical_formula_sum "Si O2"
_cell_formula_units_Z 40
_cell_length_a 19.471863
_cell_length_b 7.520339
_cell_length_c 19.015197
_cell_angle_alpha 90.000000
_cell_angle_beta 90.000000
_cell_angle_gamma 90.000000
_cell_volume 2784.490577
_symmetry_space_group_name_H-M "P M M M"
_symmetry_group_IT_number 47
_symmetry_cell_setting 'orthorhombic'
loop_
_space_group_symop_operation_xyz
x,y,z
-x,-y,z
x,-y,-z
-x,y,-z
-x,-y,-z
x,y,-z
-x,y,z
x,-y,z
loop_
_atom_site_type_symbol
_atom_site_label
_atom_site_fract_x
_atom_site_fract_y
_atom_site_fract_z
Si Si1 0.422030 0.000000 0.914778
Si Si2 0.835950 0.282690 0.863122
Si Si3 0.921431 0.710670 0.269697
Si Si4 0.920116 0.786172 0.424394
Si Si5 0.688281 0.289940 0.084160
Si Si6 0.921167 0.282888 0.000000
O O1 0.377048 0.172224 0.895475
O O2 0.500000 0.000000 0.888109
O O3 0.425695 0.000000 0.000000
O O4 0.835447 0.500000 0.863173
O O5 0.872397 0.220245 0.791782
O O6 0.757223 0.230828 0.875896
O O7 0.881167 0.226876 0.930104
O O8 0.927267 0.500000 0.257817
O O9 0.892122 0.733805 0.348409
O O10 0.000000 0.783207 0.266787
O O11 0.890655 0.725682 0.500000
O O12 0.000000 0.726800 0.423406
O O13 0.920085 0.000000 0.425498
O O14 0.676941 0.500000 0.095838
O O15 0.700634 0.266988 0.000000
O O16 0.921252 0.500000 0.000000
O O17 0.000000 0.224981 0.000000
#
# Coordination Sequence:
#
# PCOD9389071 Si02
#       6
#     4   8   8   8   8   4
#     4   9  18  30  44  64  82  96 125 166 203 241
#     4   9  15  24  36  53  76 102 133 165 198 237
#     4   9  16  24  35  53  75  96 125 170 209 233
#     4   8  14  25  38  49  64  89 121 158 201 246
#     4   9  16  28  44  59  79 107 134 161 198 241
#     4   9  14  20  34  53  71  98 137 173 200 228
#
# _framework density 14.365285
#
# number of rings (size 3 to 8) (size 9 to 14) (size 15 to 20)
#    0.000    3.200    1.000    1.200    0.000    3.200 
#    1.800    4.000    0.000    0.000    0.000    0.700 
#    0.000    0.000    0.000    0.000    0.000    2.000 
#
# Total GULP energy -222700.806755 kJ/mol
# GULP energy per Si atom -5567.520169 kJ/mol
# Density = 1.433259 g / cm^3
# Si number density = 14.365285 Si / 1000 Ang^3
#
#
#
# Elastic Constant Matrix: (Units=GPa)
#
#
# Indices 1 2 3 4 5 6 
#
# 1 108.3074 27.9402 54.1458 0.0000 0.0000 0.0000
# 2 27.9402 45.0446 15.1214 0.0000 0.0000 0.0000
# 3 54.1458 15.1214 111.0343 0.0000 0.0000 0.0000
# 4 0.0000 0.0000 0.0000 24.5248 0.0000 0.0000
# 5 0.0000 0.0000 0.0000 0.0000 3.5007 0.0000
# 6 0.0000 0.0000 0.0000 0.0000 0.0000 -19.2245
#
#
#
# Elastic Compliance Matrix: (Units=1/GPa)
#
#
# Indices 1 2 3 4 5 6 
#
# 1 0.013877 -0.006639 -0.005863 0.000000 0.000000 0.000000
# 2 -0.006639 0.026440 -0.000363 0.000000 0.000000 0.000000
# 3 -0.005863 -0.000363 0.011915 0.000000 0.000000 0.000000
# 4 0.000000 0.000000 0.000000 0.040775 0.000000 0.000000
# 5 0.000000 0.000000 0.000000 0.000000 0.285657 0.000000
# 6 0.000000 0.000000 0.000000 0.000000 0.000000 -0.052017
#
#
# Mechanical properties :
#
#
# Convention : Reuss Voigt Hill
#
# Bulk Modulus (GPa) = 37.73414 50.97790 44.35602
# Shear Modulus (GPa) = 13.84232 12.90545 13.37389
#
# Velocity S-wave (km/s) = 3.10755 3.00055 3.05452
# Velocity P-wave (km/s) = 6.26103 6.89698 6.58668
#
# Compressibility (1/GPa) = 0.02650120
#
# Stress axis : x y z
#
# Youngs Moduli (GPa) = 72.06340 37.82104 83.93019
#
# Poissons Ratio (x) = 0.25110 0.49206
# Poissons Ratio (y) = 0.47845 0.03048
# Poissons Ratio (z) = 0.42249 0.01374
#
# Static dielectric constant tensor:
#      x y z
#    x 1.449030 0.000000 0.000000 
#    y 0.000000 1.539560 0.000000 
#    z 0.000000 0.000000 1.492880 
# 
# From -- ./inp_files/9337.got.cif
#   From: 2010.05.17/outbox.cif.g08.bks.cpg/sg47_5_cif.got.tgz:9337.got - 2010.06.03 20:15:42.
