data_PCOD9389213
_publ_section_title
;
Structure prediction by ZEFSAII (Michael W. Deem and Ramdas Pophale) SiO2 
 PCOD9389213
Probable space group: P M M M
;
_chemical_formula_sum "Si O2"
_cell_formula_units_Z 52
_cell_length_a 7.509609
_cell_length_b 13.293564
_cell_length_c 23.448877
_cell_angle_alpha 90.000000
_cell_angle_beta 90.000000
_cell_angle_gamma 90.000000
_cell_volume 2340.888913
_symmetry_space_group_name_H-M "P M M M"
_symmetry_group_IT_number 47
_symmetry_cell_setting 'orthorhombic'
loop_
_space_group_symop_operation_xyz
x,y,z
-x,-y,z
x,-y,-z
-x,y,-z
-x,-y,-z
x,y,-z
-x,y,z
x,-y,z
loop_
_atom_site_type_symbol
_atom_site_label
_atom_site_fract_x
_atom_site_fract_y
_atom_site_fract_z
Si Si1 0.292037 0.669843 0.938856
Si Si2 0.218225 0.887420 0.650475
Si Si3 0.216398 0.111329 0.100705
Si Si4 0.716030 0.610868 0.814036
Si Si5 0.711653 0.500000 0.434926
Si Si6 0.210723 0.718488 0.435146
Si Si7 0.792742 0.171995 0.225611
O O1 0.500000 0.641436 0.939564
O O2 0.279593 0.790929 0.933102
O O3 0.219706 0.626624 0.879488
O O4 0.214261 0.639236 0.000000
O O5 0.282672 0.803767 0.606319
O O6 0.281998 0.865968 0.714761
O O7 0.000000 0.881976 0.651759
O O8 0.266352 0.000000 0.633065
O O9 0.279415 0.128146 0.166181
O O10 0.000000 0.115111 0.099821
O O11 0.269650 0.000000 0.080884
O O12 0.500000 0.615224 0.814407
O O13 0.769165 0.500000 0.793818
O O14 0.779168 0.707266 0.778981
O O15 0.500000 0.500000 0.437637
O O16 0.785331 0.500000 0.500000
O O17 0.765965 0.393278 0.409691
O O18 0.284424 0.720053 0.500000
O O19 0.000000 0.735541 0.439938
O O20 0.000000 0.142600 0.225433
#
# Coordination Sequence:
#
# PCOD9389213 Si02
#       7
#     8   8   8   8   4   8   8
#     4   9  18  31  46  66  91 118 150 187 228 279
#     4   9  17  30  50  76 103 130 163 204 247 293
#     4   9  17  29  46  66  88 118 154 190 229 273
#     4   9  18  33  51  69  92 121 152 192 240 285
#     4   9  17  31  51  71  95 131 171 207 242 285
#     4   9  17  30  50  76 104 133 166 206 250 294
#     4   9  17  31  50  70  92 121 158 196 234 281
#
# _framework density 22.213782999999999
#
# number of rings (size 3 to 8) (size 9 to 14) (size 15 to 20)
#    0.000    3.000    0.000    0.692    0.000    4.615 
#    1.385    5.385    0.000    2.769    0.000    6.462 
#    0.000    0.000    0.000    0.000    0.000    0.000 
#
# Total GULP energy -290143.116358 kJ/mol
# GULP energy per Si atom -5579.675315 kJ/mol
# Density = 2.216322 g / cm^3
# Si number density = 22.213783 Si / 1000 Ang^3
#
#
#
# Elastic Constant Matrix: (Units=GPa)
#
#
# Indices 1 2 3 4 5 6 
#
# 1 60.1550 -13.4362 2.5908 0.0000 0.0000 0.0000
# 2 -13.4362 116.2571 31.7980 0.0000 0.0000 0.0000
# 3 2.5908 31.7980 68.6838 0.0000 0.0000 0.0000
# 4 0.0000 0.0000 0.0000 -10.8379 0.0000 0.0000
# 5 0.0000 0.0000 0.0000 0.0000 2.9646 0.0000
# 6 0.0000 0.0000 0.0000 0.0000 0.0000 13.9998
#
#
#
# Elastic Compliance Matrix: (Units=1/GPa)
#
#
# Indices 1 2 3 4 5 6 
#
# 1 0.017257 0.002487 -0.001803 0.000000 0.000000 0.000000
# 2 0.002487 0.010207 -0.004819 0.000000 0.000000 0.000000
# 3 -0.001803 -0.004819 0.016859 0.000000 0.000000 0.000000
# 4 0.000000 0.000000 0.000000 -0.092269 0.000000 0.000000
# 5 0.000000 0.000000 0.000000 0.000000 0.337311 0.000000
# 6 0.000000 0.000000 0.000000 0.000000 0.000000 0.071429
#
#
# Mechanical properties :
#
#
# Convention : Reuss Voigt Hill
#
# Bulk Modulus (GPa) = 27.73625 31.88901 29.81263
# Shear Modulus (GPa) = 13.12057 16.16821 14.64439
#
# Velocity S-wave (km/s) = 2.43297 2.70079 2.57037
# Velocity P-wave (km/s) = 4.51725 4.91043 4.71794
#
# Compressibility (1/GPa) = 0.03605390
#
# Stress axis : x y z
#
# Youngs Moduli (GPa) = 57.94768 97.96920 59.31667
#
# Poissons Ratio (x) = -0.24370 0.10692
# Poissons Ratio (y) = -0.14414 0.28587
# Poissons Ratio (z) = 0.10445 0.47215
#
# Static dielectric constant tensor:
#      x y z
#    x 1.861570 0.000000 0.000000 
#    y 0.000000 1.804540 0.000000 
#    z 0.000000 0.000000 1.817790 
# 
# From -- ./inp_files/29573.got.cif
#   From: 2010.05.17/outbox.cif.g08.bks.cpg/sg47_15_cif.got.tgz:29573.got - 2010.06.03 20:15:42.
