data_PCOD9389988
_publ_section_title
;
Structure prediction by ZEFSAII (Michael W. Deem and Ramdas Pophale) SiO2 
 PCOD9389988
Probable space group: P N N N
;
_chemical_formula_sum "Si O2"
_cell_formula_units_Z 48
_cell_length_a 13.490761
_cell_length_b 11.371645
_cell_length_c 13.937734
_cell_angle_alpha 90.000000
_cell_angle_beta 90.000000
_cell_angle_gamma 90.000000
_cell_volume 2138.217668
_symmetry_space_group_name_H-M "P N N N"
_symmetry_group_IT_number 48
_space_group.IT_coordinate_system_code '2'
_symmetry_cell_setting 'orthorhombic'
loop_
_space_group_symop_operation_xyz
x,y,z
1/2-x,1/2-y,z
x,1/2-y,1/2-z
1/2-x,y,1/2-z
-x,-y,-z
1/2+x,1/2+y,-z
-x,1/2+y,1/2+z
1/2+x,-y,1/2+z
loop_
_atom_site_type_symbol
_atom_site_label
_atom_site_fract_x
_atom_site_fract_y
_atom_site_fract_z
Si Si1 0.344564 0.876112 0.319347
Si Si2 0.221976 0.003863 0.483967
Si Si3 0.394960 0.289570 0.414706
Si Si4 0.825433 0.147515 0.128571
Si Si5 0.029942 0.409827 0.277555
Si Si6 0.574166 0.299965 0.539998
O O1 0.250000 0.871591 0.250000
O O2 0.296636 0.943992 0.409610
O O3 0.389753 0.755116 0.360057
O O4 0.433581 0.957451 0.283809
O O5 0.268021 0.967092 0.587082
O O6 0.120394 0.928460 0.474453
O O7 0.200900 0.136019 0.448534
O O8 0.406143 0.165377 0.357315
O O9 0.444596 0.366685 0.329031
O O10 0.460246 0.290339 0.511382
O O11 0.750000 0.250000 0.158815
O O12 0.914752 0.111960 0.198700
O O13 0.877675 0.215076 0.040140
#
# Coordination Sequence:
#
# PCOD9389988 Si02
#       6
#     8   8   8   8   8   8
#     4  11  21  37  57  88 121 165 208 263 307 372
#     4  10  19  35  57  85 121 162 210 259 318 366
#     4  10  20  37  56  86 126 162 203 261 319 377
#     4   8  17  35  57  85 115 157 210 262 303 376
#     4  10  21  37  57  86 128 162 211 254 322 378
#     4   9  20  35  58  82 119 159 215 259 308 367
#
# _framework density 22.448602000000001
#
# number of rings (size 3 to 8) (size 9 to 14) (size 15 to 20)
#    0.000    2.333    1.667    2.000    0.000    8.000 
#    0.000   15.833    0.000    0.000    0.000    0.000 
#    0.000    0.667    0.000    0.000    0.000    0.000 
#
# Total GULP energy -267595.225062 kJ/mol
# GULP energy per Si atom -5574.900522 kJ/mol
# Density = 2.239751 g / cm^3
# Si number density = 22.448602 Si / 1000 Ang^3
#
#
#
# Elastic Constant Matrix: (Units=GPa)
#
#
# Indices 1 2 3 4 5 6 
#
# 1 87.6351 32.7481 27.8027 0.0000 0.0000 0.0000
# 2 32.7481 102.7552 10.8849 0.0000 0.0000 0.0000
# 3 27.8027 10.8849 55.2834 0.0000 0.0000 0.0000
# 4 0.0000 0.0000 0.0000 -10.0681 0.0000 0.0000
# 5 0.0000 0.0000 0.0000 0.0000 19.7626 0.0000
# 6 0.0000 0.0000 0.0000 0.0000 0.0000 30.7562
#
#
#
# Elastic Compliance Matrix: (Units=1/GPa)
#
#
# Indices 1 2 3 4 5 6 
#
# 1 0.015092 -0.004091 -0.006785 0.000000 0.000000 0.000000
# 2 -0.004091 0.011048 -0.000118 0.000000 0.000000 0.000000
# 3 -0.006785 -0.000118 0.021524 0.000000 0.000000 0.000000
# 4 0.000000 0.000000 0.000000 -0.099324 0.000000 0.000000
# 5 0.000000 0.000000 0.000000 0.000000 0.050601 0.000000
# 6 0.000000 0.000000 0.000000 0.000000 0.000000 0.032514
#
#
# Mechanical properties :
#
#
# Convention : Reuss Voigt Hill
#
# Bulk Modulus (GPa) = 38.94508 43.17170 41.05839
# Shear Modulus (GPa) = 80.64380 19.70601 50.17490
#
# Velocity S-wave (km/s) = 6.00014 2.96603 4.73281
# Velocity P-wave (km/s) = 8.08632 5.56802 6.94231
#
# Compressibility (1/GPa) = 0.02567719
#
# Stress axis : x y z
#
# Youngs Moduli (GPa) = 66.25936 90.51236 46.46011
#
# Poissons Ratio (x) = 0.37030 0.31521
# Poissons Ratio (y) = 0.27108 0.00547
# Poissons Ratio (z) = 0.44954 0.01066
#
# Static dielectric constant tensor:
#      x y z
#    x 1.868850 0.000000 0.000000 
#    y 0.000000 1.906830 0.000000 
#    z 0.000000 0.000000 1.866450 
# 
# From -- ./inp_files/27249.got.cif
#   From: 2010.05.17/outbox.cif.g08.bks.cpg/sg48_14_cif.got.tgz:27249.got - 2010.06.03 20:39:00.
