data_PCOD9389616
_publ_section_title
;
Structure prediction by ZEFSAII (Michael W. Deem and Ramdas Pophale) SiO2 
 PCOD9389616
Probable space group: P N N N
;
_chemical_formula_sum "Si O2"
_cell_formula_units_Z 48
_cell_length_a 7.777624
_cell_length_b 8.743658
_cell_length_c 31.186213
_cell_angle_alpha 90.000000
_cell_angle_beta 90.000000
_cell_angle_gamma 90.000000
_cell_volume 2120.814807
_symmetry_space_group_name_H-M "P N N N"
_symmetry_group_IT_number 48
_space_group.IT_coordinate_system_code '2'
_symmetry_cell_setting 'orthorhombic'
loop_
_space_group_symop_operation_xyz
x,y,z
1/2-x,1/2-y,z
x,1/2-y,1/2-z
1/2-x,y,1/2-z
-x,-y,-z
1/2+x,1/2+y,-z
-x,1/2+y,1/2+z
1/2+x,-y,1/2+z
loop_
_atom_site_type_symbol
_atom_site_label
_atom_site_fract_x
_atom_site_fract_y
_atom_site_fract_z
Si Si1 0.041378 0.569598 0.748832
Si Si2 0.062159 0.551726 0.842050
Si Si3 0.979352 0.412667 0.344807
Si Si4 0.408534 0.537325 0.066696
Si Si5 0.748874 0.067171 0.483329
Si Si6 0.573060 0.847218 0.079867
O O1 0.998832 0.750000 0.750000
O O2 0.250000 0.561149 0.750000
O O3 0.997874 0.500128 0.794954
O O4 0.973417 0.521044 0.702305
O O5 0.004951 0.728223 0.846575
O O6 0.272311 0.555856 0.847044
O O7 0.007465 0.437851 0.878949
O O8 0.083697 0.479477 0.384671
O O9 0.263281 0.503762 0.031814
O O10 0.440641 0.717971 0.066986
O O11 0.575963 0.468667 0.043375
O O12 0.750000 0.250000 0.482455
O O13 0.885940 0.970076 0.456710
O O14 0.750000 0.750000 0.089000
#
# Coordination Sequence:
#
# PCOD9389616 Si02
#       6
#     8   8   8   8   8   8
#     4   7  12  20  36  62  85 118 155 170 201 271
#     4   9  14  24  43  62  89 125 150 174 222 267
#     4   9  14  25  43  61  89 121 156 177 212 272
#     4  10  20  31  47  67  88 122 157 195 235 273
#     4  10  20  34  48  62  86 122 160 195 236 275
#     4  10  18  29  45  65  92 116 154 197 225 271
#
# _framework density 22.632812999999999
#
# number of rings (size 3 to 8) (size 9 to 14) (size 15 to 20)
#    0.000    2.833    3.333    3.000    0.000    0.667 
#    0.000    4.167    0.000    0.000    0.000    0.000 
#    0.000    2.667    0.000   12.833    0.667    0.333 
#
# Total GULP energy -267732.887162 kJ/mol
# GULP energy per Si atom -5577.768483 kJ/mol
# Density = 2.258130 g / cm^3
# Si number density = 22.632813 Si / 1000 Ang^3
#
#
#
# Elastic Constant Matrix: (Units=GPa)
#
#
# Indices 1 2 3 4 5 6 
#
# 1 58.8250 18.8645 33.3753 0.0000 0.0000 0.0000
# 2 18.8645 83.0181 76.5756 0.0000 0.0000 0.0000
# 3 33.3753 76.5756 261.3049 0.0000 0.0000 0.0000
# 4 0.0000 0.0000 0.0000 35.1055 0.0000 0.0000
# 5 0.0000 0.0000 0.0000 0.0000 60.4063 0.0000
# 6 0.0000 0.0000 0.0000 0.0000 0.0000 4.0502
#
#
#
# Elastic Compliance Matrix: (Units=1/GPa)
#
#
# Indices 1 2 3 4 5 6 
#
# 1 0.018797 -0.002819 -0.001575 0.000000 0.000000 0.000000
# 2 -0.002819 0.016930 -0.004601 0.000000 0.000000 0.000000
# 3 -0.001575 -0.004601 0.005377 0.000000 0.000000 0.000000
# 4 0.000000 0.000000 0.000000 0.028486 0.000000 0.000000
# 5 0.000000 0.000000 0.000000 0.000000 0.016555 0.000000
# 6 0.000000 0.000000 0.000000 0.000000 0.000000 0.246904
#
#
# Mechanical properties :
#
#
# Convention : Reuss Voigt Hill
#
# Bulk Modulus (GPa) = 43.26375 73.41987 58.34181
# Shear Modulus (GPa) = 13.93755 38.20123 26.06939
#
# Velocity S-wave (km/s) = 2.48425 4.11283 3.39756
# Velocity P-wave (km/s) = 5.23313 7.42050 6.42065
#
# Compressibility (1/GPa) = 0.02311404
#
# Stress axis : x y z
#
# Youngs Moduli (GPa) = 53.19992 59.06523 185.99272
#
# Poissons Ratio (x) = 0.16649 0.29291
# Poissons Ratio (y) = 0.14995 0.85584
# Poissons Ratio (z) = 0.08378 0.27179
#
# Static dielectric constant tensor:
#      x y z
#    x 2.348410 0.000000 0.000000 
#    y 0.000000 1.820190 0.000000 
#    z 0.000000 0.000000 1.887280 
# 
# From -- ./inp_files/38918.got.cif
#   From: 2010.05.17/outbox.cif.g08.bks.cpg/sg48_20_cif.got.tgz:38918.got - 2010.06.03 20:39:00.
