data_PCOD9389722
_publ_section_title
;
Structure prediction by ZEFSAII (Michael W. Deem and Ramdas Pophale) SiO2 
 PCOD9389722
Probable space group: P N N N
;
_chemical_formula_sum "Si O2"
_cell_formula_units_Z 38
_cell_length_a 17.948796
_cell_length_b 10.678104
_cell_length_c 8.034781
_cell_angle_alpha 90.000000
_cell_angle_beta 90.000000
_cell_angle_gamma 90.000000
_cell_volume 1539.938978
_symmetry_space_group_name_H-M "P N N N"
_symmetry_group_IT_number 48
_space_group.IT_coordinate_system_code '2'
_symmetry_cell_setting 'orthorhombic'
loop_
_space_group_symop_operation_xyz
x,y,z
1/2-x,1/2-y,z
x,1/2-y,1/2-z
1/2-x,y,1/2-z
-x,-y,-z
1/2+x,1/2+y,-z
-x,1/2+y,1/2+z
1/2+x,-y,1/2+z
loop_
_atom_site_type_symbol
_atom_site_label
_atom_site_fract_x
_atom_site_fract_y
_atom_site_fract_z
Si Si1 0.623461 0.109550 0.231794
Si Si2 0.250000 0.750000 0.250000
Si Si3 0.517110 0.000686 0.695997
Si Si4 0.299426 0.108302 0.919352
Si Si5 0.174501 0.514137 0.411247
Si Si6 0.575305 0.750000 0.250000
O O1 0.649428 0.250000 0.250000
O O2 0.644007 0.037306 0.401781
O O3 0.534416 0.101072 0.213424
O O4 0.662474 0.028784 0.090968
O O5 0.202252 0.651492 0.356481
O O6 0.605107 0.981254 0.707078
O O7 0.480704 0.133010 0.745589
O O8 0.500000 0.000000 0.500000
O O9 0.250000 0.120857 0.750000
O O10 0.366068 0.209761 0.898118
O O11 0.239653 0.088866 0.066076
#
# Coordination Sequence:
#
# PCOD9389722 Si02
#       6
#     8   2   8   8   8   4
#     4   9  17  33  56  79 103 134 181 238 281 321
#     4  12  22  32  50  70 114 160 178 206 264 340
#     4   9  19  34  53  77 107 139 174 220 281 335
#     4   9  18  31  55  85 107 133 183 242 285 321
#     4  10  20  34  50  78 110 145 184 223 274 334
#     4  10  18  34  58  84 110 144 186 232 282 334
#
# _framework density 24.676303999999998
#
# number of rings (size 3 to 8) (size 9 to 14) (size 15 to 20)
#    0.000    2.526    0.000    3.474    0.000    2.947 
#    0.000    4.211    0.000   15.158    0.000    0.000 
#    0.000    0.000    0.000    0.000    0.000    0.000 
#
# Total GULP energy -211849.250511 kJ/mol
# GULP energy per Si atom -5574.980277 kJ/mol
# Density = 2.462014 g / cm^3
# Si number density = 24.676304 Si / 1000 Ang^3
#
#
#
# Elastic Constant Matrix: (Units=GPa)
#
#
# Indices 1 2 3 4 5 6 
#
# 1 169.4857 29.4683 36.3324 0.0000 0.0000 0.0000
# 2 29.4683 87.4321 -6.9415 0.0000 0.0000 0.0000
# 3 36.3324 -6.9415 51.1917 0.0000 0.0000 0.0000
# 4 0.0000 0.0000 0.0000 16.6503 0.0000 0.0000
# 5 0.0000 0.0000 0.0000 0.0000 8.7592 0.0000
# 6 0.0000 0.0000 0.0000 0.0000 0.0000 17.6673
#
#
#
# Elastic Compliance Matrix: (Units=1/GPa)
#
#
# Indices 1 2 3 4 5 6 
#
# 1 0.007691 -0.003059 -0.005873 0.000000 0.000000 0.000000
# 2 -0.003059 0.012778 0.003903 0.000000 0.000000 0.000000
# 3 -0.005873 0.003903 0.024232 0.000000 0.000000 0.000000
# 4 0.000000 0.000000 0.000000 0.060059 0.000000 0.000000
# 5 0.000000 0.000000 0.000000 0.000000 0.114166 0.000000
# 6 0.000000 0.000000 0.000000 0.000000 0.000000 0.056602
#
#
# Mechanical properties :
#
#
# Convention : Reuss Voigt Hill
#
# Bulk Modulus (GPa) = 28.86446 47.31420 38.08933
# Shear Modulus (GPa) = 16.82748 25.23205 21.02976
#
# Velocity S-wave (km/s) = 2.61421 3.20116 2.92246
# Velocity P-wave (km/s) = 4.56451 5.73400 5.18235
#
# Compressibility (1/GPa) = 0.03464468
#
# Stress axis : x y z
#
# Youngs Moduli (GPa) = 130.02158 78.25825 41.26742
#
# Poissons Ratio (x) = 0.23935 0.24238
# Poissons Ratio (y) = 0.39767 -0.16108
# Poissons Ratio (z) = 0.76366 -0.30548
#
# Static dielectric constant tensor:
#      x y z
#    x 2.113830 0.000000 0.000000 
#    y 0.000000 1.643650 0.000000 
#    z 0.000000 0.000000 1.997000 
# 
# From -- ./inp_files/10745.got.cif
#   From: 2010.05.17/outbox.cif.g08.bks.cpg/sg48_6_cif.got.tgz:10745.got - 2010.06.03 20:39:00.
