data_PCOD9389716
_publ_section_title
;
Structure prediction by ZEFSAII (Michael W. Deem and Ramdas Pophale) SiO2 
 PCOD9389716
Probable space group: P N N N
;
_chemical_formula_sum "Si O2"
_cell_formula_units_Z 54
_cell_length_a 15.826931
_cell_length_b 11.386884
_cell_length_c 16.985562
_cell_angle_alpha 90.000000
_cell_angle_beta 90.000000
_cell_angle_gamma 90.000000
_cell_volume 3061.128257
_symmetry_space_group_name_H-M "P N N N"
_symmetry_group_IT_number 48
_space_group.IT_coordinate_system_code '2'
_symmetry_cell_setting 'orthorhombic'
loop_
_space_group_symop_operation_xyz
x,y,z
1/2-x,1/2-y,z
x,1/2-y,1/2-z
1/2-x,y,1/2-z
-x,-y,-z
1/2+x,1/2+y,-z
-x,1/2+y,1/2+z
1/2+x,-y,1/2+z
loop_
_atom_site_type_symbol
_atom_site_label
_atom_site_fract_x
_atom_site_fract_y
_atom_site_fract_z
Si Si1 0.750000 0.750000 0.406221
Si Si2 0.131992 0.670800 0.111393
Si Si3 0.499054 0.888353 0.227791
Si Si4 0.227053 0.615722 0.953237
Si Si5 0.125584 0.428850 0.526651
Si Si6 0.750000 0.250000 0.750000
Si Si7 0.678988 0.972388 0.187466
Si Si8 0.942936 0.071006 0.892048
O O1 0.821574 0.688625 0.458806
O O2 0.710159 0.649734 0.351468
O O3 0.191562 0.678939 0.188773
O O4 0.105104 0.805493 0.090401
O O5 0.048100 0.607837 0.144068
O O6 0.180198 0.613573 0.038013
O O7 0.507854 0.750000 0.250000
O O8 0.589804 0.947265 0.226830
O O9 0.444817 0.942206 0.298607
O O10 0.250000 0.750000 0.939016
O O11 0.170522 0.564605 0.883182
O O12 0.310724 0.534490 0.950218
O O13 0.098597 0.463980 0.438762
O O14 0.039747 0.421658 0.577350
O O15 0.750000 0.009682 0.250000
#
# Coordination Sequence:
#
# PCOD9389716 Si02
#       8
#     4   8   8   8   8   2   8   8
#     4  10  19  34  56  86 109 146 188 247 282 344
#     4  11  20  33  60  89 121 145 189 250 292 348
#     4  10  19  33  55  88 113 145 192 245 297 335
#     4  11  22  37  56  86 118 155 189 236 289 360
#     4  10  20  33  57  84 115 148 191 236 298 341
#     4  12  16  32  56  92 112 150 180 240 308 320
#     4  11  22  37  59  83 116 154 191 243 292 342
#     4  10  18  34  55  86 109 150 188 241 287 346
#
# _framework density 17.640554999999999
#
# number of rings (size 3 to 8) (size 9 to 14) (size 15 to 20)
#    0.000    1.481    4.444    4.667    0.000    0.889 
#    0.000    0.000    0.000    0.000    0.000    6.222 
#    0.000    0.000    0.000    0.000    0.000    0.000 
#
# Total GULP energy -301161.351264 kJ/mol
# GULP energy per Si atom -5577.062060 kJ/mol
# Density = 1.760040 g / cm^3
# Si number density = 17.640555 Si / 1000 Ang^3
#
#
#
# Elastic Constant Matrix: (Units=GPa)
#
#
# Indices 1 2 3 4 5 6 
#
# 1 65.2796 8.5129 17.3734 0.0000 0.0000 0.0000
# 2 8.5129 32.5016 32.0990 0.0000 0.0000 0.0000
# 3 17.3734 32.0990 97.6137 0.0000 0.0000 0.0000
# 4 0.0000 0.0000 0.0000 31.3770 0.0000 0.0000
# 5 0.0000 0.0000 0.0000 0.0000 27.9159 0.0000
# 6 0.0000 0.0000 0.0000 0.0000 0.0000 12.2744
#
#
#
# Elastic Compliance Matrix: (Units=1/GPa)
#
#
# Indices 1 2 3 4 5 6 
#
# 1 0.016173 -0.002063 -0.002200 0.000000 0.000000 0.000000
# 2 -0.002063 0.045829 -0.014703 0.000000 0.000000 0.000000
# 3 -0.002200 -0.014703 0.015471 0.000000 0.000000 0.000000
# 4 0.000000 0.000000 0.000000 0.031871 0.000000 0.000000
# 5 0.000000 0.000000 0.000000 0.000000 0.035822 0.000000
# 6 0.000000 0.000000 0.000000 0.000000 0.000000 0.081470
#
#
# Mechanical properties :
#
#
# Convention : Reuss Voigt Hill
#
# Bulk Modulus (GPa) = 25.29061 34.59616 29.94338
# Shear Modulus (GPa) = 18.00187 23.47409 20.73798
#
# Velocity S-wave (km/s) = 3.19796 3.65182 3.43240
# Velocity P-wave (km/s) = 5.29185 6.11844 5.72010
#
# Compressibility (1/GPa) = 0.03954036
#
# Stress axis : x y z
#
# Youngs Moduli (GPa) = 61.83021 21.82028 64.63749
#
# Poissons Ratio (x) = 0.04502 0.14220
# Poissons Ratio (y) = 0.12758 0.95036
# Poissons Ratio (z) = 0.13603 0.32082
#
# Static dielectric constant tensor:
#      x y z
#    x 1.654730 0.000000 0.000000 
#    y 0.000000 1.584320 0.000000 
#    z 0.000000 0.000000 1.625300 
# 
# From -- ./inp_files/32062.got.cif
#   From: 2010.05.17/outbox.cif.g08.bks.cpg/sg48_17_cif.got.tgz:32062.got - 2010.06.03 20:39:00.
