data_PCOD9389944
_publ_section_title
;
Structure prediction by ZEFSAII (Michael W. Deem and Ramdas Pophale) SiO2 
 PCOD9389944
Probable space group: P N N N
;
_chemical_formula_sum "Si O2"
_cell_formula_units_Z 52
_cell_length_a 5.602929
_cell_length_b 22.083012
_cell_length_c 22.076792
_cell_angle_alpha 90.000000
_cell_angle_beta 90.000000
_cell_angle_gamma 90.000000
_cell_volume 2731.551503
_symmetry_space_group_name_H-M "P N N N"
_symmetry_group_IT_number 48
_space_group.IT_coordinate_system_code '2'
_symmetry_cell_setting 'orthorhombic'
loop_
_space_group_symop_operation_xyz
x,y,z
1/2-x,1/2-y,z
x,1/2-y,1/2-z
1/2-x,y,1/2-z
-x,-y,-z
1/2+x,1/2+y,-z
-x,1/2+y,1/2+z
1/2+x,-y,1/2+z
loop_
_atom_site_type_symbol
_atom_site_label
_atom_site_fract_x
_atom_site_fract_y
_atom_site_fract_z
Si Si1 0.750000 0.995066 0.750000
Si Si2 0.965309 0.580453 0.161061
Si Si3 0.901841 0.014814 0.153036
Si Si4 0.889836 0.415983 0.058565
Si Si5 0.498774 0.215604 0.867054
Si Si6 0.999833 0.785045 0.513079
Si Si7 0.269422 0.974622 0.053039
O O1 0.635421 0.040062 0.798148
O O2 0.556435 0.959868 0.709080
O O3 0.715845 0.548177 0.174547
O O4 0.987987 0.651561 0.167216
O O5 0.041358 0.564036 0.092425
O O6 0.055941 0.991669 0.096761
O O7 0.714039 0.062072 0.123351
O O8 0.974105 0.347865 0.049554
O O9 0.105069 0.461133 0.041446
O O10 0.704439 0.434792 0.005180
O O11 0.250000 0.250000 0.853098
O O12 0.750000 0.250000 0.853962
O O13 0.495155 0.204648 0.940098
O O14 0.750000 0.750000 0.527518
O O15 0.250000 0.750000 0.524970
#
# Coordination Sequence:
#
# PCOD9389944 Si02
#       7
#     4   8   8   8   8   8   8
#     4  10  22  38  57  78 114 147 200 256 332 350
#     4  10  20  37  58  79 110 153 198 254 312 355
#     4  10  21  34  58  83 112 155 193 256 311 375
#     4  10  19  34  53  87 120 156 200 235 307 367
#     4  10  22  37  57  83 114 162 214 249 292 354
#     4  10  22  36  56  85 126 169 199 238 291 369
#     4   9  19  32  54  86 115 147 193 244 296 370
#
# _framework density 19.036802000000002
#
# number of rings (size 3 to 8) (size 9 to 14) (size 15 to 20)
#    0.000    2.154    1.538    0.923    6.462    1.231 
#    0.000    0.385    0.000    0.000    0.000    0.000 
#    0.000   35.692    0.000    0.000    0.000    0.000 
#
# Total GULP energy -289538.623171 kJ/mol
# GULP energy per Si atom -5568.050446 kJ/mol
# Density = 1.899347 g / cm^3
# Si number density = 19.036802 Si / 1000 Ang^3
#
#
#
# Elastic Constant Matrix: (Units=GPa)
#
#
# Indices 1 2 3 4 5 6 
#
# 1 95.3589 36.3081 18.2033 0.0000 0.0000 0.0000
# 2 36.3081 86.1871 11.2761 0.0000 0.0000 0.0000
# 3 18.2033 11.2761 63.0686 0.0000 0.0000 0.0000
# 4 0.0000 0.0000 0.0000 13.8997 0.0000 0.0000
# 5 0.0000 0.0000 0.0000 0.0000 26.1049 0.0000
# 6 0.0000 0.0000 0.0000 0.0000 0.0000 -19.9131
#
#
#
# Elastic Compliance Matrix: (Units=1/GPa)
#
#
# Indices 1 2 3 4 5 6 
#
# 1 0.012966 -0.005092 -0.002832 0.000000 0.000000 0.000000
# 2 -0.005092 0.013880 -0.001012 0.000000 0.000000 0.000000
# 3 -0.002832 -0.001012 0.016854 0.000000 0.000000 0.000000
# 4 0.000000 0.000000 0.000000 0.071944 0.000000 0.000000
# 5 0.000000 0.000000 0.000000 0.000000 0.038307 0.000000
# 6 0.000000 0.000000 0.000000 0.000000 0.000000 -0.050218
#
#
# Mechanical properties :
#
#
# Convention : Reuss Voigt Hill
#
# Bulk Modulus (GPa) = 38.71660 41.79885 40.25772
# Shear Modulus (GPa) = 38.39843 15.94010 27.16927
#
# Velocity S-wave (km/s) = 4.49604 2.89681 3.78192
# Velocity P-wave (km/s) = 6.88001 5.76135 6.34538
#
# Compressibility (1/GPa) = 0.02582872
#
# Stress axis : x y z
#
# Youngs Moduli (GPa) = 77.12499 72.04592 59.33277
#
# Poissons Ratio (x) = 0.36683 0.16803
# Poissons Ratio (y) = 0.39269 0.06005
# Poissons Ratio (z) = 0.21842 0.07291
#
# Static dielectric constant tensor:
#      x y z
#    x 1.642920 0.000000 0.000000 
#    y 0.000000 1.636140 0.000000 
#    z 0.000000 0.000000 2.516050 
# 
# From -- ./inp_files/32939.got.cif
#   From: 2010.05.17/outbox.cif.g08.bks.cpg/sg48_17_cif.got.tgz:32939.got - 2010.06.03 20:39:00.
