data_PCOD9389078
_publ_section_title
;
Structure prediction by ZEFSAII (Michael W. Deem and Ramdas Pophale) SiO2 
 PCOD9389078
Probable space group: P M M M
;
_chemical_formula_sum "Si O2"
_cell_formula_units_Z 40
_cell_length_a 7.566889
_cell_length_b 28.879479
_cell_length_c 9.758702
_cell_angle_alpha 90.000000
_cell_angle_beta 90.000000
_cell_angle_gamma 90.000000
_cell_volume 2132.547796
_symmetry_space_group_name_H-M "P M M M"
_symmetry_group_IT_number 47
_symmetry_cell_setting 'orthorhombic'
loop_
_space_group_symop_operation_xyz
x,y,z
-x,-y,z
x,-y,-z
-x,y,-z
-x,-y,-z
x,y,-z
-x,y,z
x,-y,z
loop_
_atom_site_type_symbol
_atom_site_label
_atom_site_fract_x
_atom_site_fract_y
_atom_site_fract_z
Si Si1 0.500000 0.946976 0.332722
Si Si2 0.283236 0.500000 0.342291
Si Si3 0.711352 0.584988 0.156489
Si Si4 0.202404 0.875934 0.332971
Si Si5 0.787726 0.689110 0.844159
Si Si6 0.783899 0.773247 0.342561
O O1 0.500000 0.947813 0.500000
O O2 0.329716 0.917230 0.289830
O O3 0.500000 0.000000 0.286100
O O4 0.500000 0.500000 0.343436
O O5 0.226187 0.500000 0.500000
O O6 0.224323 0.454642 0.258549
O O7 0.500000 0.579662 0.148591
O O8 0.747474 0.637208 0.205079
O O9 0.780321 0.580252 0.000000
O O10 0.201899 0.874889 0.500000
O O11 0.266741 0.824576 0.292025
O O12 0.000000 0.882552 0.288663
O O13 0.722506 0.730704 0.749576
O O14 0.000000 0.693129 0.848757
O O15 0.720348 0.692810 0.000000
O O16 0.727172 0.767530 0.500000
O O17 0.000000 0.773536 0.343221
#
# Coordination Sequence:
#
# PCOD9389078 Si02
#       6
#     4   4   8   8   8   8
#     4   9  16  24  36  58  87 117 151 190 229 270
#     4   9  17  29  46  65  84 108 142 183 216 248
#     4   9  17  30  46  62  82 110 141 172 213 263
#     4   8  14  25  39  55  80 115 151 185 225 274
#     4   9  17  29  45  65  88 112 140 178 219 258
#     4   8  14  26  43  60  82 115 146 171 211 267
#
# _framework density 18.756906000000001
#
# number of rings (size 3 to 8) (size 9 to 14) (size 15 to 20)
#    0.000    3.400    0.000    1.500    0.000    2.400 
#    1.800    2.500    0.000    3.000    0.000    0.000 
#    0.000    1.600    0.000    7.800    0.000    8.000 
#
# Total GULP energy -222908.233191 kJ/mol
# GULP energy per Si atom -5572.705830 kJ/mol
# Density = 1.871421 g / cm^3
# Si number density = 18.756906 Si / 1000 Ang^3
#
#
#
# Elastic Constant Matrix: (Units=GPa)
#
#
# Indices 1 2 3 4 5 6 
#
# 1 57.4864 43.4571 17.7712 0.0000 0.0000 0.0000
# 2 43.4571 228.7121 82.4136 0.0000 0.0000 0.0000
# 3 17.7712 82.4136 50.4376 0.0000 0.0000 0.0000
# 4 0.0000 0.0000 0.0000 -28.1647 0.0000 0.0000
# 5 0.0000 0.0000 0.0000 0.0000 3.7204 0.0000
# 6 0.0000 0.0000 0.0000 0.0000 0.0000 24.7042
#
#
#
# Elastic Compliance Matrix: (Units=1/GPa)
#
#
# Indices 1 2 3 4 5 6 
#
# 1 0.020402 -0.003128 -0.002077 0.000000 0.000000 0.000000
# 2 -0.003128 0.011112 -0.017055 0.000000 0.000000 0.000000
# 3 -0.002077 -0.017055 0.048426 0.000000 0.000000 0.000000
# 4 0.000000 0.000000 0.000000 -0.035505 0.000000 0.000000
# 5 0.000000 0.000000 0.000000 0.000000 0.268790 0.000000
# 6 0.000000 0.000000 0.000000 0.000000 0.000000 0.040479
#
#
# Mechanical properties :
#
#
# Convention : Reuss Voigt Hill
#
# Bulk Modulus (GPa) = 28.23313 69.32442 48.77878
# Shear Modulus (GPa) = 12.19421 12.91826 12.55624
#
# Velocity S-wave (km/s) = 2.55251 2.62719 2.59012
# Velocity P-wave (km/s) = 4.87564 6.80019 5.91669
#
# Compressibility (1/GPa) = 0.03541939
#
# Stress axis : x y z
#
# Youngs Moduli (GPa) = 49.01413 89.99157 20.65024
#
# Poissons Ratio (x) = 0.28149 0.04290
# Poissons Ratio (y) = 0.15332 0.35219
# Poissons Ratio (z) = 0.10183 1.53479
#
# Static dielectric constant tensor:
#      x y z
#    x 1.697150 0.000000 0.000000 
#    y 0.000000 1.641440 0.000000 
#    z 0.000000 0.000000 1.630920 
# 
# From -- ./inp_files/1814.got.cif
#   From: 2010.05.17/outbox.cif.g08.bks.cpg/sg47_1_cif.got.tgz:1814.got - 2010.06.03 20:15:42.
