data_PCOD9389937
_publ_section_title
;
Structure prediction by ZEFSAII (Michael W. Deem and Ramdas Pophale) SiO2 
 PCOD9389937
Probable space group: P N N N
;
_chemical_formula_sum "Si O2"
_cell_formula_units_Z 40
_cell_length_a 7.858673
_cell_length_b 15.721497
_cell_length_c 16.518339
_cell_angle_alpha 90.000000
_cell_angle_beta 90.000000
_cell_angle_gamma 90.000000
_cell_volume 2040.842501
_symmetry_space_group_name_H-M "P N N N"
_symmetry_group_IT_number 48
_space_group.IT_coordinate_system_code '2'
_symmetry_cell_setting 'orthorhombic'
loop_
_space_group_symop_operation_xyz
x,y,z
1/2-x,1/2-y,z
x,1/2-y,1/2-z
1/2-x,y,1/2-z
-x,-y,-z
1/2+x,1/2+y,-z
-x,1/2+y,1/2+z
1/2+x,-y,1/2+z
loop_
_atom_site_type_symbol
_atom_site_label
_atom_site_fract_x
_atom_site_fract_y
_atom_site_fract_z
Si Si1 0.657516 0.839302 0.095402
Si Si2 0.008991 0.084847 0.444878
Si Si3 0.689891 0.519941 0.843426
Si Si4 0.803950 0.339131 0.842547
Si Si5 0.795587 0.015589 0.154407
O O1 0.750000 0.750000 0.103654
O O2 0.505909 0.847945 0.159340
O O3 0.772439 0.922573 0.111786
O O4 0.553265 0.843660 0.010643
O O5 0.175422 0.078254 0.389199
O O6 0.000000 0.000000 0.500000
O O7 0.839286 0.078280 0.390299
O O8 0.750000 0.518603 0.750000
O O9 0.720688 0.424178 0.877777
O O10 0.492497 0.542160 0.852104
O O11 0.750000 0.250000 0.881746
O O12 0.750000 0.336085 0.750000
O O13 0.750000 0.008946 0.250000
#
# Coordination Sequence:
#
# PCOD9389937 Si02
#       5
#     8   8   8   8   8
#     4  11  23  39  55  84 125 162 193 242 306 361
#     4  10  21  39  55  85 123 149 198 248 287 360
#     4  11  19  35  60  86 115 152 199 248 293 347
#     4  10  19  34  52  82 120 153 191 235 285 364
#     4  11  20  36  63  90 116 155 199 249 302 352
#
# _framework density 19.59975
#
# number of rings (size 3 to 8) (size 9 to 14) (size 15 to 20)
#    0.000    1.400    6.000    2.400    0.000    5.200 
#    3.600    0.000    0.000    0.600    0.000    1.400 
#    0.000    0.000    0.000    0.000    0.000    0.000 
#
# Total GULP energy -222968.328380 kJ/mol
# GULP energy per Si atom -5574.208209 kJ/mol
# Density = 1.955514 g / cm^3
# Si number density = 19.599750 Si / 1000 Ang^3
#
#
#
# Elastic Constant Matrix: (Units=GPa)
#
#
# Indices 1 2 3 4 5 6 
#
# 1 189.5765 19.7679 48.9059 0.0000 0.0000 0.0000
# 2 19.7679 12.4371 14.0529 0.0000 0.0000 0.0000
# 3 48.9059 14.0529 81.6987 0.0000 0.0000 0.0000
# 4 0.0000 0.0000 0.0000 -12.3697 0.0000 0.0000
# 5 0.0000 0.0000 0.0000 0.0000 37.1659 0.0000
# 6 0.0000 0.0000 0.0000 0.0000 0.0000 9.7749
#
#
#
# Elastic Compliance Matrix: (Units=1/GPa)
#
#
# Indices 1 2 3 4 5 6 
#
# 1 0.006783 -0.007687 -0.002738 0.000000 0.000000 0.000000
# 2 -0.007687 0.108514 -0.014064 0.000000 0.000000 0.000000
# 3 -0.002738 -0.014064 0.016298 0.000000 0.000000 0.000000
# 4 0.000000 0.000000 0.000000 -0.080843 0.000000 0.000000
# 5 0.000000 0.000000 0.000000 0.000000 0.026906 0.000000
# 6 0.000000 0.000000 0.000000 0.000000 0.000000 0.102303
#
#
# Mechanical properties :
#
#
# Convention : Reuss Voigt Hill
#
# Bulk Modulus (GPa) = 12.10404 49.90731 31.00568
# Shear Modulus (GPa) = 19.49483 20.31325 19.90404
#
# Velocity S-wave (km/s) = 3.15722 3.22282 3.19019
# Velocity P-wave (km/s) = 4.41359 6.27433 5.42434
#
# Compressibility (1/GPa) = 0.08261706
#
# Stress axis : x y z
#
# Youngs Moduli (GPa) = 147.43113 9.21543 61.35646
#
# Poissons Ratio (x) = 0.07084 0.16800
# Poissons Ratio (y) = 1.13332 0.86290
# Poissons Ratio (z) = 0.40367 0.12960
#
# Static dielectric constant tensor:
#      x y z
#    x 1.732780 0.000000 0.000000 
#    y 0.000000 1.730310 0.000000 
#    z 0.000000 0.000000 1.724170 
# 
# From -- ./inp_files/25476.got.cif
#   From: 2010.05.17/outbox.cif.g08.bks.cpg/sg48_13_cif.got.tgz:25476.got - 2010.06.03 20:39:00.
