data_PCOD9389031
_publ_section_title
;
Structure prediction by ZEFSAII (Michael W. Deem and Ramdas Pophale) SiO2 
 PCOD9389031
Probable space group: P M M M
;
_chemical_formula_sum "Si O2"
_cell_formula_units_Z 36
_cell_length_a 24.635513
_cell_length_b 9.661642
_cell_length_c 7.416707
_cell_angle_alpha 90.000000
_cell_angle_beta 90.000000
_cell_angle_gamma 90.000000
_cell_volume 1765.320944
_symmetry_space_group_name_H-M "P M M M"
_symmetry_group_IT_number 47
_symmetry_cell_setting 'orthorhombic'
loop_
_space_group_symop_operation_xyz
x,y,z
-x,-y,z
x,-y,-z
-x,y,-z
-x,-y,-z
x,y,-z
-x,y,z
x,-y,z
loop_
_atom_site_type_symbol
_atom_site_label
_atom_site_fract_x
_atom_site_fract_y
_atom_site_fract_z
Si Si1 0.560433 0.840081 0.220001
Si Si2 0.221728 0.659547 0.716123
Si Si3 0.897082 0.338439 0.280163
Si Si4 0.659877 0.342820 0.213891
Si Si5 0.000000 0.840323 0.720580
O O1 0.500000 0.792652 0.274236
O O2 0.610156 0.747233 0.285061
O O3 0.566851 0.000000 0.274140
O O4 0.561178 0.838728 0.000000
O O5 0.219691 0.656864 0.500000
O O6 0.223860 0.500000 0.781152
O O7 0.162928 0.713268 0.776733
O O8 0.280099 0.721851 0.762539
O O9 0.897958 0.338331 0.500000
O O10 0.903546 0.500000 0.226945
O O11 0.946463 0.242867 0.220621
O O12 0.660108 0.500000 0.287708
O O13 0.651771 0.353499 0.000000
O O14 0.000000 0.839658 0.500000
O O15 0.000000 0.000000 0.777095
#
# Coordination Sequence:
#
# PCOD9389031 Si02
#       5
#     8   8   8   8   4
#     4   8  14  25  40  57  78 104 131 158 191 232
#     4   8  14  25  40  57  79 107 133 155 186 232
#     4   8  13  22  36  51  68  96 131 156 177 219
#     4   9  16  25  40  63  84  99 123 163 201 226
#     4   9  15  21  31  51  78  99 116 152 202 231
#
# _framework density 20.392892
#
# number of rings (size 3 to 8) (size 9 to 14) (size 15 to 20)
#    0.000    3.667    0.000    2.333    0.000    1.778 
#    0.000    3.333    0.000    2.667    0.000    5.444 
#    0.000    6.222    0.000    0.000    0.000    0.000 
#
# Total GULP energy -200504.855472 kJ/mol
# GULP energy per Si atom -5569.579319 kJ/mol
# Density = 2.034648 g / cm^3
# Si number density = 20.392892 Si / 1000 Ang^3
#
#
#
# Elastic Constant Matrix: (Units=GPa)
#
#
# Indices 1 2 3 4 5 6 
#
# 1 266.8796 104.7650 4.7439 0.0000 0.0000 0.0000
# 2 104.7650 76.8484 3.1588 0.0000 0.0000 0.0000
# 3 4.7439 3.1588 64.1402 0.0000 0.0000 0.0000
# 4 0.0000 0.0000 0.0000 -5.3875 0.0000 0.0000
# 5 0.0000 0.0000 0.0000 0.0000 14.5366 0.0000
# 6 0.0000 0.0000 0.0000 0.0000 0.0000 -11.0410
#
#
#
# Elastic Compliance Matrix: (Units=1/GPa)
#
#
# Indices 1 2 3 4 5 6 
#
# 1 0.008061 -0.010987 -0.000055 0.000000 0.000000 0.000000
# 2 -0.010987 0.028014 -0.000567 0.000000 0.000000 0.000000
# 3 -0.000055 -0.000567 0.015623 0.000000 0.000000 0.000000
# 4 0.000000 0.000000 0.000000 -0.185616 0.000000 0.000000
# 5 0.000000 0.000000 0.000000 0.000000 0.068792 0.000000
# 6 0.000000 0.000000 0.000000 0.000000 0.000000 -0.090572
#
#
# Mechanical properties :
#
#
# Convention : Reuss Voigt Hill
#
# Bulk Modulus (GPa) = 35.11272 70.35594 52.73433
# Shear Modulus (GPa) = -40.65518 19.30165 -10.67676
#
# Velocity S-wave (km/s) = -4.46981 3.07984 -2.29061
# Velocity P-wave (km/s) = 3.06325 6.87185 4.34965
#
# Compressibility (1/GPa) = 0.02847971
#
# Stress axis : x y z
#
# Youngs Moduli (GPa) = 124.05381 35.69611 64.00880
#
# Poissons Ratio (x) = 0.39220 0.00353
# Poissons Ratio (y) = 1.36299 0.03630
# Poissons Ratio (z) = 0.00684 0.02024
#
# Static dielectric constant tensor:
#      x y z
#    x 1.756310 0.000000 0.000000 
#    y 0.000000 1.683080 0.000000 
#    z 0.000000 0.000000 1.808040 
# 
# From -- ./inp_files/10573.got.cif
#   From: 2010.05.17/outbox.cif.g08.bks.cpg/sg47_6_cif.got.tgz:10573.got - 2010.06.03 20:15:42.
