data_PCOD9389760
_publ_section_title
;
Structure prediction by ZEFSAII (Michael W. Deem and Ramdas Pophale) SiO2 
 PCOD9389760
Probable space group: P N N N
;
_chemical_formula_sum "Si O2"
_cell_formula_units_Z 32
_cell_length_a 16.613689
_cell_length_b 11.012409
_cell_length_c 7.782882
_cell_angle_alpha 90.000000
_cell_angle_beta 90.000000
_cell_angle_gamma 90.000000
_cell_volume 1423.930705
_symmetry_space_group_name_H-M "P N N N"
_symmetry_group_IT_number 48
_space_group.IT_coordinate_system_code '2'
_symmetry_cell_setting 'orthorhombic'
loop_
_space_group_symop_operation_xyz
x,y,z
1/2-x,1/2-y,z
x,1/2-y,1/2-z
1/2-x,y,1/2-z
-x,-y,-z
1/2+x,1/2+y,-z
-x,1/2+y,1/2+z
1/2+x,-y,1/2+z
loop_
_atom_site_type_symbol
_atom_site_label
_atom_site_fract_x
_atom_site_fract_y
_atom_site_fract_z
Si Si1 0.232590 0.883637 0.545490
Si Si2 0.294535 0.133905 0.564248
Si Si3 0.514440 0.633537 0.071946
Si Si4 0.049392 0.881405 0.453281
O O1 0.250000 0.750000 0.471233
O O2 0.250000 0.876110 0.750000
O O3 0.139477 0.905386 0.510768
O O4 0.280845 0.001667 0.479496
O O5 0.250000 0.250000 0.479519
O O6 0.250000 0.124920 0.750000
O O7 0.389480 0.153381 0.589622
O O8 0.467116 0.630205 0.251275
O O9 0.480234 0.751304 0.972335
O O10 0.500000 0.500000 0.000000
O O11 0.000000 0.000000 0.500000
#
# Coordination Sequence:
#
# PCOD9389760 Si02
#       4
#     8   8   8   8
#     4  10  20  35  59  90 119 159 210 260 313 382
#     4  10  18  35  60  85 114 155 205 255 308 374
#     4  11  24  41  62  96 131 165 213 273 327 386
#     4  11  22  40  65  93 126 170 214 263 324 386
#
# _framework density 22.473004
#
# number of rings (size 3 to 8) (size 9 to 14) (size 15 to 20)
#    0.000    1.500    0.000    9.000    0.000    3.000 
#    0.000    8.750    0.000    1.500    0.000    0.000 
#    0.000    0.000    0.000    0.000    0.000    0.000 
#
# Total GULP energy -178629.422540 kJ/mol
# GULP energy per Si atom -5582.169454 kJ/mol
# Density = 2.242185 g / cm^3
# Si number density = 22.473004 Si / 1000 Ang^3
#
#
#
# Elastic Constant Matrix: (Units=GPa)
#
#
# Indices 1 2 3 4 5 6 
#
# 1 154.9828 2.4619 25.1973 0.0000 0.0000 0.0000
# 2 2.4619 197.1361 23.4106 0.0000 0.0000 0.0000
# 3 25.1973 23.4106 49.5816 0.0000 0.0000 0.0000
# 4 0.0000 0.0000 0.0000 16.8107 0.0000 0.0000
# 5 0.0000 0.0000 0.0000 0.0000 25.8218 0.0000
# 6 0.0000 0.0000 0.0000 0.0000 0.0000 51.9308
#
#
#
# Elastic Compliance Matrix: (Units=1/GPa)
#
#
# Indices 1 2 3 4 5 6 
#
# 1 0.007057 0.000358 -0.003755 0.000000 0.000000 0.000000
# 2 0.000358 0.005392 -0.002728 0.000000 0.000000 0.000000
# 3 -0.003755 -0.002728 0.023365 0.000000 0.000000 0.000000
# 4 0.000000 0.000000 0.000000 0.059486 0.000000 0.000000
# 5 0.000000 0.000000 0.000000 0.000000 0.038727 0.000000
# 6 0.000000 0.000000 0.000000 0.000000 0.000000 0.019256
#
#
# Mechanical properties :
#
#
# Convention : Reuss Voigt Hill
#
# Bulk Modulus (GPa) = 42.43803 55.98223 49.21013
# Shear Modulus (GPa) = 28.83685 42.28804 35.56244
#
# Velocity S-wave (km/s) = 3.58603 4.34259 3.98232
# Velocity P-wave (km/s) = 6.00593 7.07878 6.56431
#
# Compressibility (1/GPa) = 0.02356377
#
# Stress axis : x y z
#
# Youngs Moduli (GPa) = 141.69913 185.45634 42.79865
#
# Poissons Ratio (x) = -0.06636 0.16073
# Poissons Ratio (y) = -0.05071 0.11675
# Poissons Ratio (z) = 0.53214 0.50589
#
# Static dielectric constant tensor:
#      x y z
#    x 1.765310 0.000000 0.000000 
#    y 0.000000 1.919190 0.000000 
#    z 0.000000 0.000000 1.651210 
# 
# From -- ./inp_files/10118.got.cif
#   From: 2010.05.17/outbox.cif.g08.bks.cpg/sg48_6_cif.got.tgz:10118.got - 2010.06.03 20:39:00.
