data_PCOD9389570
_publ_section_title
;
Structure prediction by ZEFSAII (Michael W. Deem and Ramdas Pophale) SiO2 
 PCOD9389570
Probable space group: P N N N
;
_chemical_formula_sum "Si O2"
_cell_formula_units_Z 48
_cell_length_a 7.270445
_cell_length_b 11.650697
_cell_length_c 21.949072
_cell_angle_alpha 90.000000
_cell_angle_beta 90.000000
_cell_angle_gamma 90.000000
_cell_volume 1859.212644
_symmetry_space_group_name_H-M "P N N N"
_symmetry_group_IT_number 48
_space_group.IT_coordinate_system_code '2'
_symmetry_cell_setting 'orthorhombic'
loop_
_space_group_symop_operation_xyz
x,y,z
1/2-x,1/2-y,z
x,1/2-y,1/2-z
1/2-x,y,1/2-z
-x,-y,-z
1/2+x,1/2+y,-z
-x,1/2+y,1/2+z
1/2+x,-y,1/2+z
loop_
_atom_site_type_symbol
_atom_site_label
_atom_site_fract_x
_atom_site_fract_y
_atom_site_fract_z
Si Si1 0.534828 0.767995 0.181897
Si Si2 0.507000 0.547906 0.877602
Si Si3 0.026911 0.768875 0.552464
Si Si4 0.525904 0.118449 0.247437
Si Si5 0.916905 0.162530 0.933482
Si Si6 0.562386 0.012378 0.120694
O O1 0.750000 0.750000 0.189121
O O2 0.456545 0.750000 0.250000
O O3 0.476269 0.669106 0.136608
O O4 0.510938 0.881677 0.139337
O O5 0.539358 0.681136 0.896096
O O6 0.547449 0.547796 0.805100
O O7 0.607203 0.473882 0.931168
O O8 0.285816 0.520896 0.883407
O O9 0.250000 0.750000 0.554823
O O10 0.962670 0.714559 0.488015
O O11 0.996222 0.903375 0.566068
O O12 0.472110 0.250000 0.250000
O O13 0.750000 0.112297 0.250000
O O14 0.485082 0.072674 0.181063
O O15 0.750000 0.250000 0.935775
#
# Coordination Sequence:
#
# PCOD9389570 Si02
#       6
#     8   8   8   8   8   8
#     4  11  23  39  59  86 114 149 196 252 310 358
#     4  10  17  32  55  85 119 153 192 250 300 358
#     4   9  19  33  55  85 115 155 199 244 299 357
#     4   9  15  25  50  88 116 138 181 248 313 353
#     4  11  23  38  55  81 119 163 199 235 294 370
#     4  10  18  32  56  87 119 146 193 254 304 354
#
# _framework density 25.81738
#
# number of rings (size 3 to 8) (size 9 to 14) (size 15 to 20)
#    0.000    2.000    3.333    1.500    4.667    1.000 
#    0.000    0.000    0.000    0.000    0.000    1.167 
#    0.000    0.000    0.000    0.000    0.000    0.000 
#
# Total GULP energy -267345.131993 kJ/mol
# GULP energy per Si atom -5569.690250 kJ/mol
# Density = 2.575862 g / cm^3
# Si number density = 25.817380 Si / 1000 Ang^3
#
#
#
# Elastic Constant Matrix: (Units=GPa)
#
#
# Indices 1 2 3 4 5 6 
#
# 1 71.3431 17.1672 -2.8219 0.0000 0.0000 0.0000
# 2 17.1672 147.5828 47.2415 0.0000 0.0000 0.0000
# 3 -2.8219 47.2415 141.6459 0.0000 0.0000 0.0000
# 4 0.0000 0.0000 0.0000 42.4365 0.0000 0.0000
# 5 0.0000 0.0000 0.0000 0.0000 -19.2544 0.0000
# 6 0.0000 0.0000 0.0000 0.0000 0.0000 17.2934
#
#
#
# Elastic Compliance Matrix: (Units=1/GPa)
#
#
# Indices 1 2 3 4 5 6 
#
# 1 0.014535 -0.001997 0.000955 0.000000 0.000000 0.000000
# 2 -0.001997 0.007860 -0.002661 0.000000 0.000000 0.000000
# 3 0.000955 -0.002661 0.007966 0.000000 0.000000 0.000000
# 4 0.000000 0.000000 0.000000 0.023565 0.000000 0.000000
# 5 0.000000 0.000000 0.000000 0.000000 -0.051936 0.000000
# 6 0.000000 0.000000 0.000000 0.000000 0.000000 0.057826
#
#
# Mechanical properties :
#
#
# Convention : Reuss Voigt Hill
#
# Bulk Modulus (GPa) = 43.56017 53.74948 48.65483
# Shear Modulus (GPa) = 66.78038 28.02743 47.40390
#
# Velocity S-wave (km/s) = 5.09142 3.29842 4.28965
# Velocity P-wave (km/s) = 7.17443 5.94730 6.58950
#
# Compressibility (1/GPa) = 0.02295675
#
# Stress axis : x y z
#
# Youngs Moduli (GPa) = 68.79938 127.22696 125.52624
#
# Poissons Ratio (x) = 0.25402 -0.11994
# Poissons Ratio (y) = 0.13736 0.33405
# Poissons Ratio (z) = -0.06574 0.33858
#
# Static dielectric constant tensor:
#      x y z
#    x 2.103680 0.000000 0.000000 
#    y 0.000000 2.318270 0.000000 
#    z 0.000000 0.000000 2.090830 
# 
# From -- ./inp_files/18806.got.cif
#   From: 2010.05.17/outbox.cif.g08.bks.cpg/sg48_10_cif.got.tgz:18806.got - 2010.06.03 20:39:00.
