data_PCOD9389747
_publ_section_title
;
Structure prediction by ZEFSAII (Michael W. Deem and Ramdas Pophale) SiO2 
 PCOD9389747
Probable space group: P N N N
;
_chemical_formula_sum "Si O2"
_cell_formula_units_Z 48
_cell_length_a 17.071766
_cell_length_b 8.793212
_cell_length_c 15.990215
_cell_angle_alpha 90.000000
_cell_angle_beta 90.000000
_cell_angle_gamma 90.000000
_cell_volume 2400.381641
_symmetry_space_group_name_H-M "P N N N"
_symmetry_group_IT_number 48
_space_group.IT_coordinate_system_code '2'
_symmetry_cell_setting 'orthorhombic'
loop_
_space_group_symop_operation_xyz
x,y,z
1/2-x,1/2-y,z
x,1/2-y,1/2-z
1/2-x,y,1/2-z
-x,-y,-z
1/2+x,1/2+y,-z
-x,1/2+y,1/2+z
1/2+x,-y,1/2+z
loop_
_atom_site_type_symbol
_atom_site_label
_atom_site_fract_x
_atom_site_fract_y
_atom_site_fract_z
Si Si1 0.156733 0.401057 0.002429
Si Si2 0.357945 0.181320 0.337430
Si Si3 0.183190 0.542928 0.457871
Si Si4 0.044436 0.652065 0.669794
Si Si5 0.578944 0.644825 0.081868
Si Si6 0.422997 0.706115 0.490492
O O1 0.137684 0.288372 0.925289
O O2 0.156771 0.299458 0.086649
O O3 0.239405 0.486700 0.994963
O O4 0.089589 0.526637 0.014186
O O5 0.333483 0.250000 0.250000
O O6 0.315057 0.028214 0.365991
O O7 0.450236 0.146109 0.329548
O O8 0.109581 0.460528 0.505022
O O9 0.157479 0.716092 0.458780
O O10 0.070751 0.750000 0.750000
O O11 0.074398 0.477734 0.656862
O O12 0.066872 0.745879 0.586877
O O13 0.495148 0.720621 0.060554
#
# Coordination Sequence:
#
# PCOD9389747 Si02
#       6
#     8   8   8   8   8   8
#     4  11  22  31  56  86 114 145 193 236 288 337
#     4  10  19  34  55  80 111 148 188 222 278 353
#     4  10  19  35  54  82 111 155 184 229 288 344
#     4  10  19  34  58  82 108 147 190 233 287 341
#     4  10  18  35  57  79 111 152 191 235 277 335
#     4  11  19  36  56  82 115 149 190 244 276 338
#
# _framework density 19.996818999999999
#
# number of rings (size 3 to 8) (size 9 to 14) (size 15 to 20)
#    0.000    1.667    5.000    4.000    0.000    1.333 
#    0.000    1.667    0.000   10.000    0.000    9.333 
#    0.000    0.000    0.000    0.000    0.000    0.000 
#
# Total GULP energy -267444.634974 kJ/mol
# GULP energy per Si atom -5571.763229 kJ/mol
# Density = 1.995131 g / cm^3
# Si number density = 19.996819 Si / 1000 Ang^3
#
#
#
# Elastic Constant Matrix: (Units=GPa)
#
#
# Indices 1 2 3 4 5 6 
#
# 1 76.7463 19.4652 15.0631 0.0000 0.0000 0.0000
# 2 19.4652 114.5801 36.2955 0.0000 0.0000 0.0000
# 3 15.0631 36.2955 74.7881 0.0000 0.0000 0.0000
# 4 0.0000 0.0000 0.0000 31.1457 0.0000 0.0000
# 5 0.0000 0.0000 0.0000 0.0000 10.5563 0.0000
# 6 0.0000 0.0000 0.0000 0.0000 0.0000 28.8810
#
#
#
# Elastic Compliance Matrix: (Units=1/GPa)
#
#
# Indices 1 2 3 4 5 6 
#
# 1 0.013853 -0.001736 -0.001947 0.000000 0.000000 0.000000
# 2 -0.001736 0.010531 -0.004761 0.000000 0.000000 0.000000
# 3 -0.001947 -0.004761 0.016074 0.000000 0.000000 0.000000
# 4 0.000000 0.000000 0.000000 0.032107 0.000000 0.000000
# 5 0.000000 0.000000 0.000000 0.000000 0.094730 0.000000
# 6 0.000000 0.000000 0.000000 0.000000 0.000000 0.034625
#
#
# Mechanical properties :
#
#
# Convention : Reuss Voigt Hill
#
# Bulk Modulus (GPa) = 42.43101 45.30691 43.86896
# Shear Modulus (GPa) = 22.05901 27.13596 24.59748
#
# Velocity S-wave (km/s) = 3.32494 3.68776 3.51104
# Velocity P-wave (km/s) = 6.00043 6.39054 6.19856
#
# Compressibility (1/GPa) = 0.02356767
#
# Stress axis : x y z
#
# Youngs Moduli (GPa) = 72.18875 94.96114 62.21287
#
# Poissons Ratio (x) = 0.16490 0.12115
# Poissons Ratio (y) = 0.12535 0.29619
# Poissons Ratio (z) = 0.14058 0.45210
#
# Static dielectric constant tensor:
#      x y z
#    x 1.778510 0.000000 0.000000 
#    y 0.000000 1.775760 0.000000 
#    z 0.000000 0.000000 1.691380 
# 
# From -- ./inp_files/14320.got.cif
#   From: 2010.05.17/outbox.cif.g08.bks.cpg/sg48_8_cif.got.tgz:14320.got - 2010.06.03 20:39:00.
