data_PCOD9389458
_publ_section_title
;
Structure prediction by ZEFSAII (Michael W. Deem and Ramdas Pophale) SiO2 
 PCOD9389458
Probable space group: P M M M
;
_chemical_formula_sum "Si O2"
_cell_formula_units_Z 44
_cell_length_a 9.000000
_cell_length_b 15.000000
_cell_length_c 18.000000
_cell_angle_alpha 90.000000
_cell_angle_beta 90.000000
_cell_angle_gamma 90.000000
_cell_volume 2430.000000
_symmetry_space_group_name_H-M "P M M M"
_symmetry_group_IT_number 47
_symmetry_cell_setting 'orthorhombic'
loop_
_space_group_symop_operation_xyz
x,y,z
-x,-y,z
x,-y,-z
-x,y,-z
-x,-y,-z
x,y,-z
-x,y,z
x,-y,z
loop_
_atom_site_type_symbol
_atom_site_label
_atom_site_fract_x
_atom_site_fract_y
_atom_site_fract_z
Si Si1 0.171009 0.391534 0.081335
Si Si2 0.820222 0.894595 0.162859
Si Si3 0.677172 0.781254 0.705387
Si Si4 0.678091 0.399488 0.233170
Si Si5 0.827631 0.108753 0.000000
Si Si6 0.825995 0.100603 0.411350
O O1 0.170607 0.500000 0.078788
O O2 0.268797 0.368574 0.151761
O O3 0.000000 0.363006 0.092050
O O4 0.221421 0.359890 0.000000
O O5 0.749983 0.836546 0.227449
O O6 0.765939 0.865133 0.080442
O O7 0.000000 0.886868 0.164385
O O8 0.786291 0.000000 0.172519
O O9 0.500000 0.785278 0.712305
O O10 0.725150 0.678070 0.711147
O O11 0.730012 0.827355 0.630476
O O12 0.500000 0.404002 0.233361
O O13 0.735239 0.500000 0.247164
O O14 0.000000 0.137295 0.000000
O O15 0.828038 0.000000 0.000000
O O16 0.813595 0.106454 0.500000
O O17 0.000000 0.111341 0.391825
O O18 0.782159 0.000000 0.388818
#
# Coordination Sequence:
#
# PCOD9389458 Si02
#       6
#     8   8   8   8   4   8
#     4   8  14  26  45  68  91 116 156 215 272 310
#     4   9  17  31  51  72  97 132 171 208 248 301
#     4  11  22  33  49  77 106 132 167 211 255 299
#     4   9  19  35  50  65  93 136 179 213 250 300
#     4   7  12  26  47  67  88 123 172 212 239 281
#     4   9  19  37  60  84 109 136 163 192 235 299
#
# _framework density 18.106995999999999
#
# number of rings (size 3 to 8) (size 9 to 14) (size 15 to 20)
#    0.000    3.000    0.000    3.273    0.000    5.091 
#    1.636    3.182    0.000    2.182    0.000    3.818 
#    0.000    0.000    0.000    0.000    0.000    0.000 
#
# Total GULP energy -245223.660181 kJ/mol
# GULP energy per Si atom -5573.265004 kJ/mol
# Density = 1.806578 g / cm^3
# Si number density = 18.106996 Si / 1000 Ang^3
#
#
#
# Elastic Constant Matrix: (Units=GPa)
#
#
# Indices 1 2 3 4 5 6 
#
# 1 11.0951 33.7279 18.9891 0.0000 0.0000 0.0000
# 2 33.7279 92.2393 40.5853 0.0000 0.0000 0.0000
# 3 18.9891 40.5853 37.2267 0.0000 0.0000 0.0000
# 4 0.0000 0.0000 0.0000 16.8928 0.0000 0.0000
# 5 0.0000 0.0000 0.0000 0.0000 -131.2835 0.0000
# 6 0.0000 0.0000 0.0000 0.0000 0.0000 -29.0051
#
#
#
# Elastic Compliance Matrix: (Units=1/GPa)
#
#
# Indices 1 2 3 4 5 6 
#
# 1 -0.470295 0.127642 0.100736 0.000000 0.000000 0.000000
# 2 0.127642 -0.013807 -0.050057 0.000000 0.000000 0.000000
# 3 0.100736 -0.050057 0.030051 0.000000 0.000000 0.000000
# 4 0.000000 0.000000 0.000000 0.059197 0.000000 0.000000
# 5 0.000000 0.000000 0.000000 0.000000 -0.007617 0.000000
# 6 0.000000 0.000000 0.000000 0.000000 0.000000 -0.034477
#
#
# Mechanical properties :
#
#
# Convention : Reuss Voigt Hill
#
# Bulk Modulus (GPa) = -10.26605 36.35173 13.04284
# Shear Modulus (GPa) = -6.05284 -25.52857 -15.79071
#
# Velocity S-wave (km/s) = -1.83032 -3.75890 -2.95630
# Velocity P-wave (km/s) = 3.18571 1.13160 2.10573
#
# Compressibility (1/GPa) = -0.09740845
#
# Stress axis : x y z
#
# Youngs Moduli (GPa) = -2.12633 -72.42831 33.27649
#
# Poissons Ratio (x) = 9.24493 -3.35213
# Poissons Ratio (y) = 0.27141 1.66572
# Poissons Ratio (z) = 0.21420 -3.62555
#
# Static dielectric constant tensor:
#      x y z
#    x 1.604620 0.000000 0.000000 
#    y 0.000000 1.664460 0.000000 
#    z 0.000000 0.000000 1.627950 
# 
# From -- ./inp_files/6115.got.cif
#   From: 2010.05.17/outbox.ucp.g08.bks.cvg/sg47_4_cif.got.tgz:6115.got - 2010.06.11 16:36:43.
