data_PCOD9389907
_publ_section_title
;
Structure prediction by ZEFSAII (Michael W. Deem and Ramdas Pophale) SiO2 
 PCOD9389907
Probable space group: P N N N
;
_chemical_formula_sum "Si O2"
_cell_formula_units_Z 64
_cell_length_a 12.220104
_cell_length_b 24.831934
_cell_length_c 11.743674
_cell_angle_alpha 90.000000
_cell_angle_beta 90.000000
_cell_angle_gamma 90.000000
_cell_volume 3563.603971
_symmetry_space_group_name_H-M "P N N N"
_symmetry_group_IT_number 48
_space_group.IT_coordinate_system_code '2'
_symmetry_cell_setting 'orthorhombic'
loop_
_space_group_symop_operation_xyz
x,y,z
1/2-x,1/2-y,z
x,1/2-y,1/2-z
1/2-x,y,1/2-z
-x,-y,-z
1/2+x,1/2+y,-z
-x,1/2+y,1/2+z
1/2+x,-y,1/2+z
loop_
_atom_site_type_symbol
_atom_site_label
_atom_site_fract_x
_atom_site_fract_y
_atom_site_fract_z
Si Si1 0.043604 0.554237 0.625961
Si Si2 0.858858 0.387436 0.172287
Si Si3 0.084385 0.602511 0.383948
Si Si4 0.878463 0.233907 0.378667
Si Si5 0.373882 0.772628 0.371494
Si Si6 0.196371 0.492434 0.363544
Si Si7 0.620887 0.005276 0.045713
Si Si8 0.369231 0.054338 0.719474
O O1 0.052433 0.589816 0.739025
O O2 0.076538 0.589457 0.518247
O O3 0.121036 0.501166 0.643449
O O4 0.920563 0.533720 0.609451
O O5 0.750000 0.382372 0.250000
O O6 0.885913 0.330516 0.118567
O O7 0.847126 0.433869 0.079288
O O8 0.123956 0.662733 0.363992
O O9 0.163941 0.554969 0.341543
O O10 0.964428 0.592274 0.328125
O O11 0.750000 0.250000 0.375892
O O12 0.921154 0.250000 0.250000
O O13 0.921140 0.257065 0.501226
O O14 0.250000 0.750000 0.374673
O O15 0.421276 0.750000 0.250000
O O16 0.250000 0.469557 0.250000
O O17 0.286969 0.485406 0.459836
O O18 0.607908 0.970697 0.158606
O O19 0.500000 0.000000 0.000000
O O20 0.250000 0.078437 0.750000
#
# Coordination Sequence:
#
# PCOD9389907 Si02
#       8
#     8   8   8   8   8   8   8   8
#     4  10  20  34  52  85 112 148 195 235 288 353
#     4  11  20  33  55  79 112 153 185 239 295 335
#     4  11  21  35  59  79 112 164 188 228 306 349
#     4  10  19  33  55  81 112 143 195 235 281 348
#     4  10  24  38  52  81 124 149 190 242 295 357
#     4  11  22  34  54  78 118 150 191 233 291 362
#     4  11  22  34  50  79 113 150 190 231 282 357
#     4  10  19  35  54  81 112 144 196 238 269 344
#
# _framework density 17.959347999999999
#
# number of rings (size 3 to 8) (size 9 to 14) (size 15 to 20)
#    0.000    1.500    1.250    8.250    7.000    1.000 
#    0.000    0.000    0.000    0.375    0.000    0.000 
#    0.000   21.500    0.000    0.000    0.000    0.000 
#
# Total GULP energy -356532.730016 kJ/mol
# GULP energy per Si atom -5570.823907 kJ/mol
# Density = 1.791847 g / cm^3
# Si number density = 17.959348 Si / 1000 Ang^3
#
#
#
# Elastic Constant Matrix: (Units=GPa)
#
#
# Indices 1 2 3 4 5 6 
#
# 1 74.3169 15.8824 24.4891 0.0000 0.0000 0.0000
# 2 15.8824 85.5583 13.6197 0.0000 0.0000 0.0000
# 3 24.4891 13.6197 107.9386 0.0000 0.0000 0.0000
# 4 0.0000 0.0000 0.0000 44.2503 0.0000 0.0000
# 5 0.0000 0.0000 0.0000 0.0000 27.3283 0.0000
# 6 0.0000 0.0000 0.0000 0.0000 0.0000 8.1511
#
#
#
# Elastic Compliance Matrix: (Units=1/GPa)
#
#
# Indices 1 2 3 4 5 6 
#
# 1 0.014968 -0.002284 -0.003108 0.000000 0.000000 0.000000
# 2 -0.002284 0.012276 -0.001031 0.000000 0.000000 0.000000
# 3 -0.003108 -0.001031 0.010100 0.000000 0.000000 0.000000
# 4 0.000000 0.000000 0.000000 0.022599 0.000000 0.000000
# 5 0.000000 0.000000 0.000000 0.000000 0.036592 0.000000
# 6 0.000000 0.000000 0.000000 0.000000 0.000000 0.122683
#
#
# Mechanical properties :
#
#
# Convention : Reuss Voigt Hill
#
# Bulk Modulus (GPa) = 40.81827 41.75514 41.28671
# Shear Modulus (GPa) = 20.81349 30.20076 25.50712
#
# Velocity S-wave (km/s) = 3.40799 4.10520 3.77274
# Velocity P-wave (km/s) = 6.18574 6.76539 6.48205
#
# Compressibility (1/GPa) = 0.02449883
#
# Stress axis : x y z
#
# Youngs Moduli (GPa) = 66.80888 81.45980 99.01293
#
# Poissons Ratio (x) = 0.18604 0.30771
# Poissons Ratio (y) = 0.15258 0.10207
# Poissons Ratio (z) = 0.20763 0.08397
#
# Static dielectric constant tensor:
#      x y z
#    x 1.612190 0.000000 0.000000 
#    y 0.000000 1.587690 0.000000 
#    z 0.000000 0.000000 1.670960 
# 
# From -- ./inp_files/20452.got.cif
#   From: 2010.05.17/outbox.cif.g08.bks.cpg/sg48_11_cif.got.tgz:20452.got - 2010.06.03 20:39:00.
