data_PCOD9389844
_publ_section_title
;
Structure prediction by ZEFSAII (Michael W. Deem and Ramdas Pophale) SiO2 
 PCOD9389844
Probable space group: P N N N
;
_chemical_formula_sum "Si O2"
_cell_formula_units_Z 36
_cell_length_a 14.404858
_cell_length_b 25.043974
_cell_length_c 5.258402
_cell_angle_alpha 90.000000
_cell_angle_beta 90.000000
_cell_angle_gamma 90.000000
_cell_volume 1896.994231
_symmetry_space_group_name_H-M "P N N N"
_symmetry_group_IT_number 48
_space_group.IT_coordinate_system_code '2'
_symmetry_cell_setting 'orthorhombic'
loop_
_space_group_symop_operation_xyz
x,y,z
1/2-x,1/2-y,z
x,1/2-y,1/2-z
1/2-x,y,1/2-z
-x,-y,-z
1/2+x,1/2+y,-z
-x,1/2+y,1/2+z
1/2+x,-y,1/2+z
loop_
_atom_site_type_symbol
_atom_site_label
_atom_site_fract_x
_atom_site_fract_y
_atom_site_fract_z
Si Si1 0.500237 0.878781 0.272306
Si Si2 0.818545 0.560435 0.437518
Si Si3 0.060907 0.512530 0.250292
Si Si4 0.250000 0.345022 0.250000
Si Si5 0.040168 0.188463 0.273904
O O1 0.592648 0.915698 0.289033
O O2 0.420591 0.923950 0.251058
O O3 0.503483 0.845123 0.532195
O O4 0.506235 0.840411 0.030313
O O5 0.750000 0.528901 0.250000
O O6 0.853813 0.526872 0.682525
O O7 0.765293 0.613638 0.522349
O O8 0.000000 0.500000 0.500000
O O9 0.000000 0.500000 0.000000
O O10 0.346690 0.314111 0.276172
O O11 0.012126 0.250000 0.250000
#
# Coordination Sequence:
#
# PCOD9389844 Si02
#       5
#     8   8   8   4   8
#     4  10  20  35  47  70  99 132 176 217 254 313
#     4  10  19  31  51  71 103 135 173 212 270 327
#     4  10  20  33  51  71  97 139 175 209 267 329
#     4  10  19  32  44  72 106 132 171 212 262 304
#     4  11  21  33  50  68  97 138 180 219 254 298
#
# _framework density 18.977391000000001
#
# number of rings (size 3 to 8) (size 9 to 14) (size 15 to 20)
#    0.000    1.778    2.222    5.000    3.111    0.000 
#    0.000    2.222    0.000    0.000    0.000    0.000 
#    0.000    0.889    0.444    0.000    0.444    0.000 
#
# Total GULP energy -200527.128876 kJ/mol
# GULP energy per Si atom -5570.198024 kJ/mol
# Density = 1.893420 g / cm^3
# Si number density = 18.977391 Si / 1000 Ang^3
#
#
#
# Elastic Constant Matrix: (Units=GPa)
#
#
# Indices 1 2 3 4 5 6 
#
# 1 19.3798 23.3428 20.8419 0.0000 0.0000 0.0000
# 2 23.3428 140.5241 56.4132 0.0000 0.0000 0.0000
# 3 20.8419 56.4132 155.7786 0.0000 0.0000 0.0000
# 4 0.0000 0.0000 0.0000 29.9752 0.0000 0.0000
# 5 0.0000 0.0000 0.0000 0.0000 25.5575 0.0000
# 6 0.0000 0.0000 0.0000 0.0000 0.0000 12.7992
#
#
#
# Elastic Compliance Matrix: (Units=1/GPa)
#
#
# Indices 1 2 3 4 5 6 
#
# 1 0.068899 -0.009062 -0.005937 0.000000 0.000000 0.000000
# 2 -0.009062 0.009519 -0.002235 0.000000 0.000000 0.000000
# 3 -0.005937 -0.002235 0.008023 0.000000 0.000000 0.000000
# 4 0.000000 0.000000 0.000000 0.033361 0.000000 0.000000
# 5 0.000000 0.000000 0.000000 0.000000 0.039127 0.000000
# 6 0.000000 0.000000 0.000000 0.000000 0.000000 0.078130
#
#
# Mechanical properties :
#
#
# Convention : Reuss Voigt Hill
#
# Bulk Modulus (GPa) = 19.24011 57.43093 38.33552
# Shear Modulus (GPa) = 17.31003 28.00535 22.65769
#
# Velocity S-wave (km/s) = 3.02344 3.84568 3.45908
# Velocity P-wave (km/s) = 4.72744 7.07443 6.01649
#
# Compressibility (1/GPa) = 0.05197476
#
# Stress axis : x y z
#
# Youngs Moduli (GPa) = 14.51393 105.05751 124.64366
#
# Poissons Ratio (x) = 0.95201 0.73995
# Poissons Ratio (y) = 0.13152 0.27853
# Poissons Ratio (z) = 0.08616 0.23477
#
# Static dielectric constant tensor:
#      x y z
#    x 1.781020 0.000000 0.000000 
#    y 0.000000 1.674800 0.000000 
#    z 0.000000 0.000000 1.711840 
# 
# From -- ./inp_files/4325.got.cif
#   From: 2010.05.17/outbox.cif.g08.bks.cpg/sg48_3_cif.got.tgz:4325.got - 2010.06.03 20:39:00.
