data_PCOD9389504
_publ_section_title
;
Structure prediction by ZEFSAII (Michael W. Deem and Ramdas Pophale) SiO2 
 PCOD9389504
Probable space group: P N N N
;
_chemical_formula_sum "Si O2"
_cell_formula_units_Z 52
_cell_length_a 25.493053
_cell_length_b 5.379932
_cell_length_c 19.270031
_cell_angle_alpha 90.000000
_cell_angle_beta 90.000000
_cell_angle_gamma 90.000000
_cell_volume 2642.901933
_symmetry_space_group_name_H-M "P N N N"
_symmetry_group_IT_number 48
_space_group.IT_coordinate_system_code '2'
_symmetry_cell_setting 'orthorhombic'
loop_
_space_group_symop_operation_xyz
x,y,z
1/2-x,1/2-y,z
x,1/2-y,1/2-z
1/2-x,y,1/2-z
-x,-y,-z
1/2+x,1/2+y,-z
-x,1/2+y,1/2+z
1/2+x,-y,1/2+z
loop_
_atom_site_type_symbol
_atom_site_label
_atom_site_fract_x
_atom_site_fract_y
_atom_site_fract_z
Si Si1 0.870526 0.681352 0.965495
Si Si2 0.188856 0.995239 0.720618
Si Si3 0.587513 0.854171 0.821191
Si Si4 0.217580 0.495862 0.933960
Si Si5 0.512345 0.250000 0.750000
Si Si6 0.503409 0.000098 0.381338
Si Si7 0.069326 0.806676 0.000821
O O1 0.871280 0.626866 0.883093
O O2 0.817273 0.597631 0.002187
O O3 0.910345 0.473036 0.994409
O O4 0.889642 0.964524 0.982534
O O5 0.166360 0.250000 0.750000
O O6 0.250000 0.994223 0.750000
O O7 0.162656 0.750000 0.750000
O O8 0.187041 0.964723 0.638034
O O9 0.611174 0.750000 0.750000
O O10 0.543805 0.671326 0.853380
O O11 0.552747 0.085005 0.795655
O O12 0.250000 0.750000 0.947864
O O13 0.250000 0.250000 0.915620
O O14 0.478163 0.375462 0.810124
O O15 0.546703 0.144590 0.424665
O O16 0.476122 0.830550 0.440676
#
# Coordination Sequence:
#
# PCOD9389504 Si02
#       7
#     8   8   8   8   4   8   8
#     4  11  23  38  57  86 119 145 190 250 291 337
#     4  10  16  31  56  79 100 128 180 235 265 326
#     4   9  19  34  56  88 108 151 198 236 277 331
#     4  12  22  37  61  86 109 149 194 243 291 347
#     4  10  16  32  56  80 109 152 207 224 264 334
#     4   9  19  31  58  80 112 151 192 228 272 348
#     4  10  21  36  56  83 117 149 181 232 296 332
#
# _framework density 19.675343000000002
#
# number of rings (size 3 to 8) (size 9 to 14) (size 15 to 20)
#    0.000    1.846    4.615    0.923    2.154    1.846 
#    0.000    0.000    5.077    0.462    0.000    0.000 
#    0.000    0.000    0.000    0.000    0.000    0.000 
#
# Total GULP energy -289536.249378 kJ/mol
# GULP energy per Si atom -5568.004796 kJ/mol
# Density = 1.963056 g / cm^3
# Si number density = 19.675343 Si / 1000 Ang^3
#
#
#
# Elastic Constant Matrix: (Units=GPa)
#
#
# Indices 1 2 3 4 5 6 
#
# 1 4.7527 0.3671 19.6173 0.0000 0.0000 0.0000
# 2 0.3671 73.2260 17.6183 0.0000 0.0000 0.0000
# 3 19.6173 17.6183 172.0140 0.0000 0.0000 0.0000
# 4 0.0000 0.0000 0.0000 -24.0421 0.0000 0.0000
# 5 0.0000 0.0000 0.0000 0.0000 8.7355 0.0000
# 6 0.0000 0.0000 0.0000 0.0000 0.0000 0.8282
#
#
#
# Elastic Compliance Matrix: (Units=1/GPa)
#
#
# Indices 1 2 3 4 5 6 
#
# 1 0.403596 0.009280 -0.046979 0.000000 0.000000 0.000000
# 2 0.009280 0.014215 -0.002514 0.000000 0.000000 0.000000
# 3 -0.046979 -0.002514 0.011429 0.000000 0.000000 0.000000
# 4 0.000000 0.000000 0.000000 -0.041594 0.000000 0.000000
# 5 0.000000 0.000000 0.000000 0.000000 0.114475 0.000000
# 6 0.000000 0.000000 0.000000 0.000000 0.000000 1.207444
#
#
# Mechanical properties :
#
#
# Convention : Reuss Voigt Hill
#
# Bulk Modulus (GPa) = 2.86687 36.13314 19.50000
# Shear Modulus (GPa) = 2.62293 11.26365 6.94329
#
# Velocity S-wave (km/s) = 1.15586 2.39524 1.88058
# Velocity P-wave (km/s) = 1.80044 5.10432 3.82725
#
# Compressibility (1/GPa) = 0.34881305
#
# Stress axis : x y z
#
# Youngs Moduli (GPa) = 2.47772 70.34943 87.49927
#
# Poissons Ratio (x) = -0.65281 4.11059
# Poissons Ratio (y) = -0.02299 0.21999
# Poissons Ratio (z) = 0.11640 0.17687
#
# Static dielectric constant tensor:
#      x y z
#    x 2.183910 0.000000 0.000000 
#    y 0.000000 1.742780 0.000000 
#    z 0.000000 0.000000 2.002320 
# 
# From -- ./inp_files/32396.got.cif
#   From: 2010.05.17/outbox.cif.g08.bks.cpg/sg48_17_cif.got.tgz:32396.got - 2010.06.03 20:39:00.
