data_PCOD9389806
_publ_section_title
;
Structure prediction by ZEFSAII (Michael W. Deem and Ramdas Pophale) SiO2 
 PCOD9389806
Probable space group: P N N N
;
_chemical_formula_sum "Si O2"
_cell_formula_units_Z 48
_cell_length_a 8.867617
_cell_length_b 13.377855
_cell_length_c 16.029564
_cell_angle_alpha 90.000000
_cell_angle_beta 90.000000
_cell_angle_gamma 90.000000
_cell_volume 1901.582279
_symmetry_space_group_name_H-M "P N N N"
_symmetry_group_IT_number 48
_space_group.IT_coordinate_system_code '2'
_symmetry_cell_setting 'orthorhombic'
loop_
_space_group_symop_operation_xyz
x,y,z
1/2-x,1/2-y,z
x,1/2-y,1/2-z
1/2-x,y,1/2-z
-x,-y,-z
1/2+x,1/2+y,-z
-x,1/2+y,1/2+z
1/2+x,-y,1/2+z
loop_
_atom_site_type_symbol
_atom_site_label
_atom_site_fract_x
_atom_site_fract_y
_atom_site_fract_z
Si Si1 0.467901 0.013198 0.333762
Si Si2 0.352544 0.670041 0.463376
Si Si3 0.811173 0.970005 0.038638
Si Si4 0.446803 0.052212 0.845121
Si Si5 0.074024 0.766673 0.863117
Si Si6 0.829116 0.615024 0.882536
O O1 0.519433 0.968209 0.423196
O O2 0.550385 0.120329 0.335872
O O3 0.293937 0.047623 0.334320
O O4 0.512763 0.952952 0.251710
O O5 0.250000 0.750000 0.416903
O O6 0.260467 0.573993 0.500787
O O7 0.476722 0.638266 0.398018
O O8 0.417754 0.734462 0.540193
O O9 0.724030 0.953186 0.126579
O O10 0.755948 0.885057 0.972664
O O11 0.523901 0.954671 0.886689
O O12 0.250000 0.750000 0.836695
O O13 0.912305 0.711391 0.842446
#
# Coordination Sequence:
#
# PCOD9389806 Si02
#       6
#     8   8   8   8   8   8
#     4  12  24  36  61 105 145 179 235 308 375 413
#     4  10  18  39  70  93 124 184 259 277 341 438
#     4  11  20  39  65  93 132 193 241 282 348 458
#     4  11  22  39  63  94 142 180 230 305 361 422
#     4  11  20  40  66  96 132 187 246 290 350 444
#     4  11  22  40  60  95 140 184 232 293 365 437
#
# _framework density 25.242138000000001
#
# number of rings (size 3 to 8) (size 9 to 14) (size 15 to 20)
#    0.000    1.000    6.667    3.000    0.000    0.667 
#    0.000    3.333    0.000    8.000    0.000    0.000 
#    0.000    0.000    0.000    0.000    0.000    0.000 
#
# Total GULP energy -267472.671523 kJ/mol
# GULP energy per Si atom -5572.347323 kJ/mol
# Density = 2.518469 g / cm^3
# Si number density = 25.242138 Si / 1000 Ang^3
#
#
#
# Elastic Constant Matrix: (Units=GPa)
#
#
# Indices 1 2 3 4 5 6 
#
# 1 130.1425 14.1682 42.4465 0.0000 0.0000 0.0000
# 2 14.1682 35.9456 25.2872 0.0000 0.0000 0.0000
# 3 42.4465 25.2872 181.3106 0.0000 0.0000 0.0000
# 4 0.0000 0.0000 0.0000 14.9123 0.0000 0.0000
# 5 0.0000 0.0000 0.0000 0.0000 -9.5305 0.0000
# 6 0.0000 0.0000 0.0000 0.0000 0.0000 39.3093
#
#
#
# Elastic Compliance Matrix: (Units=1/GPa)
#
#
# Indices 1 2 3 4 5 6 
#
# 1 0.008467 -0.002154 -0.001682 0.000000 0.000000 0.000000
# 2 -0.002154 0.031394 -0.003874 0.000000 0.000000 0.000000
# 3 -0.001682 -0.003874 0.006449 0.000000 0.000000 0.000000
# 4 0.000000 0.000000 0.000000 0.067059 0.000000 0.000000
# 5 0.000000 0.000000 0.000000 0.000000 -0.104926 0.000000
# 6 0.000000 0.000000 0.000000 0.000000 0.000000 0.025439
#
#
# Mechanical properties :
#
#
# Convention : Reuss Voigt Hill
#
# Bulk Modulus (GPa) = 32.37253 56.80029 44.58641
# Shear Modulus (GPa) = 83.89322 26.63800 55.26561
#
# Velocity S-wave (km/s) = 5.77127 3.25206 4.68420
# Velocity P-wave (km/s) = 7.56721 6.05411 6.85255
#
# Compressibility (1/GPa) = 0.03089039
#
# Stress axis : x y z
#
# Youngs Moduli (GPa) = 118.10673 31.85284 155.05224
#
# Poissons Ratio (x) = 0.06862 0.26076
# Poissons Ratio (y) = 0.25443 0.60071
# Poissons Ratio (z) = 0.19862 0.12340
#
# Static dielectric constant tensor:
#      x y z
#    x 2.115660 0.000000 0.000000 
#    y 0.000000 2.419630 0.000000 
#    z 0.000000 0.000000 2.064270 
# 
# From -- ./inp_files/30264.got.cif
#   From: 2010.05.17/outbox.cif.g08.bks.cpg/sg48_16_cif.got.tgz:30264.got - 2010.06.03 20:39:00.
