data_PCOD9389197
_publ_section_title
;
Structure prediction by ZEFSAII (Michael W. Deem and Ramdas Pophale) SiO2 
 PCOD9389197
Probable space group: P M M M
;
_chemical_formula_sum "Si O2"
_cell_formula_units_Z 36
_cell_length_a 17.250607
_cell_length_b 13.235822
_cell_length_c 7.408393
_cell_angle_alpha 90.000000
_cell_angle_beta 90.000000
_cell_angle_gamma 90.000000
_cell_volume 1691.528471
_symmetry_space_group_name_H-M "P M M M"
_symmetry_group_IT_number 47
_symmetry_cell_setting 'orthorhombic'
loop_
_space_group_symop_operation_xyz
x,y,z
-x,-y,z
x,-y,-z
-x,y,-z
-x,-y,-z
x,y,-z
-x,y,z
x,-y,z
loop_
_atom_site_type_symbol
_atom_site_label
_atom_site_fract_x
_atom_site_fract_y
_atom_site_fract_z
Si Si1 0.416457 0.668508 0.780916
Si Si2 0.911339 0.000000 0.720332
Si Si3 0.756794 0.391197 0.289371
Si Si4 0.381580 0.108748 0.210783
Si Si5 0.207525 0.169904 0.719006
O O1 0.500000 0.625299 0.727234
O O2 0.336765 0.618331 0.720253
O O3 0.412838 0.785329 0.717108
O O4 0.413539 0.667618 0.000000
O O5 0.863203 0.099232 0.776443
O O6 0.911542 0.000000 0.500000
O O7 0.000000 0.000000 0.780308
O O8 0.778266 0.392836 0.500000
O O9 0.779214 0.500000 0.210211
O O10 0.790573 0.286003 0.215139
O O11 0.288649 0.120000 0.223850
O O12 0.404250 0.000000 0.288850
O O13 0.403344 0.107193 0.000000
O O14 0.208367 0.171868 0.500000
#
# Coordination Sequence:
#
# PCOD9389197 Si02
#       5
#     8   4   8   8   8
#     4   9  18  30  42  60  86 114 146 184 224 262
#     4   9  16  26  45  73  96 113 136 168 209 255
#     4   9  18  31  46  63  83 112 149 184 217 252
#     4   9  16  26  42  62  85 114 145 178 215 256
#     4   9  16  28  46  65  87 114 143 174 207 252
#
# _framework density 21.282525
#
# number of rings (size 3 to 8) (size 9 to 14) (size 15 to 20)
#    0.000    3.000    1.111    0.000    0.000    1.778 
#    0.000    4.444    0.000    2.000    0.000   10.889 
#    0.000    0.000    0.000   11.111    0.000   11.556 
#
# Total GULP energy -200796.744359 kJ/mol
# GULP energy per Si atom -5577.687343 kJ/mol
# Density = 2.123409 g / cm^3
# Si number density = 21.282525 Si / 1000 Ang^3
#
#
#
# Elastic Constant Matrix: (Units=GPa)
#
#
# Indices 1 2 3 4 5 6 
#
# 1 121.8035 49.3641 -4.8504 0.0000 0.0000 0.0000
# 2 49.3641 187.7043 5.4591 0.0000 0.0000 0.0000
# 3 -4.8504 5.4591 74.5191 0.0000 0.0000 0.0000
# 4 0.0000 0.0000 0.0000 1.5191 0.0000 0.0000
# 5 0.0000 0.0000 0.0000 0.0000 8.6003 0.0000
# 6 0.0000 0.0000 0.0000 0.0000 0.0000 0.5839
#
#
#
# Elastic Compliance Matrix: (Units=1/GPa)
#
#
# Indices 1 2 3 4 5 6 
#
# 1 0.009234 -0.002451 0.000781 0.000000 0.000000 0.000000
# 2 -0.002451 0.005990 -0.000598 0.000000 0.000000 0.000000
# 3 0.000781 -0.000598 0.013514 0.000000 0.000000 0.000000
# 4 0.000000 0.000000 0.000000 0.658298 0.000000 0.000000
# 5 0.000000 0.000000 0.000000 0.000000 0.116274 0.000000
# 6 0.000000 0.000000 0.000000 0.000000 0.000000 1.712578
#
#
# Mechanical properties :
#
#
# Convention : Reuss Voigt Hill
#
# Bulk Modulus (GPa) = 41.32202 53.77470 47.54836
# Shear Modulus (GPa) = 1.97746 24.41094 13.19420
#
# Velocity S-wave (km/s) = 0.96497 3.39040 2.49259
# Velocity P-wave (km/s) = 4.54969 6.37561 5.53841
#
# Compressibility (1/GPa) = 0.02420017
#
# Stress axis : x y z
#
# Youngs Moduli (GPa) = 108.28987 166.95648 73.99720
#
# Poissons Ratio (x) = 0.40925 -0.05777
# Poissons Ratio (y) = 0.26545 0.04428
# Poissons Ratio (z) = -0.08454 0.09990
#
# Static dielectric constant tensor:
#      x y z
#    x 1.715110 0.000000 0.000000 
#    y 0.000000 1.823810 0.000000 
#    z 0.000000 0.000000 1.812050 
# 
# From -- ./inp_files/5544.got.cif
#   From: 2010.05.17/outbox.cif.g08.bks.cpg/sg47_3_cif.got.tgz:5544.got - 2010.06.03 20:15:42.
