data_PCOD9389824
_publ_section_title
;
Structure prediction by ZEFSAII (Michael W. Deem and Ramdas Pophale) SiO2 
 PCOD9389824
Probable space group: P N N N
;
_chemical_formula_sum "Si O2"
_cell_formula_units_Z 58
_cell_length_a 21.144816
_cell_length_b 5.510111
_cell_length_c 23.583776
_cell_angle_alpha 90.000000
_cell_angle_beta 90.000000
_cell_angle_gamma 90.000000
_cell_volume 2747.752422
_symmetry_space_group_name_H-M "P N N N"
_symmetry_group_IT_number 48
_space_group.IT_coordinate_system_code '2'
_symmetry_cell_setting 'orthorhombic'
loop_
_space_group_symop_operation_xyz
x,y,z
1/2-x,1/2-y,z
x,1/2-y,1/2-z
1/2-x,y,1/2-z
-x,-y,-z
1/2+x,1/2+y,-z
-x,1/2+y,1/2+z
1/2+x,-y,1/2+z
loop_
_atom_site_type_symbol
_atom_site_label
_atom_site_fract_x
_atom_site_fract_y
_atom_site_fract_z
Si Si1 0.822854 0.736973 0.473513
Si Si2 0.616205 0.729356 0.140860
Si Si3 0.750000 0.250000 0.750000
Si Si4 0.482744 0.770765 0.427049
Si Si5 0.054541 0.231825 0.370141
Si Si6 0.895568 0.263844 0.024113
Si Si7 0.081844 0.769373 0.660454
Si Si8 0.686658 0.858244 0.813163
O O1 0.750000 0.750000 0.491484
O O2 0.827585 0.737434 0.404519
O O3 0.855153 0.479121 0.490082
O O4 0.859989 0.983847 0.491643
O O5 0.553776 0.722417 0.098327
O O6 0.613305 0.483662 0.176790
O O7 0.610227 0.972951 0.177158
O O8 0.797871 0.369279 0.795597
O O9 0.455395 0.518574 0.403696
O O10 0.463148 0.759176 0.492872
O O11 0.450487 0.014539 0.403288
O O12 0.122806 0.205706 0.343228
O O13 0.993171 0.238446 0.328736
O O14 0.907368 0.271208 0.091525
O O15 0.750000 0.750000 0.841476
O O16 0.683921 0.750000 0.750000
#
# Coordination Sequence:
#
# PCOD9389824 Si02
#       8
#     8   8   2   8   8   8   8   8
#     4  10  19  30  44  59  82 116 156 194 223 261
#     4   8  16  28  43  62  81 108 147 183 226 266
#     4   8  18  36  60  70  84 124 166 188 240 308
#     4  10  20  32  48  69  89 119 152 194 235 277
#     4  10  20  32  50  72  91 109 150 196 237 271
#     4  10  19  32  48  62  89 123 160 188 227 285
#     4   8  16  28  45  68  87 113 146 188 226 265
#     4   9  20  36  55  73  90 123 158 197 240 300
#
# _framework density 21.108160000000002
#
# number of rings (size 3 to 8) (size 9 to 14) (size 15 to 20)
#    0.000    2.897    0.000    1.241    3.862    9.931 
#    0.000    4.138    0.000    0.000    0.000    0.000 
#    0.000    0.000    0.000    0.000    0.000  335.172 
#
# Total GULP energy -322905.369316 kJ/mol
# GULP energy per Si atom -5567.333954 kJ/mol
# Density = 2.106012 g / cm^3
# Si number density = 21.108160 Si / 1000 Ang^3
#
#
#
# Elastic Constant Matrix: (Units=GPa)
#
#
# Indices 1 2 3 4 5 6 
#
# 1 78.8192 27.1619 8.2888 0.0000 0.0000 0.0000
# 2 27.1619 189.1496 8.0949 0.0000 0.0000 0.0000
# 3 8.2888 8.0949 19.6868 0.0000 0.0000 0.0000
# 4 0.0000 0.0000 0.0000 22.6499 0.0000 0.0000
# 5 0.0000 0.0000 0.0000 0.0000 -13.3287 0.0000
# 6 0.0000 0.0000 0.0000 0.0000 0.0000 28.3399
#
#
#
# Elastic Compliance Matrix: (Units=1/GPa)
#
#
# Indices 1 2 3 4 5 6 
#
# 1 0.013833 -0.001768 -0.005097 0.000000 0.000000 0.000000
# 2 -0.001768 0.005608 -0.001561 0.000000 0.000000 0.000000
# 3 -0.005097 -0.001561 0.053583 0.000000 0.000000 0.000000
# 4 0.000000 0.000000 0.000000 0.044150 0.000000 0.000000
# 5 0.000000 0.000000 0.000000 0.000000 -0.075026 0.000000
# 6 0.000000 0.000000 0.000000 0.000000 0.000000 0.035286
#
#
# Mechanical properties :
#
#
# Convention : Reuss Voigt Hill
#
# Bulk Modulus (GPa) = 17.80287 41.63853 29.72070
# Shear Modulus (GPa) = 44.24374 23.80620 34.02497
#
# Velocity S-wave (km/s) = 4.58323 3.36195 4.01925
# Velocity P-wave (km/s) = 6.03825 5.90249 5.97075
#
# Compressibility (1/GPa) = 0.05617071
#
# Stress axis : x y z
#
# Youngs Moduli (GPa) = 72.29288 178.33082 18.66252
#
# Poissons Ratio (x) = 0.31533 0.09512
# Poissons Ratio (y) = 0.12783 0.02914
# Poissons Ratio (z) = 0.36847 0.27842
#
# Static dielectric constant tensor:
#      x y z
#    x 1.771330 0.000000 0.000000 
#    y 0.000000 1.780580 0.000000 
#    z 0.000000 0.000000 1.768380 
# 
# From -- ./inp_files/7121.got.cif
#   From: 2010.05.17/outbox.cif.g08.bks.cpg/sg48_4_cif.got.tgz:7121.got - 2010.06.03 20:39:00.
