data_PCOD9389232
_publ_section_title
;
Structure prediction by ZEFSAII (Michael W. Deem and Ramdas Pophale) SiO2 
 PCOD9389232
Probable space group: P M M M
;
_chemical_formula_sum "Si O2"
_cell_formula_units_Z 64
_cell_length_a 30.000000
_cell_length_b 9.000000
_cell_length_c 15.000000
_cell_angle_alpha 90.000000
_cell_angle_beta 90.000000
_cell_angle_gamma 90.000000
_cell_volume 4050.000000
_symmetry_space_group_name_H-M "P M M M"
_symmetry_group_IT_number 47
_symmetry_cell_setting 'orthorhombic'
loop_
_space_group_symop_operation_xyz
x,y,z
-x,-y,z
x,-y,-z
-x,y,-z
-x,-y,-z
x,y,-z
-x,y,z
x,-y,z
loop_
_atom_site_type_symbol
_atom_site_label
_atom_site_fract_x
_atom_site_fract_y
_atom_site_fract_z
Si Si1 0.242092 0.677239 0.599166
Si Si2 0.219397 0.177725 0.219724
Si Si3 0.380358 0.324967 0.233777
Si Si4 0.048207 0.326931 0.108153
Si Si5 0.137194 0.822020 0.898165
Si Si6 0.551760 0.319460 0.904122
Si Si7 0.703895 0.674447 0.895669
Si Si8 0.661187 0.174438 0.599559
O O1 0.225018 0.716044 0.500000
O O2 0.241339 0.500000 0.608711
O O3 0.218754 0.753145 0.682404
O O4 0.292916 0.734191 0.603657
O O5 0.176682 0.228604 0.164284
O O6 0.261298 0.231990 0.161856
O O7 0.220284 0.000000 0.226179
O O8 0.384172 0.500000 0.256875
O O9 0.423635 0.266631 0.183188
O O10 0.342234 0.313710 0.157963
O O11 0.368644 0.233837 0.320954
O O12 0.053250 0.500000 0.131086
O O13 0.090103 0.233478 0.137374
O O14 0.000000 0.273805 0.140018
O O15 0.047543 0.318883 0.000000
O O16 0.137514 0.000000 0.900954
O O17 0.143593 0.768158 0.000000
O O18 0.500000 0.283210 0.902168
O O19 0.555797 0.500000 0.903491
O O20 0.570580 0.269437 0.000000
O O21 0.716808 0.500000 0.893278
O O22 0.701153 0.718101 0.000000
O O23 0.642163 0.194681 0.500000
O O24 0.671264 0.000000 0.611172
#
# Coordination Sequence:
#
# PCOD9389232 Si02
#       8
#     8   8   8   8   8   8   8   8
#     4  10  20  34  51  69  89 115 151 194 236 277
#     4  11  21  32  46  65  93 126 158 191 227 271
#     4  10  18  29  48  72  95 119 152 192 229 270
#     4   8  14  25  41  61  84 112 151 197 237 270
#     4   9  18  30  42  60  89 125 160 190 223 265
#     4   8  14  26  46  72  99 124 150 184 227 271
#     4  10  20  31  43  63  92 125 158 190 224 265
#     4  10  20  33  49  69  92 118 149 186 231 280
#
# _framework density 15.802469
#
# number of rings (size 3 to 8) (size 9 to 14) (size 15 to 20)
#    0.000    2.500    1.250    2.625    0.000    5.000 
#    0.000    2.500    0.000    1.875    0.000    3.500 
#    0.000    0.500    0.000    5.500    0.000    4.250 
#
# Total GULP energy -356370.842007 kJ/mol
# GULP energy per Si atom -5568.294406 kJ/mol
# Density = 1.576650 g / cm^3
# Si number density = 15.802469 Si / 1000 Ang^3
#
#
#
# Elastic Constant Matrix: (Units=GPa)
#
#
# Indices 1 2 3 4 5 6 
#
# 1 46.4838 17.1608 37.9861 0.0000 0.0000 0.0000
# 2 17.1608 21.3521 34.9005 0.0000 0.0000 0.0000
# 3 37.9861 34.9005 104.6519 0.0000 0.0000 0.0000
# 4 0.0000 0.0000 0.0000 18.4791 0.0000 0.0000
# 5 0.0000 0.0000 0.0000 0.0000 -63.3896 0.0000
# 6 0.0000 0.0000 0.0000 0.0000 0.0000 11.0923
#
#
#
# Elastic Compliance Matrix: (Units=1/GPa)
#
#
# Indices 1 2 3 4 5 6 
#
# 1 0.032661 -0.015107 -0.006817 0.000000 0.000000 0.000000
# 2 -0.015107 0.109941 -0.031181 0.000000 0.000000 0.000000
# 3 -0.006817 -0.031181 0.022428 0.000000 0.000000 0.000000
# 4 0.000000 0.000000 0.000000 0.054115 0.000000 0.000000
# 5 0.000000 0.000000 0.000000 0.000000 -0.015775 0.000000
# 6 0.000000 0.000000 0.000000 0.000000 0.000000 0.090152
#
#
# Mechanical properties :
#
#
# Convention : Reuss Voigt Hill
#
# Bulk Modulus (GPa) = 17.00090 39.17586 28.08838
# Shear Modulus (GPa) = 11.92351 -1.26760 5.32796
#
# Velocity S-wave (km/s) = 2.74986 -0.89660 1.83818
# Velocity P-wave (km/s) = 4.56772 4.87575 4.72424
#
# Compressibility (1/GPa) = 0.05882042
#
# Stress axis : x y z
#
# Youngs Moduli (GPa) = 30.61771 9.09577 44.58623
#
# Poissons Ratio (x) = 0.13741 0.30394
# Poissons Ratio (y) = 0.46255 1.39024
# Poissons Ratio (z) = 0.20872 0.28361
#
# Static dielectric constant tensor:
#      x y z
#    x 1.548400 0.000000 0.000000 
#    y 0.000000 1.533530 0.000000 
#    z 0.000000 0.000000 1.531980 
# 
# From -- ./inp_files/8245.got.cif
#   From: 2010.05.17/outbox.ucp.g08.bks.cvg/sg47_5_cif.got.tgz:8245.got - 2010.06.11 16:36:43.
