data_PCOD9389230
_publ_section_title
;
Structure prediction by ZEFSAII (Michael W. Deem and Ramdas Pophale) SiO2 
 PCOD9389230
Probable space group: P M M M
;
_chemical_formula_sum "Si O2"
_cell_formula_units_Z 64
_cell_length_a 21.000000
_cell_length_b 21.000000
_cell_length_c 9.000000
_cell_angle_alpha 90.000000
_cell_angle_beta 90.000000
_cell_angle_gamma 90.000000
_cell_volume 3969.000000
_symmetry_space_group_name_H-M "P M M M"
_symmetry_group_IT_number 47
_symmetry_cell_setting 'orthorhombic'
loop_
_space_group_symop_operation_xyz
x,y,z
-x,-y,z
x,-y,-z
-x,y,-z
-x,-y,-z
x,y,-z
-x,y,z
x,-y,z
loop_
_atom_site_type_symbol
_atom_site_label
_atom_site_fract_x
_atom_site_fract_y
_atom_site_fract_z
Si Si1 0.245949 0.210812 0.679733
Si Si2 0.888091 0.247277 0.824635
Si Si3 0.680875 0.334958 0.679740
Si Si4 0.929171 0.103365 0.824026
Si Si5 0.794874 0.429079 0.680569
Si Si6 0.575209 0.426264 0.179230
Si Si7 0.069652 0.375686 0.679426
Si Si8 0.794768 0.929210 0.678943
O O1 0.240897 0.213376 0.500000
O O2 0.181141 0.238078 0.750656
O O3 0.302443 0.260966 0.720113
O O4 0.244712 0.135133 0.722842
O O5 0.923832 0.179917 0.808297
O O6 0.923085 0.305021 0.744498
O O7 0.881802 0.260275 0.000000
O O8 0.674844 0.337288 0.500000
O O9 0.743278 0.376362 0.724528
O O10 0.620818 0.372654 0.749179
O O11 0.866784 0.077279 0.741461
O O12 0.000000 0.082755 0.773891
O O13 0.923773 0.088548 0.000000
O O14 0.795195 0.428948 0.500000
O O15 0.776612 0.500000 0.730259
O O16 0.866901 0.412936 0.728471
O O17 0.500000 0.416705 0.215351
O O18 0.591657 0.500000 0.223543
O O19 0.581072 0.423090 0.000000
O O20 0.071695 0.372952 0.500000
O O21 0.000000 0.402127 0.721507
O O22 0.797660 0.927974 0.500000
O O23 0.770350 0.000000 0.723422
#
# Coordination Sequence:
#
# PCOD9389230 Si02
#       8
#     8   8   8   8   8   8   8   8
#     4   9  17  31  49  68  93 119 149 190 233 275
#     4  10  18  29  45  63  84 109 143 190 239 286
#     4  10  18  30  51  74  97 125 159 199 234 267
#     4   9  18  30  42  58  81 110 144 183 232 288
#     4   9  17  29  44  64  89 114 146 190 235 277
#     4   9  19  35  52  73 106 142 167 189 223 270
#     4  10  19  30  44  60  81 112 149 191 242 291
#     4   9  18  31  46  64  87 116 148 184 230 284
#
# _framework density 16.124969
#
# number of rings (size 3 to 8) (size 9 to 14) (size 15 to 20)
#    0.000    2.625    1.250    1.500    0.000    3.750 
#    0.000    3.125    0.000    0.375    0.000    0.875 
#    0.000    0.500    0.000    6.250    0.000    1.000 
#
# Total GULP energy -356486.865436 kJ/mol
# GULP energy per Si atom -5570.107272 kJ/mol
# Density = 1.608827 g / cm^3
# Si number density = 16.124969 Si / 1000 Ang^3
#
#
#
# Elastic Constant Matrix: (Units=GPa)
#
#
# Indices 1 2 3 4 5 6 
#
# 1 82.4715 48.7211 15.1006 0.0000 0.0000 0.0000
# 2 48.7211 117.0472 13.6677 0.0000 0.0000 0.0000
# 3 15.1006 13.6677 7.5443 0.0000 0.0000 0.0000
# 4 0.0000 0.0000 0.0000 16.4504 0.0000 0.0000
# 5 0.0000 0.0000 0.0000 0.0000 19.4308 0.0000
# 6 0.0000 0.0000 0.0000 0.0000 0.0000 17.4573
#
#
#
# Elastic Compliance Matrix: (Units=1/GPa)
#
#
# Indices 1 2 3 4 5 6 
#
# 1 0.021141 -0.004894 -0.033450 0.000000 0.000000 0.000000
# 2 -0.004894 0.011969 -0.011887 0.000000 0.000000 0.000000
# 3 -0.033450 -0.011887 0.221038 0.000000 0.000000 0.000000
# 4 0.000000 0.000000 0.000000 0.060789 0.000000 0.000000
# 5 0.000000 0.000000 0.000000 0.000000 0.051465 0.000000
# 6 0.000000 0.000000 0.000000 0.000000 0.000000 0.057283
#
#
# Mechanical properties :
#
#
# Convention : Reuss Voigt Hill
#
# Bulk Modulus (GPa) = 6.50679 40.22689 23.36684
# Shear Modulus (GPa) = 8.68999 19.30594 13.99796
#
# Velocity S-wave (km/s) = 2.32397 3.46391 2.94954
# Velocity P-wave (km/s) = 3.35337 6.40307 5.11099
#
# Compressibility (1/GPa) = 0.15368551
#
# Stress axis : x y z
#
# Youngs Moduli (GPa) = 47.30060 83.55005 4.52412
#
# Poissons Ratio (x) = 0.40891 0.15133
# Poissons Ratio (y) = 0.23150 0.05378
# Poissons Ratio (z) = 1.58219 0.99318
#
# Static dielectric constant tensor:
#      x y z
#    x 1.529890 0.000000 0.000000 
#    y 0.000000 1.580510 0.000000 
#    z 0.000000 0.000000 1.535600 
# 
# From -- ./inp_files/11868.got.cif
#   From: 2010.05.17/outbox.ucp.g08.bks.cvg/sg47_6_cif.got.tgz:11868.got - 2010.06.11 16:36:43.
