data_PCOD9389420
_publ_section_title
;
Structure prediction by ZEFSAII (Michael W. Deem and Ramdas Pophale) SiO2 
 PCOD9389420
Probable space group: P M M M
;
_chemical_formula_sum "Si O2"
_cell_formula_units_Z 56
_cell_length_a 21.000000
_cell_length_b 15.000000
_cell_length_c 9.000000
_cell_angle_alpha 90.000000
_cell_angle_beta 90.000000
_cell_angle_gamma 90.000000
_cell_volume 2835.000000
_symmetry_space_group_name_H-M "P M M M"
_symmetry_group_IT_number 47
_symmetry_cell_setting 'orthorhombic'
loop_
_space_group_symop_operation_xyz
x,y,z
-x,-y,z
x,-y,-z
-x,y,-z
-x,-y,-z
x,y,-z
-x,y,z
x,-y,z
loop_
_atom_site_type_symbol
_atom_site_label
_atom_site_fract_x
_atom_site_fract_y
_atom_site_fract_z
Si Si1 0.300762 0.393995 0.333872
Si Si2 0.569774 0.142148 0.829485
Si Si3 0.299445 0.105928 0.334546
Si Si4 0.073269 0.762025 0.679477
Si Si5 0.163273 0.602409 0.318498
Si Si6 0.568689 0.356452 0.169994
Si Si7 0.171578 0.106779 0.174686
O O1 0.308044 0.357074 0.500000
O O2 0.291479 0.500000 0.344848
O O3 0.233157 0.363480 0.267277
O O4 0.366361 0.380504 0.249714
O O5 0.500000 0.110839 0.775453
O O6 0.631293 0.119048 0.735280
O O7 0.567151 0.249265 0.832587
O O8 0.577646 0.111300 0.000000
O O9 0.296181 0.144239 0.500000
O O10 0.240259 0.137951 0.236691
O O11 0.290961 0.000000 0.344567
O O12 0.074436 0.765594 0.500000
O O13 0.108187 0.670297 0.725219
O O14 0.115529 0.842020 0.742265
O O15 0.000000 0.765602 0.727951
O O16 0.166538 0.601869 0.500000
O O17 0.152308 0.500000 0.271425
O O18 0.500000 0.386388 0.234439
O O19 0.571380 0.387951 0.000000
O O20 0.166130 0.000000 0.197030
O O21 0.168463 0.124256 0.000000
#
# Coordination Sequence:
#
# PCOD9389420 Si02
#       7
#     8   8   8   8   8   8   8
#     4   9  18  32  50  73 101 135 177 224 271 319
#     4   9  19  35  52  73 105 144 184 224 269 324
#     4  10  21  36  55  80 108 138 177 227 279 328
#     4  10  21  36  58  90 120 147 184 229 279 332
#     4   8  16  33  55  81 115 150 184 225 273 328
#     4   9  19  34  49  69 100 136 176 223 270 316
#     4  10  22  40  60  82 112 151 192 232 277 335
#
# _framework density 19.753086
#
# number of rings (size 3 to 8) (size 9 to 14) (size 15 to 20)
#    0.000    2.714    0.000    2.571    2.000    4.571 
#    0.000    7.143    0.000    1.286    0.000    1.000 
#    0.000    0.000    0.000    0.000    0.000    0.000 
#
# Total GULP energy -312133.473078 kJ/mol
# GULP energy per Si atom -5573.812019 kJ/mol
# Density = 1.970813 g / cm^3
# Si number density = 19.753086 Si / 1000 Ang^3
#
#
#
# Elastic Constant Matrix: (Units=GPa)
#
#
# Indices 1 2 3 4 5 6 
#
# 1 197.0195 33.5949 62.8445 0.0000 0.0000 0.0000
# 2 33.5949 53.4944 24.4231 0.0000 0.0000 0.0000
# 3 62.8445 24.4231 40.0977 0.0000 0.0000 0.0000
# 4 0.0000 0.0000 0.0000 17.7113 0.0000 0.0000
# 5 0.0000 0.0000 0.0000 0.0000 134.1794 0.0000
# 6 0.0000 0.0000 0.0000 0.0000 0.0000 36.7323
#
#
#
# Elastic Compliance Matrix: (Units=1/GPa)
#
#
# Indices 1 2 3 4 5 6 
#
# 1 0.010209 0.001238 -0.016754 0.000000 0.000000 0.000000
# 2 0.001238 0.026044 -0.017804 0.000000 0.000000 0.000000
# 3 -0.016754 -0.017804 0.062041 0.000000 0.000000 0.000000
# 4 0.000000 0.000000 0.000000 0.056461 0.000000 0.000000
# 5 0.000000 0.000000 0.000000 0.000000 0.007453 0.000000
# 6 0.000000 0.000000 0.000000 0.000000 0.000000 0.027224
#
#
# Mechanical properties :
#
#
# Convention : Reuss Voigt Hill
#
# Bulk Modulus (GPa) = 31.59036 59.14852 45.36944
# Shear Modulus (GPa) = 18.75306 49.04119 33.89712
#
# Velocity S-wave (km/s) = 3.08453 4.98809 4.14701
# Velocity P-wave (km/s) = 5.35846 7.94881 6.77852
#
# Compressibility (1/GPa) = 0.03165523
#
# Stress axis : x y z
#
# Youngs Moduli (GPa) = 97.95622 38.39592 16.11830
#
# Poissons Ratio (x) = -0.04753 0.27004
# Poissons Ratio (y) = -0.12126 0.28696
# Poissons Ratio (z) = 1.64115 0.68359
#
# Static dielectric constant tensor:
#      x y z
#    x 1.707590 0.000000 0.000000 
#    y 0.000000 1.723420 0.000000 
#    z 0.000000 0.000000 1.696220 
# 
# From -- ./inp_files/7221.got.cif
#   From: 2010.05.17/outbox.ucp.g08.bks.cvg/sg47_4_cif.got.tgz:7221.got - 2010.06.11 16:36:43.
