data_PCOD9389733
_publ_section_title
;
Structure prediction by ZEFSAII (Michael W. Deem and Ramdas Pophale) SiO2 
 PCOD9389733
Probable space group: P N N N
;
_chemical_formula_sum "Si O2"
_cell_formula_units_Z 36
_cell_length_a 13.008806
_cell_length_b 17.427201
_cell_length_c 8.259350
_cell_angle_alpha 90.000000
_cell_angle_beta 90.000000
_cell_angle_gamma 90.000000
_cell_volume 1872.453096
_symmetry_space_group_name_H-M "P N N N"
_symmetry_group_IT_number 48
_space_group.IT_coordinate_system_code '2'
_symmetry_cell_setting 'orthorhombic'
loop_
_space_group_symop_operation_xyz
x,y,z
1/2-x,1/2-y,z
x,1/2-y,1/2-z
1/2-x,y,1/2-z
-x,-y,-z
1/2+x,1/2+y,-z
-x,1/2+y,1/2+z
1/2+x,-y,1/2+z
loop_
_atom_site_type_symbol
_atom_site_label
_atom_site_fract_x
_atom_site_fract_y
_atom_site_fract_z
Si Si1 0.250000 0.564339 0.250000
Si Si2 0.750000 0.250000 0.250000
Si Si3 0.135658 0.618657 0.550453
Si Si4 0.750000 0.986307 0.250000
Si Si5 0.893959 0.544439 0.966244
Si Si6 0.250000 0.250000 0.250000
Si Si7 0.438810 0.331657 0.198489
O O1 0.178075 0.612594 0.369780
O O2 0.176529 0.510653 0.143568
O O3 0.814054 0.307842 0.363045
O O4 0.177244 0.543524 0.645118
O O5 0.013302 0.626008 0.574807
O O6 0.825942 0.941990 0.372422
O O7 0.922186 0.617871 0.858591
O O8 0.000000 0.500000 0.000000
O O9 0.325016 0.304421 0.146110
O O10 0.486589 0.250000 0.250000
#
# Coordination Sequence:
#
# PCOD9389733 Si02
#       7
#     4   2   8   4   8   2   8
#     4  10  25  37  61  98 127 154 220 274 330 369
#     4  10  18  34  64  82 126 158 200 248 338 396
#     4  10  19  37  60  93 121 164 204 267 327 388
#     4   9  20  37  62  89 127 156 212 278 323 362
#     4  11  21  41  62  95 126 168 215 276 321 396
#     4   8  20  36  56  92 118 168 218 252 292 420
#     4  10  20  37  62  90 123 175 216 253 323 398
#
# _framework density 19.226115
#
# number of rings (size 3 to 8) (size 9 to 14) (size 15 to 20)
#    0.667    1.333    3.333    0.667    0.000    1.333 
#    4.000    0.000    0.000    3.333    0.000    0.000 
#    0.000    0.000    0.000    0.000    0.000    0.000 
#
# Total GULP energy -200520.010017 kJ/mol
# GULP energy per Si atom -5570.000278 kJ/mol
# Density = 1.918236 g / cm^3
# Si number density = 19.226115 Si / 1000 Ang^3
#
#
#
# Elastic Constant Matrix: (Units=GPa)
#
#
# Indices 1 2 3 4 5 6 
#
# 1 144.9552 33.7538 61.8221 0.0000 0.0000 0.0000
# 2 33.7538 81.1602 42.4471 0.0000 0.0000 0.0000
# 3 61.8221 42.4471 118.1455 0.0000 0.0000 0.0000
# 4 0.0000 0.0000 0.0000 0.5835 0.0000 0.0000
# 5 0.0000 0.0000 0.0000 0.0000 39.8671 0.0000
# 6 0.0000 0.0000 0.0000 0.0000 0.0000 35.4086
#
#
#
# Elastic Compliance Matrix: (Units=1/GPa)
#
#
# Indices 1 2 3 4 5 6 
#
# 1 0.009043 -0.001584 -0.004163 0.000000 0.000000 0.000000
# 2 -0.001584 0.015450 -0.004722 0.000000 0.000000 0.000000
# 3 -0.004163 -0.004722 0.012339 0.000000 0.000000 0.000000
# 4 0.000000 0.000000 0.000000 1.713750 0.000000 0.000000
# 5 0.000000 0.000000 0.000000 0.000000 0.025083 0.000000
# 6 0.000000 0.000000 0.000000 0.000000 0.000000 0.028242
#
#
# Mechanical properties :
#
#
# Convention : Reuss Voigt Hill
#
# Bulk Modulus (GPa) = 62.91562 68.92298 65.91930
# Shear Modulus (GPa) = 2.73203 28.92103 15.82653
#
# Velocity S-wave (km/s) = 1.19335 3.88268 2.87222
# Velocity P-wave (km/s) = 5.89015 7.48510 6.73501
#
# Compressibility (1/GPa) = 0.01589430
#
# Stress axis : x y z
#
# Youngs Moduli (GPa) = 110.58410 64.72669 81.04382
#
# Poissons Ratio (x) = 0.10250 0.33738
# Poissons Ratio (y) = 0.17512 0.38269
# Poissons Ratio (z) = 0.46035 0.30564
#
# Static dielectric constant tensor:
#      x y z
#    x 1.728890 0.000000 0.000000 
#    y 0.000000 1.680040 0.000000 
#    z 0.000000 0.000000 1.666440 
# 
# From -- ./inp_files/10962.got.cif
#   From: 2010.05.17/outbox.cif.g08.bks.cpg/sg48_6_cif.got.tgz:10962.got - 2010.06.03 20:39:00.
