data_PCOD9389425
_publ_section_title
;
Structure prediction by ZEFSAII (Michael W. Deem and Ramdas Pophale) SiO2 
 PCOD9389425
Probable space group: P M M M
;
_chemical_formula_sum "Si O2"
_cell_formula_units_Z 56
_cell_length_a 21.000000
_cell_length_b 15.000000
_cell_length_c 9.000000
_cell_angle_alpha 90.000000
_cell_angle_beta 90.000000
_cell_angle_gamma 90.000000
_cell_volume 2835.000000
_symmetry_space_group_name_H-M "P M M M"
_symmetry_group_IT_number 47
_symmetry_cell_setting 'orthorhombic'
loop_
_space_group_symop_operation_xyz
x,y,z
-x,-y,z
x,-y,-z
-x,y,-z
-x,-y,-z
x,y,-z
-x,y,z
x,-y,z
loop_
_atom_site_type_symbol
_atom_site_label
_atom_site_fract_x
_atom_site_fract_y
_atom_site_fract_z
Si Si1 0.925812 0.605303 0.820880
Si Si2 0.929723 0.893120 0.834460
Si Si3 0.422729 0.098453 0.669610
Si Si4 0.573853 0.722705 0.175942
Si Si5 0.803010 0.899980 0.674698
Si Si6 0.805981 0.294470 0.319665
Si Si7 0.320067 0.398191 0.678508
O O1 0.913910 0.500000 0.783227
O O2 0.872386 0.669742 0.749290
O O3 0.000000 0.624805 0.779332
O O4 0.921898 0.613013 0.000000
O O5 0.877849 0.882746 0.707825
O O6 0.000000 0.856588 0.803373
O O7 0.935397 0.000000 0.846687
O O8 0.909323 0.861154 0.000000
O O9 0.402030 0.117144 0.500000
O O10 0.500000 0.094537 0.667670
O O11 0.405671 0.177642 0.777673
O O12 0.399288 0.000000 0.711354
O O13 0.500000 0.710243 0.225328
O O14 0.622485 0.656808 0.252653
O O15 0.575456 0.712647 0.000000
O O16 0.789700 0.904918 0.500000
O O17 0.779253 0.803676 0.729548
O O18 0.787546 0.000000 0.736645
O O19 0.813119 0.291776 0.500000
O O20 0.749356 0.361622 0.279606
O O21 0.324214 0.391730 0.500000
O O22 0.325794 0.500000 0.724037
#
# Coordination Sequence:
#
# PCOD9389425 Si02
#       7
#     8   8   8   8   8   8   8
#     4   9  19  36  57  82 111 141 176 223 280 338
#     4   8  14  25  41  62  90 126 168 211 253 298
#     4   8  14  27  50  80 114 153 194 231 267 313
#     4  10  21  36  56  85 119 151 184 227 277 328
#     4   9  18  32  49  70  99 135 172 212 260 312
#     4  10  21  37  57  81 109 142 183 229 274 324
#     4  10  22  40  60  81 107 141 182 230 284 341
#
# _framework density 19.753086
#
# number of rings (size 3 to 8) (size 9 to 14) (size 15 to 20)
#    0.000    2.857    0.000    2.143    0.000    4.857 
#    0.000    8.571    0.000    2.571    0.000    0.000 
#    0.000    0.000    0.000    0.000    0.000    0.000 
#
# Total GULP energy -311857.027586 kJ/mol
# GULP energy per Si atom -5568.875493 kJ/mol
# Density = 1.970813 g / cm^3
# Si number density = 19.753086 Si / 1000 Ang^3
#
#
#
# Elastic Constant Matrix: (Units=GPa)
#
#
# Indices 1 2 3 4 5 6 
#
# 1 62.4357 43.3678 14.2881 0.0000 0.0000 0.0000
# 2 43.3678 129.8427 22.5079 0.0000 0.0000 0.0000
# 3 14.2881 22.5079 -0.0860 0.0000 0.0000 0.0000
# 4 0.0000 0.0000 0.0000 11.7860 0.0000 0.0000
# 5 0.0000 0.0000 0.0000 0.0000 16.8810 0.0000
# 6 0.0000 0.0000 0.0000 0.0000 0.0000 -48.0442
#
#
#
# Elastic Compliance Matrix: (Units=1/GPa)
#
#
# Indices 1 2 3 4 5 6 
#
# 1 0.016822 -0.010570 0.028561 0.000000 0.000000 0.000000
# 2 -0.010570 0.006807 0.025525 0.000000 0.000000 0.000000
# 3 0.028561 0.025525 -0.202279 0.000000 0.000000 0.000000
# 4 0.000000 0.000000 0.000000 0.084846 0.000000 0.000000
# 5 0.000000 0.000000 0.000000 0.000000 0.059238 0.000000
# 6 0.000000 0.000000 0.000000 0.000000 0.000000 -0.020814
#
#
# Mechanical properties :
#
#
# Convention : Reuss Voigt Hill
#
# Bulk Modulus (GPa) = -10.91499 39.16889 14.12695
# Shear Modulus (GPa) = -28.90976 3.59314 -12.65831
#
# Velocity S-wave (km/s) = -3.82980 1.35018 -2.53420
# Velocity P-wave (km/s) = 5.00941 4.72260 1.18136
#
# Compressibility (1/GPa) = -0.09161709
#
# Stress axis : x y z
#
# Youngs Moduli (GPa) = 59.44575 146.90355 -4.94366
#
# Poissons Ratio (x) = 1.55271 0.14120
# Poissons Ratio (y) = 0.62832 0.12619
# Poissons Ratio (z) = -1.69783 -3.74973
#
# Static dielectric constant tensor:
#      x y z
#    x 1.706250 0.000000 0.000000 
#    y 0.000000 1.758620 0.000000 
#    z 0.000000 0.000000 1.676140 
# 
# From -- ./inp_files/11247.got.cif
#   From: 2010.05.17/outbox.ucp.g08.bks.cvg/sg47_6_cif.got.tgz:11247.got - 2010.06.11 16:36:43.
