data_PCOD9389773
_publ_section_title
;
Structure prediction by ZEFSAII (Michael W. Deem and Ramdas Pophale) SiO2 
 PCOD9389773
Probable space group: P N N N
;
_chemical_formula_sum "Si O2"
_cell_formula_units_Z 56
_cell_length_a 26.938071
_cell_length_b 7.437629
_cell_length_c 11.175731
_cell_angle_alpha 90.000000
_cell_angle_beta 90.000000
_cell_angle_gamma 90.000000
_cell_volume 2239.117810
_symmetry_space_group_name_H-M "P N N N"
_symmetry_group_IT_number 48
_space_group.IT_coordinate_system_code '2'
_symmetry_cell_setting 'orthorhombic'
loop_
_space_group_symop_operation_xyz
x,y,z
1/2-x,1/2-y,z
x,1/2-y,1/2-z
1/2-x,y,1/2-z
-x,-y,-z
1/2+x,1/2+y,-z
-x,1/2+y,1/2+z
1/2+x,-y,1/2+z
loop_
_atom_site_type_symbol
_atom_site_label
_atom_site_fract_x
_atom_site_fract_y
_atom_site_fract_z
Si Si1 0.266768 0.041149 0.623548
Si Si2 0.831384 0.998244 0.805022
Si Si3 0.046211 0.467636 0.714927
Si Si4 0.129931 0.383405 0.551406
Si Si5 0.058400 0.543695 0.211542
Si Si6 0.595784 0.477985 0.453723
Si Si7 0.304008 0.875141 0.070636
O O1 0.250000 0.250000 0.611617
O O2 0.250000 0.969005 0.750000
O O3 0.326149 0.041177 0.631924
O O4 0.238744 0.932529 0.520178
O O5 0.841517 0.887758 0.924430
O O6 0.887545 0.984583 0.753282
O O7 0.810161 0.184978 0.860834
O O8 0.801740 0.980785 0.680795
O O9 0.044860 0.250000 0.750000
O O10 0.078958 0.482048 0.593736
O O11 0.071267 0.567406 0.827739
O O12 0.989095 0.531581 0.717792
O O13 0.116799 0.177192 0.566898
O O14 0.059242 0.750000 0.250000
O O15 0.058109 0.523377 0.067459
O O16 0.644262 0.373171 0.497359
#
# Coordination Sequence:
#
# PCOD9389773 Si02
#       7
#     8   8   8   8   8   8   8
#     4  11  23  40  67  94 125 166 216 270 334 390
#     4  10  22  40  64  88 131 166 208 269 320 385
#     4   9  20  34  59  91 129 162 216 264 325 391
#     4  11  23  38  59  97 124 162 209 277 319 382
#     4  10  18  36  62  89 119 177 211 258 327 392
#     4  10  18  36  62  88 122 163 215 264 313 386
#     4  10  20  41  65  89 123 172 210 259 322 391
#
# _framework density 25.009848999999999
#
# number of rings (size 3 to 8) (size 9 to 14) (size 15 to 20)
#    0.000    1.857    4.286    1.286    4.000    4.000 
#    0.000    5.714    3.143    0.000    0.000    0.000 
#    0.000    0.000    0.000    0.000    0.000    0.000 
#
# Total GULP energy -312186.092005 kJ/mol
# GULP energy per Si atom -5574.751643 kJ/mol
# Density = 2.495293 g / cm^3
# Si number density = 25.009849 Si / 1000 Ang^3
#
#
#
# Elastic Constant Matrix: (Units=GPa)
#
#
# Indices 1 2 3 4 5 6 
#
# 1 115.3917 22.9767 54.0048 0.0000 0.0000 0.0000
# 2 22.9767 40.1761 30.7553 0.0000 0.0000 0.0000
# 3 54.0048 30.7553 128.1537 0.0000 0.0000 0.0000
# 4 0.0000 0.0000 0.0000 17.2208 0.0000 0.0000
# 5 0.0000 0.0000 0.0000 0.0000 41.9304 0.0000
# 6 0.0000 0.0000 0.0000 0.0000 0.0000 20.2859
#
#
#
# Elastic Compliance Matrix: (Units=1/GPa)
#
#
# Indices 1 2 3 4 5 6 
#
# 1 0.011164 -0.003410 -0.003886 0.000000 0.000000 0.000000
# 2 -0.003410 0.031534 -0.006131 0.000000 0.000000 0.000000
# 3 -0.003886 -0.006131 0.010912 0.000000 0.000000 0.000000
# 4 0.000000 0.000000 0.000000 0.058069 0.000000 0.000000
# 5 0.000000 0.000000 0.000000 0.000000 0.023849 0.000000
# 6 0.000000 0.000000 0.000000 0.000000 0.000000 0.049295
#
#
# Mechanical properties :
#
#
# Convention : Reuss Voigt Hill
#
# Bulk Modulus (GPa) = 37.37456 55.46612 46.42034
# Shear Modulus (GPa) = 22.66594 27.61976 25.14285
#
# Velocity S-wave (km/s) = 3.01372 3.32679 3.17411
# Velocity P-wave (km/s) = 5.20446 6.08133 5.65990
#
# Compressibility (1/GPa) = 0.02675617
#
# Stress axis : x y z
#
# Youngs Moduli (GPa) = 89.57463 31.71222 91.64107
#
# Poissons Ratio (x) = 0.10813 0.35614
# Poissons Ratio (y) = 0.30542 0.56183
# Poissons Ratio (z) = 0.34811 0.19442
#
# Static dielectric constant tensor:
#      x y z
#    x 2.037140 0.000000 0.000000 
#    y 0.000000 2.095750 0.000000 
#    z 0.000000 0.000000 2.037430 
# 
# From -- ./inp_files/23372.got.cif
#   From: 2010.05.17/outbox.cif.g08.bks.cpg/sg48_12_cif.got.tgz:23372.got - 2010.06.03 20:39:00.
