data_PCOD9389953
_publ_section_title
;
Structure prediction by ZEFSAII (Michael W. Deem and Ramdas Pophale) SiO2 
 PCOD9389953
Probable space group: P N N N
;
_chemical_formula_sum "Si O2"
_cell_formula_units_Z 58
_cell_length_a 9.930022
_cell_length_b 18.171837
_cell_length_c 16.603481
_cell_angle_alpha 90.000000
_cell_angle_beta 90.000000
_cell_angle_gamma 90.000000
_cell_volume 2996.044039
_symmetry_space_group_name_H-M "P N N N"
_symmetry_group_IT_number 48
_space_group.IT_coordinate_system_code '2'
_symmetry_cell_setting 'orthorhombic'
loop_
_space_group_symop_operation_xyz
x,y,z
1/2-x,1/2-y,z
x,1/2-y,1/2-z
1/2-x,y,1/2-z
-x,-y,-z
1/2+x,1/2+y,-z
-x,1/2+y,1/2+z
1/2+x,-y,1/2+z
loop_
_atom_site_type_symbol
_atom_site_label
_atom_site_fract_x
_atom_site_fract_y
_atom_site_fract_z
Si Si1 0.250000 0.250000 0.250000
Si Si2 0.899237 0.179294 0.712132
Si Si3 0.281625 0.990384 0.067851
Si Si4 0.906120 0.853892 0.621550
Si Si5 0.379980 0.934398 0.780853
Si Si6 0.968274 0.047628 0.819486
Si Si7 0.001880 0.361238 0.947329
Si Si8 0.743481 0.553988 0.103255
O O1 0.167474 0.198734 0.313961
O O2 0.971301 0.250000 0.750000
O O3 0.750000 0.179524 0.750000
O O4 0.951127 0.100944 0.743212
O O5 0.917443 0.185900 0.616743
O O6 0.167260 0.957589 0.127239
O O7 0.409745 0.936317 0.051490
O O8 0.325353 0.069552 0.104197
O O9 0.225791 0.008910 0.979536
O O10 0.957396 0.827209 0.533442
O O11 0.039652 0.881805 0.662902
O O12 0.250000 0.892373 0.750000
O O13 0.481229 0.969058 0.714914
O O14 0.312389 0.001098 0.830927
O O15 0.096105 0.077694 0.868749
O O16 0.147236 0.382889 0.911225
#
# Coordination Sequence:
#
# PCOD9389953 Si02
#       8
#     2   8   8   8   8   8   8   8
#     4  12  28  44  66  88 130 180 218 258 304 400
#     4  11  23  39  59  86 122 173 213 243 302 388
#     4  11  19  36  66  94 117 161 203 269 317 359
#     4  11  22  42  65  91 123 163 215 255 312 382
#     4  10  19  34  63  90 121 153 197 262 318 365
#     4  11  21  33  58  92 129 152 204 259 312 369
#     4  11  20  39  67  89 120 159 209 263 317 364
#     4  10  19  34  56  95 124 147 193 266 326 359
#
# _framework density 19.35886
#
# number of rings (size 3 to 8) (size 9 to 14) (size 15 to 20)
#    0.000    1.241    5.517    2.069    0.000    0.000 
#    4.966    1.034    6.069    0.000    0.000    0.000 
#    0.000    0.000    0.000    0.000    0.000    0.000 
#
# Total GULP energy -322955.836258 kJ/mol
# GULP energy per Si atom -5568.204073 kJ/mol
# Density = 1.931480 g / cm^3
# Si number density = 19.358860 Si / 1000 Ang^3
#
#
#
# Elastic Constant Matrix: (Units=GPa)
#
#
# Indices 1 2 3 4 5 6 
#
# 1 81.2259 15.5487 54.7940 0.0000 0.0000 0.0000
# 2 15.5487 29.9570 20.6973 0.0000 0.0000 0.0000
# 3 54.7940 20.6973 130.8710 0.0000 0.0000 0.0000
# 4 0.0000 0.0000 0.0000 25.2099 0.0000 0.0000
# 5 0.0000 0.0000 0.0000 0.0000 32.1681 0.0000
# 6 0.0000 0.0000 0.0000 0.0000 0.0000 -7.4167
#
#
#
# Elastic Compliance Matrix: (Units=1/GPa)
#
#
# Indices 1 2 3 4 5 6 
#
# 1 0.017696 -0.004565 -0.006687 0.000000 0.000000 0.000000
# 2 -0.004565 0.038653 -0.004202 0.000000 0.000000 0.000000
# 3 -0.006687 -0.004202 0.011106 0.000000 0.000000 0.000000
# 4 0.000000 0.000000 0.000000 0.039667 0.000000 0.000000
# 5 0.000000 0.000000 0.000000 0.000000 0.031087 0.000000
# 6 0.000000 0.000000 0.000000 0.000000 0.000000 -0.134830
#
#
# Mechanical properties :
#
#
# Convention : Reuss Voigt Hill
#
# Bulk Modulus (GPa) = 27.36162 47.12598 37.24380
# Shear Modulus (GPa) = 107.59794 20.05985 63.82889
#
# Velocity S-wave (km/s) = 7.46334 3.22251 5.74830
# Velocity P-wave (km/s) = 9.40389 6.18404 7.95850
#
# Compressibility (1/GPa) = 0.03654755
#
# Stress axis : x y z
#
# Youngs Moduli (GPa) = 56.50899 25.87089 90.04525
#
# Poissons Ratio (x) = 0.11809 0.60216
# Poissons Ratio (y) = 0.25795 0.37836
# Poissons Ratio (z) = 0.37789 0.10871
#
# Static dielectric constant tensor:
#      x y z
#    x 1.711540 0.000000 0.000000 
#    y 0.000000 1.713320 0.000000 
#    z 0.000000 0.000000 1.746810 
# 
# From -- ./inp_files/30479.got.cif
#   From: 2010.05.17/outbox.cif.g08.bks.cpg/sg48_16_cif.got.tgz:30479.got - 2010.06.03 20:39:00.
