data_PCOD9389461
_publ_section_title
;
Structure prediction by ZEFSAII (Michael W. Deem and Ramdas Pophale) SiO2 
 PCOD9389461
Probable space group: P M M M
;
_chemical_formula_sum "Si O2"
_cell_formula_units_Z 36
_cell_length_a 21.000000
_cell_length_b 12.000000
_cell_length_c 9.000000
_cell_angle_alpha 90.000000
_cell_angle_beta 90.000000
_cell_angle_gamma 90.000000
_cell_volume 2268.000000
_symmetry_space_group_name_H-M "P M M M"
_symmetry_group_IT_number 47
_symmetry_cell_setting 'orthorhombic'
loop_
_space_group_symop_operation_xyz
x,y,z
-x,-y,z
x,-y,-z
-x,y,-z
-x,-y,-z
x,y,-z
-x,y,z
x,-y,z
loop_
_atom_site_type_symbol
_atom_site_label
_atom_site_fract_x
_atom_site_fract_y
_atom_site_fract_z
Si Si1 0.210221 0.365344 0.676958
Si Si2 0.657910 0.696813 0.823765
Si Si3 0.069307 0.367474 0.679745
Si Si4 0.424581 0.500000 0.321413
Si Si5 0.572393 0.866411 0.672864
O O1 0.215998 0.343123 0.500000
O O2 0.212699 0.500000 0.694515
O O3 0.270548 0.315366 0.761491
O O4 0.139370 0.326565 0.728732
O O5 0.612615 0.605284 0.745692
O O6 0.625051 0.811937 0.776062
O O7 0.657834 0.680777 0.000000
O O8 0.069643 0.357112 0.500000
O O9 0.068819 0.500000 0.711590
O O10 0.000000 0.322611 0.732141
O O11 0.500000 0.500000 0.284981
O O12 0.418759 0.500000 0.500000
O O13 0.582744 0.833537 0.500000
O O14 0.500000 0.831178 0.712852
O O15 0.574357 0.000000 0.679452
#
# Coordination Sequence:
#
# PCOD9389461 Si02
#       5
#     8   8   8   4   8
#     4   9  16  27  44  63  89 127 162 190 225 271
#     4  12  23  32  46  70  99 126 152 189 234 279
#     4   7  10  18  35  60  85 111 151 197 229 256
#     4  11  23  37  51  65  86 121 162 197 229 274
#     4   9  19  37  58  74  88 113 152 195 237 282
#
# _framework density 15.873016
#
# number of rings (size 3 to 8) (size 9 to 14) (size 15 to 20)
#    0.000    2.556    1.111    5.667    0.000    4.444 
#    0.000    1.111    0.000    0.667    0.000    3.111 
#    0.000    0.889    0.000   10.222    0.000    3.333 
#
# Total GULP energy -200487.884418 kJ/mol
# GULP energy per Si atom -5569.107900 kJ/mol
# Density = 1.583689 g / cm^3
# Si number density = 15.873016 Si / 1000 Ang^3
#
#
#
# Elastic Constant Matrix: (Units=GPa)
#
#
# Indices 1 2 3 4 5 6 
#
# 1 187.1342 28.4114 62.5495 0.0000 0.0000 0.0000
# 2 28.4114 23.0550 16.4731 0.0000 0.0000 0.0000
# 3 62.5495 16.4731 59.2190 0.0000 0.0000 0.0000
# 4 0.0000 0.0000 0.0000 1.1844 0.0000 0.0000
# 5 0.0000 0.0000 0.0000 0.0000 1.9406 0.0000
# 6 0.0000 0.0000 0.0000 0.0000 0.0000 14.7533
#
#
#
# Elastic Compliance Matrix: (Units=1/GPa)
#
#
# Indices 1 2 3 4 5 6 
#
# 1 0.008733 -0.005206 -0.007776 0.000000 0.000000 0.000000
# 2 -0.005206 0.057238 -0.010423 0.000000 0.000000 0.000000
# 3 -0.007776 -0.010423 0.028000 0.000000 0.000000 0.000000
# 4 0.000000 0.000000 0.000000 0.844322 0.000000 0.000000
# 5 0.000000 0.000000 0.000000 0.000000 0.515310 0.000000
# 6 0.000000 0.000000 0.000000 0.000000 0.000000 0.067781
#
#
# Mechanical properties :
#
#
# Convention : Reuss Voigt Hill
#
# Bulk Modulus (GPa) = 21.20457 53.80847 37.50652
# Shear Modulus (GPa) = 3.15673 14.37393 8.76533
#
# Velocity S-wave (km/s) = 1.41176 3.01251 2.35248
# Velocity P-wave (km/s) = 4.00566 6.78773 5.57308
#
# Compressibility (1/GPa) = 0.04715964
#
# Stress axis : x y z
#
# Youngs Moduli (GPa) = 114.50261 17.47097 35.71482
#
# Poissons Ratio (x) = 0.09096 0.27773
# Poissons Ratio (y) = 0.59612 0.37226
# Poissons Ratio (z) = 0.89041 0.18210
#
# Static dielectric constant tensor:
#      x y z
#    x 1.567960 0.000000 0.000000 
#    y 0.000000 1.535850 0.000000 
#    z 0.000000 0.000000 1.522820 
# 
# From -- ./inp_files/3941.got.cif
#   From: 2010.05.17/outbox.ucp.g08.bks.cvg/sg47_2_cif.got.tgz:3941.got - 2010.06.11 16:36:43.
