data_PCOD9389546
_publ_section_title
;
Structure prediction by ZEFSAII (Michael W. Deem and Ramdas Pophale) SiO2 
 PCOD9389546
Probable space group: P N N N
;
_chemical_formula_sum "Si O2"
_cell_formula_units_Z 40
_cell_length_a 13.453943
_cell_length_b 9.629579
_cell_length_c 13.429778
_cell_angle_alpha 90.000000
_cell_angle_beta 90.000000
_cell_angle_gamma 90.000000
_cell_volume 1739.905726
_symmetry_space_group_name_H-M "P N N N"
_symmetry_group_IT_number 48
_space_group.IT_coordinate_system_code '2'
_symmetry_cell_setting 'orthorhombic'
loop_
_space_group_symop_operation_xyz
x,y,z
1/2-x,1/2-y,z
x,1/2-y,1/2-z
1/2-x,y,1/2-z
-x,-y,-z
1/2+x,1/2+y,-z
-x,1/2+y,1/2+z
1/2+x,-y,1/2+z
loop_
_atom_site_type_symbol
_atom_site_label
_atom_site_fract_x
_atom_site_fract_y
_atom_site_fract_z
Si Si1 0.164338 0.072710 0.120298
Si Si2 0.855928 0.751845 0.419834
Si Si3 0.474942 0.747743 0.852235
Si Si4 0.576752 0.215978 0.577469
Si Si5 0.121940 0.466866 0.087386
O O1 0.071678 0.151176 0.169040
O O2 0.280550 0.087942 0.145562
O O3 0.157617 0.138984 0.008918
O O4 0.138561 0.910527 0.120567
O O5 0.750000 0.750000 0.364800
O O6 0.868204 0.899301 0.477242
O O7 0.964393 0.716416 0.378034
O O8 0.413849 0.750000 0.750000
O O9 0.429955 0.696486 0.956667
O O10 0.520618 0.898648 0.875099
O O11 0.620200 0.368774 0.591954
#
# Coordination Sequence:
#
# PCOD9389546 Si02
#       5
#     8   8   8   8   8
#     4   9  17  29  48  71  96 129 165 202 241 287
#     4   8  14  25  41  64  90 118 154 192 234 282
#     4  10  19  32  50  72 102 135 162 194 246 305
#     4  10  17  30  49  73  97 123 168 211 241 279
#     4   9  17  29  48  71  96 129 165 202 241 287
#
# _framework density 22.989751999999999
#
# number of rings (size 3 to 8) (size 9 to 14) (size 15 to 20)
#    0.000    3.200    0.000    7.200    0.000    1.600 
#    0.000    1.000    0.000    4.800    0.000    0.000 
#    0.000   32.000    0.000    0.000    0.000    0.000 
#
# Total GULP energy -222866.235314 kJ/mol
# GULP energy per Si atom -5571.655883 kJ/mol
# Density = 2.293743 g / cm^3
# Si number density = 22.989752 Si / 1000 Ang^3
#
#
#
# Elastic Constant Matrix: (Units=GPa)
#
#
# Indices 1 2 3 4 5 6 
#
# 1 61.8663 -3.7956 -5.5276 0.0000 0.0000 0.0000
# 2 -3.7956 135.0092 -19.2411 0.0000 0.0000 0.0000
# 3 -5.5276 -19.2411 50.5828 0.0000 0.0000 0.0000
# 4 0.0000 0.0000 0.0000 -6.1105 0.0000 0.0000
# 5 0.0000 0.0000 0.0000 0.0000 5.0870 0.0000
# 6 0.0000 0.0000 0.0000 0.0000 0.0000 19.8630
#
#
#
# Elastic Compliance Matrix: (Units=1/GPa)
#
#
# Indices 1 2 3 4 5 6 
#
# 1 0.016396 0.000757 0.002080 0.000000 0.000000 0.000000
# 2 0.000757 0.007866 0.003075 0.000000 0.000000 0.000000
# 3 0.002080 0.003075 0.021167 0.000000 0.000000 0.000000
# 4 0.000000 0.000000 0.000000 -0.163654 0.000000 0.000000
# 5 0.000000 0.000000 0.000000 0.000000 0.196581 0.000000
# 6 0.000000 0.000000 0.000000 0.000000 0.000000 0.050345
#
#
# Mechanical properties :
#
#
# Convention : Reuss Voigt Hill
#
# Bulk Modulus (GPa) = 17.46610 21.14773 19.30692
# Shear Modulus (GPa) = 36.77526 22.16940 29.47233
#
# Velocity S-wave (km/s) = 4.00389 3.10871 3.58435
# Velocity P-wave (km/s) = 5.38411 4.70151 5.05435
#
# Compressibility (1/GPa) = 0.05725377
#
# Stress axis : x y z
#
# Youngs Moduli (GPa) = 60.98976 127.12220 47.24434
#
# Poissons Ratio (x) = -0.09628 -0.09826
# Poissons Ratio (y) = -0.04619 -0.14528
# Poissons Ratio (z) = -0.12685 -0.39091
#
# Static dielectric constant tensor:
#      x y z
#    x 1.865170 0.000000 0.000000 
#    y 0.000000 1.775180 0.000000 
#    z 0.000000 0.000000 1.954250 
# 
# From -- ./inp_files/12545.got.cif
#   From: 2010.05.17/outbox.cif.g08.bks.cpg/sg48_7_cif.got.tgz:12545.got - 2010.06.03 20:39:00.
