data_PCOD9389384
_publ_section_title
;
Structure prediction by ZEFSAII (Michael W. Deem and Ramdas Pophale) SiO2 
 PCOD9389384
Probable space group: P M M M
;
_chemical_formula_sum "Si O2"
_cell_formula_units_Z 44
_cell_length_a 9.000000
_cell_length_b 30.000000
_cell_length_c 9.000000
_cell_angle_alpha 90.000000
_cell_angle_beta 90.000000
_cell_angle_gamma 90.000000
_cell_volume 2430.000000
_symmetry_space_group_name_H-M "P M M M"
_symmetry_group_IT_number 47
_symmetry_cell_setting 'orthorhombic'
loop_
_space_group_symop_operation_xyz
x,y,z
-x,-y,z
x,-y,-z
-x,y,-z
-x,-y,-z
x,y,-z
-x,y,z
x,-y,z
loop_
_atom_site_type_symbol
_atom_site_label
_atom_site_fract_x
_atom_site_fract_y
_atom_site_fract_z
Si Si1 0.178308 0.359184 0.675097
Si Si2 0.178717 0.907309 0.175621
Si Si3 0.821693 0.266256 0.824263
Si Si4 0.180857 0.000000 0.671853
Si Si5 0.322802 0.179548 0.324260
Si Si6 0.324297 0.549075 0.679890
O O1 0.216383 0.354697 0.500000
O O2 0.226393 0.314137 0.758217
O O3 0.245891 0.405766 0.732783
O O4 0.000000 0.362221 0.686543
O O5 0.253607 0.864468 0.249865
O O6 0.000000 0.903742 0.195313
O O7 0.227760 0.954243 0.248198
O O8 0.209180 0.907982 0.000000
O O9 0.744874 0.224368 0.746146
O O10 0.000000 0.262737 0.801238
O O11 0.793103 0.264941 0.000000
O O12 0.227092 0.000000 0.500000
O O13 0.000000 0.000000 0.675968
O O14 0.290767 0.178897 0.500000
O O15 0.500000 0.179409 0.303117
O O16 0.307034 0.548821 0.500000
O O17 0.500000 0.551779 0.710873
O O18 0.270737 0.500000 0.732413
#
# Coordination Sequence:
#
# PCOD9389384 Si02
#       6
#     8   8   8   4   8   8
#     4   9  17  29  47  72  99 126 160 205 254 302
#     4  10  20  35  57  84 112 142 177 217 261 309
#     4  10  21  37  56  77 102 134 172 213 259 312
#     4   9  17  31  54  83 112 143 180 220 260 303
#     4  11  24  39  55  78 107 138 174 216 261 310
#     4   8  14  25  42  66  96 128 162 202 248 297
#
# _framework density 18.106995999999999
#
# number of rings (size 3 to 8) (size 9 to 14) (size 15 to 20)
#    0.000    2.455    0.000    3.000    0.000    8.000 
#    0.000    4.091    0.000    3.273    0.000    3.818 
#    0.000    0.000    0.000    0.000    0.000    0.000 
#
# Total GULP energy -245468.098974 kJ/mol
# GULP energy per Si atom -5578.820431 kJ/mol
# Density = 1.806578 g / cm^3
# Si number density = 18.106996 Si / 1000 Ang^3
#
#
#
# Elastic Constant Matrix: (Units=GPa)
#
#
# Indices 1 2 3 4 5 6 
#
# 1 27.3286 65.4575 54.1807 0.0000 0.0000 0.0000
# 2 65.4575 249.6785 105.1451 0.0000 0.0000 0.0000
# 3 54.1807 105.1451 102.1484 0.0000 0.0000 0.0000
# 4 0.0000 0.0000 0.0000 4.0717 0.0000 0.0000
# 5 0.0000 0.0000 0.0000 0.0000 17.3946 0.0000
# 6 0.0000 0.0000 0.0000 0.0000 0.0000 -1.9986
#
#
#
# Elastic Compliance Matrix: (Units=1/GPa)
#
#
# Indices 1 2 3 4 5 6 
#
# 1 -0.482391 0.033037 0.221860 0.000000 0.000000 0.000000
# 2 0.033037 0.004807 -0.022471 0.000000 0.000000 0.000000
# 3 0.221860 -0.022471 -0.084757 0.000000 0.000000 0.000000
# 4 0.000000 0.000000 0.000000 0.245597 0.000000 0.000000
# 5 0.000000 0.000000 0.000000 0.000000 0.057489 0.000000
# 6 0.000000 0.000000 0.000000 0.000000 0.000000 -0.500352
#
#
# Mechanical properties :
#
#
# Convention : Reuss Voigt Hill
#
# Bulk Modulus (GPa) = -10.25746 92.08026 40.91140
# Shear Modulus (GPa) = -3.97787 14.18501 5.10357
#
# Velocity S-wave (km/s) = -1.48379 2.80196 1.68068
# Velocity P-wave (km/s) = 2.93475 7.83785 5.13902
#
# Compressibility (1/GPa) = -0.09749000
#
# Stress axis : x y z
#
# Youngs Moduli (GPa) = -2.07301 208.02516 -11.79848
#
# Poissons Ratio (x) = -6.87256 2.61761
# Poissons Ratio (y) = 0.06849 -0.26513
# Poissons Ratio (z) = 0.45992 4.67462
#
# Static dielectric constant tensor:
#      x y z
#    x 1.610070 0.000000 0.000000 
#    y 0.000000 1.609140 0.000000 
#    z 0.000000 0.000000 1.610760 
# 
# From -- ./inp_files/2077.got.cif
#   From: 2010.05.17/outbox.ucp.g08.bks.cvg/sg47_2_cif.got.tgz:2077.got - 2010.06.11 16:36:43.
