data_PCOD9389782
_publ_section_title
;
Structure prediction by ZEFSAII (Michael W. Deem and Ramdas Pophale) SiO2 
 PCOD9389782
Probable space group: P N N N
;
_chemical_formula_sum "Si O2"
_cell_formula_units_Z 54
_cell_length_a 5.108538
_cell_length_b 29.613009
_cell_length_c 18.580948
_cell_angle_alpha 90.000000
_cell_angle_beta 90.000000
_cell_angle_gamma 90.000000
_cell_volume 2810.910610
_symmetry_space_group_name_H-M "P N N N"
_symmetry_group_IT_number 48
_space_group.IT_coordinate_system_code '2'
_symmetry_cell_setting 'orthorhombic'
loop_
_space_group_symop_operation_xyz
x,y,z
1/2-x,1/2-y,z
x,1/2-y,1/2-z
1/2-x,y,1/2-z
-x,-y,-z
1/2+x,1/2+y,-z
-x,1/2+y,1/2+z
1/2+x,-y,1/2+z
loop_
_atom_site_type_symbol
_atom_site_label
_atom_site_fract_x
_atom_site_fract_y
_atom_site_fract_z
Si Si1 0.941835 0.532667 0.930428
Si Si2 0.058741 0.691008 0.371394
Si Si3 0.713992 0.603715 0.099662
Si Si4 0.566874 0.411533 0.028659
Si Si5 0.750000 0.250000 0.750000
Si Si6 0.428007 0.833207 0.012093
Si Si7 0.499781 0.534390 0.300000
Si Si8 0.750000 0.750000 0.012833
O O1 0.686003 0.564332 0.936285
O O2 0.194247 0.564191 0.932965
O O3 0.931274 0.504330 0.857315
O O4 0.000000 0.500000 0.000000
O O5 0.075995 0.719488 0.300745
O O6 0.339044 0.681996 0.407778
O O7 0.921756 0.643764 0.357676
O O8 0.921832 0.719008 0.434760
O O9 0.900150 0.575324 0.149695
O O10 0.486433 0.576991 0.056461
O O11 0.864246 0.627904 0.032707
O O12 0.678570 0.359055 0.023970
O O13 0.560853 0.788526 0.976679
O O14 0.750000 0.522615 0.250000
O O15 0.250000 0.544925 0.250000
#
# Coordination Sequence:
#
# PCOD9389782 Si02
#       8
#     8   8   8   8   2   8   8   4
#     4  12  23  40  67  87 116 158 212 265 318 401
#     4  10  22  34  52  71 109 153 216 258 309 355
#     4  10  23  40  58  83 116 153 213 271 324 363
#     4  11  21  37  65  90 110 151 214 264 307 376
#     4  12  20  38  48  68 106 172 218 256 296 388
#     4  10  19  37  56  85 109 154 205 267 310 363
#     4  12  28  43  60  90 126 161 203 271 345 381
#     4  10  18  37  50  76 112 152 191 254 318 364
#
# _framework density 19.210858000000002
#
# number of rings (size 3 to 8) (size 9 to 14) (size 15 to 20)
#    0.000    1.185    4.444    1.333    6.222    1.481 
#    0.000    0.000    0.000    0.000    0.000    0.000 
#    0.000    0.000    0.000    0.667   24.593    8.000 
#
# Total GULP energy -300793.064646 kJ/mol
# GULP energy per Si atom -5570.241938 kJ/mol
# Density = 1.916713 g / cm^3
# Si number density = 19.210858 Si / 1000 Ang^3
#
#
#
# Elastic Constant Matrix: (Units=GPa)
#
#
# Indices 1 2 3 4 5 6 
#
# 1 126.0437 60.5965 27.7080 0.0000 0.0000 0.0000
# 2 60.5965 116.5612 48.8377 0.0000 0.0000 0.0000
# 3 27.7080 48.8377 43.2471 0.0000 0.0000 0.0000
# 4 0.0000 0.0000 0.0000 27.5870 0.0000 0.0000
# 5 0.0000 0.0000 0.0000 0.0000 25.5093 0.0000
# 6 0.0000 0.0000 0.0000 0.0000 0.0000 41.5402
#
#
#
# Elastic Compliance Matrix: (Units=1/GPa)
#
#
# Indices 1 2 3 4 5 6 
#
# 1 0.010604 -0.005060 -0.001079 0.000000 0.000000 0.000000
# 2 -0.005060 0.018699 -0.017874 0.000000 0.000000 0.000000
# 3 -0.001079 -0.017874 0.043999 0.000000 0.000000 0.000000
# 4 0.000000 0.000000 0.000000 0.036249 0.000000 0.000000
# 5 0.000000 0.000000 0.000000 0.000000 0.039201 0.000000
# 6 0.000000 0.000000 0.000000 0.000000 0.000000 0.024073
#
#
# Mechanical properties :
#
#
# Convention : Reuss Voigt Hill
#
# Bulk Modulus (GPa) = 39.56553 62.23738 50.90146
# Shear Modulus (GPa) = 21.80765 28.84126 25.32446
#
# Velocity S-wave (km/s) = 3.37289 3.87886 3.63469
# Velocity P-wave (km/s) = 5.98403 7.24763 6.64593
#
# Compressibility (1/GPa) = 0.02527453
#
# Stress axis : x y z
#
# Youngs Moduli (GPa) = 94.30545 53.47895 22.72779
#
# Poissons Ratio (x) = 0.27063 0.02453
# Poissons Ratio (y) = 0.47723 0.40624
# Poissons Ratio (z) = 0.10177 0.95588
#
# Static dielectric constant tensor:
#      x y z
#    x 2.036490 0.000000 0.000000 
#    y 0.000000 1.808360 0.000000 
#    z 0.000000 0.000000 1.647680 
# 
# From -- ./inp_files/24574.got.cif
#   From: 2010.05.17/outbox.cif.g08.bks.cpg/sg48_13_cif.got.tgz:24574.got - 2010.06.03 20:39:00.
