data_PCOD9389898
_publ_section_title
;
Structure prediction by ZEFSAII (Michael W. Deem and Ramdas Pophale) SiO2 
 PCOD9389898
Probable space group: P N N N
;
_chemical_formula_sum "Si O2"
_cell_formula_units_Z 64
_cell_length_a 12.852398
_cell_length_b 18.303212
_cell_length_c 12.960221
_cell_angle_alpha 90.000000
_cell_angle_beta 90.000000
_cell_angle_gamma 90.000000
_cell_volume 3048.764530
_symmetry_space_group_name_H-M "P N N N"
_symmetry_group_IT_number 48
_space_group.IT_coordinate_system_code '2'
_symmetry_cell_setting 'orthorhombic'
loop_
_space_group_symop_operation_xyz
x,y,z
1/2-x,1/2-y,z
x,1/2-y,1/2-z
1/2-x,y,1/2-z
-x,-y,-z
1/2+x,1/2+y,-z
-x,1/2+y,1/2+z
1/2+x,-y,1/2+z
loop_
_atom_site_type_symbol
_atom_site_label
_atom_site_fract_x
_atom_site_fract_y
_atom_site_fract_z
Si Si1 0.984433 0.847636 0.053658
Si Si2 0.469399 0.531502 0.341970
Si Si3 0.072563 0.091834 0.463318
Si Si4 0.363763 0.417264 0.781851
Si Si5 0.635348 0.338217 0.371957
Si Si6 0.127428 0.666051 0.258727
Si Si7 0.356215 0.206500 0.894567
Si Si8 0.368876 0.837661 0.627132
O O1 0.888704 0.894344 0.101319
O O2 0.943718 0.764910 0.072433
O O3 0.079762 0.859643 0.133107
O O4 0.034112 0.862938 0.942607
O O5 0.398784 0.463300 0.371702
O O6 0.549913 0.543674 0.435426
O O7 0.547744 0.524672 0.246811
O O8 0.410501 0.607438 0.324968
O O9 0.149603 0.152761 0.506614
O O10 0.962139 0.126849 0.430065
O O11 0.250000 0.442963 0.750000
O O12 0.378108 0.343861 0.707600
O O13 0.632608 0.250618 0.386988
O O14 0.751895 0.363713 0.403670
O O15 0.621904 0.351284 0.249257
O O16 0.092783 0.750000 0.250000
O O17 0.250000 0.666398 0.250000
O O18 0.250000 0.250000 0.877224
#
# Coordination Sequence:
#
# PCOD9389898 Si02
#       8
#     8   8   8   8   8   8   8   8
#     4  11  19  31  54  86 122 148 184 251 312 358
#     4   9  21  36  54  85 115 155 201 236 298 380
#     4  10  19  36  60  77 111 158 200 248 295 359
#     4  10  19  33  53  83 123 156 190 247 315 366
#     4   9  18  34  55  78 110 148 192 249 292 341
#     4  10  21  33  55  88 121 150 186 240 311 372
#     4  11  20  32  57  89 116 155 204 250 305 359
#     4   9  19  32  52  85 111 142 192 245 306 344
#
# _framework density 20.992111000000001
#
# number of rings (size 3 to 8) (size 9 to 14) (size 15 to 20)
#    0.000    2.125    2.500    3.375    1.750    1.000 
#    2.250    0.000    2.750    3.750    0.000    0.000 
#    0.000    0.000    0.000    0.000    0.000    0.000 
#
# Total GULP energy -356438.130632 kJ/mol
# GULP energy per Si atom -5569.345791 kJ/mol
# Density = 2.094433 g / cm^3
# Si number density = 20.992111 Si / 1000 Ang^3
#
#
#
# Elastic Constant Matrix: (Units=GPa)
#
#
# Indices 1 2 3 4 5 6 
#
# 1 77.9265 15.1727 32.0576 0.0000 0.0000 0.0000
# 2 15.1727 64.7684 17.9724 0.0000 0.0000 0.0000
# 3 32.0576 17.9724 67.4151 0.0000 0.0000 0.0000
# 4 0.0000 0.0000 0.0000 21.2303 0.0000 0.0000
# 5 0.0000 0.0000 0.0000 0.0000 34.0644 0.0000
# 6 0.0000 0.0000 0.0000 0.0000 0.0000 11.9180
#
#
#
# Elastic Compliance Matrix: (Units=1/GPa)
#
#
# Indices 1 2 3 4 5 6 
#
# 1 0.016142 -0.001783 -0.007200 0.000000 0.000000 0.000000
# 2 -0.001783 0.016870 -0.003649 0.000000 0.000000 0.000000
# 3 -0.007200 -0.003649 0.019230 0.000000 0.000000 0.000000
# 4 0.000000 0.000000 0.000000 0.047102 0.000000 0.000000
# 5 0.000000 0.000000 0.000000 0.000000 0.029356 0.000000
# 6 0.000000 0.000000 0.000000 0.000000 0.000000 0.083907
#
#
# Mechanical properties :
#
#
# Convention : Reuss Voigt Hill
#
# Bulk Modulus (GPa) = 37.07014 37.83505 37.45259
# Shear Modulus (GPa) = 20.25388 23.10303 21.67845
#
# Velocity S-wave (km/s) = 3.10955 3.32106 3.21704
# Velocity P-wave (km/s) = 5.53080 5.72438 5.62842
#
# Compressibility (1/GPa) = 0.02697589
#
# Stress axis : x y z
#
# Youngs Moduli (GPa) = 61.95023 59.27663 52.00106
#
# Poissons Ratio (x) = 0.10571 0.37443
# Poissons Ratio (y) = 0.11048 0.18977
# Poissons Ratio (z) = 0.44607 0.21632
#
# Static dielectric constant tensor:
#      x y z
#    x 1.780820 0.000000 0.000000 
#    y 0.000000 1.858710 0.000000 
#    z 0.000000 0.000000 1.803820 
# 
# From -- ./inp_files/21567.got.cif
#   From: 2010.05.17/outbox.cif.g08.bks.cpg/sg48_11_cif.got.tgz:21567.got - 2010.06.03 20:39:00.
