data_PCOD9389565
_publ_section_title
;
Structure prediction by ZEFSAII (Michael W. Deem and Ramdas Pophale) SiO2 
 PCOD9389565
Probable space group: P N N N
;
_chemical_formula_sum "Si O2"
_cell_formula_units_Z 42
_cell_length_a 22.354164
_cell_length_b 7.972515
_cell_length_c 9.696441
_cell_angle_alpha 90.000000
_cell_angle_beta 90.000000
_cell_angle_gamma 90.000000
_cell_volume 1728.089125
_symmetry_space_group_name_H-M "P N N N"
_symmetry_group_IT_number 48
_space_group.IT_coordinate_system_code '2'
_symmetry_cell_setting 'orthorhombic'
loop_
_space_group_symop_operation_xyz
x,y,z
1/2-x,1/2-y,z
x,1/2-y,1/2-z
1/2-x,y,1/2-z
-x,-y,-z
1/2+x,1/2+y,-z
-x,1/2+y,1/2+z
1/2+x,-y,1/2+z
loop_
_atom_site_type_symbol
_atom_site_label
_atom_site_fract_x
_atom_site_fract_y
_atom_site_fract_z
Si Si1 0.141089 0.549098 0.338892
Si Si2 0.181413 0.946859 0.708623
Si Si3 0.587829 0.908320 0.411253
Si Si4 0.250000 0.750000 0.250000
Si Si5 0.006232 0.756561 0.907684
Si Si6 0.891848 0.407871 0.953119
O O1 0.131607 0.417591 0.457214
O O2 0.207336 0.623212 0.330220
O O3 0.115115 0.496320 0.191028
O O4 0.108512 0.717243 0.394146
O O5 0.170519 0.750000 0.750000
O O6 0.250000 0.984633 0.750000
O O7 0.165121 0.949801 0.547443
O O8 0.133446 0.067099 0.784670
O O9 0.541360 0.768640 0.466271
O O10 0.544454 0.070399 0.401161
O O11 0.983312 0.750000 0.750000
O O12 0.051539 0.606191 0.946046
#
# Coordination Sequence:
#
# PCOD9389565 Si02
#       6
#     8   8   8   2   8   8
#     4   9  18  26  44  70 100 132 164 196 259 318
#     4  11  19  27  48  73 106 137 168 207 268 327
#     4  10  19  30  48  73  98 133 176 210 252 318
#     4   8  16  24  44  62 106 124 144 198 266 316
#     4  10  17  32  50  65 100 140 171 206 253 316
#     4   9  16  31  44  67 102 135 163 198 265 314
#
# _framework density 24.304300999999999
#
# number of rings (size 3 to 8) (size 9 to 14) (size 15 to 20)
#    0.000    2.476    5.714    0.000    5.333    0.000 
#    0.000    0.952    8.381    0.000    0.000    0.667 
#    0.000    4.952    0.000    0.000    0.000    0.000 
#
# Total GULP energy -233875.851442 kJ/mol
# GULP energy per Si atom -5568.472653 kJ/mol
# Density = 2.424898 g / cm^3
# Si number density = 24.304301 Si / 1000 Ang^3
#
#
#
# Elastic Constant Matrix: (Units=GPa)
#
#
# Indices 1 2 3 4 5 6 
#
# 1 126.6225 42.6245 44.0718 0.0000 0.0000 0.0000
# 2 42.6245 62.1008 23.8210 0.0000 0.0000 0.0000
# 3 44.0718 23.8210 165.1487 0.0000 0.0000 0.0000
# 4 0.0000 0.0000 0.0000 -1.1144 0.0000 0.0000
# 5 0.0000 0.0000 0.0000 0.0000 18.9696 0.0000
# 6 0.0000 0.0000 0.0000 0.0000 0.0000 -2.6264
#
#
#
# Elastic Compliance Matrix: (Units=1/GPa)
#
#
# Indices 1 2 3 4 5 6 
#
# 1 0.010818 -0.006688 -0.001922 0.000000 0.000000 0.000000
# 2 -0.006688 0.021180 -0.001270 0.000000 0.000000 0.000000
# 3 -0.001922 -0.001270 0.006751 0.000000 0.000000 0.000000
# 4 0.000000 0.000000 0.000000 -0.897322 0.000000 0.000000
# 5 0.000000 0.000000 0.000000 0.000000 0.052716 0.000000
# 6 0.000000 0.000000 0.000000 0.000000 0.000000 -0.380754
#
#
# Mechanical properties :
#
#
# Convention : Reuss Voigt Hill
#
# Bulk Modulus (GPa) = 52.66218 63.87851 58.27035
# Shear Modulus (GPa) = -4.30841 19.26941 7.48050
#
# Velocity S-wave (km/s) = -1.33287 2.81880 1.75628
# Velocity P-wave (km/s) = 4.39843 6.07733 5.30472
#
# Compressibility (1/GPa) = 0.01898896
#
# Stress axis : x y z
#
# Youngs Moduli (GPa) = 92.44020 47.21336 148.11850
#
# Poissons Ratio (x) = 0.31575 0.28472
# Poissons Ratio (y) = 0.61822 0.18816
# Poissons Ratio (z) = 0.17769 0.05998
#
# Static dielectric constant tensor:
#      x y z
#    x 2.027670 0.000000 0.000000 
#    y 0.000000 2.038050 0.000000 
#    z 0.000000 0.000000 2.120610 
# 
# From -- ./inp_files/15854.got.cif
#   From: 2010.05.17/outbox.cif.g08.bks.cpg/sg48_8_cif.got.tgz:15854.got - 2010.06.03 20:39:00.
