data_PCOD9389369
_publ_section_title
;
Structure prediction by ZEFSAII (Michael W. Deem and Ramdas Pophale) SiO2 
 PCOD9389369
Probable space group: P M M M
;
_chemical_formula_sum "Si O2"
_cell_formula_units_Z 48
_cell_length_a 30.000000
_cell_length_b 9.000000
_cell_length_c 9.000000
_cell_angle_alpha 90.000000
_cell_angle_beta 90.000000
_cell_angle_gamma 90.000000
_cell_volume 2430.000000
_symmetry_space_group_name_H-M "P M M M"
_symmetry_group_IT_number 47
_symmetry_cell_setting 'orthorhombic'
loop_
_space_group_symop_operation_xyz
x,y,z
-x,-y,z
x,-y,-z
-x,y,-z
-x,-y,-z
x,y,-z
-x,y,z
x,-y,z
loop_
_atom_site_type_symbol
_atom_site_label
_atom_site_fract_x
_atom_site_fract_y
_atom_site_fract_z
Si Si1 0.500000 0.668427 0.681938
Si Si2 0.823760 0.335762 0.680109
Si Si3 0.076281 0.331337 0.676896
Si Si4 0.740598 0.832478 0.322459
Si Si5 0.665102 0.325496 0.834013
Si Si6 0.587249 0.165776 0.321965
Si Si7 0.000000 0.826379 0.838774
O O1 0.500000 0.500000 0.730946
O O2 0.500000 0.669180 0.500000
O O3 0.543673 0.751731 0.733802
O O4 0.825744 0.340942 0.500000
O O5 0.807373 0.500000 0.727070
O O6 0.873608 0.315364 0.734214
O O7 0.791406 0.201967 0.716254
O O8 0.076595 0.311056 0.500000
O O9 0.061440 0.500000 0.705394
O O10 0.043161 0.220800 0.750833
O O11 0.734500 0.810988 0.500000
O O12 0.712557 0.716779 0.229964
O O13 0.726966 0.000000 0.287502
O O14 0.658738 0.500000 0.836699
O O15 0.630231 0.253770 0.723968
O O16 0.659143 0.265851 0.000000
O O17 0.584460 0.159835 0.500000
O O18 0.589328 0.000000 0.263541
O O19 0.000000 0.000000 0.853425
O O20 0.000000 0.752851 0.000000
#
# Coordination Sequence:
#
# PCOD9389369 Si02
#       7
#     4   8   8   8   8   8   4
#     4   9  17  31  54  83 112 141 174 214 260 309
#     4   8  15  30  53  80 107 133 165 210 260 308
#     4   9  18  34  57  82 104 130 170 216 260 310
#     4  10  20  34  55  83 110 137 172 213 259 313
#     4  11  24  39  54  75 105 142 183 223 262 308
#     4  10  20  35  57  84 111 139 174 217 265 316
#     4  11  24  37  48  70 106 143 178 215 256 306
#
# _framework density 19.753086
#
# number of rings (size 3 to 8) (size 9 to 14) (size 15 to 20)
#    0.000    2.333    0.000    3.750    0.000    9.000 
#    0.000    2.917    0.000    3.500    0.000    0.000 
#    0.000    0.000    0.000    0.000    0.000    0.000 
#
# Total GULP energy -267364.237503 kJ/mol
# GULP energy per Si atom -5570.088281 kJ/mol
# Density = 1.970813 g / cm^3
# Si number density = 19.753086 Si / 1000 Ang^3
#
#
#
# Elastic Constant Matrix: (Units=GPa)
#
#
# Indices 1 2 3 4 5 6 
#
# 1 58.4482 34.1883 5.8001 0.0000 0.0000 0.0000
# 2 34.1883 35.9121 35.7155 0.0000 0.0000 0.0000
# 3 5.8001 35.7155 -16.8964 0.0000 0.0000 0.0000
# 4 0.0000 0.0000 0.0000 8.5002 0.0000 0.0000
# 5 0.0000 0.0000 0.0000 0.0000 26.5163 0.0000
# 6 0.0000 0.0000 0.0000 0.0000 0.0000 3.9684
#
#
#
# Elastic Compliance Matrix: (Units=1/GPa)
#
#
# Indices 1 2 3 4 5 6 
#
# 1 0.024347 -0.010151 -0.013099 0.000000 0.000000 0.000000
# 2 -0.010151 0.013208 0.024435 0.000000 0.000000 0.000000
# 3 -0.013099 0.024435 -0.012031 0.000000 0.000000 0.000000
# 4 0.000000 0.000000 0.000000 0.117644 0.000000 0.000000
# 5 0.000000 0.000000 0.000000 0.000000 0.037713 0.000000
# 6 0.000000 0.000000 0.000000 0.000000 0.000000 0.251994
#
#
# Mechanical properties :
#
#
# Convention : Reuss Voigt Hill
#
# Bulk Modulus (GPa) = 35.84919 25.43019 30.63969
# Shear Modulus (GPa) = 11.36873 7.91429 9.64151
#
# Velocity S-wave (km/s) = 2.40165 2.00382 2.21170
# Velocity P-wave (km/s) = 5.08710 4.27267 4.69757
#
# Compressibility (1/GPa) = 0.02789464
#
# Stress axis : x y z
#
# Youngs Moduli (GPa) = 41.07364 75.71072 -83.12178
#
# Poissons Ratio (x) = 0.76852 -1.08880
# Poissons Ratio (y) = 0.41693 2.03106
# Poissons Ratio (z) = 0.53802 -1.84998
#
# Static dielectric constant tensor:
#      x y z
#    x 1.725550 0.000000 0.000000 
#    y 0.000000 1.690070 0.000000 
#    z 0.000000 0.000000 1.673170 
# 
# From -- ./inp_files/13957.got.cif
#   From: 2010.05.17/outbox.ucp.g08.bks.cvg/sg47_7_cif.got.tgz:13957.got - 2010.06.11 16:36:43.
