data_PCOD9389121
_publ_section_title
;
Structure prediction by ZEFSAII (Michael W. Deem and Ramdas Pophale) SiO2 
 PCOD9389121
Probable space group: P M M M
;
_chemical_formula_sum "Si O2"
_cell_formula_units_Z 36
_cell_length_a 10.125957
_cell_length_b 23.974225
_cell_length_c 7.638853
_cell_angle_alpha 90.000000
_cell_angle_beta 90.000000
_cell_angle_gamma 90.000000
_cell_volume 1854.423014
_symmetry_space_group_name_H-M "P M M M"
_symmetry_group_IT_number 47
_symmetry_cell_setting 'orthorhombic'
loop_
_space_group_symop_operation_xyz
x,y,z
-x,-y,z
x,-y,-z
-x,y,-z
-x,-y,-z
x,y,-z
-x,y,z
x,-y,z
loop_
_atom_site_type_symbol
_atom_site_label
_atom_site_fract_x
_atom_site_fract_y
_atom_site_fract_z
Si Si1 0.849634 0.284503 0.789886
Si Si2 0.349129 0.621845 0.791595
Si Si3 0.849677 0.841813 0.289324
Si Si4 0.349284 0.500000 0.291512
Si Si5 0.348464 0.063076 0.286199
O O1 0.747338 0.330404 0.721279
O O2 0.806669 0.221134 0.753052
O O3 0.000000 0.291159 0.722465
O O4 0.855583 0.290811 0.000000
O O5 0.500000 0.624048 0.720624
O O6 0.292475 0.559569 0.763441
O O7 0.358901 0.629956 0.000000
O O8 0.853702 0.846324 0.500000
O O9 0.751072 0.889401 0.224143
O O10 0.000000 0.848791 0.223856
O O11 0.500000 0.500000 0.219822
O O12 0.354361 0.500000 0.500000
O O13 0.347207 0.063749 0.500000
O O14 0.500000 0.073442 0.232828
O O15 0.311791 0.000000 0.233221
#
# Coordination Sequence:
#
# PCOD9389121 Si02
#       5
#     8   8   8   4   8
#     4   9  18  32  47  63  87 118 147 176 214 258
#     4   9  17  30  48  67  86 112 147 181 211 249
#     4   9  17  28  43  64  87 111 142 180 218 254
#     4   9  17  29  46  69  94 116 140 175 218 258
#     4   8  14  25  41  62  88 115 142 175 216 259
#
# _framework density 19.413046999999999
#
# number of rings (size 3 to 8) (size 9 to 14) (size 15 to 20)
#    0.000    3.222    0.000    1.000    0.000    3.556 
#    0.000    2.778    0.000    4.000    0.000    4.667 
#    0.000    0.000    0.000    0.000    0.000    0.000 
#
# Total GULP energy -200614.687108 kJ/mol
# GULP energy per Si atom -5572.630197 kJ/mol
# Density = 1.936886 g / cm^3
# Si number density = 19.413047 Si / 1000 Ang^3
#
#
#
# Elastic Constant Matrix: (Units=GPa)
#
#
# Indices 1 2 3 4 5 6 
#
# 1 91.4059 122.0204 4.8901 0.0000 0.0000 0.0000
# 2 122.0204 216.2514 -1.6455 0.0000 0.0000 0.0000
# 3 4.8901 -1.6455 37.1332 0.0000 0.0000 0.0000
# 4 0.0000 0.0000 0.0000 23.0011 0.0000 0.0000
# 5 0.0000 0.0000 0.0000 0.0000 3.9761 0.0000
# 6 0.0000 0.0000 0.0000 0.0000 0.0000 49.3312
#
#
#
# Elastic Compliance Matrix: (Units=1/GPa)
#
#
# Indices 1 2 3 4 5 6 
#
# 1 0.046203 -0.026125 -0.007242 0.000000 0.000000 0.000000
# 2 -0.026125 0.019398 0.004300 0.000000 0.000000 0.000000
# 3 -0.007242 0.004300 0.028074 0.000000 0.000000 0.000000
# 4 0.000000 0.000000 0.000000 0.043476 0.000000 0.000000
# 5 0.000000 0.000000 0.000000 0.000000 0.251503 0.000000
# 6 0.000000 0.000000 0.000000 0.000000 0.000000 0.020271
#
#
# Mechanical properties :
#
#
# Convention : Reuss Voigt Hill
#
# Bulk Modulus (GPa) = 28.13673 66.14671 47.14172
# Shear Modulus (GPa) = 10.44040 29.89670 20.16855
#
# Velocity S-wave (km/s) = 2.32157 3.92858 3.22672
# Velocity P-wave (km/s) = 4.65956 7.39768 6.18211
#
# Compressibility (1/GPa) = 0.03554074
#
# Stress axis : x y z
#
# Youngs Moduli (GPa) = 21.64348 51.55088 35.61971
#
# Poissons Ratio (x) = 1.34679 0.25797
# Poissons Ratio (y) = 0.56545 -0.15317
# Poissons Ratio (z) = 0.15675 -0.22167
#
# Static dielectric constant tensor:
#      x y z
#    x 1.682340 0.000000 0.000000 
#    y 0.000000 1.669440 0.000000 
#    z 0.000000 0.000000 1.718260 
# 
# From -- ./inp_files/3749.got.cif
#   From: 2010.05.17/outbox.cif.g08.bks.cpg/sg47_2_cif.got.tgz:3749.got - 2010.06.03 20:15:42.
