data_PCOD9389852
_publ_section_title
;
Structure prediction by ZEFSAII (Michael W. Deem and Ramdas Pophale) SiO2 
 PCOD9389852
Probable space group: P N N N
;
_chemical_formula_sum "Si O2"
_cell_formula_units_Z 64
_cell_length_a 9.358367
_cell_length_b 17.006414
_cell_length_c 17.990121
_cell_angle_alpha 90.000000
_cell_angle_beta 90.000000
_cell_angle_gamma 90.000000
_cell_volume 2863.168479
_symmetry_space_group_name_H-M "P N N N"
_symmetry_group_IT_number 48
_space_group.IT_coordinate_system_code '2'
_symmetry_cell_setting 'orthorhombic'
loop_
_space_group_symop_operation_xyz
x,y,z
1/2-x,1/2-y,z
x,1/2-y,1/2-z
1/2-x,y,1/2-z
-x,-y,-z
1/2+x,1/2+y,-z
-x,1/2+y,1/2+z
1/2+x,-y,1/2+z
loop_
_atom_site_type_symbol
_atom_site_label
_atom_site_fract_x
_atom_site_fract_y
_atom_site_fract_z
Si Si1 0.379000 0.528949 0.305216
Si Si2 0.031435 0.127545 0.501367
Si Si3 0.851989 0.848588 0.652843
Si Si4 0.070489 0.978025 0.812862
Si Si5 0.802613 0.488889 0.067692
Si Si6 0.022986 0.190033 0.161118
Si Si7 0.159591 0.553798 0.422770
Si Si8 0.093248 0.785832 0.004125
O O1 0.250000 0.551574 0.250000
O O2 0.377631 0.435842 0.319863
O O3 0.525825 0.532516 0.257765
O O4 0.314956 0.562822 0.382170
O O5 0.142973 0.148741 0.436454
O O6 0.902826 0.085852 0.453727
O O7 0.988884 0.210340 0.535961
O O8 0.099162 0.064621 0.556308
O O9 0.969770 0.784043 0.677783
O O10 0.689930 0.828721 0.672632
O O11 0.219777 0.988998 0.855109
O O12 0.059114 0.883438 0.802412
O O13 0.945364 0.002914 0.871621
O O14 0.687840 0.488438 0.000971
O O15 0.973708 0.188339 0.074690
O O16 0.100920 0.639910 0.441831
O O17 0.250000 0.750000 0.988726
#
# Coordination Sequence:
#
# PCOD9389852 Si02
#       8
#     8   8   8   8   8   8   8   8
#     4  10  20  36  54  82 121 159 212 256 311 386
#     4  10  21  35  56  86 122 156 200 265 320 391
#     4  10  19  33  51  82 123 155 196 249 313 386
#     4  11  21  35  55  86 118 159 210 257 310 394
#     4  11  20  35  60  85 120 160 201 258 339 377
#     4  10  19  31  55  84 116 157 195 253 318 386
#     4  11  20  34  60  82 120 161 199 260 319 384
#     4  11  21  35  55  89 117 152 204 262 327 387
#
# _framework density 22.352858000000001
#
# number of rings (size 3 to 8) (size 9 to 14) (size 15 to 20)
#    0.000    1.500    6.250    0.375    1.750    0.500 
#    0.000    0.625    0.000    3.375    0.000    2.625 
#    0.000    1.250    0.000    0.000    0.000    0.125 
#
# Total GULP energy -357038.576872 kJ/mol
# GULP energy per Si atom -5578.727764 kJ/mol
# Density = 2.230198 g / cm^3
# Si number density = 22.352858 Si / 1000 Ang^3
#
#
#
# Elastic Constant Matrix: (Units=GPa)
#
#
# Indices 1 2 3 4 5 6 
#
# 1 69.9933 11.6894 29.8696 0.0000 0.0000 0.0000
# 2 11.6894 106.2992 9.1095 0.0000 0.0000 0.0000
# 3 29.8696 9.1095 57.6668 0.0000 0.0000 0.0000
# 4 0.0000 0.0000 0.0000 29.3280 0.0000 0.0000
# 5 0.0000 0.0000 0.0000 0.0000 48.2516 0.0000
# 6 0.0000 0.0000 0.0000 0.0000 0.0000 19.9210
#
#
#
# Elastic Compliance Matrix: (Units=1/GPa)
#
#
# Indices 1 2 3 4 5 6 
#
# 1 0.018499 -0.001230 -0.009387 0.000000 0.000000 0.000000
# 2 -0.001230 0.009618 -0.000882 0.000000 0.000000 0.000000
# 3 -0.009387 -0.000882 0.022343 0.000000 0.000000 0.000000
# 4 0.000000 0.000000 0.000000 0.034097 0.000000 0.000000
# 5 0.000000 0.000000 0.000000 0.000000 0.020725 0.000000
# 6 0.000000 0.000000 0.000000 0.000000 0.000000 0.050198
#
#
# Mechanical properties :
#
#
# Convention : Reuss Voigt Hill
#
# Bulk Modulus (GPa) = 36.41602 37.25516 36.83559
# Shear Modulus (GPa) = 26.64788 31.71951 29.18369
#
# Velocity S-wave (km/s) = 3.45649 3.77110 3.61722
# Velocity P-wave (km/s) = 5.67949 5.97198 5.82757
#
# Compressibility (1/GPa) = 0.02746044
#
# Stress axis : x y z
#
# Youngs Moduli (GPa) = 54.05839 103.96893 44.75717
#
# Poissons Ratio (x) = 0.12786 0.42015
# Poissons Ratio (y) = 0.06648 0.03949
# Poissons Ratio (z) = 0.50747 0.09174
#
# Static dielectric constant tensor:
#      x y z
#    x 1.909060 0.000000 0.000000 
#    y 0.000000 1.822650 0.000000 
#    z 0.000000 0.000000 1.929850 
# 
# From -- ./inp_files/33699.got.cif
#   From: 2010.05.17/outbox.cif.g08.bks.cpg/sg48_17_cif.got.tgz:33699.got - 2010.06.03 20:39:00.
