data_PCOD9389481
_publ_section_title
;
Structure prediction by ZEFSAII (Michael W. Deem and Ramdas Pophale) SiO2 
 PCOD9389481
Probable space group: P N N N
;
_chemical_formula_sum "Si O2"
_cell_formula_units_Z 64
_cell_length_a 5.602281
_cell_length_b 29.444386
_cell_length_c 18.224065
_cell_angle_alpha 90.000000
_cell_angle_beta 90.000000
_cell_angle_gamma 90.000000
_cell_volume 3006.163841
_symmetry_space_group_name_H-M "P N N N"
_symmetry_group_IT_number 48
_space_group.IT_coordinate_system_code '2'
_symmetry_cell_setting 'orthorhombic'
loop_
_space_group_symop_operation_xyz
x,y,z
1/2-x,1/2-y,z
x,1/2-y,1/2-z
1/2-x,y,1/2-z
-x,-y,-z
1/2+x,1/2+y,-z
-x,1/2+y,1/2+z
1/2+x,-y,1/2+z
loop_
_atom_site_type_symbol
_atom_site_label
_atom_site_fract_x
_atom_site_fract_y
_atom_site_fract_z
Si Si1 0.750000 0.802800 0.067691
Si Si2 0.250000 0.599572 0.488859
Si Si3 0.750000 0.553985 0.463793
Si Si4 0.250000 0.337047 0.402431
Si Si5 0.750000 0.943341 0.867191
Si Si6 0.750000 0.196972 0.569095
Si Si7 0.250000 0.804203 0.833390
Si Si8 0.750000 0.036893 0.369651
O O1 0.750000 0.750000 0.045307
O O2 0.501724 0.809627 0.109194
O O3 0.998276 0.809627 0.109194
O O4 0.750000 0.828950 0.990147
O O5 0.500241 0.581477 0.454469
O O6 0.250000 0.654226 0.486527
O O7 0.250000 0.577906 0.569966
O O8 0.999760 0.581477 0.454469
O O9 0.750000 0.537044 0.548826
O O10 0.750000 0.510685 0.412015
O O11 0.250000 0.389704 0.381261
O O12 0.497585 0.317412 0.370492
O O13 0.002415 0.317412 0.370492
O O14 0.503352 0.957931 0.831261
O O15 0.996649 0.957931 0.831261
O O16 0.750000 0.250000 0.541191
O O17 0.250000 0.750000 0.830858
O O18 0.250000 0.822790 0.750000
#
# Coordination Sequence:
#
# PCOD9389481 Si02
#       8
#     8   8   8   8   8   8   8   8
#     4  10  18  27  39  55  73  91 113 146 191 241
#     4  10  16  25  36  49  68  96 129 155 177 215
#     4  10  18  27  40  57  79 106 129 149 180 231
#     4  12  21  33  49  67  80  95 124 161 202 246
#     4  10  18  27  42  61  81  98 118 150 184 224
#     4  10  19  28  37  52  76 102 125 155 197 237
#     4  11  24  40  53  63  78 102 132 168 213 266
#     4  10  17  28  41  58  82 107 127 147 182 232
#
# _framework density 21.28959
#
# number of rings (size 3 to 8) (size 9 to 14) (size 15 to 20)
#    0.000    1.625    0.000   10.500    0.000    2.000 
#    0.000    0.000    0.000    0.000    0.000    0.000 
#    0.000    0.000    0.000    0.000    0.000    0.000 
#
# Total GULP energy -356694.309339 kJ/mol
# GULP energy per Si atom -5573.348583 kJ/mol
# Density = 2.124113 g / cm^3
# Si number density = 21.289590 Si / 1000 Ang^3
#
#
#
# Elastic Constant Matrix: (Units=GPa)
#
#
# Indices 1 2 3 4 5 6 
#
# 1 281.9756 37.5414 7.3729 0.0000 0.0000 0.0000
# 2 37.5414 96.0696 17.7511 0.0000 0.0000 0.0000
# 3 7.3729 17.7511 8.3943 0.0000 0.0000 0.0000
# 4 0.0000 0.0000 0.0000 16.1088 0.0000 0.0000
# 5 0.0000 0.0000 0.0000 0.0000 -14.3234 0.0000
# 6 0.0000 0.0000 0.0000 0.0000 0.0000 43.4902
#
#
#
# Elastic Compliance Matrix: (Units=1/GPa)
#
#
# Indices 1 2 3 4 5 6 
#
# 1 0.003742 -0.001403 -0.000319 0.000000 0.000000 0.000000
# 2 -0.001403 0.017611 -0.036009 0.000000 0.000000 0.000000
# 3 -0.000319 -0.036009 0.195554 0.000000 0.000000 0.000000
# 4 0.000000 0.000000 0.000000 0.062078 0.000000 0.000000
# 5 0.000000 0.000000 0.000000 0.000000 -0.069816 0.000000
# 6 0.000000 0.000000 0.000000 0.000000 0.000000 0.022994
#
#
# Mechanical properties :
#
#
# Convention : Reuss Voigt Hill
#
# Bulk Modulus (GPa) = 7.06988 56.86337 31.96663
# Shear Modulus (GPa) = 14.09353 30.64005 22.36679
#
# Velocity S-wave (km/s) = 2.57571 3.79780 3.24481
# Velocity P-wave (km/s) = 3.48909 6.78222 5.39315
#
# Compressibility (1/GPa) = 0.14144510
#
# Stress axis : x y z
#
# Youngs Moduli (GPa) = 267.26816 56.78316 5.11367
#
# Poissons Ratio (x) = 0.07967 0.00163
# Poissons Ratio (y) = 0.37501 0.18414
# Poissons Ratio (z) = 0.08530 2.04468
#
# Static dielectric constant tensor:
#      x y z
#    x 1.917790 0.000000 0.000000 
#    y 0.000000 1.799890 0.000000 
#    z 0.000000 0.000000 1.718080 
# 
# From -- ./inp_files/29689.got.cif
#   From: 2010.05.17/outbox.cif.g08.bks.cpg/sg48_15_cif.got.tgz:29689.got - 2010.06.03 20:39:00.
