data_PCOD9389578
_publ_section_title
;
Structure prediction by ZEFSAII (Michael W. Deem and Ramdas Pophale) SiO2 
 PCOD9389578
Probable space group: P N N N
;
_chemical_formula_sum "Si O2"
_cell_formula_units_Z 56
_cell_length_a 23.760916
_cell_length_b 11.923629
_cell_length_c 10.695670
_cell_angle_alpha 90.000000
_cell_angle_beta 90.000000
_cell_angle_gamma 90.000000
_cell_volume 3030.258154
_symmetry_space_group_name_H-M "P N N N"
_symmetry_group_IT_number 48
_space_group.IT_coordinate_system_code '2'
_symmetry_cell_setting 'orthorhombic'
loop_
_space_group_symop_operation_xyz
x,y,z
1/2-x,1/2-y,z
x,1/2-y,1/2-z
1/2-x,y,1/2-z
-x,-y,-z
1/2+x,1/2+y,-z
-x,1/2+y,1/2+z
1/2+x,-y,1/2+z
loop_
_atom_site_type_symbol
_atom_site_label
_atom_site_fract_x
_atom_site_fract_y
_atom_site_fract_z
Si Si1 0.841780 0.329749 0.371596
Si Si2 0.043001 0.250000 0.250000
Si Si3 0.511607 0.854172 0.166971
Si Si4 0.597326 0.356739 0.504692
Si Si5 0.452669 0.583257 0.771697
Si Si6 0.250000 0.527007 0.750000
Si Si7 0.807748 0.683156 0.134633
Si Si8 0.104202 0.109575 0.453610
O O1 0.840280 0.250000 0.250000
O O2 0.857483 0.242717 0.482330
O O3 0.896085 0.410599 0.353563
O O4 0.784428 0.400107 0.352232
O O5 0.080912 0.166406 0.329838
O O6 0.999167 0.169568 0.176840
O O7 0.528812 0.750000 0.250000
O O8 0.517543 0.964854 0.251807
O O9 0.451081 0.831228 0.105170
O O10 0.553452 0.878217 0.052542
O O11 0.567758 0.377532 0.368108
O O12 0.619983 0.478326 0.547953
O O13 0.206669 0.442385 0.818297
O O14 0.750000 0.750000 0.112819
O O15 0.835758 0.750000 0.250000
O O16 0.844807 0.677661 0.012945
#
# Coordination Sequence:
#
# PCOD9389578 Si02
#       8
#     8   4   8   8   8   4   8   8
#     4  10  18  28  51  78 108 138 181 225 262 323
#     4  12  18  34  59  77 106 144 196 220 262 332
#     4  11  20  32  51  79 115 143 178 219 280 337
#     4  10  18  33  51  75 111 145 174 220 269 323
#     4  10  17  33  52  77 108 145 180 219 262 326
#     4  10  18  32  52  80 114 144 176 218 284 340
#     4   9  20  37  55  79 115 137 168 231 287 324
#     4  11  20  34  57  79 102 150 186 219 275 325
#
# _framework density 18.480274000000001
#
# number of rings (size 3 to 8) (size 9 to 14) (size 15 to 20)
#    0.000    1.857    5.000    4.071    0.000    1.143 
#    0.000    6.071    0.000    0.000    0.000    0.000 
#    0.000    0.000    0.000    0.000    0.000    0.000 
#
# Total GULP energy -311921.167173 kJ/mol
# GULP energy per Si atom -5570.020842 kJ/mol
# Density = 1.843821 g / cm^3
# Si number density = 18.480274 Si / 1000 Ang^3
#
#
#
# Elastic Constant Matrix: (Units=GPa)
#
#
# Indices 1 2 3 4 5 6 
#
# 1 71.8629 40.4234 18.5641 0.0000 0.0000 0.0000
# 2 40.4234 121.5059 28.1663 0.0000 0.0000 0.0000
# 3 18.5641 28.1663 22.5230 0.0000 0.0000 0.0000
# 4 0.0000 0.0000 0.0000 18.3540 0.0000 0.0000
# 5 0.0000 0.0000 0.0000 0.0000 34.7051 0.0000
# 6 0.0000 0.0000 0.0000 0.0000 0.0000 12.1510
#
#
#
# Elastic Compliance Matrix: (Units=1/GPa)
#
#
# Indices 1 2 3 4 5 6 
#
# 1 0.018822 -0.003754 -0.010819 0.000000 0.000000 0.000000
# 2 -0.003754 0.012338 -0.012336 0.000000 0.000000 0.000000
# 3 -0.010819 -0.012336 0.068743 0.000000 0.000000 0.000000
# 4 0.000000 0.000000 0.000000 0.054484 0.000000 0.000000
# 5 0.000000 0.000000 0.000000 0.000000 0.028814 0.000000
# 6 0.000000 0.000000 0.000000 0.000000 0.000000 0.082298
#
#
# Mechanical properties :
#
#
# Convention : Reuss Voigt Hill
#
# Bulk Modulus (GPa) = 21.69870 43.35551 32.52710
# Shear Modulus (GPa) = 14.93966 21.62455 18.28210
#
# Velocity S-wave (km/s) = 2.84634 3.42445 3.14869
# Velocity P-wave (km/s) = 4.75071 6.25677 5.55501
#
# Compressibility (1/GPa) = 0.04608572
#
# Stress axis : x y z
#
# Youngs Moduli (GPa) = 53.12992 81.04715 14.54686
#
# Poissons Ratio (x) = 0.30423 0.15739
# Poissons Ratio (y) = 0.19944 0.17945
# Poissons Ratio (z) = 0.57482 0.99980
#
# Static dielectric constant tensor:
#      x y z
#    x 1.678400 0.000000 0.000000 
#    y 0.000000 1.693600 0.000000 
#    z 0.000000 0.000000 1.679800 
# 
# From -- ./inp_files/23407.got.cif
#   From: 2010.05.17/outbox.cif.g08.bks.cpg/sg48_12_cif.got.tgz:23407.got - 2010.06.03 20:39:00.
