data_PCOD9389729
_publ_section_title
;
Structure prediction by ZEFSAII (Michael W. Deem and Ramdas Pophale) SiO2 
 PCOD9389729
Probable space group: P N N N
;
_chemical_formula_sum "Si O2"
_cell_formula_units_Z 42
_cell_length_a 7.177736
_cell_length_b 13.326374
_cell_length_c 17.038776
_cell_angle_alpha 90.000000
_cell_angle_beta 90.000000
_cell_angle_gamma 90.000000
_cell_volume 1629.813353
_symmetry_space_group_name_H-M "P N N N"
_symmetry_group_IT_number 48
_space_group.IT_coordinate_system_code '2'
_symmetry_cell_setting 'orthorhombic'
loop_
_space_group_symop_operation_xyz
x,y,z
1/2-x,1/2-y,z
x,1/2-y,1/2-z
1/2-x,y,1/2-z
-x,-y,-z
1/2+x,1/2+y,-z
-x,1/2+y,1/2+z
1/2+x,-y,1/2+z
loop_
_atom_site_type_symbol
_atom_site_label
_atom_site_fract_x
_atom_site_fract_y
_atom_site_fract_z
Si Si1 0.462253 0.720436 0.998099
Si Si2 0.467473 0.988660 0.782607
Si Si3 0.250000 0.250000 0.750000
Si Si4 0.423199 0.072521 0.933319
Si Si5 0.970983 0.271498 0.164853
Si Si6 0.957713 0.912957 0.137716
O O1 0.250000 0.750000 0.984047
O O2 0.571621 0.815263 0.033930
O O3 0.443112 0.635793 0.063733
O O4 0.540875 0.708533 0.909770
O O5 0.250000 0.983248 0.750000
O O6 0.498109 0.890881 0.835788
O O7 0.514007 0.073702 0.846533
O O8 0.559770 0.012898 0.698531
O O9 0.127020 0.176652 0.806334
O O10 0.217138 0.037507 0.907775
O O11 0.500000 0.000000 0.000000
O O12 0.750000 0.250000 0.170684
O O13 0.051474 0.250000 0.250000
#
# Coordination Sequence:
#
# PCOD9389729 Si02
#       6
#     8   8   2   8   8   8
#     4  11  23  38  61  97 128 164 205 269 334 381
#     4  10  18  34  61  88 114 161 215 258 303 381
#     4  12  16  32  62  84 108 168 214 244 300 384
#     4  11  20  36  63  91 123 164 215 259 316 382
#     4  10  19  34  60  86 118 157 214 260 315 372
#     4  11  21  37  63  92 125 164 219 260 312 395
#
# _framework density 25.769821
#
# number of rings (size 3 to 8) (size 9 to 14) (size 15 to 20)
#    0.000    1.333    8.571    0.000    0.000    0.000 
#    0.000    8.095    0.000    2.286    0.000    0.000 
#    0.000    0.000    0.000    0.000    0.000    0.000 
#
# Total GULP energy -234158.034900 kJ/mol
# GULP energy per Si atom -5575.191307 kJ/mol
# Density = 2.571117 g / cm^3
# Si number density = 25.769821 Si / 1000 Ang^3
#
#
#
# Elastic Constant Matrix: (Units=GPa)
#
#
# Indices 1 2 3 4 5 6 
#
# 1 50.0655 -6.5671 25.6533 0.0000 0.0000 0.0000
# 2 -6.5671 58.4992 40.1577 0.0000 0.0000 0.0000
# 3 25.6533 40.1577 255.7234 0.0000 0.0000 0.0000
# 4 0.0000 0.0000 0.0000 68.7047 0.0000 0.0000
# 5 0.0000 0.0000 0.0000 0.0000 31.0924 0.0000
# 6 0.0000 0.0000 0.0000 0.0000 0.0000 51.0466
#
#
#
# Elastic Compliance Matrix: (Units=1/GPa)
#
#
# Indices 1 2 3 4 5 6 
#
# 1 0.022055 0.004477 -0.002916 0.000000 0.000000 0.000000
# 2 0.004477 0.020069 -0.003601 0.000000 0.000000 0.000000
# 3 -0.002916 -0.003601 0.004768 0.000000 0.000000 0.000000
# 4 0.000000 0.000000 0.000000 0.014555 0.000000 0.000000
# 5 0.000000 0.000000 0.000000 0.000000 0.032162 0.000000
# 6 0.000000 0.000000 0.000000 0.000000 0.000000 0.019590
#
#
# Mechanical properties :
#
#
# Convention : Reuss Voigt Hill
#
# Bulk Modulus (GPa) = 23.35668 53.64176 38.49922
# Shear Modulus (GPa) = 38.00883 50.50503 44.25693
#
# Velocity S-wave (km/s) = 3.84466 4.43182 4.14864
# Velocity P-wave (km/s) = 5.36580 6.85923 6.15795
#
# Compressibility (1/GPa) = 0.04281430
#
# Stress axis : x y z
#
# Youngs Moduli (GPa) = 45.34106 49.82911 209.71461
#
# Poissons Ratio (x) = -0.22310 0.61144
# Poissons Ratio (y) = -0.20301 0.75511
# Poissons Ratio (z) = 0.13220 0.17942
#
# Static dielectric constant tensor:
#      x y z
#    x 2.238230 0.000000 0.000000 
#    y 0.000000 2.306090 0.000000 
#    z 0.000000 0.000000 2.283620 
# 
# From -- ./inp_files/25132.got.cif
#   From: 2010.05.17/outbox.cif.g08.bks.cpg/sg48_13_cif.got.tgz:25132.got - 2010.06.03 20:39:00.
