data_PCOD9389682
_publ_section_title
;
Structure prediction by ZEFSAII (Michael W. Deem and Ramdas Pophale) SiO2 
 PCOD9389682
Probable space group: P N N N
;
_chemical_formula_sum "Si O2"
_cell_formula_units_Z 52
_cell_length_a 13.253207
_cell_length_b 11.989770
_cell_length_c 14.087779
_cell_angle_alpha 90.000000
_cell_angle_beta 90.000000
_cell_angle_gamma 90.000000
_cell_volume 2238.588990
_symmetry_space_group_name_H-M "P N N N"
_symmetry_group_IT_number 48
_space_group.IT_coordinate_system_code '2'
_symmetry_cell_setting 'orthorhombic'
loop_
_space_group_symop_operation_xyz
x,y,z
1/2-x,1/2-y,z
x,1/2-y,1/2-z
1/2-x,y,1/2-z
-x,-y,-z
1/2+x,1/2+y,-z
-x,1/2+y,1/2+z
1/2+x,-y,1/2+z
loop_
_atom_site_type_symbol
_atom_site_label
_atom_site_fract_x
_atom_site_fract_y
_atom_site_fract_z
Si Si1 0.622957 0.102381 0.048112
Si Si2 0.601240 0.946158 0.876337
Si Si3 0.805739 0.908605 0.348177
Si Si4 0.444491 0.662134 0.925512
Si Si5 0.609239 0.909729 0.434217
Si Si6 0.992682 0.131851 0.738683
Si Si7 0.063542 0.250000 0.250000
O O1 0.504015 0.086868 0.072315
O O2 0.677341 0.040488 0.135405
O O3 0.627589 0.235460 0.044129
O O4 0.651511 0.024826 0.957566
O O5 0.627384 0.832938 0.818712
O O6 0.578706 0.034460 0.793597
O O7 0.750000 0.886817 0.250000
O O8 0.724009 0.870398 0.424373
O O9 0.917104 0.857574 0.340229
O O10 0.392870 0.543561 0.947130
O O11 0.486886 0.680719 0.818962
O O12 0.546013 0.655063 0.988106
O O13 0.549614 0.895816 0.335387
O O14 0.940470 0.250000 0.750000
#
# Coordination Sequence:
#
# PCOD9389682 Si02
#       7
#     8   8   8   8   8   8   4
#     4   9  18  33  52  78 107 148 185 228 279 343
#     4   9  17  31  53  78 106 141 190 227 273 330
#     4   9  20  34  52  81 116 146 182 232 296 357
#     4  10  20  33  55  78 112 147 189 233 287 337
#     4  10  20  34  49  80 114 147 179 235 292 347
#     4  10  18  32  52  79 112 148 185 226 288 350
#     4  10  18  34  56  80 104 140 184 250 268 328
#
# _framework density 23.228919000000001
#
# number of rings (size 3 to 8) (size 9 to 14) (size 15 to 20)
#    0.000    2.462    1.538    0.923    2.154    4.615 
#    0.000    2.308    0.000    1.846    0.000    0.000 
#    4.615    0.000    0.000    0.000    0.000    0.000 
#
# Total GULP energy -289788.414751 kJ/mol
# GULP energy per Si atom -5572.854130 kJ/mol
# Density = 2.317605 g / cm^3
# Si number density = 23.228919 Si / 1000 Ang^3
#
#
#
# Elastic Constant Matrix: (Units=GPa)
#
#
# Indices 1 2 3 4 5 6 
#
# 1 18.2084 9.1612 9.9645 0.0000 0.0000 0.0000
# 2 9.1612 160.1505 24.3032 0.0000 0.0000 0.0000
# 3 9.9645 24.3032 78.4535 0.0000 0.0000 0.0000
# 4 0.0000 0.0000 0.0000 39.6690 0.0000 0.0000
# 5 0.0000 0.0000 0.0000 0.0000 9.0816 0.0000
# 6 0.0000 0.0000 0.0000 0.0000 0.0000 -0.5366
#
#
#
# Elastic Compliance Matrix: (Units=1/GPa)
#
#
# Indices 1 2 3 4 5 6 
#
# 1 0.059877 -0.002383 -0.006867 0.000000 0.000000 0.000000
# 2 -0.002383 0.006647 -0.001756 0.000000 0.000000 0.000000
# 3 -0.006867 -0.001756 0.014163 0.000000 0.000000 0.000000
# 4 0.000000 0.000000 0.000000 0.025209 0.000000 0.000000
# 5 0.000000 0.000000 0.000000 0.000000 0.110113 0.000000
# 6 0.000000 0.000000 0.000000 0.000000 0.000000 -1.863699
#
#
# Mechanical properties :
#
#
# Convention : Reuss Voigt Hill
#
# Bulk Modulus (GPa) = 17.04343 38.18559 27.61451
# Shear Modulus (GPa) = -3.11309 23.86836 10.37763
#
# Velocity S-wave (km/s) = -1.15892 3.20898 2.11595
# Velocity P-wave (km/s) = 2.35845 5.49587 4.22888
#
# Compressibility (1/GPa) = 0.05867364
#
# Stress axis : x y z
#
# Youngs Moduli (GPa) = 16.70100 150.44409 70.60814
#
# Poissons Ratio (x) = 0.35852 0.48485
# Poissons Ratio (y) = 0.03980 0.12402
# Poissons Ratio (z) = 0.11468 0.26424
#
# Static dielectric constant tensor:
#      x y z
#    x 1.883370 0.000000 0.000000 
#    y 0.000000 1.969080 0.000000 
#    z 0.000000 0.000000 1.935050 
# 
# From -- ./inp_files/28005.got.cif
#   From: 2010.05.17/outbox.cif.g08.bks.cpg/sg48_15_cif.got.tgz:28005.got - 2010.06.03 20:39:00.
