data_PCOD9389768
_publ_section_title
;
Structure prediction by ZEFSAII (Michael W. Deem and Ramdas Pophale) SiO2 
 PCOD9389768
Probable space group: P N N N
;
_chemical_formula_sum "Si O2"
_cell_formula_units_Z 48
_cell_length_a 11.635719
_cell_length_b 12.607808
_cell_length_c 14.402378
_cell_angle_alpha 90.000000
_cell_angle_beta 90.000000
_cell_angle_gamma 90.000000
_cell_volume 2112.841975
_symmetry_space_group_name_H-M "P N N N"
_symmetry_group_IT_number 48
_space_group.IT_coordinate_system_code '2'
_symmetry_cell_setting 'orthorhombic'
loop_
_space_group_symop_operation_xyz
x,y,z
1/2-x,1/2-y,z
x,1/2-y,1/2-z
1/2-x,y,1/2-z
-x,-y,-z
1/2+x,1/2+y,-z
-x,1/2+y,1/2+z
1/2+x,-y,1/2+z
loop_
_atom_site_type_symbol
_atom_site_label
_atom_site_fract_x
_atom_site_fract_y
_atom_site_fract_z
Si Si1 0.750000 0.991077 0.250000
Si Si2 0.879953 0.013651 0.733874
Si Si3 0.690156 0.139326 0.423389
Si Si4 0.448596 0.750000 0.250000
Si Si5 0.362881 0.323197 0.628339
Si Si6 0.695526 0.541645 0.542133
Si Si7 0.548084 0.581763 0.922198
O O1 0.708431 0.062908 0.334734
O O2 0.846087 0.911731 0.291061
O O3 0.750000 0.976680 0.750000
O O4 0.882954 0.139977 0.745735
O O5 0.891354 0.979264 0.627084
O O6 0.952454 0.963870 0.817317
O O7 0.750000 0.250000 0.411006
O O8 0.751323 0.070973 0.505756
O O9 0.554212 0.165366 0.430807
O O10 0.529807 0.746583 0.341130
O O11 0.250000 0.250000 0.627675
O O12 0.368560 0.390170 0.535210
O O13 0.817564 0.604297 0.559609
O O14 0.500000 0.500000 0.000000
#
# Coordination Sequence:
#
# PCOD9389768 Si02
#       7
#     4   8   8   4   8   8   8
#     4  10  18  36  58  88 126 162 220 284 318 386
#     4  10  22  40  62  99 133 173 216 276 339 414
#     4  10  20  35  62  94 129 170 218 272 345 405
#     4  12  22  34  66  96 128 164 232 282 342 392
#     4  11  21  38  64  93 121 176 231 280 333 404
#     4   9  22  40  61  90 138 163 214 284 331 410
#     4   9  19  37  66  87 123 179 214 255 342 405
#
# _framework density 22.718216000000002
#
# number of rings (size 3 to 8) (size 9 to 14) (size 15 to 20)
#    0.000    2.000    1.667    1.500    4.667    4.667 
#    0.000    0.000    3.667    3.500    0.000    0.000 
#    0.000    0.000    0.000    0.000    0.000    0.000 
#
# Total GULP energy -267803.000873 kJ/mol
# GULP energy per Si atom -5579.229185 kJ/mol
# Density = 2.266651 g / cm^3
# Si number density = 22.718216 Si / 1000 Ang^3
#
#
#
# Elastic Constant Matrix: (Units=GPa)
#
#
# Indices 1 2 3 4 5 6 
#
# 1 74.0581 26.4899 41.6760 0.0000 0.0000 0.0000
# 2 26.4899 75.0231 38.5935 0.0000 0.0000 0.0000
# 3 41.6760 38.5935 145.3780 0.0000 0.0000 0.0000
# 4 0.0000 0.0000 0.0000 10.9685 0.0000 0.0000
# 5 0.0000 0.0000 0.0000 0.0000 14.6739 0.0000
# 6 0.0000 0.0000 0.0000 0.0000 0.0000 36.9367
#
#
#
# Elastic Compliance Matrix: (Units=1/GPa)
#
#
# Indices 1 2 3 4 5 6 
#
# 1 0.017112 -0.004075 -0.003824 0.000000 0.000000 0.000000
# 2 -0.004075 0.016408 -0.003188 0.000000 0.000000 0.000000
# 3 -0.003824 -0.003188 0.008821 0.000000 0.000000 0.000000
# 4 0.000000 0.000000 0.000000 0.091170 0.000000 0.000000
# 5 0.000000 0.000000 0.000000 0.000000 0.068148 0.000000
# 6 0.000000 0.000000 0.000000 0.000000 0.000000 0.027073
#
#
# Mechanical properties :
#
#
# Convention : Reuss Voigt Hill
#
# Bulk Modulus (GPa) = 49.58303 56.44199 53.01251
# Shear Modulus (GPa) = 19.40778 25.02915 22.21847
#
# Velocity S-wave (km/s) = 2.92598 3.32282 3.13070
# Velocity P-wave (km/s) = 5.76956 6.29443 6.03770
#
# Compressibility (1/GPa) = 0.02016819
#
# Stress axis : x y z
#
# Youngs Moduli (GPa) = 58.43714 60.94637 113.36562
#
# Poissons Ratio (x) = 0.24837 0.43349
# Poissons Ratio (y) = 0.23814 0.36136
# Poissons Ratio (z) = 0.22345 0.19427
#
# Static dielectric constant tensor:
#      x y z
#    x 1.963820 0.000000 0.000000 
#    y 0.000000 1.778770 0.000000 
#    z 0.000000 0.000000 1.948660 
# 
# From -- ./inp_files/26500.got.cif
#   From: 2010.05.17/outbox.cif.g08.bks.cpg/sg48_14_cif.got.tgz:26500.got - 2010.06.03 20:39:00.
