data_PCOD9389187
_publ_section_title
;
Structure prediction by ZEFSAII (Michael W. Deem and Ramdas Pophale) SiO2 
 PCOD9389187
Probable space group: P M M M
;
_chemical_formula_sum "Si O2"
_cell_formula_units_Z 64
_cell_length_a 19.059340
_cell_length_b 7.531754
_cell_length_c 19.586288
_cell_angle_alpha 90.000000
_cell_angle_beta 90.000000
_cell_angle_gamma 90.000000
_cell_volume 2811.616740
_symmetry_space_group_name_H-M "P M M M"
_symmetry_group_IT_number 47
_symmetry_cell_setting 'orthorhombic'
loop_
_space_group_symop_operation_xyz
x,y,z
-x,-y,z
x,-y,-z
-x,y,-z
-x,-y,-z
x,y,-z
-x,y,z
x,-y,z
loop_
_atom_site_type_symbol
_atom_site_label
_atom_site_fract_x
_atom_site_fract_y
_atom_site_fract_z
Si Si1 0.729141 0.218283 0.926475
Si Si2 0.421589 0.798306 0.598045
Si Si3 0.076387 0.284610 0.278861
Si Si4 0.120318 0.709355 0.574134
Si Si5 0.578712 0.796652 0.898979
Si Si6 0.274686 0.784019 0.374946
Si Si7 0.772645 0.206602 0.776119
Si Si8 0.582734 0.301675 0.249804
O O1 0.648380 0.282369 0.930227
O O2 0.757672 0.279324 0.852302
O O3 0.729443 0.000000 0.924597
O O4 0.762909 0.267363 0.000000
O O5 0.500000 0.719837 0.583518
O O6 0.344613 0.718265 0.584662
O O7 0.412685 0.800978 0.679946
O O8 0.423941 0.000000 0.573166
O O9 0.079468 0.500000 0.279549
O O10 0.084727 0.220361 0.357171
O O11 0.144608 0.222353 0.238656
O O12 0.000000 0.231468 0.252224
O O13 0.101888 0.785038 0.500000
O O14 0.103719 0.500000 0.572100
O O15 0.203542 0.729406 0.587513
O O16 0.500000 0.719465 0.908236
O O17 0.600793 0.796188 0.819107
O O18 0.573559 0.000000 0.921318
O O19 0.264850 0.725900 0.294549
O O20 0.277593 0.000000 0.375268
O O21 0.753050 0.000000 0.777916
O O22 0.500000 0.324329 0.242111
O O23 0.612773 0.500000 0.253267
#
# Coordination Sequence:
#
# PCOD9389187 Si02
#       8
#     8   8   8   8   8   8   8   8
#     4   9  17  29  46  68  93 123 162 207 250 288
#     4   9  16  26  41  61  86 117 157 206 251 284
#     4   9  18  33  54  79 103 126 152 183 222 269
#     4   9  18  32  50  74 103 131 156 182 216 265
#     4   9  16  26  41  60  84 117 157 200 244 289
#     4   9  17  29  46  68  94 126 162 197 236 281
#     4   9  17  30  48  70  97 127 158 193 234 281
#     4   9  16  24  35  54  80 109 143 187 241 295
#
# _framework density 22.762703999999999
#
# number of rings (size 3 to 8) (size 9 to 14) (size 15 to 20)
#    0.000    3.000    0.000    1.125    0.000    5.000 
#    0.000    5.625    0.000    2.250    0.000   10.500 
#    0.000    0.000    0.000    0.000    0.000    0.000 
#
# Total GULP energy -356361.096046 kJ/mol
# GULP energy per Si atom -5568.142126 kJ/mol
# Density = 2.271089 g / cm^3
# Si number density = 22.762704 Si / 1000 Ang^3
#
#
#
# Elastic Constant Matrix: (Units=GPa)
#
#
# Indices 1 2 3 4 5 6 
#
# 1 126.0057 -3.4627 26.7534 0.0000 0.0000 0.0000
# 2 -3.4627 65.5785 8.6455 0.0000 0.0000 0.0000
# 3 26.7534 8.6455 156.7896 0.0000 0.0000 0.0000
# 4 0.0000 0.0000 0.0000 -4.3941 0.0000 0.0000
# 5 0.0000 0.0000 0.0000 0.0000 22.8413 0.0000
# 6 0.0000 0.0000 0.0000 0.0000 0.0000 -3.8820
#
#
#
# Elastic Compliance Matrix: (Units=1/GPa)
#
#
# Indices 1 2 3 4 5 6 
#
# 1 0.008260 0.000627 -0.001444 0.000000 0.000000 0.000000
# 2 0.000627 0.015408 -0.000957 0.000000 0.000000 0.000000
# 3 -0.001444 -0.000957 0.006677 0.000000 0.000000 0.000000
# 4 0.000000 0.000000 0.000000 -0.227576 0.000000 0.000000
# 5 0.000000 0.000000 0.000000 0.000000 0.043780 0.000000
# 6 0.000000 0.000000 0.000000 0.000000 0.000000 -0.257601
#
#
# Mechanical properties :
#
#
# Convention : Reuss Voigt Hill
#
# Bulk Modulus (GPa) = 37.31735 45.80515 41.56125
# Shear Modulus (GPa) = -12.54479 24.00887 5.73204
#
# Velocity S-wave (km/s) = -2.35012 3.25121 1.58860
# Velocity P-wave (km/s) = 3.01091 5.85324 4.65435
#
# Compressibility (1/GPa) = 0.02679719
#
# Stress axis : x y z
#
# Youngs Moduli (GPa) = 121.06613 64.90102 149.76555
#
# Poissons Ratio (x) = -0.04066 0.21626
# Poissons Ratio (y) = -0.07585 0.14325
# Poissons Ratio (z) = 0.17482 0.06208
#
# Static dielectric constant tensor:
#      x y z
#    x 1.887060 0.000000 0.000000 
#    y 0.000000 1.902670 0.000000 
#    z 0.000000 0.000000 1.915070 
# 
# From -- ./inp_files/28806.got.cif
#   From: 2010.05.17/outbox.cif.g08.bks.cpg/sg47_15_cif.got.tgz:28806.got - 2010.06.03 20:15:42.
