data_PCOD9389977
_publ_section_title
;
Structure prediction by ZEFSAII (Michael W. Deem and Ramdas Pophale) SiO2 
 PCOD9389977
Probable space group: P N N N
;
_chemical_formula_sum "Si O2"
_cell_formula_units_Z 60
_cell_length_a 17.847463
_cell_length_b 31.965007
_cell_length_c 5.946167
_cell_angle_alpha 90.000000
_cell_angle_beta 90.000000
_cell_angle_gamma 90.000000
_cell_volume 3392.254260
_symmetry_space_group_name_H-M "P N N N"
_symmetry_group_IT_number 48
_space_group.IT_coordinate_system_code '2'
_symmetry_cell_setting 'orthorhombic'
loop_
_space_group_symop_operation_xyz
x,y,z
1/2-x,1/2-y,z
x,1/2-y,1/2-z
1/2-x,y,1/2-z
-x,-y,-z
1/2+x,1/2+y,-z
-x,1/2+y,1/2+z
1/2+x,-y,1/2+z
loop_
_atom_site_type_symbol
_atom_site_label
_atom_site_fract_x
_atom_site_fract_y
_atom_site_fract_z
Si Si1 0.937384 0.173896 0.019377
Si Si2 0.432792 0.019316 0.142095
Si Si3 0.357079 0.542607 0.040087
Si Si4 0.767218 0.526205 0.009205
Si Si5 0.860376 0.382011 0.848780
Si Si6 0.904494 0.250000 0.750000
Si Si7 0.970324 0.095834 0.262287
Si Si8 0.179899 0.806959 0.601992
O O1 0.883641 0.148215 0.853175
O O2 0.955050 0.215810 0.880643
O O3 0.989930 0.137195 0.117154
O O4 0.890095 0.188544 0.232349
O O5 0.355987 0.018696 0.001204
O O6 0.459760 0.065367 0.209436
O O7 0.415367 0.990814 0.357460
O O8 0.500000 0.000000 0.000000
O O9 0.284946 0.515366 0.975365
O O10 0.336099 0.574759 0.239636
O O11 0.402384 0.569704 0.856921
O O12 0.750000 0.542699 0.750000
O O13 0.750000 0.548728 0.250000
O O14 0.933940 0.390901 0.000353
O O15 0.805745 0.353295 0.997387
O O16 0.848397 0.225382 0.583608
O O17 0.250000 0.794731 0.750000
#
# Coordination Sequence:
#
# PCOD9389977 Si02
#       8
#     8   8   8   8   8   4   8   8
#     4   9  20  35  50  72  97 128 171 223 281 339
#     4  11  20  35  55  78 102 144 193 243 287 340
#     4  10  20  36  54  74 106 147 191 244 289 336
#     4  10  23  39  52  78 107 141 193 245 294 340
#     4   9  19  36  48  73 103 134 176 235 289 329
#     4  10  20  35  56  68  98 130 178 223 276 356
#     4  10  19  35  55  74 105 136 188 238 292 337
#     4  10  21  36  49  74  97 134 175 227 282 337
#
# _framework density 17.687353999999999
#
# number of rings (size 3 to 8) (size 9 to 14) (size 15 to 20)
#    0.000    2.133    1.333    1.600    1.867    4.800 
#   21.600    0.000    0.000    0.800    0.000    0.000 
#    0.000    0.000    0.000    0.000    0.000  348.000 
#
# Total GULP energy -334361.130555 kJ/mol
# GULP energy per Si atom -5572.685509 kJ/mol
# Density = 1.764710 g / cm^3
# Si number density = 17.687354 Si / 1000 Ang^3
#
#
#
# Elastic Constant Matrix: (Units=GPa)
#
#
# Indices 1 2 3 4 5 6 
#
# 1 76.5429 31.3877 23.6909 0.0000 0.0000 0.0000
# 2 31.3877 113.3172 36.0739 0.0000 0.0000 0.0000
# 3 23.6909 36.0739 96.9809 0.0000 0.0000 0.0000
# 4 0.0000 0.0000 0.0000 38.0669 0.0000 0.0000
# 5 0.0000 0.0000 0.0000 0.0000 16.9132 0.0000
# 6 0.0000 0.0000 0.0000 0.0000 0.0000 10.9921
#
#
#
# Elastic Compliance Matrix: (Units=1/GPa)
#
#
# Indices 1 2 3 4 5 6 
#
# 1 0.015231 -0.003442 -0.002440 0.000000 0.000000 0.000000
# 2 -0.003442 0.010788 -0.003172 0.000000 0.000000 0.000000
# 3 -0.002440 -0.003172 0.012087 0.000000 0.000000 0.000000
# 4 0.000000 0.000000 0.000000 0.026270 0.000000 0.000000
# 5 0.000000 0.000000 0.000000 0.000000 0.059125 0.000000
# 6 0.000000 0.000000 0.000000 0.000000 0.000000 0.090974
#
#
# Mechanical properties :
#
#
# Convention : Reuss Voigt Hill
#
# Bulk Modulus (GPa) = 50.00551 52.12736 51.06643
# Shear Modulus (GPa) = 20.89859 26.24034 23.56946
#
# Velocity S-wave (km/s) = 3.44111 3.85589 3.65438
# Velocity P-wave (km/s) = 6.64241 7.02562 6.83670
#
# Compressibility (1/GPa) = 0.01999780
#
# Stress axis : x y z
#
# Youngs Moduli (GPa) = 65.65387 92.69578 82.73114
#
# Poissons Ratio (x) = 0.31906 0.20190
# Poissons Ratio (y) = 0.22598 0.26242
# Poissons Ratio (z) = 0.16023 0.29403
#
# Static dielectric constant tensor:
#      x y z
#    x 1.575390 0.000000 0.000000 
#    y 0.000000 1.665130 0.000000 
#    z 0.000000 0.000000 1.703540 
# 
# From -- ./inp_files/5474.got.cif
#   From: 2010.05.17/outbox.cif.g08.bks.cpg/sg48_3_cif.got.tgz:5474.got - 2010.06.03 20:39:00.
