data_PCOD9389314
_publ_section_title
;
Structure prediction by ZEFSAII (Michael W. Deem and Ramdas Pophale) SiO2 
 PCOD9389314
Probable space group: P M M M
;
_chemical_formula_sum "Si O2"
_cell_formula_units_Z 44
_cell_length_a 9.000000
_cell_length_b 30.000000
_cell_length_c 9.000000
_cell_angle_alpha 90.000000
_cell_angle_beta 90.000000
_cell_angle_gamma 90.000000
_cell_volume 2430.000000
_symmetry_space_group_name_H-M "P M M M"
_symmetry_group_IT_number 47
_symmetry_cell_setting 'orthorhombic'
loop_
_space_group_symop_operation_xyz
x,y,z
-x,-y,z
x,-y,-z
-x,y,-z
-x,-y,-z
x,y,-z
-x,y,z
x,-y,z
loop_
_atom_site_type_symbol
_atom_site_label
_atom_site_fract_x
_atom_site_fract_y
_atom_site_fract_z
Si Si1 0.324046 0.549599 0.321898
Si Si2 0.675839 0.726855 0.176662
Si Si3 0.673195 0.096932 0.318580
Si Si4 0.827740 0.812037 0.320852
Si Si5 0.318735 0.000000 0.673253
Si Si6 0.174245 0.635015 0.822122
O O1 0.306684 0.551715 0.500000
O O2 0.500000 0.552930 0.289883
O O3 0.273686 0.500000 0.273309
O O4 0.241178 0.590680 0.248704
O O5 0.500000 0.724780 0.198833
O O6 0.741219 0.770185 0.255120
O O7 0.747766 0.680544 0.230353
O O8 0.705760 0.730413 0.000000
O O9 0.678981 0.095339 0.500000
O O10 0.500000 0.102215 0.278421
O O11 0.762494 0.140355 0.270292
O O12 0.726985 0.048182 0.263972
O O13 0.815588 0.810924 0.500000
O O14 0.000000 0.808724 0.280225
O O15 0.500000 0.000000 0.674900
O O16 0.273132 0.000000 0.500000
O O17 0.000000 0.637920 0.790542
O O18 0.195303 0.632454 0.000000
#
# Coordination Sequence:
#
# PCOD9389314 Si02
#       6
#     8   8   8   8   4   8
#     4   9  19  36  56  78 105 137 172 207 242 283
#     4  10  21  37  56  75  95 125 167 209 248 293
#     4   8  13  23  40  62  90 124 161 200 240 283
#     4  10  20  32  47  71 102 132 162 198 243 295
#     4   7  10  18  35  59  86 119 158 197 238 282
#     4  10  21  36  54  77 104 132 163 202 248 296
#
# _framework density 18.106995999999999
#
# number of rings (size 3 to 8) (size 9 to 14) (size 15 to 20)
#    0.000    2.818    0.000    3.273    0.000    5.091 
#    0.000    3.182    0.000    2.727    0.000    0.636 
#    0.000    5.091    0.000    0.000    0.000    0.000 
#
# Total GULP energy -245239.160888 kJ/mol
# GULP energy per Si atom -5573.617293 kJ/mol
# Density = 1.806578 g / cm^3
# Si number density = 18.106996 Si / 1000 Ang^3
#
#
#
# Elastic Constant Matrix: (Units=GPa)
#
#
# Indices 1 2 3 4 5 6 
#
# 1 1.9972 44.9555 34.4457 0.0000 0.0000 0.0000
# 2 44.9555 188.5038 36.2381 0.0000 0.0000 0.0000
# 3 34.4457 36.2381 1.9327 0.0000 0.0000 0.0000
# 4 0.0000 0.0000 0.0000 -888.2996 0.0000 0.0000
# 5 0.0000 0.0000 0.0000 0.0000 20.1807 0.0000
# 6 0.0000 0.0000 0.0000 0.0000 0.0000 -179.3518
#
#
#
# Elastic Compliance Matrix: (Units=1/GPa)
#
#
# Indices 1 2 3 4 5 6 
#
# 1 0.008094 -0.009907 0.041491 0.000000 0.000000 0.000000
# 2 -0.009907 0.010088 -0.012592 0.000000 0.000000 0.000000
# 3 0.041491 -0.012592 0.014028 0.000000 0.000000 0.000000
# 4 0.000000 0.000000 0.000000 -0.001126 0.000000 0.000000
# 5 0.000000 0.000000 0.000000 0.000000 0.049552 0.000000
# 6 0.000000 0.000000 0.000000 0.000000 0.000000 -0.005576
#
#
# Mechanical properties :
#
#
# Convention : Reuss Voigt Hill
#
# Bulk Modulus (GPa) = 14.24587 47.07912 30.66249
# Shear Modulus (GPa) = 82.67961 -204.37450 -60.84745
#
# Velocity S-wave (km/s) = 6.76467 -10.63558 -5.80322
# Velocity P-wave (km/s) = 8.30055 11.16977 5.28510
#
# Compressibility (1/GPa) = 0.07019580
#
# Stress axis : x y z
#
# Youngs Moduli (GPa) = 123.54744 99.12594 71.28561
#
# Poissons Ratio (x) = 0.98200 -2.95772
# Poissons Ratio (y) = 1.22394 0.89762
# Poissons Ratio (z) = -5.12613 1.24818
#
# Static dielectric constant tensor:
#      x y z
#    x 1.605390 0.000000 0.000000 
#    y 0.000000 1.623870 0.000000 
#    z 0.000000 0.000000 1.614110 
# 
# From -- ./inp_files/2233.got.cif
#   From: 2010.05.17/outbox.ucp.g08.bks.cvg/sg47_2_cif.got.tgz:2233.got - 2010.06.11 16:36:43.
