data_PCOD9389928
_publ_section_title
;
Structure prediction by ZEFSAII (Michael W. Deem and Ramdas Pophale) SiO2 
 PCOD9389928
Probable space group: P N N N
;
_chemical_formula_sum "Si O2"
_cell_formula_units_Z 56
_cell_length_a 14.938740
_cell_length_b 29.095776
_cell_length_c 5.565516
_cell_angle_alpha 90.000000
_cell_angle_beta 90.000000
_cell_angle_gamma 90.000000
_cell_volume 2419.075087
_symmetry_space_group_name_H-M "P N N N"
_symmetry_group_IT_number 48
_space_group.IT_coordinate_system_code '2'
_symmetry_cell_setting 'orthorhombic'
loop_
_space_group_symop_operation_xyz
x,y,z
1/2-x,1/2-y,z
x,1/2-y,1/2-z
1/2-x,y,1/2-z
-x,-y,-z
1/2+x,1/2+y,-z
-x,1/2+y,1/2+z
1/2+x,-y,1/2+z
loop_
_atom_site_type_symbol
_atom_site_label
_atom_site_fract_x
_atom_site_fract_y
_atom_site_fract_z
Si Si1 0.155330 0.173125 0.798366
Si Si2 0.285575 0.697397 0.006794
Si Si3 0.513068 0.296388 0.098061
Si Si4 0.394918 0.511068 0.950800
Si Si5 0.534263 0.878089 0.926893
Si Si6 0.831655 0.920249 0.920952
Si Si7 0.573766 0.459341 0.547616
O O1 0.250000 0.197336 0.750000
O O2 0.109349 0.150857 0.565737
O O3 0.075858 0.199705 0.934845
O O4 0.181380 0.128774 0.957308
O O5 0.250000 0.750000 0.004371
O O6 0.250000 0.678100 0.750000
O O7 0.392400 0.701364 0.033929
O O8 0.250000 0.674190 0.250000
O O9 0.508689 0.250000 0.250000
O O10 0.516445 0.340225 0.273526
O O11 0.348848 0.462037 0.901250
O O12 0.368602 0.529077 0.216366
O O13 0.500000 0.500000 0.000000
O O14 0.380874 0.542213 0.716417
O O15 0.581528 0.913189 0.744619
O O16 0.474867 0.910556 0.094108
O O17 0.750000 0.931146 0.750000
O O18 0.500000 0.500000 0.500000
#
# Coordination Sequence:
#
# PCOD9389928 Si02
#       7
#     8   8   8   8   8   8   8
#     4  11  24  41  67  96 146 195 254 306 364 433
#     4  10  21  42  78 107 136 161 229 300 362 432
#     4  11  26  45  69 109 140 185 248 308 377 451
#     4  10  19  33  60  90 125 164 221 287 352 402
#     4  11  23  39  65  96 134 186 239 297 360 434
#     4  11  21  36  61  96 131 179 247 302 342 428
#     4  10  19  35  61  92 126 165 228 283 356 422
#
# _framework density 23.149342999999998
#
# number of rings (size 3 to 8) (size 9 to 14) (size 15 to 20)
#    0.000    1.429    5.714    1.714    4.000    0.571 
#    0.000    2.143    0.000    2.571    0.000    0.000 
#    0.000    0.000    0.000    0.000    0.000    0.000 
#
# Total GULP energy -312806.664355 kJ/mol
# GULP energy per Si atom -5585.833292 kJ/mol
# Density = 2.309665 g / cm^3
# Si number density = 23.149343 Si / 1000 Ang^3
#
#
#
# Elastic Constant Matrix: (Units=GPa)
#
#
# Indices 1 2 3 4 5 6 
#
# 1 132.0227 43.2808 34.0002 0.0000 0.0000 0.0000
# 2 43.2808 68.9303 8.8446 0.0000 0.0000 0.0000
# 3 34.0002 8.8446 135.6269 0.0000 0.0000 0.0000
# 4 0.0000 0.0000 0.0000 100.4031 0.0000 0.0000
# 5 0.0000 0.0000 0.0000 0.0000 35.9533 0.0000
# 6 0.0000 0.0000 0.0000 0.0000 0.0000 47.8509
#
#
#
# Elastic Compliance Matrix: (Units=1/GPa)
#
#
# Indices 1 2 3 4 5 6 
#
# 1 0.010118 -0.006079 -0.002140 0.000000 0.000000 0.000000
# 2 -0.006079 0.018282 0.000332 0.000000 0.000000 0.000000
# 3 -0.002140 0.000332 0.007888 0.000000 0.000000 0.000000
# 4 0.000000 0.000000 0.000000 0.009960 0.000000 0.000000
# 5 0.000000 0.000000 0.000000 0.000000 0.027814 0.000000
# 6 0.000000 0.000000 0.000000 0.000000 0.000000 0.020898
#
#
# Mechanical properties :
#
#
# Convention : Reuss Voigt Hill
#
# Bulk Modulus (GPa) = 48.74787 56.53680 52.64233
# Shear Modulus (GPa) = 42.52709 53.53840 48.03274
#
# Velocity S-wave (km/s) = 4.29076 4.81431 4.56006
# Velocity P-wave (km/s) = 6.75657 7.44172 7.10740
#
# Compressibility (1/GPa) = 0.02051372
#
# Stress axis : x y z
#
# Youngs Moduli (GPa) = 98.83025 54.69989 126.77392
#
# Poissons Ratio (x) = 0.33250 0.27132
# Poissons Ratio (y) = 0.60075 -0.04204
# Poissons Ratio (z) = 0.21151 -0.01814
#
# Static dielectric constant tensor:
#      x y z
#    x 1.901990 0.000000 0.000000 
#    y 0.000000 1.830530 0.000000 
#    z 0.000000 0.000000 2.045160 
# 
# From -- ./inp_files/3731.got.cif
#   From: 2010.05.17/outbox.cif.g08.bks.cpg/sg48_2_cif.got.tgz:3731.got - 2010.06.03 20:39:00.
