data_PCOD9389103
_publ_section_title
;
Structure prediction by ZEFSAII (Michael W. Deem and Ramdas Pophale) SiO2 
 PCOD9389103
Probable space group: P M M M
;
_chemical_formula_sum "Si O2"
_cell_formula_units_Z 44
_cell_length_a 31.752198
_cell_length_b 9.365697
_cell_length_c 7.866729
_cell_angle_alpha 90.000000
_cell_angle_beta 90.000000
_cell_angle_gamma 90.000000
_cell_volume 2339.419399
_symmetry_space_group_name_H-M "P M M M"
_symmetry_group_IT_number 47
_symmetry_cell_setting 'orthorhombic'
loop_
_space_group_symop_operation_xyz
x,y,z
-x,-y,z
x,-y,-z
-x,y,-z
-x,-y,-z
x,y,-z
-x,y,z
x,-y,z
loop_
_atom_site_type_symbol
_atom_site_label
_atom_site_fract_x
_atom_site_fract_y
_atom_site_fract_z
Si Si1 0.136389 0.836903 0.296564
Si Si2 0.782384 0.336238 0.291717
Si Si3 0.300436 0.165932 0.705830
Si Si4 0.954624 0.167211 0.204558
Si Si5 0.548428 0.174592 0.500000
Si Si6 0.393488 0.173926 0.189045
O O1 0.140499 0.845545 0.500000
O O2 0.175765 0.745964 0.233043
O O3 0.090190 0.772470 0.261154
O O4 0.137831 0.000000 0.229057
O O5 0.782661 0.334108 0.500000
O O6 0.782653 0.500000 0.237674
O O7 0.739783 0.256396 0.238723
O O8 0.302793 0.169948 0.500000
O O9 0.345393 0.217875 0.774232
O O10 0.294734 0.000000 0.755141
O O11 0.000000 0.227635 0.262446
O O12 0.954173 0.000000 0.258589
O O13 0.954783 0.169485 0.000000
O O14 0.500000 0.220825 0.500000
O O15 0.574465 0.221217 0.665596
O O16 0.548290 0.000000 0.500000
O O17 0.392875 0.000000 0.195453
O O18 0.406262 0.217107 0.000000
#
# Coordination Sequence:
#
# PCOD9389103 Si02
#       6
#     8   8   8   8   4   8
#     4   9  16  26  42  65  89 112 143 181 220 264
#     4   9  17  28  43  64  89 117 148 182 224 274
#     4   9  15  26  45  64  85 117 155 191 227 270
#     4   8  14  25  41  61  84 109 138 175 219 263
#     4   9  16  26  40  62  95 131 163 195 236 285
#     4   9  16  26  41  63  91 123 160 199 237 279
#
# _framework density 18.808085999999999
#
# number of rings (size 3 to 8) (size 9 to 14) (size 15 to 20)
#    0.000    3.182    0.909    1.091    0.000    2.909 
#    0.000    4.545    0.000    7.091    0.000    3.818 
#    0.000    1.455    0.000    1.636    0.000    1.818 
#
# Total GULP energy -245108.184009 kJ/mol
# GULP energy per Si atom -5570.640546 kJ/mol
# Density = 1.876528 g / cm^3
# Si number density = 18.808086 Si / 1000 Ang^3
#
#
#
# Elastic Constant Matrix: (Units=GPa)
#
#
# Indices 1 2 3 4 5 6 
#
# 1 215.3764 54.3841 59.7589 0.0000 0.0000 0.0000
# 2 54.3841 40.0551 17.2119 0.0000 0.0000 0.0000
# 3 59.7589 17.2119 58.0169 0.0000 0.0000 0.0000
# 4 0.0000 0.0000 0.0000 2.6886 0.0000 0.0000
# 5 0.0000 0.0000 0.0000 0.0000 -45.8171 0.0000
# 6 0.0000 0.0000 0.0000 0.0000 0.0000 -3.7383
#
#
#
# Elastic Compliance Matrix: (Units=1/GPa)
#
#
# Indices 1 2 3 4 5 6 
#
# 1 0.008667 -0.009090 -0.006231 0.000000 0.000000 0.000000
# 2 -0.009090 0.038148 -0.001954 0.000000 0.000000 0.000000
# 3 -0.006231 -0.001954 0.024234 0.000000 0.000000 0.000000
# 4 0.000000 0.000000 0.000000 0.371936 0.000000 0.000000
# 5 0.000000 0.000000 0.000000 0.000000 -0.021826 0.000000
# 6 0.000000 0.000000 0.000000 0.000000 0.000000 -0.267501
#
#
# Mechanical properties :
#
#
# Convention : Reuss Voigt Hill
#
# Bulk Modulus (GPa) = 27.39825 64.01759 45.70792
# Shear Modulus (GPa) = 24.95344 2.76621 13.85983
#
# Velocity S-wave (km/s) = 3.64640 1.21406 2.71755
# Velocity P-wave (km/s) = 5.68570 6.00637 5.84823
#
# Compressibility (1/GPa) = 0.03649868
#
# Stress axis : x y z
#
# Youngs Moduli (GPa) = 115.37782 26.21398 41.26490
#
# Poissons Ratio (x) = 0.23830 0.25710
# Poissons Ratio (y) = 1.04883 0.08063
# Poissons Ratio (z) = 0.71887 0.05122
#
# Static dielectric constant tensor:
#      x y z
#    x 1.660710 0.000000 0.000000 
#    y 0.000000 1.616180 0.000000 
#    z 0.000000 0.000000 1.677320 
# 
# From -- ./inp_files/13585.got.cif
#   From: 2010.05.17/outbox.cif.g08.bks.cpg/sg47_7_cif.got.tgz:13585.got - 2010.06.03 20:15:42.
