data_PCOD9389629
_publ_section_title
;
Structure prediction by ZEFSAII (Michael W. Deem and Ramdas Pophale) SiO2 
 PCOD9389629
Probable space group: P N N N
;
_chemical_formula_sum "Si O2"
_cell_formula_units_Z 42
_cell_length_a 5.583410
_cell_length_b 19.487517
_cell_length_c 17.500111
_cell_angle_alpha 90.000000
_cell_angle_beta 90.000000
_cell_angle_gamma 90.000000
_cell_volume 1904.131030
_symmetry_space_group_name_H-M "P N N N"
_symmetry_group_IT_number 48
_space_group.IT_coordinate_system_code '2'
_symmetry_cell_setting 'orthorhombic'
loop_
_space_group_symop_operation_xyz
x,y,z
1/2-x,1/2-y,z
x,1/2-y,1/2-z
1/2-x,y,1/2-z
-x,-y,-z
1/2+x,1/2+y,-z
-x,1/2+y,1/2+z
1/2+x,-y,1/2+z
loop_
_atom_site_type_symbol
_atom_site_label
_atom_site_fract_x
_atom_site_fract_y
_atom_site_fract_z
Si Si1 0.357389 0.326694 0.172939
Si Si2 0.745813 0.477539 0.659666
Si Si3 0.238755 0.137683 0.003151
Si Si4 0.758685 0.135095 0.538830
Si Si5 0.248274 0.509850 0.582618
Si Si6 0.750000 0.250000 0.250000
O O1 0.250000 0.250000 0.168975
O O2 0.250000 0.360389 0.250000
O O3 0.291054 0.360909 0.094178
O O4 0.626008 0.304903 0.192786
O O5 0.750000 0.474238 0.750000
O O6 0.735703 0.402459 0.620171
O O7 0.494563 0.510702 0.630721
O O8 0.002152 0.508030 0.631005
O O9 0.490540 0.170525 0.979230
O O10 0.995809 0.170994 0.971118
O O11 0.248536 0.060604 0.967249
O O12 0.748096 0.073496 0.475287
#
# Coordination Sequence:
#
# PCOD9389629 Si02
#       6
#     8   8   8   8   8   2
#     4   9  20  35  53  75 103 137 174 214 266 299
#     4  10  18  30  49  67  92 130 170 200 241 301
#     4  10  19  32  54  70  95 136 172 200 250 313
#     4  10  20  34  50  70 103 134 166 213 261 295
#     4  10  19  35  49  70 103 135 164 214 262 294
#     4   8  18  36  56  66 108 140 164 228 270 296
#
# _framework density 22.057306000000001
#
# number of rings (size 3 to 8) (size 9 to 14) (size 15 to 20)
#    0.000    2.476    0.000    6.286    5.333    0.000 
#    0.000   10.476    0.000    0.000    0.000    0.000 
#    0.000   73.143    0.000    0.000    0.000    0.000 
#
# Total GULP energy -234352.341704 kJ/mol
# GULP energy per Si atom -5579.817660 kJ/mol
# Density = 2.200710 g / cm^3
# Si number density = 22.057306 Si / 1000 Ang^3
#
#
#
# Elastic Constant Matrix: (Units=GPa)
#
#
# Indices 1 2 3 4 5 6 
#
# 1 208.0990 27.8740 62.7101 0.0000 0.0000 0.0000
# 2 27.8740 66.7062 38.8057 0.0000 0.0000 0.0000
# 3 62.7101 38.8057 170.3621 0.0000 0.0000 0.0000
# 4 0.0000 0.0000 0.0000 19.4274 0.0000 0.0000
# 5 0.0000 0.0000 0.0000 0.0000 47.3940 0.0000
# 6 0.0000 0.0000 0.0000 0.0000 0.0000 -132.2256
#
#
#
# Elastic Compliance Matrix: (Units=1/GPa)
#
#
# Indices 1 2 3 4 5 6 
#
# 1 0.005500 -0.001292 -0.001730 0.000000 0.000000 0.000000
# 2 -0.001292 0.017584 -0.003530 0.000000 0.000000 0.000000
# 3 -0.001730 -0.003530 0.007311 0.000000 0.000000 0.000000
# 4 0.000000 0.000000 0.000000 0.051474 0.000000 0.000000
# 5 0.000000 0.000000 0.000000 0.000000 0.021100 0.000000
# 6 0.000000 0.000000 0.000000 0.000000 0.000000 -0.007563
#
#
# Mechanical properties :
#
#
# Convention : Reuss Voigt Hill
#
# Bulk Modulus (GPa) = 57.83258 78.21631 68.02445
# Shear Modulus (GPa) = 43.75482 7.97100 25.86291
#
# Velocity S-wave (km/s) = 4.45869 1.90305 3.42794
# Velocity P-wave (km/s) = 7.26517 6.35345 6.82455
#
# Compressibility (1/GPa) = 0.01729129
#
# Stress axis : x y z
#
# Youngs Moduli (GPa) = 181.82410 56.86872 136.78325
#
# Poissons Ratio (x) = 0.07345 0.23667
# Poissons Ratio (y) = 0.23484 0.48284
# Poissons Ratio (z) = 0.31461 0.20075
#
# Static dielectric constant tensor:
#      x y z
#    x 2.189560 0.000000 0.000000 
#    y 0.000000 1.808260 0.000000 
#    z 0.000000 0.000000 1.764440 
# 
# From -- ./inp_files/5860.got.cif
#   From: 2010.05.17/outbox.cif.g08.bks.cpg/sg48_3_cif.got.tgz:5860.got - 2010.06.03 20:39:00.
