data_PCOD9389689
_publ_section_title
;
Structure prediction by ZEFSAII (Michael W. Deem and Ramdas Pophale) SiO2 
 PCOD9389689
Probable space group: P N N N
;
_chemical_formula_sum "Si O2"
_cell_formula_units_Z 64
_cell_length_a 8.585036
_cell_length_b 24.136862
_cell_length_c 15.209887
_cell_angle_alpha 90.000000
_cell_angle_beta 90.000000
_cell_angle_gamma 90.000000
_cell_volume 3151.729347
_symmetry_space_group_name_H-M "P N N N"
_symmetry_group_IT_number 48
_space_group.IT_coordinate_system_code '2'
_symmetry_cell_setting 'orthorhombic'
loop_
_space_group_symop_operation_xyz
x,y,z
1/2-x,1/2-y,z
x,1/2-y,1/2-z
1/2-x,y,1/2-z
-x,-y,-z
1/2+x,1/2+y,-z
-x,1/2+y,1/2+z
1/2+x,-y,1/2+z
loop_
_atom_site_type_symbol
_atom_site_label
_atom_site_fract_x
_atom_site_fract_y
_atom_site_fract_z
Si Si1 0.316441 0.147641 0.157085
Si Si2 0.814014 0.691720 0.476323
Si Si3 0.700481 0.466745 0.152097
Si Si4 0.156738 0.463869 0.396828
Si Si5 0.685770 0.412833 0.849311
Si Si6 0.337202 0.079726 0.592856
Si Si7 0.185581 0.648993 0.850416
Si Si8 0.188099 0.808486 0.028510
O O1 0.250000 0.167065 0.250000
O O2 0.242909 0.180332 0.075425
O O3 0.265295 0.083260 0.144669
O O4 0.500844 0.153209 0.155358
O O5 0.750000 0.750000 0.444782
O O6 0.757937 0.638773 0.419836
O O7 0.000636 0.691138 0.474215
O O8 0.750000 0.458685 0.250000
O O9 0.513937 0.464861 0.146160
O O10 0.759001 0.527539 0.126794
O O11 0.768891 0.411694 0.109938
O O12 0.224519 0.525852 0.388705
O O13 0.120725 0.442884 0.495419
O O14 0.750000 0.408920 0.750000
O O15 0.495812 0.412360 0.852381
O O16 0.736065 0.361242 0.910956
O O17 0.250000 0.657821 0.750000
O O18 0.252060 0.687024 0.927964
O O19 0.250000 0.750000 0.064963
#
# Coordination Sequence:
#
# PCOD9389689 Si02
#       8
#     8   8   8   8   8   8   8   8
#     4  11  21  35  56  85 118 154 190 231 286 360
#     4  10  21  40  60  80 107 151 200 240 290 353
#     4  10  18  32  56  86 116 144 179 231 286 337
#     4  10  19  37  59  83 117 158 194 230 291 359
#     4  10  20  35  60  88 117 155 199 240 290 353
#     4   9  19  37  60  81 115 157 191 236 296 353
#     4  11  22  37  58  90 123 154 190 240 297 353
#     4  11  23  41  61  84 116 153 197 254 300 343
#
# _framework density 20.306311000000001
#
# number of rings (size 3 to 8) (size 9 to 14) (size 15 to 20)
#    0.000    1.750    0.000    7.875    0.000    2.750 
#    0.000   16.875    0.000    1.875    0.000    0.000 
#    0.000    0.000    0.000    0.000    0.000    0.000 
#
# Total GULP energy -356960.866801 kJ/mol
# GULP energy per Si atom -5577.513544 kJ/mol
# Density = 2.026009 g / cm^3
# Si number density = 20.306311 Si / 1000 Ang^3
#
#
#
# Elastic Constant Matrix: (Units=GPa)
#
#
# Indices 1 2 3 4 5 6 
#
# 1 71.7510 19.0658 22.7742 0.0000 0.0000 0.0000
# 2 19.0658 143.4654 30.1598 0.0000 0.0000 0.0000
# 3 22.7742 30.1598 76.2413 0.0000 0.0000 0.0000
# 4 0.0000 0.0000 0.0000 13.6266 0.0000 0.0000
# 5 0.0000 0.0000 0.0000 0.0000 59.9662 0.0000
# 6 0.0000 0.0000 0.0000 0.0000 0.0000 108.4257
#
#
#
# Elastic Compliance Matrix: (Units=1/GPa)
#
#
# Indices 1 2 3 4 5 6 
#
# 1 0.015581 -0.001191 -0.004183 0.000000 0.000000 0.000000
# 2 -0.001191 0.007694 -0.002688 0.000000 0.000000 0.000000
# 3 -0.004183 -0.002688 0.015429 0.000000 0.000000 0.000000
# 4 0.000000 0.000000 0.000000 0.073386 0.000000 0.000000
# 5 0.000000 0.000000 0.000000 0.000000 0.016676 0.000000
# 6 0.000000 0.000000 0.000000 0.000000 0.000000 0.009223
#
#
# Mechanical properties :
#
#
# Convention : Reuss Voigt Hill
#
# Bulk Modulus (GPa) = 44.28704 48.38416 46.33560
# Shear Modulus (GPa) = 30.93297 51.03420 40.98359
#
# Velocity S-wave (km/s) = 3.90721 5.01864 4.49739
# Velocity P-wave (km/s) = 6.49706 7.58032 7.05950
#
# Compressibility (1/GPa) = 0.02257997
#
# Stress axis : x y z
#
# Youngs Moduli (GPa) = 64.17910 129.97750 64.81308
#
# Poissons Ratio (x) = 0.15484 0.27112
# Poissons Ratio (y) = 0.07646 0.17419
# Poissons Ratio (z) = 0.26847 0.34933
#
# Static dielectric constant tensor:
#      x y z
#    x 1.732780 0.000000 0.000000 
#    y 0.000000 1.865850 0.000000 
#    z 0.000000 0.000000 1.762460 
# 
# From -- ./inp_files/25736.got.cif
#   From: 2010.05.17/outbox.cif.g08.bks.cpg/sg48_13_cif.got.tgz:25736.got - 2010.06.03 20:39:00.
