data_PCOD9389739
_publ_section_title
;
Structure prediction by ZEFSAII (Michael W. Deem and Ramdas Pophale) SiO2 
 PCOD9389739
Probable space group: P N N N
;
_chemical_formula_sum "Si O2"
_cell_formula_units_Z 44
_cell_length_a 12.727364
_cell_length_b 8.841354
_cell_length_c 18.419751
_cell_angle_alpha 90.000000
_cell_angle_beta 90.000000
_cell_angle_gamma 90.000000
_cell_volume 2072.721727
_symmetry_space_group_name_H-M "P N N N"
_symmetry_group_IT_number 48
_space_group.IT_coordinate_system_code '2'
_symmetry_cell_setting 'orthorhombic'
loop_
_space_group_symop_operation_xyz
x,y,z
1/2-x,1/2-y,z
x,1/2-y,1/2-z
1/2-x,y,1/2-z
-x,-y,-z
1/2+x,1/2+y,-z
-x,1/2+y,1/2+z
1/2+x,-y,1/2+z
loop_
_atom_site_type_symbol
_atom_site_label
_atom_site_fract_x
_atom_site_fract_y
_atom_site_fract_z
Si Si1 0.750000 0.250000 0.375444
Si Si2 0.684679 0.901500 0.961118
Si Si3 0.530655 0.253993 0.036095
Si Si4 0.773501 0.918993 0.124649
Si Si5 0.720090 0.424234 0.826124
Si Si6 0.019484 0.929049 0.099220
O O1 0.640336 0.254691 0.421153
O O2 0.751371 0.417366 0.338301
O O3 0.750000 0.750000 0.945304
O O4 0.559232 0.872553 0.956368
O O5 0.725749 0.012605 0.898941
O O6 0.717639 0.935015 0.044873
O O7 0.471458 0.407730 0.061169
O O8 0.555917 0.292929 0.952823
O O9 0.750000 0.750000 0.154619
O O10 0.897810 0.910172 0.113560
O O11 0.750000 0.250000 0.822912
O O12 0.750000 0.500718 0.750000
O O13 0.594893 0.434489 0.832990
#
# Coordination Sequence:
#
# PCOD9389739 Si02
#       6
#     4   8   8   8   8   8
#     4  10  22  30  50  84 122 156 186 228 308 380
#     4  11  19  36  56  86 119 146 202 245 298 377
#     4  10  19  33  56  87 120 150 188 243 320 366
#     4  10  20  35  54  89 122 152 193 238 319 371
#     4  11  25  39  55  84 118 165 210 241 293 364
#     4  10  18  35  55  77 123 158 182 252 303 353
#
# _framework density 21.228124999999999
#
# number of rings (size 3 to 8) (size 9 to 14) (size 15 to 20)
#    0.000    1.636    5.455    2.182    5.091    2.545 
#    0.000    0.000    0.000    0.000    0.000   22.909 
#    0.000    0.000    0.000    0.000    0.000    0.000 
#
# Total GULP energy -245118.647448 kJ/mol
# GULP energy per Si atom -5570.878351 kJ/mol
# Density = 2.117981 g / cm^3
# Si number density = 21.228125 Si / 1000 Ang^3
#
#
#
# Elastic Constant Matrix: (Units=GPa)
#
#
# Indices 1 2 3 4 5 6 
#
# 1 129.0827 15.5585 21.6548 0.0000 0.0000 0.0000
# 2 15.5585 129.5317 15.8781 0.0000 0.0000 0.0000
# 3 21.6548 15.8781 49.8974 0.0000 0.0000 0.0000
# 4 0.0000 0.0000 0.0000 -21.9732 0.0000 0.0000
# 5 0.0000 0.0000 0.0000 0.0000 26.9373 0.0000
# 6 0.0000 0.0000 0.0000 0.0000 0.0000 28.2658
#
#
#
# Elastic Compliance Matrix: (Units=1/GPa)
#
#
# Indices 1 2 3 4 5 6 
#
# 1 0.008398 -0.000585 -0.003458 0.000000 0.000000 0.000000
# 2 -0.000585 0.008074 -0.002316 0.000000 0.000000 0.000000
# 3 -0.003458 -0.002316 0.022279 0.000000 0.000000 0.000000
# 4 0.000000 0.000000 0.000000 -0.045510 0.000000 0.000000
# 5 0.000000 0.000000 0.000000 0.000000 0.037123 0.000000
# 6 0.000000 0.000000 0.000000 0.000000 0.000000 0.035378
#
#
# Mechanical properties :
#
#
# Convention : Reuss Voigt Hill
#
# Bulk Modulus (GPa) = 38.41232 46.07721 42.24476
# Shear Modulus (GPa) = 57.38047 23.67399 40.52723
#
# Velocity S-wave (km/s) = 5.20472 3.34311 4.37410
# Velocity P-wave (km/s) = 7.36567 6.05431 6.74195
#
# Compressibility (1/GPa) = 0.02603331
#
# Stress axis : x y z
#
# Youngs Moduli (GPa) = 119.08128 123.85133 44.88553
#
# Poissons Ratio (x) = 0.07242 0.15523
# Poissons Ratio (y) = 0.06963 0.10394
# Poissons Ratio (z) = 0.41183 0.28679
#
# Static dielectric constant tensor:
#      x y z
#    x 1.751770 0.000000 0.000000 
#    y 0.000000 1.859690 0.000000 
#    z 0.000000 0.000000 1.796210 
# 
# From -- ./inp_files/36204.got.cif
#   From: 2010.05.17/outbox.cif.g08.bks.cpg/sg48_19_cif.got.tgz:36204.got - 2010.06.03 20:39:00.
