data_PCOD9389323
_publ_section_title
;
Structure prediction by ZEFSAII (Michael W. Deem and Ramdas Pophale) SiO2 
 PCOD9389323
Probable space group: P M M M
;
_chemical_formula_sum "Si O2"
_cell_formula_units_Z 44
_cell_length_a 9.000000
_cell_length_b 9.000000
_cell_length_c 30.000000
_cell_angle_alpha 90.000000
_cell_angle_beta 90.000000
_cell_angle_gamma 90.000000
_cell_volume 2430.000000
_symmetry_space_group_name_H-M "P M M M"
_symmetry_group_IT_number 47
_symmetry_cell_setting 'orthorhombic'
loop_
_space_group_symop_operation_xyz
x,y,z
-x,-y,z
x,-y,-z
-x,y,-z
-x,-y,-z
x,y,-z
-x,y,z
x,-y,z
loop_
_atom_site_type_symbol
_atom_site_label
_atom_site_fract_x
_atom_site_fract_y
_atom_site_fract_z
Si Si1 0.821648 0.675537 0.229617
Si Si2 0.677692 0.322761 0.588192
Si Si3 0.822242 0.822377 0.500000
Si Si4 0.175060 0.819824 0.950374
Si Si5 0.323169 0.822565 0.142405
Si Si6 0.821431 0.176492 0.324066
O O1 0.789518 0.500000 0.232446
O O2 0.747299 0.744277 0.185553
O O3 0.776305 0.754000 0.276192
O O4 0.000000 0.694567 0.225561
O O5 0.500000 0.299306 0.586654
O O6 0.705823 0.500000 0.587733
O O7 0.751811 0.248842 0.544564
O O8 0.743175 0.252924 0.633668
O O9 0.000000 0.797702 0.500000
O O10 0.796060 0.000000 0.500000
O O11 0.257784 0.769593 0.905427
O O12 0.000000 0.784025 0.946693
O O13 0.187409 0.000000 0.950839
O O14 0.226709 0.769182 0.000000
O O15 0.500000 0.801372 0.142370
O O16 0.292660 0.000000 0.145772
O O17 0.000000 0.197665 0.328412
O O18 0.791727 0.000000 0.324122
#
# Coordination Sequence:
#
# PCOD9389323 Si02
#       6
#     8   8   4   8   8   8
#     4  10  21  37  57  79 104 139 182 225 270 320
#     4  11  24  40  59  86 119 153 188 226 272 326
#     4  11  24  41  62  88 116 149 192 237 278 322
#     4   8  14  26  46  72 101 134 173 217 264 314
#     4  10  20  32  49  76 108 141 176 216 266 322
#     4  10  21  38  61  87 112 141 181 227 274 325
#
# _framework density 18.106995999999999
#
# number of rings (size 3 to 8) (size 9 to 14) (size 15 to 20)
#    0.000    2.091    0.000    3.818    0.000    9.818 
#    0.000    1.818    0.000    0.545    0.000    3.818 
#    0.000    0.000    0.000    0.000    0.000    0.000 
#
# Total GULP energy -245653.323576 kJ/mol
# GULP energy per Si atom -5583.030081 kJ/mol
# Density = 1.806578 g / cm^3
# Si number density = 18.106996 Si / 1000 Ang^3
#
#
#
# Elastic Constant Matrix: (Units=GPa)
#
#
# Indices 1 2 3 4 5 6 
#
# 1 71.7504 67.6206 90.8445 0.0000 0.0000 0.0000
# 2 67.6206 100.4014 97.5931 0.0000 0.0000 0.0000
# 3 90.8445 97.5931 248.1045 0.0000 0.0000 0.0000
# 4 0.0000 0.0000 0.0000 19.9540 0.0000 0.0000
# 5 0.0000 0.0000 0.0000 0.0000 20.0739 0.0000
# 6 0.0000 0.0000 0.0000 0.0000 0.0000 25.4030
#
#
#
# Elastic Compliance Matrix: (Units=1/GPa)
#
#
# Indices 1 2 3 4 5 6 
#
# 1 0.045266 -0.023276 -0.007419 0.000000 0.000000 0.000000
# 2 -0.023276 0.028094 -0.002528 0.000000 0.000000 0.000000
# 3 -0.007419 -0.002528 0.007742 0.000000 0.000000 0.000000
# 4 0.000000 0.000000 0.000000 0.050115 0.000000 0.000000
# 5 0.000000 0.000000 0.000000 0.000000 0.049816 0.000000
# 6 0.000000 0.000000 0.000000 0.000000 0.000000 0.039365
#
#
# Mechanical properties :
#
#
# Convention : Reuss Voigt Hill
#
# Bulk Modulus (GPa) = 68.23150 103.59697 85.91423
# Shear Modulus (GPa) = 17.13915 24.03271 20.58593
#
# Velocity S-wave (km/s) = 3.07994 3.64711 3.37546
# Velocity P-wave (km/s) = 7.10016 8.66448 7.92103
#
# Compressibility (1/GPa) = 0.01465599
#
# Stress axis : x y z
#
# Youngs Moduli (GPa) = 22.09145 35.59490 129.17284
#
# Poissons Ratio (x) = 0.82850 0.95832
# Poissons Ratio (y) = 0.51419 0.32660
# Poissons Ratio (z) = 0.16389 0.09000
#
# Static dielectric constant tensor:
#      x y z
#    x 1.609980 0.000000 0.000000 
#    y 0.000000 1.612080 0.000000 
#    z 0.000000 0.000000 1.599740 
# 
# From -- ./inp_files/33937.got.cif
#   From: 2010.05.17/outbox.ucp.g08.bks.cvg/sg47_17_cif.got.tgz:33937.got - 2010.06.11 16:36:43.
