data_PCOD9389715
_publ_section_title
;
Structure prediction by ZEFSAII (Michael W. Deem and Ramdas Pophale) SiO2 
 PCOD9389715
Probable space group: P N N N
;
_chemical_formula_sum "Si O2"
_cell_formula_units_Z 58
_cell_length_a 17.005830
_cell_length_b 13.040793
_cell_length_c 12.548602
_cell_angle_alpha 90.000000
_cell_angle_beta 90.000000
_cell_angle_gamma 90.000000
_cell_volume 2782.897302
_symmetry_space_group_name_H-M "P N N N"
_symmetry_group_IT_number 48
_space_group.IT_coordinate_system_code '2'
_symmetry_cell_setting 'orthorhombic'
loop_
_space_group_symop_operation_xyz
x,y,z
1/2-x,1/2-y,z
x,1/2-y,1/2-z
1/2-x,y,1/2-z
-x,-y,-z
1/2+x,1/2+y,-z
-x,1/2+y,1/2+z
1/2+x,-y,1/2+z
loop_
_atom_site_type_symbol
_atom_site_label
_atom_site_fract_x
_atom_site_fract_y
_atom_site_fract_z
Si Si1 0.897355 0.471009 0.093903
Si Si2 0.250000 0.250000 0.750000
Si Si3 0.036715 0.337493 0.044070
Si Si4 0.665952 0.092320 0.709252
Si Si5 0.499166 0.687117 0.149045
Si Si6 0.816342 0.618174 0.836078
Si Si7 0.356522 0.432108 0.818433
Si Si8 0.241933 0.515993 0.499912
O O1 0.865452 0.518933 0.202576
O O2 0.963162 0.384981 0.107260
O O3 0.932762 0.567231 0.028477
O O4 0.823710 0.428429 0.026559
O O5 0.306319 0.326706 0.814752
O O6 0.109133 0.315050 0.125384
O O7 0.007384 0.252399 0.959551
O O8 0.750000 0.136942 0.750000
O O9 0.586304 0.154619 0.692932
O O10 0.653334 0.991115 0.784481
O O11 0.688234 0.062528 0.589981
O O12 0.533434 0.750000 0.250000
O O13 0.556805 0.590701 0.137715
O O14 0.750000 0.649025 0.750000
O O15 0.769959 0.590696 0.944948
O O16 0.307666 0.504085 0.894956
#
# Coordination Sequence:
#
# PCOD9389715 Si02
#       8
#     8   2   8   8   8   8   8   8
#     4  10  18  34  55  83 118 160 201 238 301 388
#     4  12  20  32  52  92 120 138 172 260 316 364
#     4  10  20  33  57  84 121 160 198 250 306 372
#     4   9  21  41  61  84 119 162 214 252 301 368
#     4  12  24  35  55  96 126 151 194 269 325 357
#     4   8  17  36  60  82 113 162 215 246 292 378
#     4  12  21  35  58  89 123 148 194 255 322 364
#     4   9  19  34  58  81 111 163 202 246 298 374
#
# _framework density 20.841588000000002
#
# number of rings (size 3 to 8) (size 9 to 14) (size 15 to 20)
#    0.000    2.207    3.448    0.828    7.724    0.828 
#    0.000    0.000    0.000   10.759    0.000    1.931 
#    0.000    0.000    0.000    0.000    0.000    0.000 
#
# Total GULP energy -323085.632689 kJ/mol
# GULP energy per Si atom -5570.441943 kJ/mol
# Density = 2.079415 g / cm^3
# Si number density = 20.841588 Si / 1000 Ang^3
#
#
#
# Elastic Constant Matrix: (Units=GPa)
#
#
# Indices 1 2 3 4 5 6 
#
# 1 129.7674 22.8071 36.6740 0.0000 0.0000 0.0000
# 2 22.8071 32.7546 17.0170 0.0000 0.0000 0.0000
# 3 36.6740 17.0170 93.5477 0.0000 0.0000 0.0000
# 4 0.0000 0.0000 0.0000 -15.0036 0.0000 0.0000
# 5 0.0000 0.0000 0.0000 0.0000 31.4751 0.0000
# 6 0.0000 0.0000 0.0000 0.0000 0.0000 3.3696
#
#
#
# Elastic Compliance Matrix: (Units=1/GPa)
#
#
# Indices 1 2 3 4 5 6 
#
# 1 0.009380 -0.005103 -0.002749 0.000000 0.000000 0.000000
# 2 -0.005103 0.036493 -0.004638 0.000000 0.000000 0.000000
# 3 -0.002749 -0.004638 0.012611 0.000000 0.000000 0.000000
# 4 0.000000 0.000000 0.000000 -0.066651 0.000000 0.000000
# 5 0.000000 0.000000 0.000000 0.000000 0.031771 0.000000
# 6 0.000000 0.000000 0.000000 0.000000 0.000000 0.296768
#
#
# Mechanical properties :
#
#
# Convention : Reuss Voigt Hill
#
# Bulk Modulus (GPa) = 29.84699 45.45176 37.64938
# Shear Modulus (GPa) = 14.02447 15.93966 14.98206
#
# Velocity S-wave (km/s) = 2.59686 2.76850 2.68405
# Velocity P-wave (km/s) = 4.83152 5.66348 5.26396
#
# Compressibility (1/GPa) = 0.03350421
#
# Stress axis : x y z
#
# Youngs Moduli (GPa) = 106.61134 27.40274 79.29550
#
# Poissons Ratio (x) = 0.13984 0.21798
# Poissons Ratio (y) = 0.54404 0.36775
# Poissons Ratio (z) = 0.29307 0.12709
#
# Static dielectric constant tensor:
#      x y z
#    x 1.812670 0.000000 0.000000 
#    y 0.000000 1.780410 0.000000 
#    z 0.000000 0.000000 1.764300 
# 
# From -- ./inp_files/22304.got.cif
#   From: 2010.05.17/outbox.cif.g08.bks.cpg/sg48_12_cif.got.tgz:22304.got - 2010.06.03 20:39:00.
