data_PCOD9389902
_publ_section_title
;
Structure prediction by ZEFSAII (Michael W. Deem and Ramdas Pophale) SiO2 
 PCOD9389902
Probable space group: P N N N
;
_chemical_formula_sum "Si O2"
_cell_formula_units_Z 64
_cell_length_a 14.980794
_cell_length_b 24.206765
_cell_length_c 9.743776
_cell_angle_alpha 90.000000
_cell_angle_beta 90.000000
_cell_angle_gamma 90.000000
_cell_volume 3533.449409
_symmetry_space_group_name_H-M "P N N N"
_symmetry_group_IT_number 48
_space_group.IT_coordinate_system_code '2'
_symmetry_cell_setting 'orthorhombic'
loop_
_space_group_symop_operation_xyz
x,y,z
1/2-x,1/2-y,z
x,1/2-y,1/2-z
1/2-x,y,1/2-z
-x,-y,-z
1/2+x,1/2+y,-z
-x,1/2+y,1/2+z
1/2+x,-y,1/2+z
loop_
_atom_site_type_symbol
_atom_site_label
_atom_site_fract_x
_atom_site_fract_y
_atom_site_fract_z
Si Si1 0.910461 0.855386 0.589695
Si Si2 0.410459 0.144605 0.410319
Si Si3 0.382913 0.627927 0.597288
Si Si4 0.617081 0.372085 0.097280
Si Si5 0.750007 0.934832 0.584184
Si Si6 0.250004 0.562133 0.414804
Si Si7 0.447349 0.250002 0.907219
Si Si8 0.149299 0.749997 0.496062
O O1 0.892874 0.839648 0.750009
O O2 0.837555 0.900136 0.545344
O O3 0.912586 0.802829 0.490767
O O4 0.010932 0.878446 0.585876
O O5 0.510926 0.121539 0.414125
O O6 0.337547 0.099858 0.454664
O O7 0.412596 0.197160 0.509253
O O8 0.355460 0.610203 0.750001
O O9 0.333703 0.593958 0.480098
O O10 0.359325 0.692948 0.580361
O O11 0.666290 0.406058 0.980100
O O12 0.640668 0.307065 0.080330
O O13 0.750000 0.937045 0.750000
O O14 0.750017 0.998271 0.539474
O O15 0.250000 0.565495 0.250000
O O16 0.418416 0.250000 0.750000
O O17 0.556730 0.249997 0.910098
O O18 0.250000 0.750000 0.433086
#
# Coordination Sequence:
#
# PCOD9389902 Si02
#       8
#     8   8   8   8   8   8   8   8
#     4   9  19  38  61  81 105 145 189 225 264 322
#     4   9  19  38  61  81 105 145 189 225 264 322
#     4  10  20  35  56  83 111 142 182 227 271 321
#     4  10  20  35  56  83 111 142 182 227 271 321
#     4   9  20  40  61  78 102 143 196 235 264 317
#     4  11  23  36  53  80 112 147 184 227 278 325
#     4  10  21  35  53  85 121 141 168 222 281 331
#     4  10  19  33  54  81 108 150 180 212 255 330
#
# _framework density 18.112611999999999
#
# number of rings (size 3 to 8) (size 9 to 14) (size 15 to 20)
#    0.000    2.250    1.250    1.125    0.000    9.250 
#    0.000    5.625    0.000    0.000    0.000    0.000 
#    0.000    0.000    0.000    0.000    0.000    0.000 
#
# Total GULP energy -356761.376484 kJ/mol
# GULP energy per Si atom -5574.396508 kJ/mol
# Density = 1.807139 g / cm^3
# Si number density = 18.112612 Si / 1000 Ang^3
#
#
#
# Elastic Constant Matrix: (Units=GPa)
#
#
# Indices 1 2 3 4 5 6 
#
# 1 105.4788 74.5501 32.8195 0.0000 0.0000 0.0000
# 2 74.5501 127.7302 65.4316 0.0000 0.0000 0.0000
# 3 32.8195 65.4316 114.8342 0.0000 0.0000 0.0000
# 4 0.0000 0.0000 0.0000 3.3159 0.0000 0.0000
# 5 0.0000 0.0000 0.0000 0.0000 16.3416 0.0000
# 6 0.0000 0.0000 0.0000 0.0000 0.0000 17.8964
#
#
#
# Elastic Compliance Matrix: (Units=1/GPa)
#
#
# Indices 1 2 3 4 5 6 
#
# 1 0.016230 -0.010022 0.001072 0.000000 0.000000 0.000000
# 2 -0.010022 0.017244 -0.006962 0.000000 0.000000 0.000000
# 3 0.001072 -0.006962 0.012368 0.000000 0.000000 0.000000
# 4 0.000000 0.000000 0.000000 0.301574 0.000000 0.000000
# 5 0.000000 0.000000 0.000000 0.000000 0.061194 0.000000
# 6 0.000000 0.000000 0.000000 0.000000 0.000000 0.055877
#
#
# Mechanical properties :
#
#
# Convention : Reuss Voigt Hill
#
# Bulk Modulus (GPa) = 71.32641 77.07174 74.19908
# Shear Modulus (GPa) = 9.98035 19.19358 14.58696
#
# Velocity S-wave (km/s) = 2.34992 3.25880 2.84094
# Velocity P-wave (km/s) = 6.84308 7.53681 7.19831
#
# Compressibility (1/GPa) = 0.01402005
#
# Stress axis : x y z
#
# Youngs Moduli (GPa) = 61.61274 57.98953 80.85055
#
# Poissons Ratio (x) = 0.58117 -0.08666
# Poissons Ratio (y) = 0.61748 0.56284
# Poissons Ratio (z) = -0.06604 0.40369
#
# Static dielectric constant tensor:
#      x y z
#    x 1.637160 0.000000 0.000000 
#    y 0.000000 1.594300 0.000000 
#    z 0.000000 0.000000 1.601920 
# 
# From -- ./inp_files/13285.got.cif
#   From: 2010.05.17/outbox.cif.g08.bks.cpg/sg48_7_cif.got.tgz:13285.got - 2010.06.03 20:39:00.
