data_PCOD9389062
_publ_section_title
;
Structure prediction by ZEFSAII (Michael W. Deem and Ramdas Pophale) SiO2 
 PCOD9389062
Probable space group: P M M M
;
_chemical_formula_sum "Si O2"
_cell_formula_units_Z 52
_cell_length_a 13.880383
_cell_length_b 22.147904
_cell_length_c 7.477946
_cell_angle_alpha 90.000000
_cell_angle_beta 90.000000
_cell_angle_gamma 90.000000
_cell_volume 2298.880555
_symmetry_space_group_name_H-M "P M M M"
_symmetry_group_IT_number 47
_symmetry_cell_setting 'orthorhombic'
loop_
_space_group_symop_operation_xyz
x,y,z
-x,-y,z
x,-y,-z
-x,y,-z
-x,-y,-z
x,y,-z
-x,y,z
x,-y,z
loop_
_atom_site_type_symbol
_atom_site_label
_atom_site_fract_x
_atom_site_fract_y
_atom_site_fract_z
Si Si1 0.810977 0.805104 0.717167
Si Si2 0.819399 0.932484 0.702851
Si Si3 0.895645 0.323374 0.788424
Si Si4 0.603027 0.927488 0.206480
Si Si5 0.606040 0.244677 0.289506
Si Si6 0.389138 0.500000 0.218314
Si Si7 0.694410 0.372459 0.783037
O O1 0.808456 0.808070 0.500000
O O2 0.852667 0.869116 0.784610
O O3 0.874601 0.747626 0.766142
O O4 0.701553 0.789312 0.781581
O O5 0.856077 0.936115 0.500000
O O6 0.704045 0.919063 0.697052
O O7 0.832820 0.000000 0.782724
O O8 0.801794 0.357284 0.716746
O O9 0.000000 0.338958 0.712631
O O10 0.898086 0.336003 0.000000
O O11 0.500000 0.904936 0.280101
O O12 0.595522 0.000000 0.203014
O O13 0.611431 0.907750 0.000000
O O14 0.602940 0.230474 0.500000
O O15 0.500000 0.231544 0.212800
O O16 0.627893 0.316016 0.270880
O O17 0.500000 0.500000 0.272036
O O18 0.340707 0.437719 0.277421
O O19 0.386033 0.500000 0.000000
O O20 0.694614 0.372255 0.000000
#
# Coordination Sequence:
#
# PCOD9389062 Si02
#       7
#     8   8   8   8   8   4   8
#     4   9  18  31  47  68  91 117 152 190 231 284
#     4   9  17  28  42  61  85 112 143 183 232 285
#     4   9  18  33  52  72  93 117 150 196 241 274
#     4   8  14  24  36  51  75 109 147 182 215 258
#     4   9  17  29  44  63  91 125 158 194 232 266
#     4   9  16  26  44  72 104 135 163 189 218 257
#     4   9  17  30  48  70  96 126 160 193 226 269
#
# _framework density 22.619706000000001
#
# number of rings (size 3 to 8) (size 9 to 14) (size 15 to 20)
#    0.000    3.154    0.000    0.923    0.000    2.769 
#    0.000    3.846    0.000    4.154    0.000    3.231 
#    0.000    4.923    0.000    0.000    0.000    0.000 
#
# Total GULP energy -289922.086566 kJ/mol
# GULP energy per Si atom -5575.424742 kJ/mol
# Density = 2.256822 g / cm^3
# Si number density = 22.619706 Si / 1000 Ang^3
#
#
#
# Elastic Constant Matrix: (Units=GPa)
#
#
# Indices 1 2 3 4 5 6 
#
# 1 84.8029 34.8253 -0.8376 0.0000 0.0000 0.0000
# 2 34.8253 168.0062 -8.8139 0.0000 0.0000 0.0000
# 3 -0.8376 -8.8139 67.7005 0.0000 0.0000 0.0000
# 4 0.0000 0.0000 0.0000 15.2315 0.0000 0.0000
# 5 0.0000 0.0000 0.0000 0.0000 6.0671 0.0000
# 6 0.0000 0.0000 0.0000 0.0000 0.0000 -2.5505
#
#
#
# Elastic Compliance Matrix: (Units=1/GPa)
#
#
# Indices 1 2 3 4 5 6 
#
# 1 0.012892 -0.002682 -0.000190 0.000000 0.000000 0.000000
# 2 -0.002682 0.006551 0.000820 0.000000 0.000000 0.000000
# 3 -0.000190 0.000820 0.014875 0.000000 0.000000 0.000000
# 4 0.000000 0.000000 0.000000 0.065653 0.000000 0.000000
# 5 0.000000 0.000000 0.000000 0.000000 0.164825 0.000000
# 6 0.000000 0.000000 0.000000 0.000000 0.000000 -0.392075
#
#
# Mechanical properties :
#
#
# Convention : Reuss Voigt Hill
#
# Bulk Modulus (GPa) = 33.09755 41.20636 37.15196
# Shear Modulus (GPa) = -44.20758 23.43866 -10.38446
#
# Velocity S-wave (km/s) = -4.42564 3.22251 -2.14496
# Velocity P-wave (km/s) = 3.38394 5.66592 3.21337
#
# Compressibility (1/GPa) = 0.03021371
#
# Stress axis : x y z
#
# Youngs Moduli (GPa) = 77.56951 152.64497 67.22548
#
# Poissons Ratio (x) = 0.40943 0.01275
# Poissons Ratio (y) = 0.20806 -0.05511
# Poissons Ratio (z) = 0.01471 -0.12512
#
# Static dielectric constant tensor:
#      x y z
#    x 1.900260 0.000000 0.000000 
#    y 0.000000 1.841760 0.000000 
#    z 0.000000 0.000000 1.874760 
# 
# From -- ./inp_files/7056.got.cif
#   From: 2010.05.17/outbox.cif.g08.bks.cpg/sg47_4_cif.got.tgz:7056.got - 2010.06.03 20:15:42.
