data_PCOD9389372
_publ_section_title
;
Structure prediction by ZEFSAII (Michael W. Deem and Ramdas Pophale) SiO2 
 PCOD9389372
Probable space group: P M M M
;
_chemical_formula_sum "Si O2"
_cell_formula_units_Z 64
_cell_length_a 15.000000
_cell_length_b 9.000000
_cell_length_c 24.000000
_cell_angle_alpha 90.000000
_cell_angle_beta 90.000000
_cell_angle_gamma 90.000000
_cell_volume 3240.000000
_symmetry_space_group_name_H-M "P M M M"
_symmetry_group_IT_number 47
_symmetry_cell_setting 'orthorhombic'
loop_
_space_group_symop_operation_xyz
x,y,z
-x,-y,z
x,-y,-z
-x,y,-z
-x,-y,-z
x,y,-z
-x,y,z
x,-y,z
loop_
_atom_site_type_symbol
_atom_site_label
_atom_site_fract_x
_atom_site_fract_y
_atom_site_fract_z
Si Si1 0.215747 0.331038 0.933643
Si Si2 0.785588 0.179130 0.756540
Si Si3 0.902131 0.822450 0.857826
Si Si4 0.896007 0.322288 0.343631
Si Si5 0.599942 0.677477 0.594417
Si Si6 0.594419 0.319438 0.066074
Si Si7 0.402836 0.177162 0.715767
Si Si8 0.781080 0.829768 0.563674
O O1 0.204549 0.500000 0.913433
O O2 0.132528 0.234826 0.916159
O O3 0.310391 0.266442 0.912068
O O4 0.223187 0.336924 0.000000
O O5 0.831393 0.231190 0.812802
O O6 0.840071 0.249800 0.706086
O O7 0.681920 0.217332 0.752302
O O8 0.793348 0.000000 0.752959
O O9 0.000000 0.767149 0.843687
O O10 0.903339 0.000000 0.857041
O O11 0.890394 0.500000 0.340637
O O12 0.848197 0.264106 0.399064
O O13 0.000000 0.278889 0.341219
O O14 0.500000 0.713850 0.573233
O O15 0.611336 0.500000 0.590723
O O16 0.602614 0.731414 0.658521
O O17 0.682336 0.760116 0.566469
O O18 0.500000 0.268312 0.090777
O O19 0.597093 0.500000 0.069490
O O20 0.591639 0.284361 0.000000
O O21 0.500000 0.204432 0.741327
O O22 0.397271 0.000000 0.702690
O O23 0.810852 0.830272 0.500000
O O24 0.777193 0.000000 0.584439
#
# Coordination Sequence:
#
# PCOD9389372 Si02
#       8
#     8   8   8   8   8   8   8   8
#     4   9  18  33  54  80 108 140 181 228 276 327
#     4  10  20  37  61  84 109 144 183 224 270 326
#     4  10  22  38  54  76 108 146 187 230 277 328
#     4  11  24  40  60  86 112 141 181 232 291 345
#     4  10  20  34  55  84 117 151 186 228 279 332
#     4   7  10  20  42  71 100 130 166 208 255 310
#     4   9  17  31  55  85 113 143 180 219 266 330
#     4  11  24  40  58  82 113 151 194 236 277 329
#
# _framework density 19.753086
#
# number of rings (size 3 to 8) (size 9 to 14) (size 15 to 20)
#    0.000    2.375    1.250    2.625    0.000    5.000 
#    0.000    4.375    0.000    1.125    0.000    1.750 
#    0.000    0.000    0.000    0.000    0.000    0.000 
#
# Total GULP energy -356666.849305 kJ/mol
# GULP energy per Si atom -5572.919520 kJ/mol
# Density = 1.970813 g / cm^3
# Si number density = 19.753086 Si / 1000 Ang^3
#
#
#
# Elastic Constant Matrix: (Units=GPa)
#
#
# Indices 1 2 3 4 5 6 
#
# 1 134.9450 29.4600 46.0996 0.0000 0.0000 0.0000
# 2 29.4600 9.5404 7.7187 0.0000 0.0000 0.0000
# 3 46.0996 7.7187 33.7731 0.0000 0.0000 0.0000
# 4 0.0000 0.0000 0.0000 31.3855 0.0000 0.0000
# 5 0.0000 0.0000 0.0000 0.0000 71.5625 0.0000
# 6 0.0000 0.0000 0.0000 0.0000 0.0000 25.9587
#
#
#
# Elastic Compliance Matrix: (Units=1/GPa)
#
#
# Indices 1 2 3 4 5 6 
#
# 1 0.038510 -0.093717 -0.031147 0.000000 0.000000 0.000000
# 2 -0.093717 0.356661 0.046409 0.000000 0.000000 0.000000
# 3 -0.031147 0.046409 0.061518 0.000000 0.000000 0.000000
# 4 0.000000 0.000000 0.000000 0.031862 0.000000 0.000000
# 5 0.000000 0.000000 0.000000 0.000000 0.013974 0.000000
# 6 0.000000 0.000000 0.000000 0.000000 0.000000 0.038523
#
#
# Mechanical properties :
#
#
# Convention : Reuss Voigt Hill
#
# Bulk Modulus (GPa) = 3.33580 38.31278 20.82429
# Shear Modulus (GPa) = 6.26657 32.11335 19.18996
#
# Velocity S-wave (km/s) = 1.78307 4.03642 3.12026
# Velocity P-wave (km/s) = 2.43547 6.41572 4.85248
#
# Compressibility (1/GPa) = 0.29977836
#
# Stress axis : x y z
#
# Youngs Moduli (GPa) = 25.96700 2.80379 16.25531
#
# Poissons Ratio (x) = 0.26276 0.50631
# Poissons Ratio (y) = 2.43355 -0.75439
# Poissons Ratio (z) = 0.80880 -0.13012
#
# Static dielectric constant tensor:
#      x y z
#    x 1.739460 0.000000 0.000000 
#    y 0.000000 1.667980 0.000000 
#    z 0.000000 0.000000 1.707020 
# 
# From -- ./inp_files/32100.got.cif
#   From: 2010.05.17/outbox.ucp.g08.bks.cvg/sg47_17_cif.got.tgz:32100.got - 2010.06.11 16:36:43.
