data_PCOD9389698
_publ_section_title
;
Structure prediction by ZEFSAII (Michael W. Deem and Ramdas Pophale) SiO2 
 PCOD9389698
Probable space group: P N N N
;
_chemical_formula_sum "Si O2"
_cell_formula_units_Z 48
_cell_length_a 15.998726
_cell_length_b 14.698310
_cell_length_c 8.136119
_cell_angle_alpha 90.000000
_cell_angle_beta 90.000000
_cell_angle_gamma 90.000000
_cell_volume 1913.242834
_symmetry_space_group_name_H-M "P N N N"
_symmetry_group_IT_number 48
_space_group.IT_coordinate_system_code '2'
_symmetry_cell_setting 'orthorhombic'
loop_
_space_group_symop_operation_xyz
x,y,z
1/2-x,1/2-y,z
x,1/2-y,1/2-z
1/2-x,y,1/2-z
-x,-y,-z
1/2+x,1/2+y,-z
-x,1/2+y,1/2+z
1/2+x,-y,1/2+z
loop_
_atom_site_type_symbol
_atom_site_label
_atom_site_fract_x
_atom_site_fract_y
_atom_site_fract_z
Si Si1 0.608306 0.333609 0.443644
Si Si2 0.080678 0.101405 0.443219
Si Si3 0.065587 0.436813 0.683237
Si Si4 0.127339 0.624405 0.596160
Si Si5 0.652359 0.726520 0.064579
Si Si6 0.625683 0.428258 0.761498
O O1 0.519384 0.386614 0.434818
O O2 0.593617 0.225526 0.440041
O O3 0.660339 0.361612 0.282327
O O4 0.649236 0.362057 0.613642
O O5 0.101627 0.068620 0.630002
O O6 0.113678 0.204165 0.435163
O O7 0.118884 0.029585 0.315695
O O8 0.064776 0.540107 0.623791
O O9 0.122516 0.377289 0.559566
O O10 0.971150 0.402238 0.697212
O O11 0.173329 0.589592 0.431537
O O12 0.750000 0.750000 0.063284
O O13 0.620517 0.750000 0.250000
#
# Coordination Sequence:
#
# PCOD9389698 Si02
#       6
#     8   8   8   8   8   8
#     4  10  20  33  46  78 115 140 180 219 286 352
#     4  10  18  33  50  73 114 145 181 240 279 339
#     4  10  18  33  50  75 108 143 191 229 277 339
#     4  11  20  30  50  76 106 148 178 223 280 347
#     4   9  19  34  56  80 108 155 200 233 282 343
#     4  11  19  32  50  79 110 146 181 224 294 337
#
# _framework density 25.088297000000001
#
# number of rings (size 3 to 8) (size 9 to 14) (size 15 to 20)
#    0.000    1.833    3.333    3.000    0.000    2.667 
#    0.000    0.000    0.000    2.000    0.000    1.167 
#    0.000    2.667    0.333    0.000    0.000    0.333 
#
# Total GULP energy -267807.817434 kJ/mol
# GULP energy per Si atom -5579.329530 kJ/mol
# Density = 2.503119 g / cm^3
# Si number density = 25.088297 Si / 1000 Ang^3
#
#
#
# Elastic Constant Matrix: (Units=GPa)
#
#
# Indices 1 2 3 4 5 6 
#
# 1 71.1152 31.8871 11.7477 0.0000 0.0000 0.0000
# 2 31.8871 155.6707 67.6285 0.0000 0.0000 0.0000
# 3 11.7477 67.6285 201.3292 0.0000 0.0000 0.0000
# 4 0.0000 0.0000 0.0000 39.7431 0.0000 0.0000
# 5 0.0000 0.0000 0.0000 0.0000 -7.2953 0.0000
# 6 0.0000 0.0000 0.0000 0.0000 0.0000 -5.7227
#
#
#
# Elastic Compliance Matrix: (Units=1/GPa)
#
#
# Indices 1 2 3 4 5 6 
#
# 1 0.015490 -0.003255 0.000190 0.000000 0.000000 0.000000
# 2 -0.003255 0.008206 -0.002566 0.000000 0.000000 0.000000
# 3 0.000190 -0.002566 0.005818 0.000000 0.000000 0.000000
# 4 0.000000 0.000000 0.000000 0.025162 0.000000 0.000000
# 5 0.000000 0.000000 0.000000 0.000000 -0.137075 0.000000
# 6 0.000000 0.000000 0.000000 0.000000 0.000000 -0.174742
#
#
# Mechanical properties :
#
#
# Convention : Reuss Voigt Hill
#
# Bulk Modulus (GPa) = 54.79615 72.29352 63.54483
# Shear Modulus (GPa) = -20.85121 26.46846 2.80863
#
# Velocity S-wave (km/s) = -2.88603 3.25162 1.05921
# Velocity P-wave (km/s) = 3.28377 6.55557 5.18453
#
# Compressibility (1/GPa) = 0.01824946
#
# Stress axis : x y z
#
# Youngs Moduli (GPa) = 64.55773 121.86880 171.88044
#
# Poissons Ratio (x) = 0.39672 -0.03260
# Poissons Ratio (y) = 0.21016 0.44111
# Poissons Ratio (z) = -0.01224 0.31276
#
# Static dielectric constant tensor:
#      x y z
#    x 1.945940 0.000000 0.000000 
#    y 0.000000 2.005230 0.000000 
#    z 0.000000 0.000000 2.087950 
# 
# From -- ./inp_files/15169.got.cif
#   From: 2010.05.17/outbox.cif.g08.bks.cpg/sg48_8_cif.got.tgz:15169.got - 2010.06.03 20:39:00.
