data_PCOD9389288
_publ_section_title
;
Structure prediction by ZEFSAII (Michael W. Deem and Ramdas Pophale) SiO2 
 PCOD9389288
Probable space group: P M M M
;
_chemical_formula_sum "Si O2"
_cell_formula_units_Z 48
_cell_length_a 9.000000
_cell_length_b 18.000000
_cell_length_c 15.000000
_cell_angle_alpha 90.000000
_cell_angle_beta 90.000000
_cell_angle_gamma 90.000000
_cell_volume 2430.000000
_symmetry_space_group_name_H-M "P M M M"
_symmetry_group_IT_number 47
_symmetry_cell_setting 'orthorhombic'
loop_
_space_group_symop_operation_xyz
x,y,z
-x,-y,z
x,-y,-z
-x,y,-z
-x,-y,-z
x,y,-z
-x,y,z
x,-y,z
loop_
_atom_site_type_symbol
_atom_site_label
_atom_site_fract_x
_atom_site_fract_y
_atom_site_fract_z
Si Si1 0.827904 0.352417 0.659294
Si Si2 0.826993 0.704180 0.139903
Si Si3 0.819243 0.416580 0.000000
Si Si4 0.824210 0.801149 0.597962
Si Si5 0.678595 0.920663 0.280466
Si Si6 0.323585 0.500000 0.397374
Si Si7 0.678922 0.140067 0.902858
O O1 0.820328 0.318310 0.757713
O O2 0.773845 0.284129 0.599561
O O3 0.736340 0.426456 0.649002
O O4 0.000000 0.369312 0.637955
O O5 0.734914 0.776860 0.116600
O O6 0.000000 0.719017 0.117145
O O7 0.775936 0.632822 0.084236
O O8 0.761313 0.500000 0.000000
O O9 0.000000 0.421203 0.000000
O O10 0.803554 0.833024 0.500000
O O11 0.741201 0.851310 0.667564
O O12 0.000000 0.799604 0.618748
O O13 0.500000 0.918900 0.284248
O O14 0.725811 0.911571 0.178168
O O15 0.729981 0.000000 0.316839
O O16 0.500000 0.500000 0.396973
O O17 0.270748 0.500000 0.500000
O O18 0.500000 0.140682 0.903432
O O19 0.731823 0.116286 0.000000
#
# Coordination Sequence:
#
# PCOD9389288 Si02
#       7
#     8   8   4   8   8   4   8
#     4  10  21  37  60  86 112 146 191 237 284 338
#     4  10  19  33  57  83 107 143 187 231 275 330
#     4   9  18  30  49  79 112 141 176 222 269 321
#     4  10  21  38  61  87 113 146 190 239 291 344
#     4  10  22  39  58  83 116 153 192 235 285 344
#     4  11  25  41  57  82 115 150 188 232 284 339
#     4  10  20  35  57  83 113 148 186 232 283 335
#
# _framework density 19.753086
#
# number of rings (size 3 to 8) (size 9 to 14) (size 15 to 20)
#    0.000    2.000    2.500    0.750    1.167    4.000 
#    0.000    3.333    0.000    0.500    0.000    2.333 
#    0.000    0.000    0.000    0.000    0.000    0.000 
#
# Total GULP energy -267632.332674 kJ/mol
# GULP energy per Si atom -5575.673597 kJ/mol
# Density = 1.970813 g / cm^3
# Si number density = 19.753086 Si / 1000 Ang^3
#
#
#
# Elastic Constant Matrix: (Units=GPa)
#
#
# Indices 1 2 3 4 5 6 
#
# 1 2.9851 18.7233 27.5898 0.0000 0.0000 0.0000
# 2 18.7233 93.7188 39.8341 0.0000 0.0000 0.0000
# 3 27.5898 39.8341 78.1827 0.0000 0.0000 0.0000
# 4 0.0000 0.0000 0.0000 39.8870 0.0000 0.0000
# 5 0.0000 0.0000 0.0000 0.0000 -1.5503 0.0000
# 6 0.0000 0.0000 0.0000 0.0000 0.0000 423.2687
#
#
#
# Elastic Compliance Matrix: (Units=1/GPa)
#
#
# Indices 1 2 3 4 5 6 
#
# 1 -0.141893 0.009018 0.045478 0.000000 0.000000 0.000000
# 2 0.009018 0.013047 -0.009829 0.000000 0.000000 0.000000
# 3 0.045478 -0.009829 0.001750 0.000000 0.000000 0.000000
# 4 0.000000 0.000000 0.000000 0.025071 0.000000 0.000000
# 5 0.000000 0.000000 0.000000 0.000000 -0.645042 0.000000
# 6 0.000000 0.000000 0.000000 0.000000 0.000000 0.002363
#
#
# Mechanical properties :
#
#
# Convention : Reuss Voigt Hill
#
# Bulk Modulus (GPa) = -26.48018 38.57565 6.04774
# Shear Modulus (GPa) = -5.90581 98.23705 46.16562
#
# Velocity S-wave (km/s) = -1.73098 7.05978 4.83964
# Velocity P-wave (km/s) = 4.17490 9.27498 5.85643
#
# Compressibility (1/GPa) = -0.03776410
#
# Stress axis : x y z
#
# Youngs Moduli (GPa) = -7.04758 76.64870 571.40129
#
# Poissons Ratio (x) = -0.69120 -25.98605
# Poissons Ratio (y) = 0.06355 5.61656
# Poissons Ratio (z) = 0.32051 0.75341
#
# Static dielectric constant tensor:
#      x y z
#    x 1.669520 0.000000 0.000000 
#    y 0.000000 1.594270 0.000000 
#    z 0.000000 0.000000 1.769150 
# 
# From -- ./inp_files/6487.got.cif
#   From: 2010.05.17/outbox.ucp.g08.bks.cvg/sg47_4_cif.got.tgz:6487.got - 2010.06.11 16:36:43.
