data_PCOD9389843
_publ_section_title
;
Structure prediction by ZEFSAII (Michael W. Deem and Ramdas Pophale) SiO2 
 PCOD9389843
Probable space group: P N N N
;
_chemical_formula_sum "Si O2"
_cell_formula_units_Z 48
_cell_length_a 30.391256
_cell_length_b 16.790020
_cell_length_c 5.044362
_cell_angle_alpha 90.000000
_cell_angle_beta 90.000000
_cell_angle_gamma 90.000000
_cell_volume 2573.985569
_symmetry_space_group_name_H-M "P N N N"
_symmetry_group_IT_number 48
_space_group.IT_coordinate_system_code '2'
_symmetry_cell_setting 'orthorhombic'
loop_
_space_group_symop_operation_xyz
x,y,z
1/2-x,1/2-y,z
x,1/2-y,1/2-z
1/2-x,y,1/2-z
-x,-y,-z
1/2+x,1/2+y,-z
-x,1/2+y,1/2+z
1/2+x,-y,1/2+z
loop_
_atom_site_type_symbol
_atom_site_label
_atom_site_fract_x
_atom_site_fract_y
_atom_site_fract_z
Si Si1 0.408329 0.307934 0.002772
Si Si2 0.992765 0.191516 0.996793
Si Si3 0.698970 0.009364 0.185825
Si Si4 0.148716 0.835928 0.647857
Si Si5 0.594768 0.110240 0.659205
Si Si6 0.646010 0.956680 0.694901
O O1 0.408186 0.250000 0.250000
O O2 0.457916 0.343508 0.000872
O O3 0.373677 0.376313 0.072293
O O4 0.400666 0.250000 0.750000
O O5 0.984380 0.250000 0.250000
O O6 0.992914 0.250000 0.750000
O O7 0.955011 0.128678 0.924355
O O8 0.750000 0.997977 0.250000
O O9 0.687160 0.099850 0.094834
O O10 0.675654 0.993275 0.464125
O O11 0.675841 0.954423 0.960339
O O12 0.164262 0.750000 0.750000
O O13 0.115698 0.836161 0.395852
O O14 0.120980 0.869612 0.892882
O O15 0.606505 0.020040 0.744402
#
# Coordination Sequence:
#
# PCOD9389843 Si02
#       6
#     8   8   8   8   8   8
#     4  10  21  37  57  80 106 139 178 222 275 329
#     4  10  19  31  50  77 110 148 185 219 257 305
#     4  10  21  37  57  80 106 139 177 220 274 330
#     4  10  19  31  50  77 110 147 183 217 255 303
#     4  10  19  31  50  77 110 147 183 217 255 304
#     4  10  21  37  57  80 106 139 177 221 275 329
#
# _framework density 18.648123999999999
#
# number of rings (size 3 to 8) (size 9 to 14) (size 15 to 20)
#    0.000    2.000    0.000    4.500    0.000    1.000 
#    0.000    0.000    0.000   25.500    0.000    0.000 
#    0.000    0.000    0.000    0.000    0.000    0.000 
#
# Total GULP energy -267341.087587 kJ/mol
# GULP energy per Si atom -5569.605991 kJ/mol
# Density = 1.860568 g / cm^3
# Si number density = 18.648124 Si / 1000 Ang^3
#
#
#
# Elastic Constant Matrix: (Units=GPa)
#
#
# Indices 1 2 3 4 5 6 
#
# 1 69.4659 32.9600 -17.6214 0.0000 0.0000 0.0000
# 2 32.9600 43.5274 -10.5387 0.0000 0.0000 0.0000
# 3 -17.6214 -10.5387 83.0841 0.0000 0.0000 0.0000
# 4 0.0000 0.0000 0.0000 14.6675 0.0000 0.0000
# 5 0.0000 0.0000 0.0000 0.0000 32.2856 0.0000
# 6 0.0000 0.0000 0.0000 0.0000 0.0000 -13.7864
#
#
#
# Elastic Compliance Matrix: (Units=1/GPa)
#
#
# Indices 1 2 3 4 5 6 
#
# 1 0.023066 -0.016798 0.002761 0.000000 0.000000 0.000000
# 2 -0.016798 0.035935 0.000995 0.000000 0.000000 0.000000
# 3 0.002761 0.000995 0.012748 0.000000 0.000000 0.000000
# 4 0.000000 0.000000 0.000000 0.068178 0.000000 0.000000
# 5 0.000000 0.000000 0.000000 0.000000 0.030974 0.000000
# 6 0.000000 0.000000 0.000000 0.000000 0.000000 -0.072535
#
#
# Mechanical properties :
#
#
# Convention : Reuss Voigt Hill
#
# Bulk Modulus (GPa) = 21.89754 22.85302 22.37528
# Shear Modulus (GPa) = 35.79888 19.38518 27.59203
#
# Velocity S-wave (km/s) = 4.38620 3.22766 3.85075
# Velocity P-wave (km/s) = 6.11716 5.11585 5.63877
#
# Compressibility (1/GPa) = 0.04566723
#
# Stress axis : x y z
#
# Youngs Moduli (GPa) = 43.35347 27.82824 78.44405
#
# Poissons Ratio (x) = 0.46745 -0.21662
# Poissons Ratio (y) = 0.72824 -0.07809
# Poissons Ratio (z) = -0.11972 -0.02770
#
# Static dielectric constant tensor:
#      x y z
#    x 1.712370 0.000000 0.000000 
#    y 0.000000 1.655730 0.000000 
#    z 0.000000 0.000000 1.627260 
# 
# From -- ./inp_files/6457.got.cif
#   From: 2010.05.17/outbox.cif.g08.bks.cpg/sg48_4_cif.got.tgz:6457.got - 2010.06.03 20:39:00.
