data_PCOD9389137
_publ_section_title
;
Structure prediction by ZEFSAII (Michael W. Deem and Ramdas Pophale) SiO2 
 PCOD9389137
Probable space group: P M M M
;
_chemical_formula_sum "Si O2"
_cell_formula_units_Z 40
_cell_length_a 23.922980
_cell_length_b 10.894548
_cell_length_c 7.348615
_cell_angle_alpha 90.000000
_cell_angle_beta 90.000000
_cell_angle_gamma 90.000000
_cell_volume 1915.269924
_symmetry_space_group_name_H-M "P M M M"
_symmetry_group_IT_number 47
_symmetry_cell_setting 'orthorhombic'
loop_
_space_group_symop_operation_xyz
x,y,z
-x,-y,z
x,-y,-z
-x,y,-z
-x,-y,-z
x,y,-z
-x,y,z
x,-y,z
loop_
_atom_site_type_symbol
_atom_site_label
_atom_site_fract_x
_atom_site_fract_y
_atom_site_fract_z
Si Si1 0.685074 0.358485 0.211618
Si Si2 0.559945 0.356372 0.281088
Si Si3 0.884971 0.757394 0.221995
Si Si4 0.000000 0.143128 0.203355
Si Si5 0.065877 0.500000 0.779741
Si Si6 0.765316 0.859450 0.777246
O O1 0.688485 0.500000 0.286588
O O2 0.620687 0.313261 0.220651
O O3 0.724094 0.249871 0.285674
O O4 0.700282 0.370239 0.000000
O O5 0.560246 0.351035 0.500000
O O6 0.500000 0.302327 0.219978
O O7 0.558995 0.500000 0.227994
O O8 0.941334 0.822378 0.287657
O O9 0.897915 0.617788 0.273558
O O10 0.827638 0.819340 0.280571
O O11 0.883143 0.764676 0.000000
O O12 0.000000 0.000000 0.182155
O O13 0.000000 0.203618 0.000000
O O14 0.000000 0.500000 0.719084
O O15 0.062755 0.500000 0.000000
O O16 0.752747 0.000000 0.720718
O O17 0.763613 0.860532 0.000000
#
# Coordination Sequence:
#
# PCOD9389137 Si02
#       6
#     8   8   8   4   4   8
#     4   9  17  27  41  64  89 112 142 179 214 248
#     4   8  14  26  45  68  92 116 141 171 210 254
#     4   9  15  21  30  43  62  92 132 173 211 252
#     4   9  14  19  27  39  57  84 126 175 210 242
#     4   9  14  20  28  42  62  88 124 171 222 260
#     4   9  17  27  37  50  73 108 144 175 212 258
#
# _framework density 20.884785999999998
#
# number of rings (size 3 to 8) (size 9 to 14) (size 15 to 20)
#    0.000    3.200    1.000    1.200    1.400    2.800 
#    0.000    2.000    0.000    1.200    0.000    4.200 
#    0.000    0.000    0.000    0.900    0.000   16.200 
#
# Total GULP energy -222693.674671 kJ/mol
# GULP energy per Si atom -5567.341867 kJ/mol
# Density = 2.083725 g / cm^3
# Si number density = 20.884786 Si / 1000 Ang^3
#
#
#
# Elastic Constant Matrix: (Units=GPa)
#
#
# Indices 1 2 3 4 5 6 
#
# 1 184.8755 93.9429 2.0672 0.0000 0.0000 0.0000
# 2 93.9429 141.3003 6.9593 0.0000 0.0000 0.0000
# 3 2.0672 6.9593 73.8104 0.0000 0.0000 0.0000
# 4 0.0000 0.0000 0.0000 -12.3002 0.0000 0.0000
# 5 0.0000 0.0000 0.0000 0.0000 42.4551 0.0000
# 6 0.0000 0.0000 0.0000 0.0000 0.0000 -3.7704
#
#
#
# Elastic Compliance Matrix: (Units=1/GPa)
#
#
# Indices 1 2 3 4 5 6 
#
# 1 0.008175 -0.005449 0.000285 0.000000 0.000000 0.000000
# 2 -0.005449 0.010742 -0.000860 0.000000 0.000000 0.000000
# 3 0.000285 -0.000860 0.013621 0.000000 0.000000 0.000000
# 4 0.000000 0.000000 0.000000 -0.081299 0.000000 0.000000
# 5 0.000000 0.000000 0.000000 0.000000 0.023554 0.000000
# 6 0.000000 0.000000 0.000000 0.000000 0.000000 -0.265222
#
#
# Mechanical properties :
#
#
# Convention : Reuss Voigt Hill
#
# Bulk Modulus (GPa) = 48.80541 67.32500 58.06520
# Shear Modulus (GPa) = -18.41279 25.07800 3.33261
#
# Velocity S-wave (km/s) = -2.97246 3.46898 1.26458
# Velocity P-wave (km/s) = 3.41159 6.95352 5.47679
#
# Compressibility (1/GPa) = 0.02048953
#
# Stress axis : x y z
#
# Youngs Moduli (GPa) = 122.32869 93.09079 73.41409
#
# Poissons Ratio (x) = 0.50725 -0.02091
# Poissons Ratio (y) = 0.66656 0.06315
# Poissons Ratio (z) = -0.03484 0.08008
#
# Static dielectric constant tensor:
#      x y z
#    x 1.781180 0.000000 0.000000 
#    y 0.000000 1.779410 0.000000 
#    z 0.000000 0.000000 1.855740 
# 
# From -- ./inp_files/10664.got.cif
#   From: 2010.05.17/outbox.cif.g08.bks.cpg/sg47_6_cif.got.tgz:10664.got - 2010.06.03 20:15:42.
