data_PCOD9389774
_publ_section_title
;
Structure prediction by ZEFSAII (Michael W. Deem and Ramdas Pophale) SiO2 
 PCOD9389774
Probable space group: P N N N
;
_chemical_formula_sum "Si O2"
_cell_formula_units_Z 40
_cell_length_a 7.248626
_cell_length_b 9.854109
_cell_length_c 21.326868
_cell_angle_alpha 90.000000
_cell_angle_beta 90.000000
_cell_angle_gamma 90.000000
_cell_volume 1523.351538
_symmetry_space_group_name_H-M "P N N N"
_symmetry_group_IT_number 48
_space_group.IT_coordinate_system_code '2'
_symmetry_cell_setting 'orthorhombic'
loop_
_space_group_symop_operation_xyz
x,y,z
1/2-x,1/2-y,z
x,1/2-y,1/2-z
1/2-x,y,1/2-z
-x,-y,-z
1/2+x,1/2+y,-z
-x,1/2+y,1/2+z
1/2+x,-y,1/2+z
loop_
_atom_site_type_symbol
_atom_site_label
_atom_site_fract_x
_atom_site_fract_y
_atom_site_fract_z
Si Si1 0.347684 0.121969 0.515399
Si Si2 0.295412 0.888066 0.920588
Si Si3 0.939163 0.947848 0.675341
Si Si4 0.501561 0.966223 0.686182
Si Si5 0.468846 0.748929 0.138239
O O1 0.250000 0.250000 0.479605
O O2 0.436753 0.199192 0.574671
O O3 0.500000 0.000000 0.500000
O O4 0.187631 0.018965 0.536744
O O5 0.250000 0.750000 0.956638
O O6 0.474711 0.861790 0.879608
O O7 0.136342 0.917073 0.867883
O O8 0.016627 0.589509 0.756394
O O9 0.718498 0.941994 0.671992
O O10 0.010709 0.100569 0.661252
O O11 0.484554 0.130188 0.687428
O O12 0.250000 0.750000 0.128697
#
# Coordination Sequence:
#
# PCOD9389774 Si02
#       5
#     8   8   8   8   8
#     4  11  24  48  71 100 131 173 242 307 367 442
#     4  11  24  42  62  94 139 180 223 282 354 427
#     4  10  18  36  62  93 137 180 220 277 341 413
#     4   9  20  33  60  99 133 177 227 270 330 425
#     4   9  18  37  63  92 132 170 222 285 345 417
#
# _framework density 26.257891000000001
#
# number of rings (size 3 to 8) (size 9 to 14) (size 15 to 20)
#    0.000    2.000    2.000    1.200    0.000    5.600 
#   10.800    6.000    0.000    0.000    0.000    0.000 
#    0.000    0.000    0.000    0.000    0.000    0.000 
#
# Total GULP energy -223428.457540 kJ/mol
# GULP energy per Si atom -5585.711439 kJ/mol
# Density = 2.619813 g / cm^3
# Si number density = 26.257891 Si / 1000 Ang^3
#
#
#
# Elastic Constant Matrix: (Units=GPa)
#
#
# Indices 1 2 3 4 5 6 
#
# 1 89.8537 27.7434 39.0014 0.0000 0.0000 0.0000
# 2 27.7434 192.2200 36.6003 0.0000 0.0000 0.0000
# 3 39.0014 36.6003 63.6422 0.0000 0.0000 0.0000
# 4 0.0000 0.0000 0.0000 61.7190 0.0000 0.0000
# 5 0.0000 0.0000 0.0000 0.0000 31.2408 0.0000
# 6 0.0000 0.0000 0.0000 0.0000 0.0000 38.5188
#
#
#
# Elastic Compliance Matrix: (Units=1/GPa)
#
#
# Indices 1 2 3 4 5 6 
#
# 1 0.015200 -0.000472 -0.009044 0.000000 0.000000 0.000000
# 2 -0.000472 0.005857 -0.003079 0.000000 0.000000 0.000000
# 3 -0.009044 -0.003079 0.023026 0.000000 0.000000 0.000000
# 4 0.000000 0.000000 0.000000 0.016202 0.000000 0.000000
# 5 0.000000 0.000000 0.000000 0.000000 0.032009 0.000000
# 6 0.000000 0.000000 0.000000 0.000000 0.000000 0.025961
#
#
# Mechanical properties :
#
#
# Convention : Reuss Voigt Hill
#
# Bulk Modulus (GPa) = 52.92792 61.37846 57.15319
# Shear Modulus (GPa) = 33.39046 42.45377 37.92212
#
# Velocity S-wave (km/s) = 3.56987 4.02531 3.80441
# Velocity P-wave (km/s) = 6.09858 6.71045 6.41182
#
# Compressibility (1/GPa) = 0.01889362
#
# Stress axis : x y z
#
# Youngs Moduli (GPa) = 65.78782 170.74327 43.42957
#
# Poissons Ratio (x) = 0.08057 0.39277
# Poissons Ratio (y) = 0.03104 0.13372
# Poissons Ratio (z) = 0.59497 0.52572
#
# Static dielectric constant tensor:
#      x y z
#    x 2.159560 0.000000 0.000000 
#    y 0.000000 2.078480 0.000000 
#    z 0.000000 0.000000 2.055340 
# 
# From -- ./inp_files/35700.got.cif
#   From: 2010.05.17/outbox.cif.g08.bks.cpg/sg48_18_cif.got.tgz:35700.got - 2010.06.03 20:39:00.
