data_PCOD9389734
_publ_section_title
;
Structure prediction by ZEFSAII (Michael W. Deem and Ramdas Pophale) SiO2 
 PCOD9389734
Probable space group: P N N N
;
_chemical_formula_sum "Si O2"
_cell_formula_units_Z 30
_cell_length_a 9.219052
_cell_length_b 17.701480
_cell_length_c 6.985105
_cell_angle_alpha 90.000000
_cell_angle_beta 90.000000
_cell_angle_gamma 90.000000
_cell_volume 1139.905324
_symmetry_space_group_name_H-M "P N N N"
_symmetry_group_IT_number 48
_space_group.IT_coordinate_system_code '2'
_symmetry_cell_setting 'orthorhombic'
loop_
_space_group_symop_operation_xyz
x,y,z
1/2-x,1/2-y,z
x,1/2-y,1/2-z
1/2-x,y,1/2-z
-x,-y,-z
1/2+x,1/2+y,-z
-x,1/2+y,1/2+z
1/2+x,-y,1/2+z
loop_
_atom_site_type_symbol
_atom_site_label
_atom_site_fract_x
_atom_site_fract_y
_atom_site_fract_z
Si Si1 0.250000 0.250000 0.250000
Si Si2 0.250000 0.750000 0.750000
Si Si3 0.250000 0.750000 0.250000
Si Si4 0.026867 0.324474 0.856751
Si Si5 0.423522 0.010148 0.786316
Si Si6 0.516856 0.854280 0.697403
O O1 0.350700 0.194877 0.378985
O O2 0.367803 0.809048 0.658026
O O3 0.355988 0.805073 0.138028
O O4 0.085108 0.250000 0.750000
O O5 0.052866 0.401617 0.742074
O O6 0.055389 0.343021 0.076660
O O7 0.250000 0.996698 0.750000
O O8 0.501012 0.942981 0.668735
O O9 0.500000 0.000000 0.000000
#
# Coordination Sequence:
#
# PCOD9389734 Si02
#       6
#     2   2   2   8   8   8
#     4  10  24  36  58  90 110 166 224 272 322 418
#     4  10  18  34  66  78 126 176 208 260 352 430
#     4   8  18  38  54  94 112 164 212 266 340 404
#     4   9  20  36  62  87 123 164 216 274 341 420
#     4  10  21  38  62  95 132 178 226 292 359 431
#     4  10  20  38  60  89 126 163 224 275 346 415
#
# _framework density 26.317974
#
# number of rings (size 3 to 8) (size 9 to 14) (size 15 to 20)
#    0.800    1.600    1.333    0.800    0.000    5.867 
#    0.000    0.000    0.000   12.800    0.000    0.000 
#    0.000    0.000    0.000    0.000    0.000    0.000 
#
# Total GULP energy -167113.174164 kJ/mol
# GULP energy per Si atom -5570.439139 kJ/mol
# Density = 2.625807 g / cm^3
# Si number density = 26.317974 Si / 1000 Ang^3
#
#
#
# Elastic Constant Matrix: (Units=GPa)
#
#
# Indices 1 2 3 4 5 6 
#
# 1 189.7553 54.1465 20.9310 0.0000 0.0000 0.0000
# 2 54.1465 304.2630 43.7285 0.0000 0.0000 0.0000
# 3 20.9310 43.7285 124.4930 0.0000 0.0000 0.0000
# 4 0.0000 0.0000 0.0000 129.7237 0.0000 0.0000
# 5 0.0000 0.0000 0.0000 0.0000 21.7085 0.0000
# 6 0.0000 0.0000 0.0000 0.0000 0.0000 24.8967
#
#
#
# Elastic Compliance Matrix: (Units=1/GPa)
#
#
# Indices 1 2 3 4 5 6 
#
# 1 0.005597 -0.000907 -0.000623 0.000000 0.000000 0.000000
# 2 -0.000907 0.003608 -0.001115 0.000000 0.000000 0.000000
# 3 -0.000623 -0.001115 0.008529 0.000000 0.000000 0.000000
# 4 0.000000 0.000000 0.000000 0.007709 0.000000 0.000000
# 5 0.000000 0.000000 0.000000 0.000000 0.046065 0.000000
# 6 0.000000 0.000000 0.000000 0.000000 0.000000 0.040166
#
#
# Mechanical properties :
#
#
# Convention : Reuss Voigt Hill
#
# Bulk Modulus (GPa) = 80.34697 95.12483 87.73590
# Shear Modulus (GPa) = 41.28441 68.57946 54.93193
#
# Velocity S-wave (km/s) = 3.96495 5.11024 4.57359
# Velocity P-wave (km/s) = 7.18030 8.42866 7.82940
#
# Compressibility (1/GPa) = 0.01244602
#
# Stress axis : x y z
#
# Youngs Moduli (GPa) = 178.65670 277.14551 117.24844
#
# Poissons Ratio (x) = 0.25126 0.07300
# Poissons Ratio (y) = 0.16197 0.13073
# Poissons Ratio (z) = 0.11124 0.30901
#
# Static dielectric constant tensor:
#      x y z
#    x 2.143150 0.000000 0.000000 
#    y 0.000000 2.077070 0.000000 
#    z 0.000000 0.000000 2.397770 
# 
# From -- ./inp_files/18345.got.cif
#   From: 2010.05.17/outbox.cif.g08.bks.cpg/sg48_10_cif.got.tgz:18345.got - 2010.06.03 20:39:00.
