data_PCOD9389294
_publ_section_title
;
Structure prediction by ZEFSAII (Michael W. Deem and Ramdas Pophale) SiO2 
 PCOD9389294
Probable space group: P M M M
;
_chemical_formula_sum "Si O2"
_cell_formula_units_Z 48
_cell_length_a 18.000000
_cell_length_b 15.000000
_cell_length_c 9.000000
_cell_angle_alpha 90.000000
_cell_angle_beta 90.000000
_cell_angle_gamma 90.000000
_cell_volume 2430.000000
_symmetry_space_group_name_H-M "P M M M"
_symmetry_group_IT_number 47
_symmetry_cell_setting 'orthorhombic'
loop_
_space_group_symop_operation_xyz
x,y,z
-x,-y,z
x,-y,-z
-x,y,-z
-x,-y,-z
x,y,-z
-x,y,z
x,-y,z
loop_
_atom_site_type_symbol
_atom_site_label
_atom_site_fract_x
_atom_site_fract_y
_atom_site_fract_z
Si Si1 0.627811 0.900036 0.676484
Si Si2 0.690300 0.405714 0.321671
Si Si3 0.841670 0.334445 0.319165
Si Si4 0.795874 0.859641 0.680354
Si Si5 0.580172 0.726801 0.824246
Si Si6 0.915892 0.000000 0.318340
Si Si7 0.000000 0.395952 0.319079
O O1 0.623555 0.878872 0.500000
O O2 0.714892 0.894637 0.721602
O O3 0.584977 0.827638 0.769555
O O4 0.600900 0.000000 0.697288
O O5 0.686974 0.398556 0.500000
O O6 0.657284 0.500000 0.274876
O O7 0.776844 0.402279 0.279841
O O8 0.645771 0.325587 0.253206
O O9 0.846242 0.333743 0.500000
O O10 0.810209 0.239981 0.270387
O O11 0.923749 0.353677 0.263594
O O12 0.796246 0.861989 0.500000
O O13 0.866048 0.917007 0.729123
O O14 0.500000 0.688738 0.780186
O O15 0.587516 0.721976 0.000000
O O16 0.918671 0.000000 0.500000
O O17 0.000000 0.000000 0.265111
O O18 0.000000 0.500000 0.285202
O O19 0.000000 0.388011 0.500000
#
# Coordination Sequence:
#
# PCOD9389294 Si02
#       7
#     8   8   8   8   8   4   4
#     4  10  19  35  60  85 110 143 183 228 276 326
#     4  10  20  36  60  86 111 144 187 233 279 329
#     4   9  16  26  44  71 106 143 178 219 270 323
#     4   9  15  25  42  67 100 139 177 216 262 313
#     4  11  25  42  58  80 113 148 182 227 282 339
#     4   9  16  22  34  64 108 147 176 212 267 327
#     4   9  16  24  36  63 106 146 175 211 267 328
#
# _framework density 19.753086
#
# number of rings (size 3 to 8) (size 9 to 14) (size 15 to 20)
#    0.000    2.333    2.500    1.000    1.167    4.667 
#    0.000    3.333    0.000    0.000    0.000    0.583 
#    0.000    2.667    0.000    0.000    0.000    0.000 
#
# Total GULP energy -267352.364720 kJ/mol
# GULP energy per Si atom -5569.840932 kJ/mol
# Density = 1.970813 g / cm^3
# Si number density = 19.753086 Si / 1000 Ang^3
#
#
#
# Elastic Constant Matrix: (Units=GPa)
#
#
# Indices 1 2 3 4 5 6 
#
# 1 109.3491 43.5025 18.3751 0.0000 0.0000 0.0000
# 2 43.5025 82.7959 13.8897 0.0000 0.0000 0.0000
# 3 18.3751 13.8897 -4.5479 0.0000 0.0000 0.0000
# 4 0.0000 0.0000 0.0000 -18.9187 0.0000 0.0000
# 5 0.0000 0.0000 0.0000 0.0000 24.3158 0.0000
# 6 0.0000 0.0000 0.0000 0.0000 0.0000 -12.4801
#
#
#
# Elastic Compliance Matrix: (Units=1/GPa)
#
#
# Indices 1 2 3 4 5 6 
#
# 1 0.009585 -0.007626 0.015437 0.000000 0.000000 0.000000
# 2 -0.007626 0.014053 0.012109 0.000000 0.000000 0.000000
# 3 0.015437 0.012109 -0.120530 0.000000 0.000000 0.000000
# 4 0.000000 0.000000 0.000000 -0.052858 0.000000 0.000000
# 5 0.000000 0.000000 0.000000 0.000000 0.041126 0.000000
# 6 0.000000 0.000000 0.000000 0.000000 0.000000 -0.080127
#
#
# Mechanical properties :
#
#
# Convention : Reuss Voigt Hill
#
# Bulk Modulus (GPa) = -17.52790 37.68130 10.07670
# Shear Modulus (GPa) = -20.19307 6.03870 -7.07719
#
# Velocity S-wave (km/s) = -3.20077 1.75035 -1.89489
# Velocity P-wave (km/s) = 4.74897 4.81690 0.57003
#
# Compressibility (1/GPa) = -0.05705189
#
# Stress axis : x y z
#
# Youngs Moduli (GPa) = 104.33231 71.15877 -8.29667
#
# Poissons Ratio (x) = 0.54263 0.12807
# Poissons Ratio (y) = 0.79560 0.10047
# Poissons Ratio (z) = -1.61053 -0.86169
#
# Static dielectric constant tensor:
#      x y z
#    x 1.782330 0.000000 0.000000 
#    y 0.000000 1.793220 0.000000 
#    z 0.000000 0.000000 1.658840 
# 
# From -- ./inp_files/9145.got.cif
#   From: 2010.05.17/outbox.ucp.g08.bks.cvg/sg47_5_cif.got.tgz:9145.got - 2010.06.11 16:36:43.
