data_PCOD9389040
_publ_section_title
;
Structure prediction by ZEFSAII (Michael W. Deem and Ramdas Pophale) SiO2 
 PCOD9389040
Probable space group: P M M M
;
_chemical_formula_sum "Si O2"
_cell_formula_units_Z 56
_cell_length_a 30.521791
_cell_length_b 7.711920
_cell_length_c 14.250795
_cell_angle_alpha 90.000000
_cell_angle_beta 90.000000
_cell_angle_gamma 90.000000
_cell_volume 3354.375077
_symmetry_space_group_name_H-M "P M M M"
_symmetry_group_IT_number 47
_symmetry_cell_setting 'orthorhombic'
loop_
_space_group_symop_operation_xyz
x,y,z
-x,-y,z
x,-y,-z
-x,y,-z
-x,-y,-z
x,y,-z
-x,y,z
x,-y,z
loop_
_atom_site_type_symbol
_atom_site_label
_atom_site_fract_x
_atom_site_fract_y
_atom_site_fract_z
Si Si1 0.271316 0.708532 0.211640
Si Si2 0.950944 0.788345 0.391158
Si Si3 0.547157 0.791427 0.890771
Si Si4 0.816049 0.708776 0.894277
Si Si5 0.642713 0.292862 0.107570
Si Si6 0.222495 0.208508 0.605738
Si Si7 0.864722 0.792010 0.288307
O O1 0.271585 0.500000 0.204025
O O2 0.230040 0.772587 0.149646
O O3 0.317128 0.774041 0.169983
O O4 0.260122 0.750295 0.319115
O O5 0.943390 0.740224 0.500000
O O6 0.911000 0.726618 0.327045
O O7 0.000000 0.731458 0.364139
O O8 0.951149 0.000000 0.388603
O O9 0.500000 0.732203 0.850789
O O10 0.594227 0.738941 0.851457
O O11 0.546506 0.000000 0.890829
O O12 0.547877 0.733285 0.000000
O O13 0.813390 0.500000 0.897959
O O14 0.853419 0.753494 0.819379
O O15 0.822683 0.772821 0.000000
O O16 0.647687 0.500000 0.101088
O O17 0.644768 0.224108 0.000000
O O18 0.229236 0.273039 0.500000
O O19 0.176578 0.273780 0.650180
O O20 0.219326 0.000000 0.601450
O O21 0.865194 0.000000 0.298945
#
# Coordination Sequence:
#
# PCOD9389040 Si02
#       7
#     8   8   8   8   8   8   8
#     4   9  17  28  41  58  79 103 133 166 197 230
#     4   8  13  22  39  63  86 105 126 155 195 242
#     4   8  14  24  36  51  74 104 135 164 194 229
#     4   9  17  29  43  57  77 107 138 165 195 232
#     4   9  16  25  38  56  78 104 133 165 198 229
#     4   9  17  28  41  58  81 106 129 156 193 235
#     4   9  16  26  42  63  83 102 128 163 197 229
#
# _framework density 16.694614000000001
#
# number of rings (size 3 to 8) (size 9 to 14) (size 15 to 20)
#    0.000    3.286    0.000    1.714    0.000    4.857 
#    0.000    1.429    0.000    4.714    0.000    4.000 
#    0.000    0.571    0.000    6.286    0.000    4.857 
#
# Total GULP energy -311788.483038 kJ/mol
# GULP energy per Si atom -5567.651483 kJ/mol
# Density = 1.665662 g / cm^3
# Si number density = 16.694614 Si / 1000 Ang^3
#
#
#
# Elastic Constant Matrix: (Units=GPa)
#
#
# Indices 1 2 3 4 5 6 
#
# 1 160.6160 5.9267 86.1908 0.0000 0.0000 0.0000
# 2 5.9267 24.2589 2.7979 0.0000 0.0000 0.0000
# 3 86.1908 2.7979 117.6946 0.0000 0.0000 0.0000
# 4 0.0000 0.0000 0.0000 20.1544 0.0000 0.0000
# 5 0.0000 0.0000 0.0000 0.0000 21.8689 0.0000
# 6 0.0000 0.0000 0.0000 0.0000 0.0000 -29.1569
#
#
#
# Elastic Compliance Matrix: (Units=1/GPa)
#
#
# Indices 1 2 3 4 5 6 
#
# 1 0.010323 -0.001655 -0.007520 0.000000 0.000000 0.000000
# 2 -0.001655 0.041600 0.000223 0.000000 0.000000 0.000000
# 3 -0.007520 0.000223 0.013998 0.000000 0.000000 0.000000
# 4 0.000000 0.000000 0.000000 0.049617 0.000000 0.000000
# 5 0.000000 0.000000 0.000000 0.000000 0.045727 0.000000
# 6 0.000000 0.000000 0.000000 0.000000 0.000000 -0.034297
#
#
# Mechanical properties :
#
#
# Convention : Reuss Voigt Hill
#
# Bulk Modulus (GPa) = 20.82571 54.71114 37.76843
# Shear Modulus (GPa) = 31.07942 16.41690 23.74816
#
# Velocity S-wave (km/s) = 4.31936 3.13927 3.77570
# Velocity P-wave (km/s) = 6.11371 6.78107 6.45602
#
# Compressibility (1/GPa) = 0.04801756
#
# Stress axis : x y z
#
# Youngs Moduli (GPa) = 96.87476 24.03818 71.43626
#
# Poissons Ratio (x) = 0.03977 0.53721
# Poissons Ratio (y) = 0.16029 -0.01591
# Poissons Ratio (z) = 0.72852 -0.00535
#
# Static dielectric constant tensor:
#      x y z
#    x 1.591490 0.000000 0.000000 
#    y 0.000000 1.622980 0.000000 
#    z 0.000000 0.000000 1.543720 
# 
# From -- ./inp_files/14221.got.cif
#   From: 2010.05.17/outbox.cif.g08.bks.cpg/sg47_8_cif.got.tgz:14221.got - 2010.06.03 20:15:42.
