data_PCOD9389512
_publ_section_title
;
Structure prediction by ZEFSAII (Michael W. Deem and Ramdas Pophale) SiO2 
 PCOD9389512
Probable space group: P N N N
;
_chemical_formula_sum "Si O2"
_cell_formula_units_Z 46
_cell_length_a 10.792624
_cell_length_b 18.066630
_cell_length_c 12.178694
_cell_angle_alpha 90.000000
_cell_angle_beta 90.000000
_cell_angle_gamma 90.000000
_cell_volume 2374.679024
_symmetry_space_group_name_H-M "P N N N"
_symmetry_group_IT_number 48
_space_group.IT_coordinate_system_code '2'
_symmetry_cell_setting 'orthorhombic'
loop_
_space_group_symop_operation_xyz
x,y,z
1/2-x,1/2-y,z
x,1/2-y,1/2-z
1/2-x,y,1/2-z
-x,-y,-z
1/2+x,1/2+y,-z
-x,1/2+y,1/2+z
1/2+x,-y,1/2+z
loop_
_atom_site_type_symbol
_atom_site_label
_atom_site_fract_x
_atom_site_fract_y
_atom_site_fract_z
Si Si1 0.750000 0.510349 0.750000
Si Si2 0.191177 0.604207 0.635864
Si Si3 0.250000 0.250000 0.250000
Si Si4 0.722599 0.372346 0.599201
Si Si5 0.902832 0.549033 0.424704
Si Si6 0.963079 0.330423 0.726938
Si Si7 0.403096 0.373489 0.136605
O O1 0.743498 0.455571 0.646193
O O2 0.633749 0.563219 0.774367
O O3 0.250000 0.626672 0.750000
O O4 0.267325 0.630571 0.530283
O O5 0.180663 0.514588 0.627537
O O6 0.050326 0.633207 0.627115
O O7 0.337263 0.300438 0.176108
O O8 0.837944 0.326006 0.650910
O O9 0.593566 0.352084 0.655113
O O10 0.848080 0.601069 0.519454
O O11 0.000000 0.500000 0.500000
O O12 0.961261 0.603991 0.333366
O O13 0.021787 0.250000 0.750000
#
# Coordination Sequence:
#
# PCOD9389512 Si02
#       7
#     4   8   2   8   8   8   8
#     4   9  16  31  67  84  97 142 230 244 273 346
#     4  11  21  36  60  93 125 153 194 256 321 359
#     4  10  24  40  62  80 116 164 226 234 286 394
#     4  10  16  32  55  86 114 152 194 252 298 362
#     4  10  17  38  62  80 113 164 204 243 301 363
#     4  10  19  32  56  87 114 154 209 247 297 365
#     4  10  19  39  59  84 112 164 206 248 293 365
#
# _framework density 19.371040000000001
#
# number of rings (size 3 to 8) (size 9 to 14) (size 15 to 20)
#    0.000    2.087    5.217    4.174    0.000    0.000 
#    3.130    5.652    0.000    0.000    0.000    0.000 
#    0.000    0.000    0.000    0.000    0.000    0.000 
#
# Total GULP energy -256187.426387 kJ/mol
# GULP energy per Si atom -5569.291878 kJ/mol
# Density = 1.932695 g / cm^3
# Si number density = 19.371040 Si / 1000 Ang^3
#
#
#
# Elastic Constant Matrix: (Units=GPa)
#
#
# Indices 1 2 3 4 5 6 
#
# 1 24.2376 14.7469 30.3925 0.0000 0.0000 0.0000
# 2 14.7469 91.7956 26.4137 0.0000 0.0000 0.0000
# 3 30.3925 26.4137 141.3381 0.0000 0.0000 0.0000
# 4 0.0000 0.0000 0.0000 19.3153 0.0000 0.0000
# 5 0.0000 0.0000 0.0000 0.0000 17.0831 0.0000
# 6 0.0000 0.0000 0.0000 0.0000 0.0000 8.0253
#
#
#
# Elastic Compliance Matrix: (Units=1/GPa)
#
#
# Indices 1 2 3 4 5 6 
#
# 1 0.059681 -0.006230 -0.011669 0.000000 0.000000 0.000000
# 2 -0.006230 0.012163 -0.000933 0.000000 0.000000 0.000000
# 3 -0.011669 -0.000933 0.009759 0.000000 0.000000 0.000000
# 4 0.000000 0.000000 0.000000 0.051772 0.000000 0.000000
# 5 0.000000 0.000000 0.000000 0.000000 0.058538 0.000000
# 6 0.000000 0.000000 0.000000 0.000000 0.000000 0.124606
#
#
# Mechanical properties :
#
#
# Convention : Reuss Voigt Hill
#
# Bulk Modulus (GPa) = 22.75926 44.49748 33.62837
# Shear Modulus (GPa) = 13.55634 21.27261 17.41447
#
# Velocity S-wave (km/s) = 2.64829 3.31745 3.00158
# Velocity P-wave (km/s) = 4.59629 6.13963 5.42314
#
# Compressibility (1/GPa) = 0.04393816
#
# Stress axis : x y z
#
# Youngs Moduli (GPa) = 16.75565 82.21518 102.46996
#
# Poissons Ratio (x) = 0.51220 1.19575
# Poissons Ratio (y) = 0.10439 0.09565
# Poissons Ratio (z) = 0.19553 0.07674
#
# Static dielectric constant tensor:
#      x y z
#    x 1.688750 0.000000 0.000000 
#    y 0.000000 1.748210 0.000000 
#    z 0.000000 0.000000 1.701400 
# 
# From -- ./inp_files/20112.got.cif
#   From: 2010.05.17/outbox.cif.g08.bks.cpg/sg48_11_cif.got.tgz:20112.got - 2010.06.03 20:39:00.
