data_PCOD9389408
_publ_section_title
;
Structure prediction by ZEFSAII (Michael W. Deem and Ramdas Pophale) SiO2 
 PCOD9389408
Probable space group: P M M M
;
_chemical_formula_sum "Si O2"
_cell_formula_units_Z 48
_cell_length_a 9.000000
_cell_length_b 30.000000
_cell_length_c 9.000000
_cell_angle_alpha 90.000000
_cell_angle_beta 90.000000
_cell_angle_gamma 90.000000
_cell_volume 2430.000000
_symmetry_space_group_name_H-M "P M M M"
_symmetry_group_IT_number 47
_symmetry_cell_setting 'orthorhombic'
loop_
_space_group_symop_operation_xyz
x,y,z
-x,-y,z
x,-y,-z
-x,y,-z
-x,-y,-z
x,y,-z
-x,y,z
x,-y,z
loop_
_atom_site_type_symbol
_atom_site_label
_atom_site_fract_x
_atom_site_fract_y
_atom_site_fract_z
Si Si1 0.673129 0.928288 0.176234
Si Si2 0.321009 0.580942 0.330709
Si Si3 0.174217 0.238863 0.170181
Si Si4 0.335709 0.164504 0.669735
Si Si5 0.321791 0.330560 0.171334
Si Si6 0.000000 0.052393 0.668272
Si Si7 0.833026 0.500000 0.175927
O O1 0.500000 0.944857 0.220148
O O2 0.665014 0.876480 0.217964
O O3 0.836598 0.939711 0.251140
O O4 0.685198 0.937064 0.000000
O O5 0.277551 0.573273 0.500000
O O6 0.500000 0.579162 0.321520
O O7 0.272257 0.629145 0.273929
O O8 0.252760 0.543190 0.230066
O O9 0.214776 0.199331 0.279445
O O10 0.256439 0.283537 0.217286
O O11 0.000000 0.246816 0.167847
O O12 0.222060 0.227893 0.000000
O O13 0.315133 0.148734 0.500000
O O14 0.500000 0.185793 0.677784
O O15 0.500000 0.328340 0.175272
O O16 0.276967 0.338897 0.000000
O O17 0.000000 0.072926 0.500000
O O18 0.000000 0.000000 0.651296
O O19 0.000000 0.500000 0.236782
O O20 0.839107 0.500000 0.000000
#
# Coordination Sequence:
#
# PCOD9389408 Si02
#       7
#     8   8   8   8   8   4   4
#     4  10  22  41  66  94 125 165 213 264 316 372
#     4  10  21  37  58  83 109 138 175 221 273 330
#     4  10  21  35  53  80 114 151 190 234 284 340
#     4  10  21  37  58  84 115 153 197 246 299 354
#     4   9  18  34  55  77 105 145 189 230 273 326
#     4  11  25  43  65  95 131 171 211 257 317 380
#     4  11  24  39  56  80 108 139 176 219 268 324
#
# _framework density 19.753086
#
# number of rings (size 3 to 8) (size 9 to 14) (size 15 to 20)
#    0.000    2.000    0.000    2.750    1.167    8.000 
#    0.000    5.000    0.000    0.000    0.000    0.000 
#    0.000    0.000    0.000    0.000    0.000    0.000 
#
# Total GULP energy -267310.298121 kJ/mol
# GULP energy per Si atom -5568.964544 kJ/mol
# Density = 1.970813 g / cm^3
# Si number density = 19.753086 Si / 1000 Ang^3
#
#
#
# Elastic Constant Matrix: (Units=GPa)
#
#
# Indices 1 2 3 4 5 6 
#
# 1 66.5461 25.4447 37.9376 0.0000 0.0000 0.0000
# 2 25.4447 58.8409 28.0549 0.0000 0.0000 0.0000
# 3 37.9376 28.0549 55.4549 0.0000 0.0000 0.0000
# 4 0.0000 0.0000 0.0000 6.5783 0.0000 0.0000
# 5 0.0000 0.0000 0.0000 0.0000 24.8984 0.0000
# 6 0.0000 0.0000 0.0000 0.0000 0.0000 19.7735
#
#
#
# Elastic Compliance Matrix: (Units=1/GPa)
#
#
# Indices 1 2 3 4 5 6 
#
# 1 0.025178 -0.003526 -0.015441 0.000000 0.000000 0.000000
# 2 -0.003526 0.022891 -0.009169 0.000000 0.000000 0.000000
# 3 -0.015441 -0.009169 0.033235 0.000000 0.000000 0.000000
# 4 0.000000 0.000000 0.000000 0.152014 0.000000 0.000000
# 5 0.000000 0.000000 0.000000 0.000000 0.040163 0.000000
# 6 0.000000 0.000000 0.000000 0.000000 0.000000 0.050573
#
#
# Mechanical properties :
#
#
# Convention : Reuss Voigt Hill
#
# Bulk Modulus (GPa) = 39.94742 40.41293 40.18017
# Shear Modulus (GPa) = 12.86439 16.21036 14.53737
#
# Velocity S-wave (km/s) = 2.55475 2.86781 2.71579
# Velocity P-wave (km/s) = 5.38234 5.60974 5.49722
#
# Compressibility (1/GPa) = 0.02503291
#
# Stress axis : x y z
#
# Youngs Moduli (GPa) = 39.71688 43.68490 30.08888
#
# Poissons Ratio (x) = 0.15402 0.46461
# Poissons Ratio (y) = 0.14003 0.27588
# Poissons Ratio (z) = 0.61328 0.40054
#
# Static dielectric constant tensor:
#      x y z
#    x 1.719560 0.000000 0.000000 
#    y 0.000000 1.693710 0.000000 
#    z 0.000000 0.000000 1.713370 
# 
# From -- ./inp_files/2706.got.cif
#   From: 2010.05.17/outbox.ucp.g08.bks.cvg/sg47_2_cif.got.tgz:2706.got - 2010.06.11 16:36:43.
