data_PCOD9389067
_publ_section_title
;
Structure prediction by ZEFSAII (Michael W. Deem and Ramdas Pophale) SiO2 
 PCOD9389067
Probable space group: P M M M
;
_chemical_formula_sum "Si O2"
_cell_formula_units_Z 44
_cell_length_a 33.359799
_cell_length_b 7.385596
_cell_length_c 8.041852
_cell_angle_alpha 90.000000
_cell_angle_beta 90.000000
_cell_angle_gamma 90.000000
_cell_volume 1981.367564
_symmetry_space_group_name_H-M "P M M M"
_symmetry_group_IT_number 47
_symmetry_cell_setting 'orthorhombic'
loop_
_space_group_symop_operation_xyz
x,y,z
-x,-y,z
x,-y,-z
-x,y,-z
-x,-y,-z
x,y,-z
-x,y,z
x,-y,z
loop_
_atom_site_type_symbol
_atom_site_label
_atom_site_fract_x
_atom_site_fract_y
_atom_site_fract_z
Si Si1 0.128269 0.706211 0.199236
Si Si2 0.731531 0.777505 0.500000
Si Si3 0.782072 0.789937 0.811596
Si Si4 0.413090 0.779058 0.815414
Si Si5 0.500000 0.779517 0.693190
Si Si6 0.361029 0.220858 0.500000
Si Si7 0.043123 0.712708 0.300471
O O1 0.128271 0.500000 0.263899
O O2 0.171400 0.784315 0.245208
O O3 0.085912 0.791739 0.249540
O O4 0.127933 0.703874 0.000000
O O5 0.754293 0.713933 0.666379
O O6 0.685170 0.724588 0.500000
O O7 0.733214 0.000000 0.500000
O O8 0.770995 0.000000 0.826798
O O9 0.779317 0.712095 0.000000
O O10 0.458807 0.722175 0.779030
O O11 0.384633 0.720331 0.665177
O O12 0.412957 0.000000 0.813296
O O13 0.400558 0.722302 0.000000
O O14 0.500000 0.725443 0.500000
O O15 0.500000 0.000000 0.695986
O O16 0.361813 0.000000 0.500000
O O17 0.042221 0.718253 0.500000
O O18 0.043739 0.500000 0.248788
O O19 0.000000 0.786572 0.240838
#
# Coordination Sequence:
#
# PCOD9389067 Si02
#       7
#     8   4   8   8   4   4   8
#     4   9  17  28  44  67  89 109 139 177 211 247
#     4   9  18  30  44  59  75 102 139 175 217 264
#     4   9  18  32  47  63  85 112 141 175 217 262
#     4   9  15  21  30  44  63  89 119 156 205 251
#     4   9  13  19  29  40  61  89 118 155 199 248
#     4   9  16  25  34  48  67  86 120 168 207 246
#     4   8  14  24  38  59  87 114 137 164 202 247
#
# _framework density 22.206883999999999
#
# number of rings (size 3 to 8) (size 9 to 14) (size 15 to 20)
#    0.000    3.182    0.909    0.818    1.273    2.182 
#    0.000    5.455    0.000    0.545    0.000    3.818 
#    0.000    0.000    0.000    0.000    0.000    0.000 
#
# Total GULP energy -245377.975708 kJ/mol
# GULP energy per Si atom -5576.772175 kJ/mol
# Density = 2.215634 g / cm^3
# Si number density = 22.206884 Si / 1000 Ang^3
#
#
#
# Elastic Constant Matrix: (Units=GPa)
#
#
# Indices 1 2 3 4 5 6 
#
# 1 217.0828 5.5231 116.4126 0.0000 0.0000 0.0000
# 2 5.5231 73.3753 8.6650 0.0000 0.0000 0.0000
# 3 116.4126 8.6650 147.1650 0.0000 0.0000 0.0000
# 4 0.0000 0.0000 0.0000 -9.3448 0.0000 0.0000
# 5 0.0000 0.0000 0.0000 0.0000 19.6783 0.0000
# 6 0.0000 0.0000 0.0000 0.0000 0.0000 1.5389
#
#
#
# Elastic Compliance Matrix: (Units=1/GPa)
#
#
# Indices 1 2 3 4 5 6 
#
# 1 0.008002 0.000146 -0.006338 0.000000 0.000000 0.000000
# 2 0.000146 0.013727 -0.000924 0.000000 0.000000 0.000000
# 3 -0.006338 -0.000924 0.011863 0.000000 0.000000 0.000000
# 4 0.000000 0.000000 0.000000 -0.107011 0.000000 0.000000
# 5 0.000000 0.000000 0.000000 0.000000 0.050818 0.000000
# 6 0.000000 0.000000 0.000000 0.000000 0.000000 0.649814
#
#
# Mechanical properties :
#
#
# Convention : Reuss Voigt Hill
#
# Bulk Modulus (GPa) = 51.65341 77.64718 64.65029
# Shear Modulus (GPa) = 7.71728 22.84262 15.27995
#
# Velocity S-wave (km/s) = 1.86620 3.21070 2.62596
# Velocity P-wave (km/s) = 5.28717 6.98470 6.19436
#
# Compressibility (1/GPa) = 0.01935981
#
# Stress axis : x y z
#
# Youngs Moduli (GPa) = 124.97210 72.85094 84.29357
#
# Poissons Ratio (x) = -0.01065 0.53428
# Poissons Ratio (y) = -0.01827 0.07788
# Poissons Ratio (z) = 0.79211 0.06730
#
# Static dielectric constant tensor:
#      x y z
#    x 1.795380 0.000000 0.000000 
#    y 0.000000 1.947260 0.000000 
#    z 0.000000 0.000000 1.791740 
# 
# From -- ./inp_files/13752.got.cif
#   From: 2010.05.17/outbox.cif.g08.bks.cpg/sg47_7_cif.got.tgz:13752.got - 2010.06.03 20:15:42.
