data_PCOD9389599
_publ_section_title
;
Structure prediction by ZEFSAII (Michael W. Deem and Ramdas Pophale) SiO2 
 PCOD9389599
Probable space group: P N N N
;
_chemical_formula_sum "Si O2"
_cell_formula_units_Z 48
_cell_length_a 10.843609
_cell_length_b 10.964863
_cell_length_c 16.544136
_cell_angle_alpha 90.000000
_cell_angle_beta 90.000000
_cell_angle_gamma 90.000000
_cell_volume 1967.076050
_symmetry_space_group_name_H-M "P N N N"
_symmetry_group_IT_number 48
_space_group.IT_coordinate_system_code '2'
_symmetry_cell_setting 'orthorhombic'
loop_
_space_group_symop_operation_xyz
x,y,z
1/2-x,1/2-y,z
x,1/2-y,1/2-z
1/2-x,y,1/2-z
-x,-y,-z
1/2+x,1/2+y,-z
-x,1/2+y,1/2+z
1/2+x,-y,1/2+z
loop_
_atom_site_type_symbol
_atom_site_label
_atom_site_fract_x
_atom_site_fract_y
_atom_site_fract_z
Si Si1 0.966533 0.781534 0.875077
Si Si2 0.798360 0.378800 0.404334
Si Si3 0.872754 0.972721 0.697454
Si Si4 0.937365 0.631451 0.024364
Si Si5 0.215226 0.027513 0.057282
Si Si6 0.134134 0.070479 0.692252
O O1 0.911467 0.666413 0.827005
O O2 0.875692 0.893872 0.888531
O O3 0.092349 0.840967 0.843843
O O4 0.995564 0.730223 0.965286
O O5 0.750000 0.250000 0.432658
O O6 0.840742 0.450168 0.484530
O O7 0.694415 0.456676 0.357736
O O8 0.750000 0.972432 0.750000
O O9 0.815752 0.036847 0.616150
O O10 0.999858 0.033527 0.728303
O O11 0.914978 0.656516 0.118807
O O12 0.799411 0.622211 0.990624
O O13 0.000000 0.500000 0.000000
O O14 0.250000 0.107992 0.750000
#
# Coordination Sequence:
#
# PCOD9389599 Si02
#       6
#     8   8   8   8   8   8
#     4  11  21  39  64  98 125 165 213 266 318 384
#     4  11  22  41  66  96 125 164 217 269 320 378
#     4  11  23  41  62  91 133 170 206 256 327 391
#     4  10  17  39  66  84 122 170 213 252 309 383
#     4  10  22  37  63  95 124 163 213 263 314 379
#     4  11  24  41  61  96 132 167 209 267 327 385
#
# _framework density 24.401700999999999
#
# number of rings (size 3 to 8) (size 9 to 14) (size 15 to 20)
#    0.000    1.333    5.000    3.500    2.333    1.667 
#    0.000    0.000    0.000    8.500    0.000    0.000 
#    0.000    0.000    0.000    0.000    0.000    0.000 
#
# Total GULP energy -267336.664074 kJ/mol
# GULP energy per Si atom -5569.513835 kJ/mol
# Density = 2.434616 g / cm^3
# Si number density = 24.401701 Si / 1000 Ang^3
#
#
#
# Elastic Constant Matrix: (Units=GPa)
#
#
# Indices 1 2 3 4 5 6 
#
# 1 153.0741 2.6856 34.3412 0.0000 0.0000 0.0000
# 2 2.6856 25.8382 -0.2188 0.0000 0.0000 0.0000
# 3 34.3412 -0.2188 101.0742 0.0000 0.0000 0.0000
# 4 0.0000 0.0000 0.0000 34.1060 0.0000 0.0000
# 5 0.0000 0.0000 0.0000 0.0000 38.0813 0.0000
# 6 0.0000 0.0000 0.0000 0.0000 0.0000 11.9202
#
#
#
# Elastic Compliance Matrix: (Units=1/GPa)
#
#
# Indices 1 2 3 4 5 6 
#
# 1 0.007087 -0.000757 -0.002409 0.000000 0.000000 0.000000
# 2 -0.000757 0.038784 0.000341 0.000000 0.000000 0.000000
# 3 -0.002409 0.000341 0.010713 0.000000 0.000000 0.000000
# 4 0.000000 0.000000 0.000000 0.029320 0.000000 0.000000
# 5 0.000000 0.000000 0.000000 0.000000 0.026260 0.000000
# 6 0.000000 0.000000 0.000000 0.000000 0.000000 0.083891
#
#
# Mechanical properties :
#
#
# Convention : Reuss Voigt Hill
#
# Bulk Modulus (GPa) = 19.63355 39.28917 29.46136
# Shear Modulus (GPa) = 22.86417 33.03340 27.94879
#
# Velocity S-wave (km/s) = 3.06435 3.68330 3.38799
# Velocity P-wave (km/s) = 4.53693 5.85021 5.23492
#
# Compressibility (1/GPa) = 0.05093323
#
# Stress axis : x y z
#
# Youngs Moduli (GPa) = 141.11150 25.78383 93.34387
#
# Poissons Ratio (x) = 0.01952 0.22490
# Poissons Ratio (y) = 0.10682 -0.03185
# Poissons Ratio (z) = 0.33999 -0.00880
#
# Static dielectric constant tensor:
#      x y z
#    x 2.051780 0.000000 0.000000 
#    y 0.000000 1.964650 0.000000 
#    z 0.000000 0.000000 2.103760 
# 
# From -- ./inp_files/31033.got.cif
#   From: 2010.05.17/outbox.cif.g08.bks.cpg/sg48_16_cif.got.tgz:31033.got - 2010.06.03 20:39:00.
