data_PCOD9389254
_publ_section_title
;
Structure prediction by ZEFSAII (Michael W. Deem and Ramdas Pophale) SiO2 
 PCOD9389254
Probable space group: P M M M
;
_chemical_formula_sum "Si O2"
_cell_formula_units_Z 64
_cell_length_a 30.000000
_cell_length_b 9.000000
_cell_length_c 15.000000
_cell_angle_alpha 90.000000
_cell_angle_beta 90.000000
_cell_angle_gamma 90.000000
_cell_volume 4050.000000
_symmetry_space_group_name_H-M "P M M M"
_symmetry_group_IT_number 47
_symmetry_cell_setting 'orthorhombic'
loop_
_space_group_symop_operation_xyz
x,y,z
-x,-y,z
x,-y,-z
-x,y,-z
-x,-y,-z
x,y,-z
-x,y,z
x,-y,z
loop_
_atom_site_type_symbol
_atom_site_label
_atom_site_fract_x
_atom_site_fract_y
_atom_site_fract_z
Si Si1 0.096413 0.821030 0.601304
Si Si2 0.865050 0.176787 0.894287
Si Si3 0.357194 0.821905 0.394804
Si Si4 0.950202 0.181074 0.779071
Si Si5 0.549556 0.673395 0.392094
Si Si6 0.809141 0.676492 0.604554
Si Si7 0.230247 0.679139 0.896925
Si Si8 0.277845 0.679383 0.280840
O O1 0.086411 0.770741 0.500000
O O2 0.061663 0.776426 0.677428
O O3 0.145362 0.761461 0.626488
O O4 0.097874 0.000000 0.600524
O O5 0.908599 0.229171 0.840285
O O6 0.818459 0.256604 0.871962
O O7 0.859654 0.000000 0.877885
O O8 0.872629 0.197771 0.000000
O O9 0.349920 0.778544 0.500000
O O10 0.406474 0.764725 0.367026
O O11 0.319706 0.753269 0.330293
O O12 0.355697 0.000000 0.390875
O O13 0.000000 0.231599 0.804429
O O14 0.950649 0.000000 0.783429
O O15 0.548422 0.678215 0.500000
O O16 0.500000 0.724054 0.361647
O O17 0.554763 0.500000 0.366687
O O18 0.799318 0.704016 0.500000
O O19 0.816675 0.500000 0.615792
O O20 0.766790 0.718459 0.663542
O O21 0.227330 0.500000 0.895118
O O22 0.266474 0.721991 0.821682
O O23 0.239910 0.724096 0.000000
O O24 0.283274 0.500000 0.284554
#
# Coordination Sequence:
#
# PCOD9389254 Si02
#       8
#     8   8   8   8   8   8   8   8
#     4   9  17  28  42  59  77 100 132 167 201 239
#     4   9  17  29  46  66  84 104 132 165 204 253
#     4  10  20  30  41  63  95 127 157 191 229 263
#     4   9  17  28  42  61  83 104 128 162 202 243
#     4   8  14  26  44  63  85 120 164 201 229 260
#     4   9  17  28  42  60  81 107 139 171 204 247
#     4   9  18  32  49  68  88 111 142 180 221 264
#     4  10  19  30  45  63  86 118 150 180 218 265
#
# _framework density 15.802469
#
# number of rings (size 3 to 8) (size 9 to 14) (size 15 to 20)
#    0.000    2.875    0.000    1.875    0.000    3.000 
#    0.000    5.000    0.000    1.500    0.000    3.500 
#    0.000    0.500    0.000    5.750    0.000    1.875 
#
# Total GULP energy -356535.541096 kJ/mol
# GULP energy per Si atom -5570.867830 kJ/mol
# Density = 1.576650 g / cm^3
# Si number density = 15.802469 Si / 1000 Ang^3
#
#
#
# Elastic Constant Matrix: (Units=GPa)
#
#
# Indices 1 2 3 4 5 6 
#
# 1 113.8995 28.2161 62.0816 0.0000 0.0000 0.0000
# 2 28.2161 15.3548 23.0611 0.0000 0.0000 0.0000
# 3 62.0816 23.0611 69.1943 0.0000 0.0000 0.0000
# 4 0.0000 0.0000 0.0000 14.5015 0.0000 0.0000
# 5 0.0000 0.0000 0.0000 0.0000 21.9022 0.0000
# 6 0.0000 0.0000 0.0000 0.0000 0.0000 23.0156
#
#
#
# Elastic Compliance Matrix: (Units=1/GPa)
#
#
# Indices 1 2 3 4 5 6 
#
# 1 0.019679 -0.019311 -0.011220 0.000000 0.000000 0.000000
# 2 -0.019311 0.149345 -0.032447 0.000000 0.000000 0.000000
# 3 -0.011220 -0.032447 0.035333 0.000000 0.000000 0.000000
# 4 0.000000 0.000000 0.000000 0.068958 0.000000 0.000000
# 5 0.000000 0.000000 0.000000 0.000000 0.045657 0.000000
# 6 0.000000 0.000000 0.000000 0.000000 0.000000 0.043449
#
#
# Mechanical properties :
#
#
# Convention : Reuss Voigt Hill
#
# Bulk Modulus (GPa) = 12.75528 47.24069 29.99798
# Shear Modulus (GPa) = 9.71793 17.55653 13.63723
#
# Velocity S-wave (km/s) = 2.48254 3.33678 2.94084
# Velocity P-wave (km/s) = 4.03813 6.69364 5.52772
#
# Compressibility (1/GPa) = 0.07839894
#
# Stress axis : x y z
#
# Youngs Moduli (GPa) = 50.81473 6.69593 28.30205
#
# Poissons Ratio (x) = 0.12931 0.31756
# Poissons Ratio (y) = 0.98129 0.91833
# Poissons Ratio (z) = 0.57016 0.21727
#
# Static dielectric constant tensor:
#      x y z
#    x 1.516700 0.000000 0.000000 
#    y 0.000000 1.531980 0.000000 
#    z 0.000000 0.000000 1.546650 
# 
# From -- ./inp_files/25562.got.cif
#   From: 2010.05.17/outbox.ucp.g08.bks.cvg/sg47_13_cif.got.tgz:25562.got - 2010.06.11 16:36:43.
