data_PCOD9389106
_publ_section_title
;
Structure prediction by ZEFSAII (Michael W. Deem and Ramdas Pophale) SiO2 
 PCOD9389106
Probable space group: P M M M
;
_chemical_formula_sum "Si O2"
_cell_formula_units_Z 52
_cell_length_a 7.442051
_cell_length_b 34.310741
_cell_length_c 9.879785
_cell_angle_alpha 90.000000
_cell_angle_beta 90.000000
_cell_angle_gamma 90.000000
_cell_volume 2522.726871
_symmetry_space_group_name_H-M "P M M M"
_symmetry_group_IT_number 47
_symmetry_cell_setting 'orthorhombic'
loop_
_space_group_symop_operation_xyz
x,y,z
-x,-y,z
x,-y,-z
-x,y,-z
-x,-y,-z
x,y,-z
-x,y,z
x,-y,z
loop_
_atom_site_type_symbol
_atom_site_label
_atom_site_fract_x
_atom_site_fract_y
_atom_site_fract_z
Si Si1 0.219215 0.543566 0.156085
Si Si2 0.285270 0.840853 0.346613
Si Si3 0.714131 0.701264 0.345746
Si Si4 0.215583 0.387085 0.346259
Si Si5 0.720212 0.228748 0.155675
Si Si6 0.785210 0.930479 0.346726
Si Si7 0.220195 0.000000 0.155416
O O1 0.273575 0.500000 0.200289
O O2 0.282901 0.578642 0.250010
O O3 0.000000 0.544020 0.157555
O O4 0.273454 0.548848 0.000000
O O5 0.215591 0.834415 0.500000
O O6 0.500000 0.836050 0.353465
O O7 0.220377 0.809521 0.238203
O O8 0.250082 0.885672 0.309246
O O9 0.785097 0.705512 0.500000
O O10 0.500000 0.706701 0.354370
O O11 0.745967 0.656922 0.299974
O O12 0.780162 0.733567 0.241178
O O13 0.284029 0.390762 0.500000
O O14 0.000000 0.390771 0.351257
O O15 0.500000 0.228826 0.153702
O O16 0.778640 0.229160 0.000000
O O17 0.715525 0.936845 0.500000
O O18 0.000000 0.935231 0.353453
O O19 0.720189 0.961952 0.238929
O O20 0.000000 0.000000 0.153633
O O21 0.278826 0.000000 0.000000
#
# Coordination Sequence:
#
# PCOD9389106 Si02
#       7
#     8   8   8   8   8   8   4
#     4   8  14  25  41  61  85 113 143 173 208 253
#     4   9  17  30  48  68  89 114 144 178 217 258
#     4   9  17  30  47  64  84 113 146 176 209 254
#     4   9  17  28  43  65  89 110 137 177 219 252
#     4   9  17  29  46  67  88 112 145 181 213 250
#     4   9  17  30  48  68  89 115 148 182 214 252
#     4   9  17  29  46  67  90 118 150 181 214 254
#
# _framework density 20.612615000000002
#
# number of rings (size 3 to 8) (size 9 to 14) (size 15 to 20)
#    0.000    3.154    0.000    1.154    0.000    4.308 
#    0.000    2.692    0.000    7.385    0.000    3.231 
#    0.000    0.000    0.000    0.000    0.000    0.000 
#
# Total GULP energy -290142.674467 kJ/mol
# GULP energy per Si atom -5579.666817 kJ/mol
# Density = 2.056570 g / cm^3
# Si number density = 20.612615 Si / 1000 Ang^3
#
#
#
# Elastic Constant Matrix: (Units=GPa)
#
#
# Indices 1 2 3 4 5 6 
#
# 1 63.1559 -0.4206 6.7597 0.0000 0.0000 0.0000
# 2 -0.4206 221.9945 163.7797 0.0000 0.0000 0.0000
# 3 6.7597 163.7797 158.8778 0.0000 0.0000 0.0000
# 4 0.0000 0.0000 0.0000 36.9506 0.0000 0.0000
# 5 0.0000 0.0000 0.0000 0.0000 1.2248 0.0000
# 6 0.0000 0.0000 0.0000 0.0000 0.0000 19.2650
#
#
#
# Elastic Compliance Matrix: (Units=1/GPa)
#
#
# Indices 1 2 3 4 5 6 
#
# 1 0.016170 0.002247 -0.003005 0.000000 0.000000 0.000000
# 2 0.002247 0.019123 -0.019809 0.000000 0.000000 0.000000
# 3 -0.003005 -0.019809 0.026842 0.000000 0.000000 0.000000
# 4 0.000000 0.000000 0.000000 0.027063 0.000000 0.000000
# 5 0.000000 0.000000 0.000000 0.000000 0.816455 0.000000
# 6 0.000000 0.000000 0.000000 0.000000 0.000000 0.051908
#
#
# Mechanical properties :
#
#
# Convention : Reuss Voigt Hill
#
# Bulk Modulus (GPa) = 47.61164 87.14065 67.37615
# Shear Modulus (GPa) = 4.97169 29.74869 17.36019
#
# Velocity S-wave (km/s) = 1.55473 3.80310 2.90524
# Velocity P-wave (km/s) = 5.13531 7.85188 6.63413
#
# Compressibility (1/GPa) = 0.02100327
#
# Stress axis : x y z
#
# Youngs Moduli (GPa) = 61.84134 52.29316 37.25540
#
# Poissons Ratio (x) = -0.11753 0.11195
# Poissons Ratio (y) = -0.13899 0.73798
# Poissons Ratio (z) = 0.18582 1.03585
#
# Static dielectric constant tensor:
#      x y z
#    x 1.794880 0.000000 0.000000 
#    y 0.000000 1.704400 0.000000 
#    z 0.000000 0.000000 1.709080 
# 
# From -- ./inp_files/4548.got.cif
#   From: 2010.05.17/outbox.cif.g08.bks.cpg/sg47_3_cif.got.tgz:4548.got - 2010.06.03 20:15:42.
