data_PCOD9389304
_publ_section_title
;
Structure prediction by ZEFSAII (Michael W. Deem and Ramdas Pophale) SiO2 
 PCOD9389304
Probable space group: P M M M
;
_chemical_formula_sum "Si O2"
_cell_formula_units_Z 44
_cell_length_a 30.000000
_cell_length_b 9.000000
_cell_length_c 9.000000
_cell_angle_alpha 90.000000
_cell_angle_beta 90.000000
_cell_angle_gamma 90.000000
_cell_volume 2430.000000
_symmetry_space_group_name_H-M "P M M M"
_symmetry_group_IT_number 47
_symmetry_cell_setting 'orthorhombic'
loop_
_space_group_symop_operation_xyz
x,y,z
-x,-y,z
x,-y,-z
-x,y,-z
-x,-y,-z
x,y,-z
-x,y,z
x,-y,z
loop_
_atom_site_type_symbol
_atom_site_label
_atom_site_fract_x
_atom_site_fract_y
_atom_site_fract_z
Si Si1 0.637642 0.827552 0.181243
Si Si2 0.000000 0.318459 0.329232
Si Si3 0.548153 0.325050 0.180128
Si Si4 0.734959 0.820638 0.172946
Si Si5 0.181187 0.324993 0.675972
Si Si6 0.090319 0.681265 0.170946
O O1 0.593364 0.747678 0.236532
O O2 0.686135 0.768237 0.227363
O O3 0.634746 0.000000 0.221694
O O4 0.638115 0.820272 0.000000
O O5 0.954860 0.268423 0.249862
O O6 0.000000 0.500000 0.324569
O O7 0.000000 0.273868 0.500000
O O8 0.500000 0.265157 0.232013
O O9 0.549306 0.500000 0.210985
O O10 0.548452 0.308676 0.000000
O O11 0.775734 0.758715 0.264990
O O12 0.734271 0.000000 0.177800
O O13 0.740360 0.777187 0.000000
O O14 0.177148 0.311099 0.500000
O O15 0.185934 0.500000 0.712609
O O16 0.135612 0.269417 0.750492
O O17 0.090133 0.500000 0.177267
O O18 0.090335 0.725451 0.000000
#
# Coordination Sequence:
#
# PCOD9389304 Si02
#       6
#     8   4   8   8   8   8
#     4   8  14  24  37  54  77 106 142 183 223 264
#     4   9  15  23  37  59  90 125 156 189 232 277
#     4   8  13  20  30  48  77 111 144 177 215 262
#     4   9  18  32  48  66  89 118 154 194 234 279
#     4  10  20  32  46  67  94 121 152 192 236 281
#     4   9  16  26  41  62  89 121 156 192 231 276
#
# _framework density 18.106995999999999
#
# number of rings (size 3 to 8) (size 9 to 14) (size 15 to 20)
#    0.000    3.182    0.000    3.000    0.000    5.818 
#    0.000    3.636    0.000    0.000    0.000    0.636 
#    0.000    5.818    0.000    8.000    0.000   13.091 
#
# Total GULP energy -244981.734036 kJ/mol
# GULP energy per Si atom -5567.766683 kJ/mol
# Density = 1.806578 g / cm^3
# Si number density = 18.106996 Si / 1000 Ang^3
#
#
#
# Elastic Constant Matrix: (Units=GPa)
#
#
# Indices 1 2 3 4 5 6 
#
# 1 216.4873 44.4098 52.0937 0.0000 0.0000 0.0000
# 2 44.4098 5.9366 19.3638 0.0000 0.0000 0.0000
# 3 52.0937 19.3638 24.9293 0.0000 0.0000 0.0000
# 4 0.0000 0.0000 0.0000 9.8583 0.0000 0.0000
# 5 0.0000 0.0000 0.0000 0.0000 -53.5793 0.0000
# 6 0.0000 0.0000 0.0000 0.0000 0.0000 52.9839
#
#
#
# Elastic Compliance Matrix: (Units=1/GPa)
#
#
# Indices 1 2 3 4 5 6 
#
# 1 0.009146 0.003964 -0.022191 0.000000 0.000000 0.000000
# 2 0.003964 -0.108121 0.075699 0.000000 0.000000 0.000000
# 3 -0.022191 0.075699 0.027685 0.000000 0.000000 0.000000
# 4 0.000000 0.000000 0.000000 0.101438 0.000000 0.000000
# 5 0.000000 0.000000 0.000000 0.000000 -0.018664 0.000000
# 6 0.000000 0.000000 0.000000 0.000000 0.000000 0.018874
#
#
# Mechanical properties :
#
#
# Convention : Reuss Voigt Hill
#
# Bulk Modulus (GPa) = 22.90677 53.23197 38.06937
# Shear Modulus (GPa) = -71.39211 10.61829 -30.38691
#
# Velocity S-wave (km/s) = -6.28598 2.42424 -4.10101
# Velocity P-wave (km/s) = 6.32506 6.10723 1.16365
#
# Compressibility (1/GPa) = 0.04365521
#
# Stress axis : x y z
#
# Youngs Moduli (GPa) = 109.33972 -9.24893 36.12065
#
# Poissons Ratio (x) = 0.03666 0.80154
# Poissons Ratio (y) = -0.43343 -2.73430
# Poissons Ratio (z) = 2.42632 0.70014
#
# Static dielectric constant tensor:
#      x y z
#    x 1.643110 0.000000 0.000000 
#    y 0.000000 1.614280 0.000000 
#    z 0.000000 0.000000 1.602420 
# 
# From -- ./inp_files/2098.got.cif
#   From: 2010.05.17/outbox.ucp.g08.bks.cvg/sg47_2_cif.got.tgz:2098.got - 2010.06.11 16:36:43.
