data_PCOD9389306
_publ_section_title
;
Structure prediction by ZEFSAII (Michael W. Deem and Ramdas Pophale) SiO2 
 PCOD9389306
Probable space group: P M M M
;
_chemical_formula_sum "Si O2"
_cell_formula_units_Z 64
_cell_length_a 15.000000
_cell_length_b 30.000000
_cell_length_c 9.000000
_cell_angle_alpha 90.000000
_cell_angle_beta 90.000000
_cell_angle_gamma 90.000000
_cell_volume 4050.000000
_symmetry_space_group_name_H-M "P M M M"
_symmetry_group_IT_number 47
_symmetry_cell_setting 'orthorhombic'
loop_
_space_group_symop_operation_xyz
x,y,z
-x,-y,z
x,-y,-z
-x,y,-z
-x,-y,-z
x,y,-z
-x,y,z
x,-y,z
loop_
_atom_site_type_symbol
_atom_site_label
_atom_site_fract_x
_atom_site_fract_y
_atom_site_fract_z
Si Si1 0.282417 0.362131 0.180435
Si Si2 0.394585 0.178441 0.321497
Si Si3 0.893651 0.782651 0.676671
Si Si4 0.395974 0.448556 0.180863
Si Si5 0.896331 0.685836 0.179357
Si Si6 0.896574 0.948538 0.819621
Si Si7 0.778228 0.137765 0.179954
Si Si8 0.394107 0.274380 0.175535
O O1 0.329811 0.408438 0.230949
O O2 0.179855 0.350229 0.222207
O O3 0.340142 0.318346 0.223606
O O4 0.284583 0.363915 0.000000
O O5 0.385818 0.176666 0.500000
O O6 0.500000 0.169455 0.284744
O O7 0.321105 0.146087 0.246310
O O8 0.374630 0.228843 0.263924
O O9 0.874254 0.782672 0.500000
O O10 0.875472 0.733665 0.745626
O O11 0.837914 0.821246 0.757940
O O12 0.000000 0.790717 0.696076
O O13 0.500000 0.439798 0.222824
O O14 0.373910 0.500000 0.226256
O O15 0.393896 0.448351 0.000000
O O16 0.000000 0.674310 0.216049
O O17 0.891650 0.691241 0.000000
O O18 0.827999 0.908936 0.776016
O O19 0.000000 0.939168 0.773875
O O20 0.875024 0.000000 0.773458
O O21 0.896469 0.948641 0.000000
O O22 0.774664 0.139491 0.000000
O O23 0.500000 0.283209 0.189233
O O24 0.374740 0.266627 0.000000
#
# Coordination Sequence:
#
# PCOD9389306 Si02
#       8
#     8   8   8   8   8   8   8   8
#     4   9  15  23  37  56  79 109 142 176 217 262
#     4  10  21  35  48  64  92 128 161 194 232 273
#     4  10  20  32  46  67  97 128 155 186 225 270
#     4   8  13  21  34  54  80 107 134 168 215 270
#     4   9  17  28  41  58  83 116 152 185 215 253
#     4   8  15  29  49  74 101 123 145 180 227 274
#     4  11  20  30  50  75  96 122 157 193 229 272
#     4   9  16  26  42  64  87 110 141 182 225 269
#
# _framework density 15.802469
#
# number of rings (size 3 to 8) (size 9 to 14) (size 15 to 20)
#    0.000    2.750    0.000    3.375    0.000    4.500 
#    0.000    0.000    0.000    2.250    0.000    9.625 
#    0.000    2.000    0.000   12.000    0.000   11.500 
#
# Total GULP energy -356589.569571 kJ/mol
# GULP energy per Si atom -5571.712025 kJ/mol
# Density = 1.576650 g / cm^3
# Si number density = 15.802469 Si / 1000 Ang^3
#
#
#
# Elastic Constant Matrix: (Units=GPa)
#
#
# Indices 1 2 3 4 5 6 
#
# 1 118.9035 88.4188 28.0421 0.0000 0.0000 0.0000
# 2 88.4188 132.8295 24.2960 0.0000 0.0000 0.0000
# 3 28.0421 24.2960 36.3842 0.0000 0.0000 0.0000
# 4 0.0000 0.0000 0.0000 6.6095 0.0000 0.0000
# 5 0.0000 0.0000 0.0000 0.0000 20.3160 0.0000
# 6 0.0000 0.0000 0.0000 0.0000 0.0000 36.4351
#
#
#
# Elastic Compliance Matrix: (Units=1/GPa)
#
#
# Indices 1 2 3 4 5 6 
#
# 1 0.017974 -0.010743 -0.006679 0.000000 0.000000 0.000000
# 2 -0.010743 0.014997 -0.001735 0.000000 0.000000 0.000000
# 3 -0.006679 -0.001735 0.033791 0.000000 0.000000 0.000000
# 4 0.000000 0.000000 0.000000 0.151297 0.000000 0.000000
# 5 0.000000 0.000000 0.000000 0.000000 0.049222 0.000000
# 6 0.000000 0.000000 0.000000 0.000000 0.000000 0.027446
#
#
# Mechanical properties :
#
#
# Convention : Reuss Voigt Hill
#
# Bulk Modulus (GPa) = 35.15186 63.29234 49.22210
# Shear Modulus (GPa) = 14.59759 22.49614 18.54687
#
# Velocity S-wave (km/s) = 3.04263 3.77713 3.42960
# Velocity P-wave (km/s) = 5.88526 7.69165 6.84828
#
# Compressibility (1/GPa) = 0.02844800
#
# Stress axis : x y z
#
# Youngs Moduli (GPa) = 55.63625 66.68147 29.59406
#
# Poissons Ratio (x) = 0.71634 0.19767
# Poissons Ratio (y) = 0.59768 0.05133
# Poissons Ratio (z) = 0.37161 0.11566
#
# Static dielectric constant tensor:
#      x y z
#    x 1.555350 0.000000 0.000000 
#    y 0.000000 1.520450 0.000000 
#    z 0.000000 0.000000 1.521840 
# 
# From -- ./inp_files/8236.got.cif
#   From: 2010.05.17/outbox.ucp.g08.bks.cvg/sg47_5_cif.got.tgz:8236.got - 2010.06.11 16:36:43.
