data_PCOD9389083
_publ_section_title
;
Structure prediction by ZEFSAII (Michael W. Deem and Ramdas Pophale) SiO2 
 PCOD9389083
Probable space group: P M M M
;
_chemical_formula_sum "Si O2"
_cell_formula_units_Z 52
_cell_length_a 7.566561
_cell_length_b 9.586787
_cell_length_c 35.081968
_cell_angle_alpha 90.000000
_cell_angle_beta 90.000000
_cell_angle_gamma 90.000000
_cell_volume 2544.811179
_symmetry_space_group_name_H-M "P M M M"
_symmetry_group_IT_number 47
_symmetry_cell_setting 'orthorhombic'
loop_
_space_group_symop_operation_xyz
x,y,z
-x,-y,z
x,-y,-z
-x,y,-z
-x,-y,-z
x,y,-z
-x,y,z
x,-y,z
loop_
_atom_site_type_symbol
_atom_site_label
_atom_site_fract_x
_atom_site_fract_y
_atom_site_fract_z
Si Si1 0.212013 0.841160 0.041645
Si Si2 0.789915 0.841135 0.500000
Si Si3 0.711211 0.343053 0.885247
Si Si4 0.283581 0.339250 0.345236
Si Si5 0.290158 0.159678 0.583320
Si Si6 0.284469 0.337723 0.800765
Si Si7 0.283867 0.839291 0.271638
O O1 0.253991 0.751486 0.078476
O O2 0.000000 0.846629 0.039866
O O3 0.276923 0.000000 0.045933
O O4 0.273993 0.787807 0.000000
O O5 0.736819 0.780554 0.540789
O O6 0.000000 0.848082 0.500000
O O7 0.716014 0.000000 0.500000
O O8 0.500000 0.351690 0.881895
O O9 0.779482 0.500000 0.891557
O O10 0.773861 0.294751 0.843394
O O11 0.500000 0.341040 0.345483
O O12 0.226287 0.500000 0.343838
O O13 0.222699 0.258431 0.383165
O O14 0.229720 0.251312 0.308173
O O15 0.500000 0.148608 0.589103
O O16 0.218481 0.000000 0.584762
O O17 0.500000 0.335201 0.799950
O O18 0.233843 0.500000 0.794795
O O19 0.224778 0.237484 0.766971
O O20 0.500000 0.840226 0.271485
O O21 0.226935 0.000000 0.273944
#
# Coordination Sequence:
#
# PCOD9389083 Si02
#       7
#     8   4   8   8   8   8   8
#     4   9  19  35  51  67  90 121 157 196 237 281
#     4   9  17  29  46  67  88 112 144 179 216 260
#     4   9  18  31  47  70  98 125 155 192 233 278
#     4   9  16  25  38  58  85 116 147 179 218 261
#     4   9  16  27  44  65  88 113 143 180 218 255
#     4   8  14  25  39  57  87 123 151 178 218 266
#     4   9  15  22  35  58  87 117 149 183 217 256
#
# _framework density 20.433734999999999
#
# number of rings (size 3 to 8) (size 9 to 14) (size 15 to 20)
#    0.000    3.154    0.000    2.538    0.000    6.462 
#    0.000    4.231    0.000    2.769    0.000    1.077 
#    0.000    6.154    0.000    0.000    0.000    0.000 
#
# Total GULP energy -289926.427757 kJ/mol
# GULP energy per Si atom -5575.508226 kJ/mol
# Density = 2.038723 g / cm^3
# Si number density = 20.433735 Si / 1000 Ang^3
#
#
#
# Elastic Constant Matrix: (Units=GPa)
#
#
# Indices 1 2 3 4 5 6 
#
# 1 43.9485 5.0956 4.1848 0.0000 0.0000 0.0000
# 2 5.0956 135.0431 136.6463 0.0000 0.0000 0.0000
# 3 4.1848 136.6463 253.5357 0.0000 0.0000 0.0000
# 4 0.0000 0.0000 0.0000 29.5245 0.0000 0.0000
# 5 0.0000 0.0000 0.0000 0.0000 140.5635 0.0000
# 6 0.0000 0.0000 0.0000 0.0000 0.0000 7.2267
#
#
#
# Elastic Compliance Matrix: (Units=1/GPa)
#
#
# Indices 1 2 3 4 5 6 
#
# 1 0.022858 -0.001057 0.000193 0.000000 0.000000 0.000000
# 2 -0.001057 0.016337 -0.008787 0.000000 0.000000 0.000000
# 3 0.000193 -0.008787 0.008677 0.000000 0.000000 0.000000
# 4 0.000000 0.000000 0.000000 0.033870 0.000000 0.000000
# 5 0.000000 0.000000 0.000000 0.000000 0.007114 0.000000
# 6 0.000000 0.000000 0.000000 0.000000 0.000000 0.138376
#
#
# Mechanical properties :
#
#
# Convention : Reuss Voigt Hill
#
# Bulk Modulus (GPa) = 35.00472 80.48672 57.74572
# Shear Modulus (GPa) = 19.52672 54.56964 37.04818
#
# Velocity S-wave (km/s) = 3.09465 5.17336 4.26266
# Velocity P-wave (km/s) = 5.47149 8.66946 7.24902
#
# Compressibility (1/GPa) = 0.02856757
#
# Stress axis : x y z
#
# Youngs Moduli (GPa) = 43.74805 61.21194 115.24554
#
# Poissons Ratio (x) = 0.06473 -0.02220
# Poissons Ratio (y) = 0.04626 1.01271
# Poissons Ratio (z) = -0.00843 0.53789
#
# Static dielectric constant tensor:
#      x y z
#    x 1.766170 0.000000 0.000000 
#    y 0.000000 1.699800 0.000000 
#    z 0.000000 0.000000 1.733450 
# 
# From -- ./inp_files/34513.got.cif
#   From: 2010.05.17/outbox.cif.g08.bks.cpg/sg47_18_cif.got.tgz:34513.got - 2010.06.03 20:15:42.
