data_PCOD9389250
_publ_section_title
;
Structure prediction by ZEFSAII (Michael W. Deem and Ramdas Pophale) SiO2 
 PCOD9389250
Probable space group: P M M M
;
_chemical_formula_sum "Si O2"
_cell_formula_units_Z 64
_cell_length_a 15.000000
_cell_length_b 9.000000
_cell_length_c 30.000000
_cell_angle_alpha 90.000000
_cell_angle_beta 90.000000
_cell_angle_gamma 90.000000
_cell_volume 4050.000000
_symmetry_space_group_name_H-M "P M M M"
_symmetry_group_IT_number 47
_symmetry_cell_setting 'orthorhombic'
loop_
_space_group_symop_operation_xyz
x,y,z
-x,-y,z
x,-y,-z
-x,y,-z
-x,-y,-z
x,y,-z
-x,y,z
x,-y,z
loop_
_atom_site_type_symbol
_atom_site_label
_atom_site_fract_x
_atom_site_fract_y
_atom_site_fract_z
Si Si1 0.604240 0.820478 0.270368
Si Si2 0.104791 0.675451 0.687317
Si Si3 0.892149 0.825630 0.950500
Si Si4 0.605770 0.822616 0.373346
Si Si5 0.773856 0.679275 0.227560
Si Si6 0.728005 0.322091 0.449242
Si Si7 0.896180 0.822696 0.592548
Si Si8 0.104582 0.679310 0.143111
O O1 0.500000 0.779960 0.261841
O O2 0.625738 0.776987 0.321996
O O3 0.677309 0.750504 0.237392
O O4 0.609301 0.000000 0.268286
O O5 0.118717 0.500000 0.677485
O O6 0.164837 0.716117 0.729493
O O7 0.124037 0.768967 0.643003
O O8 0.000000 0.694509 0.698371
O O9 0.865960 0.740796 0.905339
O O10 0.000000 0.816429 0.951379
O O11 0.868803 0.000000 0.946687
O O12 0.861553 0.772848 0.000000
O O13 0.500000 0.797291 0.380182
O O14 0.663310 0.742406 0.411052
O O15 0.621668 0.000000 0.376296
O O16 0.764866 0.500000 0.225894
O O17 0.828698 0.725434 0.183091
O O18 0.700642 0.282453 0.500000
O O19 0.729895 0.500000 0.445800
O O20 0.825994 0.256977 0.439324
O O21 0.000000 0.784662 0.583550
O O22 0.886454 0.000000 0.589509
O O23 0.104940 0.500000 0.141757
O O24 0.000000 0.724132 0.151128
#
# Coordination Sequence:
#
# PCOD9389250 Si02
#       8
#     8   8   8   8   8   8   8   8
#     4   9  19  35  52  70  92 118 150 188 228 270
#     4   9  17  30  48  69  95 126 155 183 221 270
#     4   8  14  25  40  58  83 118 161 205 241 271
#     4   9  19  37  59  79  98 121 149 183 225 273
#     4  10  19  29  44  68  96 125 156 189 226 269
#     4  11  24  38  52  73  99 124 150 183 225 273
#     4  10  21  36  53  72  93 119 155 196 231 266
#     4   9  17  28  41  61  93 129 162 195 230 270
#
# _framework density 15.802469
#
# number of rings (size 3 to 8) (size 9 to 14) (size 15 to 20)
#    0.000    2.625    0.000    3.000    0.000    8.000 
#    0.000    5.000    0.000    3.750    0.000    0.000 
#    0.000    0.500    0.000    5.500    0.000    4.250 
#
# Total GULP energy -356816.155434 kJ/mol
# GULP energy per Si atom -5575.252429 kJ/mol
# Density = 1.576650 g / cm^3
# Si number density = 15.802469 Si / 1000 Ang^3
#
#
#
# Elastic Constant Matrix: (Units=GPa)
#
#
# Indices 1 2 3 4 5 6 
#
# 1 74.5482 28.8922 62.9163 0.0000 0.0000 0.0000
# 2 28.8922 29.0635 34.2412 0.0000 0.0000 0.0000
# 3 62.9163 34.2412 112.4773 0.0000 0.0000 0.0000
# 4 0.0000 0.0000 0.0000 26.1426 0.0000 0.0000
# 5 0.0000 0.0000 0.0000 0.0000 22.0423 0.0000
# 6 0.0000 0.0000 0.0000 0.0000 0.0000 25.6405
#
#
#
# Elastic Compliance Matrix: (Units=1/GPa)
#
#
# Indices 1 2 3 4 5 6 
#
# 1 0.029183 -0.015248 -0.011682 0.000000 0.000000 0.000000
# 2 -0.015248 0.061616 -0.010229 0.000000 0.000000 0.000000
# 3 -0.011682 -0.010229 0.018539 0.000000 0.000000 0.000000
# 4 0.000000 0.000000 0.000000 0.038252 0.000000 0.000000
# 5 0.000000 0.000000 0.000000 0.000000 0.045367 0.000000
# 6 0.000000 0.000000 0.000000 0.000000 0.000000 0.039001
#
#
# Mechanical properties :
#
#
# Convention : Reuss Voigt Hill
#
# Bulk Modulus (GPa) = 28.55399 52.02090 40.28744
# Shear Modulus (GPa) = 15.72581 20.76770 18.24675
#
# Velocity S-wave (km/s) = 3.15802 3.62913 3.40174
# Velocity P-wave (km/s) = 5.60411 7.10997 6.40147
#
# Compressibility (1/GPa) = 0.03502138
#
# Stress axis : x y z
#
# Youngs Moduli (GPa) = 34.26649 16.22958 53.93959
#
# Poissons Ratio (x) = 0.24746 0.63014
# Poissons Ratio (y) = 0.52248 0.55173
# Poissons Ratio (z) = 0.40031 0.16601
#
# Static dielectric constant tensor:
#      x y z
#    x 1.525310 0.000000 0.000000 
#    y 0.000000 1.531620 0.000000 
#    z 0.000000 0.000000 1.528310 
# 
# From -- ./inp_files/34716.got.cif
#   From: 2010.05.17/outbox.ucp.g08.bks.cvg/sg47_18_cif.got.tgz:34716.got - 2010.06.11 16:36:43.
