data_PCOD9389594
_publ_section_title
;
Structure prediction by ZEFSAII (Michael W. Deem and Ramdas Pophale) SiO2 
 PCOD9389594
Probable space group: P N N N
;
_chemical_formula_sum "Si O2"
_cell_formula_units_Z 64
_cell_length_a 12.838512
_cell_length_b 23.513841
_cell_length_c 8.376548
_cell_angle_alpha 90.000000
_cell_angle_beta 90.000000
_cell_angle_gamma 90.000000
_cell_volume 2528.735177
_symmetry_space_group_name_H-M "P N N N"
_symmetry_group_IT_number 48
_space_group.IT_coordinate_system_code '2'
_symmetry_cell_setting 'orthorhombic'
loop_
_space_group_symop_operation_xyz
x,y,z
1/2-x,1/2-y,z
x,1/2-y,1/2-z
1/2-x,y,1/2-z
-x,-y,-z
1/2+x,1/2+y,-z
-x,1/2+y,1/2+z
1/2+x,-y,1/2+z
loop_
_atom_site_type_symbol
_atom_site_label
_atom_site_fract_x
_atom_site_fract_y
_atom_site_fract_z
Si Si1 0.010794 0.036280 0.726525
Si Si2 0.938668 0.744448 0.941812
Si Si3 0.678344 0.857877 0.890618
Si Si4 0.968867 0.091498 0.232624
Si Si5 0.623324 0.197331 0.857480
Si Si6 0.984794 0.857716 0.084795
Si Si7 0.818529 0.416245 0.969776
Si Si8 0.719575 0.531422 0.434171
O O1 0.092670 0.031549 0.580671
O O2 0.056643 0.082385 0.850010
O O3 0.902201 0.059144 0.657886
O O4 0.004384 0.974133 0.800766
O O5 0.937038 0.750000 0.750000
O O6 0.858639 0.695274 0.995000
O O7 0.053085 0.722824 0.998807
O O8 0.916406 0.805167 0.022653
O O9 0.750000 0.835525 0.750000
O O10 0.570532 0.881180 0.814719
O O11 0.738002 0.910770 0.970559
O O12 0.875419 0.091941 0.359461
O O13 0.947146 0.125233 0.070140
O O14 0.655390 0.250000 0.750000
O O15 0.544196 0.166131 0.737502
O O16 0.703653 0.148414 0.914838
O O17 0.743843 0.471065 0.991708
O O18 0.750000 0.531721 0.250000
#
# Coordination Sequence:
#
# PCOD9389594 Si02
#       8
#     8   8   8   8   8   8   8   8
#     4  10  19  36  61  81 109 151 194 252 309 353
#     4  11  20  37  55  74 113 156 203 243 294 353
#     4  12  24  38  53  76 117 164 206 247 300 361
#     4  11  18  35  57  82 107 152 196 245 307 362
#     4   9  18  32  56  87 115 143 184 250 307 358
#     4  10  20  31  53  86 111 140 193 256 289 348
#     4  10  17  37  61  79 113 154 189 244 315 360
#     4  11  23  38  56  82 115 156 199 254 308 365
#
# _framework density 25.309094999999999
#
# number of rings (size 3 to 8) (size 9 to 14) (size 15 to 20)
#    0.000    1.500    5.000    1.875    1.750    0.250 
#    0.000    0.000    0.000    0.750    0.000    0.000 
#    0.000   75.000    0.000    0.000    0.000    0.000 
#
# Total GULP energy -357739.812542 kJ/mol
# GULP energy per Si atom -5589.684571 kJ/mol
# Density = 2.525149 g / cm^3
# Si number density = 25.309095 Si / 1000 Ang^3
#
#
#
# Elastic Constant Matrix: (Units=GPa)
#
#
# Indices 1 2 3 4 5 6 
#
# 1 31.8379 13.5215 11.7088 0.0000 0.0000 0.0000
# 2 13.5215 229.3508 50.0770 0.0000 0.0000 0.0000
# 3 11.7088 50.0770 95.3431 0.0000 0.0000 0.0000
# 4 0.0000 0.0000 0.0000 63.6116 0.0000 0.0000
# 5 0.0000 0.0000 0.0000 0.0000 -12.2312 0.0000
# 6 0.0000 0.0000 0.0000 0.0000 0.0000 4.6922
#
#
#
# Elastic Compliance Matrix: (Units=1/GPa)
#
#
# Indices 1 2 3 4 5 6 
#
# 1 0.033187 -0.001205 -0.003443 0.000000 0.000000 0.000000
# 2 -0.001205 0.004969 -0.002462 0.000000 0.000000 0.000000
# 3 -0.003443 -0.002462 0.012204 0.000000 0.000000 0.000000
# 4 0.000000 0.000000 0.000000 0.015720 0.000000 0.000000
# 5 0.000000 0.000000 0.000000 0.000000 -0.081758 0.000000
# 6 0.000000 0.000000 0.000000 0.000000 0.000000 0.213118
#
#
# Mechanical properties :
#
#
# Convention : Reuss Voigt Hill
#
# Bulk Modulus (GPa) = 27.66929 56.34959 42.00944
# Shear Modulus (GPa) = 22.35070 29.96281 26.15676
#
# Velocity S-wave (km/s) = 2.97494 3.44448 3.21829
# Velocity P-wave (km/s) = 4.77039 6.17512 5.51764
#
# Compressibility (1/GPa) = 0.03614115
#
# Stress axis : x y z
#
# Youngs Moduli (GPa) = 30.13232 201.26137 81.93899
#
# Poissons Ratio (x) = 0.24249 0.28210
# Poissons Ratio (y) = 0.03630 0.20171
# Poissons Ratio (z) = 0.10374 0.49545
#
# Static dielectric constant tensor:
#      x y z
#    x 2.054240 0.000000 0.000000 
#    y 0.000000 2.163510 0.000000 
#    z 0.000000 0.000000 1.328800 
# 
# From -- ./inp_files/13274.got.cif
#   From: 2010.05.17/outbox.cif.g08.bks.cpg/sg48_7_cif.got.tgz:13274.got - 2010.06.03 20:39:00.
