data_PCOD9389614
_publ_section_title
;
Structure prediction by ZEFSAII (Michael W. Deem and Ramdas Pophale) SiO2 
 PCOD9389614
Probable space group: P N N N
;
_chemical_formula_sum "Si O2"
_cell_formula_units_Z 60
_cell_length_a 22.289876
_cell_length_b 11.925709
_cell_length_c 10.316314
_cell_angle_alpha 90.000000
_cell_angle_beta 90.000000
_cell_angle_gamma 90.000000
_cell_volume 2742.309150
_symmetry_space_group_name_H-M "P N N N"
_symmetry_group_IT_number 48
_space_group.IT_coordinate_system_code '2'
_symmetry_cell_setting 'orthorhombic'
loop_
_space_group_symop_operation_xyz
x,y,z
1/2-x,1/2-y,z
x,1/2-y,1/2-z
1/2-x,y,1/2-z
-x,-y,-z
1/2+x,1/2+y,-z
-x,1/2+y,1/2+z
1/2+x,-y,1/2+z
loop_
_atom_site_type_symbol
_atom_site_label
_atom_site_fract_x
_atom_site_fract_y
_atom_site_fract_z
Si Si1 0.380486 0.995031 0.447852
Si Si2 0.362920 0.087950 0.934445
Si Si3 0.482384 0.250000 0.250000
Si Si4 0.745109 0.614178 0.903624
Si Si5 0.938362 0.794201 0.030399
Si Si6 0.430591 0.965517 0.167636
Si Si7 0.057568 0.935540 0.678546
Si Si8 0.573615 0.248979 0.548728
O O1 0.407189 0.010519 0.303242
O O2 0.387456 0.862263 0.474567
O O3 0.315455 0.052818 0.448746
O O4 0.420528 0.076278 0.535966
O O5 0.297369 0.081158 0.995264
O O6 0.388641 0.211962 0.908848
O O7 0.403092 0.035504 0.050173
O O8 0.381592 0.005841 0.816491
O O9 0.442615 0.249688 0.120254
O O10 0.525403 0.356116 0.217865
O O11 0.750000 0.750000 0.905671
O O12 0.750000 0.583294 0.750000
O O13 0.005529 0.785109 0.083230
O O14 0.406812 0.839039 0.156155
O O15 0.502506 0.977936 0.152924
O O16 0.067541 0.836612 0.571562
#
# Coordination Sequence:
#
# PCOD9389614 Si02
#       8
#     8   8   4   8   8   8   8   8
#     4  12  22  33  51  82 122 148 185 238 283 353
#     4  11  18  34  55  79 108 151 198 230 276 351
#     4  10  18  28  54  87 101 138 188 240 284 328
#     4  11  23  34  54  80 112 159 199 223 264 344
#     4  11  18  31  54  82 113 143 183 238 298 338
#     4  11  18  34  54  75 110 156 187 228 286 348
#     4  10  19  34  57  77 109 149 199 237 290 345
#     4  10  21  33  49  79 113 151 178 234 297 347
#
# _framework density 21.879370999999999
#
# number of rings (size 3 to 8) (size 9 to 14) (size 15 to 20)
#    0.000    1.200    8.000    1.600    0.000    0.000 
#    0.000    2.667    0.000    0.000    0.000    7.467 
#    0.000    4.267    0.000    0.000    0.000    0.000 
#
# Total GULP energy -334281.814597 kJ/mol
# GULP energy per Si atom -5571.363577 kJ/mol
# Density = 2.182957 g / cm^3
# Si number density = 21.879371 Si / 1000 Ang^3
#
#
#
# Elastic Constant Matrix: (Units=GPa)
#
#
# Indices 1 2 3 4 5 6 
#
# 1 114.3449 45.2843 10.0370 0.0000 0.0000 0.0000
# 2 45.2843 177.9017 12.8309 0.0000 0.0000 0.0000
# 3 10.0370 12.8309 36.9739 0.0000 0.0000 0.0000
# 4 0.0000 0.0000 0.0000 23.0613 0.0000 0.0000
# 5 0.0000 0.0000 0.0000 0.0000 19.0788 0.0000
# 6 0.0000 0.0000 0.0000 0.0000 0.0000 32.5072
#
#
#
# Elastic Compliance Matrix: (Units=1/GPa)
#
#
# Indices 1 2 3 4 5 6 
#
# 1 0.009848 -0.002373 -0.001850 0.000000 0.000000 0.000000
# 2 -0.002373 0.006337 -0.001555 0.000000 0.000000 0.000000
# 3 -0.001850 -0.001555 0.028088 0.000000 0.000000 0.000000
# 4 0.000000 0.000000 0.000000 0.043363 0.000000 0.000000
# 5 0.000000 0.000000 0.000000 0.000000 0.052414 0.000000
# 6 0.000000 0.000000 0.000000 0.000000 0.000000 0.030762
#
#
# Mechanical properties :
#
#
# Convention : Reuss Voigt Hill
#
# Bulk Modulus (GPa) = 30.56513 51.72500 41.14506
# Shear Modulus (GPa) = 25.87003 32.33401 29.10202
#
# Velocity S-wave (km/s) = 3.44233 3.84843 3.65103
# Velocity P-wave (km/s) = 5.45890 6.59087 6.05141
#
# Compressibility (1/GPa) = 0.03271702
#
# Stress axis : x y z
#
# Youngs Moduli (GPa) = 101.54617 157.79476 35.60259
#
# Poissons Ratio (x) = 0.37449 0.06585
# Poissons Ratio (y) = 0.24100 0.05536
# Poissons Ratio (z) = 0.18783 0.24536
#
# Static dielectric constant tensor:
#      x y z
#    x 1.783610 0.000000 0.000000 
#    y 0.000000 1.912820 0.000000 
#    z 0.000000 0.000000 1.994630 
# 
# From -- ./inp_files/28458.got.cif
#   From: 2010.05.17/outbox.cif.g08.bks.cpg/sg48_15_cif.got.tgz:28458.got - 2010.06.03 20:39:00.
