data_PCOD9389084
_publ_section_title
;
Structure prediction by ZEFSAII (Michael W. Deem and Ramdas Pophale) SiO2 
 PCOD9389084
Probable space group: P M M M
;
_chemical_formula_sum "Si O2"
_cell_formula_units_Z 52
_cell_length_a 8.011779
_cell_length_b 23.615398
_cell_length_c 14.881493
_cell_angle_alpha 90.000000
_cell_angle_beta 90.000000
_cell_angle_gamma 90.000000
_cell_volume 2815.598562
_symmetry_space_group_name_H-M "P M M M"
_symmetry_group_IT_number 47
_symmetry_cell_setting 'orthorhombic'
loop_
_space_group_symop_operation_xyz
x,y,z
-x,-y,z
x,-y,-z
-x,y,-z
-x,-y,-z
x,y,-z
-x,y,z
x,-y,z
loop_
_atom_site_type_symbol
_atom_site_label
_atom_site_fract_x
_atom_site_fract_y
_atom_site_fract_z
Si Si1 0.500000 0.566581 0.106291
Si Si2 0.196872 0.243764 0.903050
Si Si3 0.177461 0.620678 0.104867
Si Si4 0.500000 0.434774 0.390982
Si Si5 0.698597 0.000000 0.396850
Si Si6 0.197867 0.649842 0.608149
Si Si7 0.799260 0.879387 0.397833
Si Si8 0.204222 0.768186 0.706088
O O1 0.500000 0.500000 0.108333
O O2 0.334197 0.591453 0.148281
O O3 0.500000 0.584512 0.000000
O O4 0.200250 0.312117 0.898030
O O5 0.268066 0.225188 0.807999
O O6 0.000000 0.228131 0.904859
O O7 0.270024 0.226886 0.000000
O O8 0.000000 0.607637 0.147876
O O9 0.168753 0.602009 0.000000
O O10 0.500000 0.500000 0.356742
O O11 0.500000 0.438098 0.500000
O O12 0.332056 0.398970 0.368319
O O13 0.754182 0.059775 0.355823
O O14 0.500000 0.000000 0.400797
O O15 0.767634 0.000000 0.500000
O O16 0.209742 0.659801 0.500000
O O17 0.244313 0.707904 0.660545
O O18 0.000000 0.637196 0.626367
O O19 0.734239 0.879257 0.500000
O O20 0.739679 0.822821 0.349244
O O21 0.000000 0.876392 0.400818
O O22 0.000000 0.768657 0.709175
#
# Coordination Sequence:
#
# PCOD9389084 Si02
#       8
#     4   8   8   4   4   8   8   8
#     4   9  16  24  37  59  81 101 132 174 218 267
#     4   8  14  26  45  67  89 115 148 188 237 288
#     4   8  14  25  40  56  76 104 135 170 218 272
#     4   9  18  32  49  71  98 129 167 204 241 295
#     4   9  17  29  43  63  96 135 168 194 221 263
#     4   9  17  30  48  71 100 130 160 200 249 298
#     4   9  16  27  45  69  98 131 163 193 228 275
#     4   9  16  27  46  71  97 125 158 197 244 294
#
# _framework density 18.468541999999999
#
# number of rings (size 3 to 8) (size 9 to 14) (size 15 to 20)
#    0.000    3.308    0.000    1.615    0.000    3.385 
#    1.385    3.846    0.000    1.846    0.000    4.846 
#    0.000    4.308    0.000    0.000    0.000    0.000 
#
# Total GULP energy -289482.547954 kJ/mol
# GULP energy per Si atom -5566.972076 kJ/mol
# Density = 1.842651 g / cm^3
# Si number density = 18.468542 Si / 1000 Ang^3
#
#
#
# Elastic Constant Matrix: (Units=GPa)
#
#
# Indices 1 2 3 4 5 6 
#
# 1 47.8983 52.3259 21.9775 0.0000 0.0000 0.0000
# 2 52.3259 120.6094 45.3810 0.0000 0.0000 0.0000
# 3 21.9775 45.3810 88.3537 0.0000 0.0000 0.0000
# 4 0.0000 0.0000 0.0000 -406.9196 0.0000 0.0000
# 5 0.0000 0.0000 0.0000 0.0000 -0.8491 0.0000
# 6 0.0000 0.0000 0.0000 0.0000 0.0000 9.2801
#
#
#
# Elastic Compliance Matrix: (Units=1/GPa)
#
#
# Indices 1 2 3 4 5 6 
#
# 1 0.039804 -0.016788 -0.001278 0.000000 0.000000 0.000000
# 2 -0.016788 0.017358 -0.004740 0.000000 0.000000 0.000000
# 3 -0.001278 -0.004740 0.014071 0.000000 0.000000 0.000000
# 4 0.000000 0.000000 0.000000 -0.002457 0.000000 0.000000
# 5 0.000000 0.000000 0.000000 0.000000 -1.177750 0.000000
# 6 0.000000 0.000000 0.000000 0.000000 0.000000 0.107757
#
#
# Mechanical properties :
#
#
# Convention : Reuss Voigt Hill
#
# Bulk Modulus (GPa) = 39.03088 55.13668 47.08378
# Shear Modulus (GPa) = -5.27946 -70.55257 -37.91601
#
# Velocity S-wave (km/s) = -1.69258 -6.18744 -4.53593
# Velocity P-wave (km/s) = 4.16651 4.59638 1.37238
#
# Compressibility (1/GPa) = 0.02562074
#
# Stress axis : x y z
#
# Youngs Moduli (GPa) = 25.12339 57.61096 71.07052
#
# Poissons Ratio (x) = 0.96715 0.09085
# Poissons Ratio (y) = 0.42176 0.33685
# Poissons Ratio (z) = 0.03212 0.27305
#
# Static dielectric constant tensor:
#      x y z
#    x 1.680200 0.000000 0.000000 
#    y 0.000000 1.608740 0.000000 
#    z 0.000000 0.000000 1.676630 
# 
# From -- ./inp_files/21529.got.cif
#   From: 2010.05.17/outbox.cif.g08.bks.cpg/sg47_11_cif.got.tgz:21529.got - 2010.06.03 20:15:42.
