data_PCOD9389168
_publ_section_title
;
Structure prediction by ZEFSAII (Michael W. Deem and Ramdas Pophale) SiO2 
 PCOD9389168
Probable space group: P M M M
;
_chemical_formula_sum "Si O2"
_cell_formula_units_Z 40
_cell_length_a 7.365142
_cell_length_b 28.494299
_cell_length_c 8.457417
_cell_angle_alpha 90.000000
_cell_angle_beta 90.000000
_cell_angle_gamma 90.000000
_cell_volume 1774.912083
_symmetry_space_group_name_H-M "P M M M"
_symmetry_group_IT_number 47
_symmetry_cell_setting 'orthorhombic'
loop_
_space_group_symop_operation_xyz
x,y,z
-x,-y,z
x,-y,-z
-x,y,-z
-x,-y,-z
x,y,-z
-x,y,z
x,-y,z
loop_
_atom_site_type_symbol
_atom_site_label
_atom_site_fract_x
_atom_site_fract_y
_atom_site_fract_z
Si Si1 0.283568 0.800108 0.180495
Si Si2 0.778855 0.000000 0.318166
Si Si3 0.721234 0.393850 0.176208
Si Si4 0.721105 0.554498 0.500000
Si Si5 0.721254 0.297432 0.678980
Si Si6 0.782811 0.098168 0.178417
O O1 0.500000 0.795074 0.171072
O O2 0.215862 0.754114 0.269780
O O3 0.252018 0.851289 0.256471
O O4 0.211927 0.800457 0.000000
O O5 0.714379 0.049231 0.247135
O O6 0.732469 0.000000 0.500000
O O7 0.000000 0.000000 0.303608
O O8 0.500000 0.396075 0.175773
O O9 0.780053 0.421644 0.334382
O O10 0.773959 0.339623 0.205801
O O11 0.779753 0.409468 0.000000
O O12 0.771173 0.500000 0.500000
O O13 0.500000 0.557772 0.500000
O O14 0.777464 0.308214 0.500000
O O15 0.500000 0.296865 0.679172
O O16 0.000000 0.093954 0.173152
O O17 0.712103 0.102059 0.000000
#
# Coordination Sequence:
#
# PCOD9389168 Si02
#       6
#     8   4   8   4   8   8
#     4   9  17  28  42  62  85 107 136 175 215 255
#     4   9  17  29  46  65  82 104 138 175 206 246
#     4   9  15  23  35  49  68  98 136 176 218 263
#     4   9  16  24  32  46  70  98 135 182 223 260
#     4   9  15  24  38  55  76 102 133 170 211 256
#     4   9  17  30  47  64  83 109 140 172 209 255
#
# _framework density 22.536327
#
# number of rings (size 3 to 8) (size 9 to 14) (size 15 to 20)
#    0.000    3.000    1.000    0.900    0.000    4.800 
#    0.000    2.500    0.000    3.000    0.000    0.000 
#    0.000    0.000    0.000    0.000    0.000    2.000 
#
# Total GULP energy -223105.027295 kJ/mol
# GULP energy per Si atom -5577.625682 kJ/mol
# Density = 2.248503 g / cm^3
# Si number density = 22.536327 Si / 1000 Ang^3
#
#
#
# Elastic Constant Matrix: (Units=GPa)
#
#
# Indices 1 2 3 4 5 6 
#
# 1 81.4448 -0.4361 2.4055 0.0000 0.0000 0.0000
# 2 -0.4361 176.8264 88.1207 0.0000 0.0000 0.0000
# 3 2.4055 88.1207 140.9564 0.0000 0.0000 0.0000
# 4 0.0000 0.0000 0.0000 34.6511 0.0000 0.0000
# 5 0.0000 0.0000 0.0000 0.0000 -10.6810 0.0000
# 6 0.0000 0.0000 0.0000 0.0000 0.0000 13.9973
#
#
#
# Elastic Compliance Matrix: (Units=1/GPa)
#
#
# Indices 1 2 3 4 5 6 
#
# 1 0.012289 0.000196 -0.000332 0.000000 0.000000 0.000000
# 2 0.000196 0.008218 -0.005141 0.000000 0.000000 0.000000
# 3 -0.000332 -0.005141 0.010314 0.000000 0.000000 0.000000
# 4 0.000000 0.000000 0.000000 0.028859 0.000000 0.000000
# 5 0.000000 0.000000 0.000000 0.000000 -0.093625 0.000000
# 6 0.000000 0.000000 0.000000 0.000000 0.000000 0.071442
#
#
# Mechanical properties :
#
#
# Convention : Reuss Voigt Hill
#
# Bulk Modulus (GPa) = 49.34242 64.37864 56.86053
# Shear Modulus (GPa) = 91.22962 28.20267 59.71614
#
# Velocity S-wave (km/s) = 6.36938 3.54140 5.15318
# Velocity P-wave (km/s) = 8.71976 6.73429 7.79053
#
# Compressibility (1/GPa) = 0.02026654
#
# Stress axis : x y z
#
# Youngs Moduli (GPa) = 81.37288 121.69034 96.95734
#
# Poissons Ratio (x) = -0.02383 0.03220
# Poissons Ratio (y) = -0.01594 0.49843
# Poissons Ratio (z) = 0.02703 0.62557
#
# Static dielectric constant tensor:
#      x y z
#    x 1.891850 0.000000 0.000000 
#    y 0.000000 1.853410 0.000000 
#    z 0.000000 0.000000 1.808370 
# 
# From -- ./inp_files/4041.got.cif
#   From: 2010.05.17/outbox.cif.g08.bks.cpg/sg47_3_cif.got.tgz:4041.got - 2010.06.03 20:15:42.
