data_PCOD9389006
_publ_section_title
;
Structure prediction by ZEFSAII (Michael W. Deem and Ramdas Pophale) SiO2 
 PCOD9389006
Probable space group: P M M M
;
_chemical_formula_sum "Si O2"
_cell_formula_units_Z 44
_cell_length_a 9.266693
_cell_length_b 30.234062
_cell_length_c 7.686285
_cell_angle_alpha 90.000000
_cell_angle_beta 90.000000
_cell_angle_gamma 90.000000
_cell_volume 2153.464706
_symmetry_space_group_name_H-M "P M M M"
_symmetry_group_IT_number 47
_symmetry_cell_setting 'orthorhombic'
loop_
_space_group_symop_operation_xyz
x,y,z
-x,-y,z
x,-y,-z
-x,y,-z
-x,-y,-z
x,y,-z
-x,y,z
x,-y,z
loop_
_atom_site_type_symbol
_atom_site_label
_atom_site_fract_x
_atom_site_fract_y
_atom_site_fract_z
Si Si1 0.667619 0.047574 0.208729
Si Si2 0.335716 0.142441 0.705691
Si Si3 0.333961 0.411953 0.212729
Si Si4 0.166195 0.500000 0.787173
Si Si5 0.335371 0.762027 0.206988
Si Si6 0.834279 0.323907 0.786782
O O1 0.500000 0.048761 0.271199
O O2 0.734347 0.094954 0.254748
O O3 0.728953 0.000000 0.268633
O O4 0.664048 0.046274 0.000000
O O5 0.346904 0.145012 0.500000
O O6 0.500000 0.141332 0.782110
O O7 0.271087 0.189029 0.764566
O O8 0.500000 0.412808 0.268692
O O9 0.248788 0.455737 0.268547
O O10 0.254279 0.367158 0.267766
O O11 0.333813 0.412045 0.000000
O O12 0.000000 0.500000 0.731616
O O13 0.166531 0.500000 0.000000
O O14 0.500000 0.761389 0.277602
O O15 0.241953 0.721200 0.273679
O O16 0.345913 0.756039 0.000000
O O17 0.000000 0.326307 0.731381
O O18 0.834030 0.323681 0.000000
#
# Coordination Sequence:
#
# PCOD9389006 Si02
#       6
#     8   8   8   4   8   8
#     4   8  13  21  33  50  75 108 142 173 207 249
#     4   9  16  24  35  53  77 105 137 173 211 250
#     4   9  15  22  32  47  69  98 133 171 211 256
#     4   9  15  21  29  43  67 101 138 173 210 253
#     4   9  16  26  40  56  75 102 135 169 207 252
#     4   9  16  25  37  53  72  95 128 171 213 251
#
# _framework density 20.432189999999999
#
# number of rings (size 3 to 8) (size 9 to 14) (size 15 to 20)
#    0.000    3.182    0.000    2.455    0.000    8.000 
#    0.000    1.818    0.000    0.545    0.000    0.000 
#    0.000    0.727    0.000    9.182    0.000   28.545 
#
# Total GULP energy -245161.118054 kJ/mol
# GULP energy per Si atom -5571.843592 kJ/mol
# Density = 2.038569 g / cm^3
# Si number density = 20.432190 Si / 1000 Ang^3
#
#
#
# Elastic Constant Matrix: (Units=GPa)
#
#
# Indices 1 2 3 4 5 6 
#
# 1 105.7048 100.1306 4.9046 0.0000 0.0000 0.0000
# 2 100.1306 263.8558 5.9433 0.0000 0.0000 0.0000
# 3 4.9046 5.9433 34.2604 0.0000 0.0000 0.0000
# 4 0.0000 0.0000 0.0000 -35.5401 0.0000 0.0000
# 5 0.0000 0.0000 0.0000 0.0000 -2.5960 0.0000
# 6 0.0000 0.0000 0.0000 0.0000 0.0000 -8.5320
#
#
#
# Elastic Compliance Matrix: (Units=1/GPa)
#
#
# Indices 1 2 3 4 5 6 
#
# 1 0.014815 -0.005596 -0.001150 0.000000 0.000000 0.000000
# 2 -0.005596 0.005919 -0.000226 0.000000 0.000000 0.000000
# 3 -0.001150 -0.000226 0.029392 0.000000 0.000000 0.000000
# 4 0.000000 0.000000 0.000000 -0.028137 0.000000 0.000000
# 5 0.000000 0.000000 0.000000 0.000000 -0.385211 0.000000
# 6 0.000000 0.000000 0.000000 0.000000 0.000000 -0.117206
#
#
# Mechanical properties :
#
#
# Convention : Reuss Voigt Hill
#
# Bulk Modulus (GPa) = 27.63820 69.53089 48.58455
# Shear Modulus (GPa) = -11.00292 10.18921 -0.40685
#
# Velocity S-wave (km/s) = -2.32310 2.23555 -0.44672
# Velocity P-wave (km/s) = 2.52199 6.38494 4.85427
#
# Compressibility (1/GPa) = 0.03618181
#
# Stress axis : x y z
#
# Youngs Moduli (GPa) = 67.50052 168.95583 34.02289
#
# Poissons Ratio (x) = 0.94550 0.03913
# Poissons Ratio (y) = 0.37774 0.00768
# Poissons Ratio (z) = 0.07763 0.03812
#
# Static dielectric constant tensor:
#      x y z
#    x 1.689590 0.000000 0.000000 
#    y 0.000000 1.762840 0.000000 
#    z 0.000000 0.000000 1.738800 
# 
# From -- ./inp_files/2021.got.cif
#   From: 2010.05.17/outbox.cif.g08.bks.cpg/sg47_2_cif.got.tgz:2021.got - 2010.06.03 20:15:42.
