data_PCOD9389588
_publ_section_title
;
Structure prediction by ZEFSAII (Michael W. Deem and Ramdas Pophale) SiO2 
 PCOD9389588
Probable space group: P N N N
;
_chemical_formula_sum "Si O2"
_cell_formula_units_Z 40
_cell_length_a 16.638079
_cell_length_b 8.606644
_cell_length_c 13.379478
_cell_angle_alpha 90.000000
_cell_angle_beta 90.000000
_cell_angle_gamma 90.000000
_cell_volume 1915.914796
_symmetry_space_group_name_H-M "P N N N"
_symmetry_group_IT_number 48
_space_group.IT_coordinate_system_code '2'
_symmetry_cell_setting 'orthorhombic'
loop_
_space_group_symop_operation_xyz
x,y,z
1/2-x,1/2-y,z
x,1/2-y,1/2-z
1/2-x,y,1/2-z
-x,-y,-z
1/2+x,1/2+y,-z
-x,1/2+y,1/2+z
1/2+x,-y,1/2+z
loop_
_atom_site_type_symbol
_atom_site_label
_atom_site_fract_x
_atom_site_fract_y
_atom_site_fract_z
Si Si1 0.607262 0.551326 0.321705
Si Si2 0.071798 0.937855 0.263120
Si Si3 0.912146 0.420015 0.979113
Si Si4 0.671945 0.641085 0.122550
Si Si5 0.087517 0.950729 0.039894
O O1 0.519636 0.506124 0.281824
O O2 0.635110 0.460527 0.419780
O O3 0.664977 0.548457 0.226384
O O4 0.601957 0.729302 0.361580
O O5 0.071975 0.750000 0.250000
O O6 0.114979 0.976351 0.368660
O O7 0.099641 0.997738 0.155692
O O8 0.912485 0.234893 0.971076
O O9 0.000000 0.500000 0.000000
O O10 0.750000 0.750000 0.114867
O O11 0.652719 0.534161 0.029722
O O12 0.000000 0.000000 0.000000
#
# Coordination Sequence:
#
# PCOD9389588 Si02
#       5
#     8   8   8   8   8
#     4  10  17  36  54  79 119 157 207 254 322 385
#     4   9  15  30  53  83 117 151 192 259 329 366
#     4   9  19  31  54  88 120 155 202 263 325 379
#     4  11  22  36  58  82 117 173 210 251 327 401
#     4  11  19  34  57  86 123 159 209 263 319 386
#
# _framework density 20.877753999999999
#
# number of rings (size 3 to 8) (size 9 to 14) (size 15 to 20)
#    0.000    2.000    4.000    3.600    0.000    0.800 
#    0.000    4.000    0.000    8.400    0.000    4.200 
#    0.000    0.000    0.000    0.000    0.000    0.000 
#
# Total GULP energy -222808.393199 kJ/mol
# GULP energy per Si atom -5570.209830 kJ/mol
# Density = 2.083024 g / cm^3
# Si number density = 20.877754 Si / 1000 Ang^3
#
#
#
# Elastic Constant Matrix: (Units=GPa)
#
#
# Indices 1 2 3 4 5 6 
#
# 1 45.5256 15.2712 48.8606 0.0000 0.0000 0.0000
# 2 15.2712 45.0999 66.4865 0.0000 0.0000 0.0000
# 3 48.8606 66.4865 275.2797 0.0000 0.0000 0.0000
# 4 0.0000 0.0000 0.0000 40.2305 0.0000 0.0000
# 5 0.0000 0.0000 0.0000 0.0000 14.2732 0.0000
# 6 0.0000 0.0000 0.0000 0.0000 0.0000 27.7680
#
#
#
# Elastic Compliance Matrix: (Units=1/GPa)
#
#
# Indices 1 2 3 4 5 6 
#
# 1 0.027444 -0.003279 -0.004079 0.000000 0.000000 0.000000
# 2 -0.003279 0.034825 -0.007829 0.000000 0.000000 0.000000
# 3 -0.004079 -0.007829 0.006248 0.000000 0.000000 0.000000
# 4 0.000000 0.000000 0.000000 0.024857 0.000000 0.000000
# 5 0.000000 0.000000 0.000000 0.000000 0.070062 0.000000
# 6 0.000000 0.000000 0.000000 0.000000 0.000000 0.036013
#
#
# Mechanical properties :
#
#
# Convention : Reuss Voigt Hill
#
# Bulk Modulus (GPa) = 26.21817 69.68243 47.95030
# Shear Modulus (GPa) = 20.61556 32.14013 26.37784
#
# Velocity S-wave (km/s) = 3.14577 3.92783 3.55835
# Velocity P-wave (km/s) = 5.07737 7.34978 6.31661
#
# Compressibility (1/GPa) = 0.03814148
#
# Stress axis : x y z
#
# Youngs Moduli (GPa) = 36.43847 28.71508 160.06225
#
# Poissons Ratio (x) = 0.09416 0.65291
# Poissons Ratio (y) = 0.11949 1.25313
# Poissons Ratio (z) = 0.14864 0.22481
#
# Static dielectric constant tensor:
#      x y z
#    x 2.660550 0.000000 0.000000 
#    y 0.000000 1.772550 0.000000 
#    z 0.000000 0.000000 1.830180 
# 
# From -- ./inp_files/21915.got.cif
#   From: 2010.05.17/outbox.cif.g08.bks.cpg/sg48_11_cif.got.tgz:21915.got - 2010.06.03 20:39:00.
