data_PCOD9389276
_publ_section_title
;
Structure prediction by ZEFSAII (Michael W. Deem and Ramdas Pophale) SiO2 
 PCOD9389276
Probable space group: P M M M
;
_chemical_formula_sum "Si O2"
_cell_formula_units_Z 52
_cell_length_a 27.000000
_cell_length_b 9.000000
_cell_length_c 12.000000
_cell_angle_alpha 90.000000
_cell_angle_beta 90.000000
_cell_angle_gamma 90.000000
_cell_volume 2916.000000
_symmetry_space_group_name_H-M "P M M M"
_symmetry_group_IT_number 47
_symmetry_cell_setting 'orthorhombic'
loop_
_space_group_symop_operation_xyz
x,y,z
-x,-y,z
x,-y,-z
-x,y,-z
-x,-y,-z
x,y,-z
-x,y,z
x,-y,z
loop_
_atom_site_type_symbol
_atom_site_label
_atom_site_fract_x
_atom_site_fract_y
_atom_site_fract_z
Si Si1 0.748399 0.827005 0.132781
Si Si2 0.646983 0.671513 0.866912
Si Si3 0.207884 0.670158 0.324363
Si Si4 0.614319 0.679139 0.500000
Si Si5 0.556053 0.680641 0.722945
Si Si6 0.908156 0.670561 0.629444
Si Si7 0.277561 0.175586 0.500000
Si Si8 0.940786 0.000000 0.628852
O O1 0.693683 0.770417 0.166670
O O2 0.787297 0.727319 0.198634
O O3 0.754551 0.000000 0.159436
O O4 0.752549 0.808395 0.000000
O O5 0.655466 0.500000 0.829914
O O6 0.594999 0.724427 0.817703
O O7 0.644459 0.671582 0.000000
O O8 0.224388 0.500000 0.334654
O O9 0.151502 0.677910 0.364630
O O10 0.244733 0.770676 0.395831
O O11 0.619761 0.500000 0.500000
O O12 0.582313 0.722001 0.607634
O O13 0.668591 0.749384 0.500000
O O14 0.500000 0.736445 0.733821
O O15 0.553265 0.500000 0.725276
O O16 0.924511 0.669536 0.500000
O O17 0.921350 0.500000 0.672809
O O18 0.925415 0.834388 0.675411
O O19 0.283179 0.000000 0.500000
O O20 0.921899 0.000000 0.500000
O O21 0.000000 0.000000 0.628401
#
# Coordination Sequence:
#
# PCOD9389276 Si02
#       8
#     8   8   8   4   8   8   4   4
#     4  10  21  35  51  73 102 136 171 209 254 309
#     4   9  17  30  48  68  91 120 154 197 247 299
#     4  11  21  34  52  75 104 138 176 215 258 309
#     4  10  19  32  48  66  92 122 157 199 240 295
#     4   9  17  29  47  69  89 114 152 200 249 292
#     4   9  18  31  48  72 105 141 179 225 269 313
#     4  12  24  33  51  77 102 135 169 208 253 308
#     4   9  18  30  48  72 103 147 189 225 264 310
#
# _framework density 17.832647000000001
#
# number of rings (size 3 to 8) (size 9 to 14) (size 15 to 20)
#    0.000    2.231    0.769    2.769    2.154    3.692 
#    0.000    3.077    0.000    2.308    0.000    2.154 
#    0.000    1.231    0.000    3.385    0.000    0.154 
#
# Total GULP energy -289672.058629 kJ/mol
# GULP energy per Si atom -5570.616512 kJ/mol
# Density = 1.779206 g / cm^3
# Si number density = 17.832647 Si / 1000 Ang^3
#
#
#
# Elastic Constant Matrix: (Units=GPa)
#
#
# Indices 1 2 3 4 5 6 
#
# 1 39.3952 23.4443 10.7515 0.0000 0.0000 0.0000
# 2 23.4443 94.8294 17.6980 0.0000 0.0000 0.0000
# 3 10.7515 17.6980 23.2504 0.0000 0.0000 0.0000
# 4 0.0000 0.0000 0.0000 16.8716 0.0000 0.0000
# 5 0.0000 0.0000 0.0000 0.0000 -35.0228 0.0000
# 6 0.0000 0.0000 0.0000 0.0000 0.0000 -13.8054
#
#
#
# Elastic Compliance Matrix: (Units=1/GPa)
#
#
# Indices 1 2 3 4 5 6 
#
# 1 0.031685 -0.005943 -0.010128 0.000000 0.000000 0.000000
# 2 -0.005943 0.013406 -0.007456 0.000000 0.000000 0.000000
# 3 -0.010128 -0.007456 0.053369 0.000000 0.000000 0.000000
# 4 0.000000 0.000000 0.000000 0.059271 0.000000 0.000000
# 5 0.000000 0.000000 0.000000 0.000000 -0.028553 0.000000
# 6 0.000000 0.000000 0.000000 0.000000 0.000000 -0.072435
#
#
# Mechanical properties :
#
#
# Convention : Reuss Voigt Hill
#
# Bulk Modulus (GPa) = 19.45332 29.02917 24.24124
# Shear Modulus (GPa) = 41.34530 0.64741 20.99636
#
# Velocity S-wave (km/s) = 4.82032 0.60319 3.43506
# Velocity P-wave (km/s) = 6.47404 4.09867 5.41813
#
# Compressibility (1/GPa) = 0.05140512
#
# Stress axis : x y z
#
# Youngs Moduli (GPa) = 31.56102 74.59280 18.73746
#
# Poissons Ratio (x) = 0.44331 0.18977
# Poissons Ratio (y) = 0.18757 0.13971
# Poissons Ratio (z) = 0.31965 0.55619
#
# Static dielectric constant tensor:
#      x y z
#    x 1.588650 0.000000 0.000000 
#    y 0.000000 1.641200 0.000000 
#    z 0.000000 0.000000 1.662000 
# 
# From -- ./inp_files/19837.got.cif
#   From: 2010.05.17/outbox.ucp.g08.bks.cvg/sg47_10_cif.got.tgz:19837.got - 2010.06.11 16:36:43.
