data_PCOD9389808
_publ_section_title
;
Structure prediction by ZEFSAII (Michael W. Deem and Ramdas Pophale) SiO2 
 PCOD9389808
Probable space group: P N N N
;
_chemical_formula_sum "Si O2"
_cell_formula_units_Z 44
_cell_length_a 15.061877
_cell_length_b 18.628024
_cell_length_c 8.189216
_cell_angle_alpha 90.000000
_cell_angle_beta 90.000000
_cell_angle_gamma 90.000000
_cell_volume 2297.672952
_symmetry_space_group_name_H-M "P N N N"
_symmetry_group_IT_number 48
_space_group.IT_coordinate_system_code '2'
_symmetry_cell_setting 'orthorhombic'
loop_
_space_group_symop_operation_xyz
x,y,z
1/2-x,1/2-y,z
x,1/2-y,1/2-z
1/2-x,y,1/2-z
-x,-y,-z
1/2+x,1/2+y,-z
-x,1/2+y,1/2+z
1/2+x,-y,1/2+z
loop_
_atom_site_type_symbol
_atom_site_label
_atom_site_fract_x
_atom_site_fract_y
_atom_site_fract_z
Si Si1 0.750000 0.928172 0.750000
Si Si2 0.544521 0.250000 0.750000
Si Si3 0.356522 0.987178 0.983724
Si Si4 0.600052 0.301123 0.090895
Si Si5 0.924693 0.665286 0.735678
Si Si6 0.483537 0.108715 0.908948
Si Si7 0.750000 0.386799 0.250000
O O1 0.664736 0.879312 0.702592
O O2 0.784398 0.977600 0.602588
O O3 0.599163 0.236886 0.583867
O O4 0.490451 0.177044 0.790648
O O5 0.315823 0.934342 0.853905
O O6 0.405366 0.051435 0.887184
O O7 0.427857 0.940114 0.086181
O O8 0.595692 0.250000 0.250000
O O9 0.506059 0.343323 0.108199
O O10 0.690239 0.342991 0.122740
O O11 0.902719 0.750000 0.750000
O O12 0.964357 0.639399 0.909288
#
# Coordination Sequence:
#
# PCOD9389808 Si02
#       7
#     4   4   8   8   8   8   4
#     4  10  23  36  66  91 122 182 222 254 330 393
#     4  12  22  40  73  99 120 172 224 270 335 393
#     4  10  23  41  60  89 135 168 215 266 327 393
#     4  11  23  41  66  97 133 163 214 272 334 384
#     4  10  18  41  63  90 128 168 213 275 325 384
#     4  10  21  41  63  91 127 170 211 276 324 390
#     4  12  23  42  60  91 134 172 208 272 318 389
#
# _framework density 19.149809999999999
#
# number of rings (size 3 to 8) (size 9 to 14) (size 15 to 20)
#    0.000    1.455    5.455    0.545    2.545    1.455 
#    0.000    5.455    0.000    1.091    0.000    0.000 
#    0.000    0.000    0.000    0.000    0.000    0.000 
#
# Total GULP energy -245366.660084 kJ/mol
# GULP energy per Si atom -5576.515002 kJ/mol
# Density = 1.910622 g / cm^3
# Si number density = 19.149810 Si / 1000 Ang^3
#
#
#
# Elastic Constant Matrix: (Units=GPa)
#
#
# Indices 1 2 3 4 5 6 
#
# 1 75.9304 39.8108 40.0312 0.0000 0.0000 0.0000
# 2 39.8108 92.4795 32.6017 0.0000 0.0000 0.0000
# 3 40.0312 32.6017 97.5801 0.0000 0.0000 0.0000
# 4 0.0000 0.0000 0.0000 52.9498 0.0000 0.0000
# 5 0.0000 0.0000 0.0000 0.0000 11.4400 0.0000
# 6 0.0000 0.0000 0.0000 0.0000 0.0000 17.3252
#
#
#
# Elastic Compliance Matrix: (Units=1/GPa)
#
#
# Indices 1 2 3 4 5 6 
#
# 1 0.019630 -0.006361 -0.005928 0.000000 0.000000 0.000000
# 2 -0.006361 0.014318 -0.002174 0.000000 0.000000 0.000000
# 3 -0.005928 -0.002174 0.013406 0.000000 0.000000 0.000000
# 4 0.000000 0.000000 0.000000 0.018886 0.000000 0.000000
# 5 0.000000 0.000000 0.000000 0.000000 0.087413 0.000000
# 6 0.000000 0.000000 0.000000 0.000000 0.000000 0.057719
#
#
# Mechanical properties :
#
#
# Convention : Reuss Voigt Hill
#
# Bulk Modulus (GPa) = 54.26349 54.54194 54.40271
# Shear Modulus (GPa) = 20.28883 26.57940 23.43411
#
# Velocity S-wave (km/s) = 3.25850 3.72959 3.50197
# Velocity P-wave (km/s) = 6.52341 6.86222 6.69496
#
# Compressibility (1/GPa) = 0.01842860
#
# Stress axis : x y z
#
# Youngs Moduli (GPa) = 50.94204 69.84294 74.59189
#
# Poissons Ratio (x) = 0.44425 0.44218
# Poissons Ratio (y) = 0.32402 0.16218
# Poissons Ratio (z) = 0.30198 0.15185
#
# Static dielectric constant tensor:
#      x y z
#    x 1.734850 0.000000 0.000000 
#    y 0.000000 1.710840 0.000000 
#    z 0.000000 0.000000 1.639020 
# 
# From -- ./inp_files/12707.got.cif
#   From: 2010.05.17/outbox.cif.g08.bks.cpg/sg48_7_cif.got.tgz:12707.got - 2010.06.03 20:39:00.
