data_PCOD9389068
_publ_section_title
;
Structure prediction by ZEFSAII (Michael W. Deem and Ramdas Pophale) SiO2 
 PCOD9389068
Probable space group: P M M M
;
_chemical_formula_sum "Si O2"
_cell_formula_units_Z 28
_cell_length_a 7.831577
_cell_length_b 9.798090
_cell_length_c 20.654927
_cell_angle_alpha 90.000000
_cell_angle_beta 90.000000
_cell_angle_gamma 90.000000
_cell_volume 1584.945419
_symmetry_space_group_name_H-M "P M M M"
_symmetry_group_IT_number 47
_symmetry_cell_setting 'orthorhombic'
loop_
_space_group_symop_operation_xyz
x,y,z
-x,-y,z
x,-y,-z
-x,y,-z
-x,-y,-z
x,y,-z
-x,y,z
x,-y,z
loop_
_atom_site_type_symbol
_atom_site_label
_atom_site_fract_x
_atom_site_fract_y
_atom_site_fract_z
Si Si1 0.690219 0.666155 0.664862
Si Si2 0.792921 0.341927 0.191530
Si Si3 0.000000 0.666826 0.425574
Si Si4 0.791630 0.842209 0.927689
O O1 0.500000 0.707500 0.645856
O O2 0.696793 0.500000 0.665776
O O3 0.728627 0.708061 0.738687
O O4 0.834191 0.711339 0.614761
O O5 0.741423 0.500000 0.183306
O O6 0.733735 0.252123 0.131067
O O7 0.000000 0.338846 0.193762
O O8 0.000000 0.500000 0.425949
O O9 0.000000 0.711230 0.500000
O O10 0.000000 0.839134 0.927312
O O11 0.741271 0.000000 0.918665
O O12 0.737849 0.798457 0.000000
#
# Coordination Sequence:
#
# PCOD9389068 Si02
#       4
#     8   8   4   8
#     4   9  16  26  40  59  86 118 149 183 224 265
#     4   9  15  24  40  60  84 115 150 187 224 264
#     4   9  16  26  40  60  88 119 150 182 217 265
#     4   8  14  24  38  59  87 116 147 186 230 271
#
# _framework density 17.666225000000001
#
# number of rings (size 3 to 8) (size 9 to 14) (size 15 to 20)
#    0.000    3.286    1.429    0.857    0.000    1.143 
#    0.000    5.714    0.000    1.714    0.000    6.000 
#    0.000    2.286    0.000    2.571    0.000    2.857 
#
# Total GULP energy -155973.091805 kJ/mol
# GULP energy per Si atom -5570.467564 kJ/mol
# Density = 1.762602 g / cm^3
# Si number density = 17.666225 Si / 1000 Ang^3
#
#
#
# Elastic Constant Matrix: (Units=GPa)
#
#
# Indices 1 2 3 4 5 6 
#
# 1 83.7038 20.4920 75.6522 0.0000 0.0000 0.0000
# 2 20.4920 22.4782 49.3044 0.0000 0.0000 0.0000
# 3 75.6522 49.3044 196.1215 0.0000 0.0000 0.0000
# 4 0.0000 0.0000 0.0000 -4.2967 0.0000 0.0000
# 5 0.0000 0.0000 0.0000 0.0000 -6.4748 0.0000
# 6 0.0000 0.0000 0.0000 0.0000 0.0000 1.6246
#
#
#
# Elastic Compliance Matrix: (Units=1/GPa)
#
#
# Indices 1 2 3 4 5 6 
#
# 1 0.018414 -0.002690 -0.006427 0.000000 0.000000 0.000000
# 2 -0.002690 0.099568 -0.023993 0.000000 0.000000 0.000000
# 3 -0.006427 -0.023993 0.013610 0.000000 0.000000 0.000000
# 4 0.000000 0.000000 0.000000 -0.232735 0.000000 0.000000
# 5 0.000000 0.000000 0.000000 0.000000 -0.154446 0.000000
# 6 0.000000 0.000000 0.000000 0.000000 0.000000 0.615522
#
#
# Mechanical properties :
#
#
# Convention : Reuss Voigt Hill
#
# Bulk Modulus (GPa) = 15.29730 65.91120 40.60425
# Shear Modulus (GPa) = 11.16208 8.62762 9.89485
#
# Velocity S-wave (km/s) = 2.51635 2.21230 2.36921
# Velocity P-wave (km/s) = 4.13770 6.62690 5.52433
#
# Compressibility (1/GPa) = 0.06537101
#
# Stress axis : x y z
#
# Youngs Moduli (GPa) = 54.30636 10.04337 73.47664
#
# Poissons Ratio (x) = 0.02702 0.47221
# Poissons Ratio (y) = 0.14611 1.76295
# Poissons Ratio (z) = 0.34901 0.24097
#
# Static dielectric constant tensor:
#      x y z
#    x 1.640350 0.000000 0.000000 
#    y 0.000000 1.570860 0.000000 
#    z 0.000000 0.000000 1.591000 
# 
# From -- ./inp_files/644.got.cif
#   From: 2010.05.17/outbox.cif.g08.bks.cpg/sg47_1_cif.got.tgz:644.got - 2010.06.03 20:15:42.
