data_PCOD9389511
_publ_section_title
;
Structure prediction by ZEFSAII (Michael W. Deem and Ramdas Pophale) SiO2 
 PCOD9389511
Probable space group: P N N N
;
_chemical_formula_sum "Si O2"
_cell_formula_units_Z 40
_cell_length_a 28.965088
_cell_length_b 5.229337
_cell_length_c 10.688422
_cell_angle_alpha 90.000000
_cell_angle_beta 90.000000
_cell_angle_gamma 90.000000
_cell_volume 1618.956109
_symmetry_space_group_name_H-M "P N N N"
_symmetry_group_IT_number 48
_space_group.IT_coordinate_system_code '2'
_symmetry_cell_setting 'orthorhombic'
loop_
_space_group_symop_operation_xyz
x,y,z
1/2-x,1/2-y,z
x,1/2-y,1/2-z
1/2-x,y,1/2-z
-x,-y,-z
1/2+x,1/2+y,-z
-x,1/2+y,1/2+z
1/2+x,-y,1/2+z
loop_
_atom_site_type_symbol
_atom_site_label
_atom_site_fract_x
_atom_site_fract_y
_atom_site_fract_z
Si Si1 0.959259 0.250000 0.750000
Si Si2 0.587225 0.203556 0.014514
Si Si3 0.624722 0.708324 0.118467
Si Si4 0.280616 0.998808 0.594450
Si Si5 0.802608 0.498591 0.696563
Si Si6 0.480419 0.750000 0.750000
O O1 0.931425 0.172090 0.624845
O O2 0.989510 0.500223 0.718190
O O3 0.602907 0.497456 0.028761
O O4 0.549562 0.182077 0.126118
O O5 0.625370 0.983638 0.049692
O O6 0.598981 0.750000 0.250000
O O7 0.671511 0.558628 0.161649
O O8 0.250000 0.250000 0.609586
O O9 0.296067 0.988095 0.450010
O O10 0.250000 0.750000 0.620714
O O11 0.825669 0.750000 0.750000
O O12 0.750000 0.499801 0.750000
O O13 0.826405 0.250000 0.750000
#
# Coordination Sequence:
#
# PCOD9389511 Si02
#       6
#     4   8   8   8   8   4
#     4  12  26  44  76 130 145 180 257 310 348 436
#     4  12  25  49  74 107 159 196 241 296 374 454
#     4  12  26  49  71  97 145 210 246 296 384 454
#     4  12  23  40  66  99 127 176 252 317 353 413
#     4  10  16  32  55  84 124 159 204 278 355 440
#     4  12  22  46  82 110 153 202 237 292 368 448
#
# _framework density 24.707277000000001
#
# number of rings (size 3 to 8) (size 9 to 14) (size 15 to 20)
#    0.000    0.400    6.000    4.800    0.000    0.400 
#    5.400    1.000    0.000    0.000    0.000    0.000 
#    0.000    0.000    0.000    0.000    0.000    0.000 
#
# Total GULP energy -223744.874403 kJ/mol
# GULP energy per Si atom -5593.621860 kJ/mol
# Density = 2.465104 g / cm^3
# Si number density = 24.707277 Si / 1000 Ang^3
#
#
#
# Elastic Constant Matrix: (Units=GPa)
#
#
# Indices 1 2 3 4 5 6 
#
# 1 66.4335 29.9859 26.8666 0.0000 0.0000 0.0000
# 2 29.9859 219.4950 31.3908 0.0000 0.0000 0.0000
# 3 26.8666 31.3908 151.7886 0.0000 0.0000 0.0000
# 4 0.0000 0.0000 0.0000 53.0286 0.0000 0.0000
# 5 0.0000 0.0000 0.0000 0.0000 22.7408 0.0000
# 6 0.0000 0.0000 0.0000 0.0000 0.0000 -5.1366
#
#
#
# Elastic Compliance Matrix: (Units=1/GPa)
#
#
# Indices 1 2 3 4 5 6 
#
# 1 0.016985 -0.001948 -0.002603 0.000000 0.000000 0.000000
# 2 -0.001948 0.004918 -0.000672 0.000000 0.000000 0.000000
# 3 -0.002603 -0.000672 0.007188 0.000000 0.000000 0.000000
# 4 0.000000 0.000000 0.000000 0.018858 0.000000 0.000000
# 5 0.000000 0.000000 0.000000 0.000000 0.043974 0.000000
# 6 0.000000 0.000000 0.000000 0.000000 0.000000 -0.194683
#
#
# Mechanical properties :
#
#
# Convention : Reuss Voigt Hill
#
# Bulk Modulus (GPa) = 53.63832 68.24485 60.94159
# Shear Modulus (GPa) = -58.07341 37.42481 -10.32430
#
# Velocity S-wave (km/s) = -4.85341 3.89617 -2.04639
# Velocity P-wave (km/s) = 3.10658 6.92254 4.37440
#
# Compressibility (1/GPa) = 0.01864339
#
# Stress axis : x y z
#
# Youngs Moduli (GPa) = 58.87619 203.32701 139.12152
#
# Poissons Ratio (x) = 0.39608 0.36220
# Poissons Ratio (y) = 0.11469 0.09353
# Poissons Ratio (z) = 0.15328 0.13670
#
# Static dielectric constant tensor:
#      x y z
#    x 1.931140 0.000000 0.000000 
#    y 0.000000 1.963830 0.000000 
#    z 0.000000 0.000000 1.948440 
# 
# From -- ./inp_files/23534.got.cif
#   From: 2010.05.17/outbox.cif.g08.bks.cpg/sg48_12_cif.got.tgz:23534.got - 2010.06.03 20:39:00.
