data_PCOD9389795
_publ_section_title
;
Structure prediction by ZEFSAII (Michael W. Deem and Ramdas Pophale) SiO2 
 PCOD9389795
Probable space group: P N N N
;
_chemical_formula_sum "Si O2"
_cell_formula_units_Z 48
_cell_length_a 8.851094
_cell_length_b 14.179097
_cell_length_c 18.796537
_cell_angle_alpha 90.000000
_cell_angle_beta 90.000000
_cell_angle_gamma 90.000000
_cell_volume 2358.975175
_symmetry_space_group_name_H-M "P N N N"
_symmetry_group_IT_number 48
_space_group.IT_coordinate_system_code '2'
_symmetry_cell_setting 'orthorhombic'
loop_
_space_group_symop_operation_xyz
x,y,z
1/2-x,1/2-y,z
x,1/2-y,1/2-z
1/2-x,y,1/2-z
-x,-y,-z
1/2+x,1/2+y,-z
-x,1/2+y,1/2+z
1/2+x,-y,1/2+z
loop_
_atom_site_type_symbol
_atom_site_label
_atom_site_fract_x
_atom_site_fract_y
_atom_site_fract_z
Si Si1 0.979352 0.979328 0.102035
Si Si2 0.250000 0.250000 0.927646
Si Si3 0.750000 0.750000 0.750000
Si Si4 0.250000 0.750000 0.750000
Si Si5 0.996244 0.685923 0.648769
Si Si6 0.403976 0.339272 0.793332
Si Si7 0.758878 0.474323 0.988465
Si Si8 0.962111 0.856128 0.539430
O O1 0.006489 0.091752 0.103653
O O2 0.980065 0.936475 0.181880
O O3 0.824070 0.976032 0.056044
O O4 0.120447 0.937112 0.058793
O O5 0.356804 0.303849 0.871554
O O6 0.133785 0.304711 0.978072
O O7 0.645260 0.812932 0.700820
O O8 0.143749 0.689662 0.698300
O O9 0.984795 0.780786 0.601970
O O10 0.475196 0.250000 0.750000
O O11 0.250000 0.359418 0.750000
O O12 0.859936 0.551052 0.945790
O O13 0.875554 0.394997 0.014331
#
# Coordination Sequence:
#
# PCOD9389795 Si02
#       8
#     8   4   2   2   8   8   8   8
#     4  11  21  41  61  98 127 165 213 279 326 397
#     4  10  18  38  66  88 120 164 216 266 312 404
#     4  10  22  42  56  88 114 178 210 258 308 408
#     4  10  24  42  52  94 122 166 210 270 312 414
#     4  11  23  38  64  85 129 164 216 260 337 387
#     4   9  21  40  64  89 119 179 220 249 322 403
#     4  10  23  36  63  98 132 159 212 276 337 392
#     4  11  21  40  63  95 124 172 210 271 337 406
#
# _framework density 20.347819000000001
#
# number of rings (size 3 to 8) (size 9 to 14) (size 15 to 20)
#    0.000    1.833    1.667    3.500    3.500    0.000 
#    0.000    3.333    0.000    4.000    0.000    0.000 
#    0.000    0.000    0.000    0.000    0.000    0.000 
#
# Total GULP energy -267487.737031 kJ/mol
# GULP energy per Si atom -5572.661188 kJ/mol
# Density = 2.030151 g / cm^3
# Si number density = 20.347819 Si / 1000 Ang^3
#
#
#
# Elastic Constant Matrix: (Units=GPa)
#
#
# Indices 1 2 3 4 5 6 
#
# 1 124.1776 34.6992 42.7744 0.0000 0.0000 0.0000
# 2 34.6992 77.4280 40.1061 0.0000 0.0000 0.0000
# 3 42.7744 40.1061 93.8740 0.0000 0.0000 0.0000
# 4 0.0000 0.0000 0.0000 29.4696 0.0000 0.0000
# 5 0.0000 0.0000 0.0000 0.0000 45.6970 0.0000
# 6 0.0000 0.0000 0.0000 0.0000 0.0000 258.2495
#
#
#
# Elastic Compliance Matrix: (Units=1/GPa)
#
#
# Indices 1 2 3 4 5 6 
#
# 1 0.009979 -0.002718 -0.003386 0.000000 0.000000 0.000000
# 2 -0.002718 0.017326 -0.006164 0.000000 0.000000 0.000000
# 3 -0.003386 -0.006164 0.014829 0.000000 0.000000 0.000000
# 4 0.000000 0.000000 0.000000 0.033933 0.000000 0.000000
# 5 0.000000 0.000000 0.000000 0.000000 0.021883 0.000000
# 6 0.000000 0.000000 0.000000 0.000000 0.000000 0.003872
#
#
# Mechanical properties :
#
#
# Convention : Reuss Voigt Hill
#
# Bulk Modulus (GPa) = 56.82350 58.95988 57.89169
# Shear Modulus (GPa) = 37.81481 78.54321 58.17901
#
# Velocity S-wave (km/s) = 4.31562 6.21966 5.35297
# Velocity P-wave (km/s) = 7.26770 8.97874 8.16815
#
# Compressibility (1/GPa) = 0.01759835
#
# Stress axis : x y z
#
# Youngs Moduli (GPa) = 100.21285 57.71646 67.43750
#
# Poissons Ratio (x) = 0.15689 0.22831
# Poissons Ratio (y) = 0.27241 0.41566
# Poissons Ratio (z) = 0.33927 0.35574
#
# Static dielectric constant tensor:
#      x y z
#    x 1.793380 0.000000 0.000000 
#    y 0.000000 1.892600 0.000000 
#    z 0.000000 0.000000 1.703380 
# 
# From -- ./inp_files/30302.got.cif
#   From: 2010.05.17/outbox.cif.g08.bks.cpg/sg48_16_cif.got.tgz:30302.got - 2010.06.03 20:39:00.
