data_PCOD9389149
_publ_section_title
;
Structure prediction by ZEFSAII (Michael W. Deem and Ramdas Pophale) SiO2 
 PCOD9389149
Probable space group: P M M M
;
_chemical_formula_sum "Si O2"
_cell_formula_units_Z 36
_cell_length_a 10.091801
_cell_length_b 23.802528
_cell_length_c 8.881022
_cell_angle_alpha 90.000000
_cell_angle_beta 90.000000
_cell_angle_gamma 90.000000
_cell_volume 2133.313633
_symmetry_space_group_name_H-M "P M M M"
_symmetry_group_IT_number 47
_symmetry_cell_setting 'orthorhombic'
loop_
_space_group_symop_operation_xyz
x,y,z
-x,-y,z
x,-y,-z
-x,y,-z
-x,-y,-z
x,y,-z
-x,y,z
x,-y,z
loop_
_atom_site_type_symbol
_atom_site_label
_atom_site_fract_x
_atom_site_fract_y
_atom_site_fract_z
Si Si1 0.660962 0.500000 0.173553
Si Si2 0.847981 0.283628 0.683399
Si Si3 0.346674 0.064048 0.181427
Si Si4 0.845975 0.843966 0.681374
Si Si5 0.654307 0.617322 0.681733
O O1 0.500000 0.500000 0.179285
O O2 0.701807 0.442424 0.254124
O O3 0.701890 0.500000 0.000000
O O4 0.847000 0.283906 0.500000
O O5 0.812269 0.220000 0.729057
O O6 0.746154 0.331317 0.733559
O O7 0.000000 0.294884 0.729679
O O8 0.500000 0.074277 0.224904
O O9 0.249702 0.109911 0.249534
O O10 0.312430 0.000000 0.227003
O O11 0.340257 0.066282 0.000000
O O12 0.837039 0.846106 0.500000
O O13 0.000000 0.853954 0.721859
O O14 0.658585 0.614753 0.500000
O O15 0.500000 0.625829 0.725138
#
# Coordination Sequence:
#
# PCOD9389149 Si02
#       5
#     4   8   8   8   8
#     4   9  17  29  44  63  90 120 146 179 226 270
#     4   8  15  29  47  67  93 121 147 181 226 271
#     4   9  19  35  51  68  94 127 161 197 236 278
#     4   9  18  32  50  73  99 125 155 193 236 282
#     4   9  16  27  46  69  88 111 149 189 219 257
#
# _framework density 16.875156
#
# number of rings (size 3 to 8) (size 9 to 14) (size 15 to 20)
#    0.000    3.222    0.000    2.333    0.000    4.000 
#    0.000    7.222    0.000    8.000    0.000    0.000 
#    0.000    0.000    0.000    0.000    0.000    0.000 
#
# Total GULP energy -200514.353436 kJ/mol
# GULP energy per Si atom -5569.843151 kJ/mol
# Density = 1.683675 g / cm^3
# Si number density = 16.875156 Si / 1000 Ang^3
#
#
#
# Elastic Constant Matrix: (Units=GPa)
#
#
# Indices 1 2 3 4 5 6 
#
# 1 94.0248 120.3116 27.9921 0.0000 0.0000 0.0000
# 2 120.3116 198.6301 37.4126 0.0000 0.0000 0.0000
# 3 27.9921 37.4126 10.4255 0.0000 0.0000 0.0000
# 4 0.0000 0.0000 0.0000 -40.9369 0.0000 0.0000
# 5 0.0000 0.0000 0.0000 0.0000 18.9228 0.0000
# 6 0.0000 0.0000 0.0000 0.0000 0.0000 -200.6705
#
#
#
# Elastic Compliance Matrix: (Units=1/GPa)
#
#
# Indices 1 2 3 4 5 6 
#
# 1 0.078494 -0.024217 -0.123849 0.000000 0.000000 0.000000
# 2 -0.024217 0.023006 -0.017537 0.000000 0.000000 0.000000
# 3 -0.123849 -0.017537 0.491381 0.000000 0.000000 0.000000
# 4 0.000000 0.000000 0.000000 -0.024428 0.000000 0.000000
# 5 0.000000 0.000000 0.000000 0.000000 0.052846 0.000000
# 6 0.000000 0.000000 0.000000 0.000000 0.000000 -0.004983
#
#
# Mechanical properties :
#
#
# Convention : Reuss Voigt Hill
#
# Bulk Modulus (GPa) = 3.82153 74.94591 39.38372
# Shear Modulus (GPa) = 4.83210 -36.71266 -15.94028
#
# Velocity S-wave (km/s) = 1.69401 -4.66933 -3.07677
# Velocity P-wave (km/s) = 2.46895 3.92914 3.28130
#
# Compressibility (1/GPa) = 0.26167514
#
# Stress axis : x y z
#
# Youngs Moduli (GPa) = 12.73988 43.46701 2.03508
#
# Poissons Ratio (x) = 1.05263 0.25204
# Poissons Ratio (y) = 0.30852 0.03569
# Poissons Ratio (z) = 1.57782 0.76229
#
# Static dielectric constant tensor:
#      x y z
#    x 1.558250 0.000000 0.000000 
#    y 0.000000 1.561580 0.000000 
#    z 0.000000 0.000000 1.566910 
# 
# From -- ./inp_files/1399.got.cif
#   From: 2010.05.17/outbox.cif.g08.bks.cpg/sg47_1_cif.got.tgz:1399.got - 2010.06.03 20:15:42.
