data_PCOD9389371
_publ_section_title
;
Structure prediction by ZEFSAII (Michael W. Deem and Ramdas Pophale) SiO2 
 PCOD9389371
Probable space group: P M M M
;
_chemical_formula_sum "Si O2"
_cell_formula_units_Z 64
_cell_length_a 24.000000
_cell_length_b 9.000000
_cell_length_c 15.000000
_cell_angle_alpha 90.000000
_cell_angle_beta 90.000000
_cell_angle_gamma 90.000000
_cell_volume 3240.000000
_symmetry_space_group_name_H-M "P M M M"
_symmetry_group_IT_number 47
_symmetry_cell_setting 'orthorhombic'
loop_
_space_group_symop_operation_xyz
x,y,z
-x,-y,z
x,-y,-z
-x,y,-z
-x,-y,-z
x,y,-z
-x,y,z
x,-y,z
loop_
_atom_site_type_symbol
_atom_site_label
_atom_site_fract_x
_atom_site_fract_y
_atom_site_fract_z
Si Si1 0.376029 0.330959 0.240916
Si Si2 0.833806 0.821159 0.396430
Si Si3 0.248826 0.331407 0.267926
Si Si4 0.940424 0.822309 0.717588
Si Si5 0.205170 0.174164 0.902474
Si Si6 0.560484 0.822582 0.102843
Si Si7 0.914969 0.322859 0.902408
Si Si8 0.433853 0.676304 0.593239
O O1 0.394910 0.500000 0.223639
O O2 0.314485 0.336424 0.278425
O O3 0.386757 0.242658 0.152034
O O4 0.411925 0.254180 0.317478
O O5 0.839327 0.785180 0.500000
O O6 0.782137 0.741615 0.350477
O O7 0.888211 0.773508 0.340804
O O8 0.828444 0.000000 0.388113
O O9 0.228160 0.500000 0.253432
O O10 0.238823 0.232870 0.180687
O O11 0.939511 0.751420 0.815055
O O12 0.000000 0.788573 0.674070
O O13 0.936129 0.000000 0.727755
O O14 0.148882 0.269538 0.902249
O O15 0.191317 0.000000 0.891497
O O16 0.232180 0.192274 0.000000
O O17 0.500000 0.771025 0.140133
O O18 0.561280 0.000000 0.108149
O O19 0.561731 0.780126 0.000000
O O20 0.919473 0.500000 0.895682
O O21 0.937379 0.278078 0.000000
O O22 0.412166 0.738702 0.500000
O O23 0.500000 0.682979 0.592517
O O24 0.418860 0.500000 0.595478
#
# Coordination Sequence:
#
# PCOD9389371 Si02
#       8
#     8   8   8   8   8   8   8   8
#     4  10  21  34  52  81 112 143 184 231 276 327
#     4  10  22  41  63  84 109 146 192 238 286 343
#     4  11  23  37  55  82 115 150 187 231 284 339
#     4  10  21  37  59  87 117 150 190 235 280 333
#     4  10  20  35  57  81 106 142 186 228 272 326
#     4   9  19  36  56  79 111 152 194 234 281 336
#     4  10  20  34  55  84 117 151 184 221 271 330
#     4   8  14  27  49  75 102 133 170 214 264 317
#
# _framework density 19.753086
#
# number of rings (size 3 to 8) (size 9 to 14) (size 15 to 20)
#    0.000    2.250    1.250    2.250    0.000    5.500 
#    0.000    6.875    0.000    0.375    0.000    3.500 
#    0.000    0.000    0.000    0.000    0.000    0.000 
#
# Total GULP energy -356435.355111 kJ/mol
# GULP energy per Si atom -5569.302424 kJ/mol
# Density = 1.970813 g / cm^3
# Si number density = 19.753086 Si / 1000 Ang^3
#
#
#
# Elastic Constant Matrix: (Units=GPa)
#
#
# Indices 1 2 3 4 5 6 
#
# 1 54.5543 23.7573 51.3990 0.0000 0.0000 0.0000
# 2 23.7573 3.7524 29.9918 0.0000 0.0000 0.0000
# 3 51.3990 29.9918 103.8400 0.0000 0.0000 0.0000
# 4 0.0000 0.0000 0.0000 3.8531 0.0000 0.0000
# 5 0.0000 0.0000 0.0000 0.0000-5282.7608 0.0000
# 6 0.0000 0.0000 0.0000 0.0000 0.0000 10.6705
#
#
#
# Elastic Compliance Matrix: (Units=1/GPa)
#
#
# Indices 1 2 3 4 5 6 
#
# 1 0.022081 0.040077 -0.022505 0.000000 0.000000 0.000000
# 2 0.040077 -0.130921 0.017976 0.000000 0.000000 0.000000
# 3 -0.022505 0.017976 0.015578 0.000000 0.000000 0.000000
# 4 0.000000 0.000000 0.000000 0.259533 0.000000 0.000000
# 5 0.000000 0.000000 0.000000 0.000000 -0.000189 0.000000
# 6 0.000000 0.000000 0.000000 0.000000 0.000000 0.093717
#
#
# Mechanical properties :
#
#
# Convention : Reuss Voigt Hill
#
# Bulk Modulus (GPa) = -45.11413 41.38254 -1.86580
# Shear Modulus (GPa) = 27.57676 -1049.84755 -511.13539
#
# Velocity S-wave (km/s) = 3.74046 -23.07898 -16.10354
# Velocity P-wave (km/s) = 2.05764 26.25243 18.62020
#
# Compressibility (1/GPa) = -0.02216600
#
# Stress axis : x y z
#
# Youngs Moduli (GPa) = 45.28820 -7.63817 64.19370
#
# Poissons Ratio (x) = 0.30612 1.44468
# Poissons Ratio (y) = -1.81504 -1.15394
# Poissons Ratio (z) = 1.01921 0.13730
#
# Static dielectric constant tensor:
#      x y z
#    x 1.717240 0.000000 0.000000 
#    y 0.000000 1.662250 0.000000 
#    z 0.000000 0.000000 1.796060 
# 
# From -- ./inp_files/25533.got.cif
#   From: 2010.05.17/outbox.ucp.g08.bks.cvg/sg47_13_cif.got.tgz:25533.got - 2010.06.11 16:36:43.
