data_PCOD9389825
_publ_section_title
;
Structure prediction by ZEFSAII (Michael W. Deem and Ramdas Pophale) SiO2 
 PCOD9389825
Probable space group: P N N N
;
_chemical_formula_sum "Si O2"
_cell_formula_units_Z 64
_cell_length_a 17.589249
_cell_length_b 18.377752
_cell_length_c 11.950896
_cell_angle_alpha 90.000000
_cell_angle_beta 90.000000
_cell_angle_gamma 90.000000
_cell_volume 3863.137362
_symmetry_space_group_name_H-M "P N N N"
_symmetry_group_IT_number 48
_space_group.IT_coordinate_system_code '2'
_symmetry_cell_setting 'orthorhombic'
loop_
_space_group_symop_operation_xyz
x,y,z
1/2-x,1/2-y,z
x,1/2-y,1/2-z
1/2-x,y,1/2-z
-x,-y,-z
1/2+x,1/2+y,-z
-x,1/2+y,1/2+z
1/2+x,-y,1/2+z
loop_
_atom_site_type_symbol
_atom_site_label
_atom_site_fract_x
_atom_site_fract_y
_atom_site_fract_z
Si Si1 0.799872 0.563985 0.981778
Si Si2 0.450542 0.898358 0.428766
Si Si3 0.313589 0.310191 0.057651
Si Si4 0.295215 0.546437 0.146215
Si Si5 0.621859 0.903874 0.752395
Si Si6 0.339707 0.047662 0.771014
Si Si7 0.086720 0.189547 0.845204
Si Si8 0.530454 0.044552 0.330420
O O1 0.730097 0.619856 0.993793
O O2 0.762886 0.486802 0.944773
O O3 0.847259 0.596476 0.877858
O O4 0.846277 0.558052 0.095591
O O5 0.362181 0.903060 0.398026
O O6 0.501489 0.834320 0.378675
O O7 0.457293 0.904818 0.562088
O O8 0.490190 0.971346 0.378568
O O9 0.250000 0.250000 0.080049
O O10 0.353577 0.337656 0.171622
O O11 0.371303 0.286827 0.959883
O O12 0.250000 0.579925 0.250000
O O13 0.336131 0.473909 0.196665
O O14 0.532222 0.917947 0.747590
O O15 0.250000 0.036662 0.750000
O O16 0.369989 0.119312 0.706847
O O17 0.392284 0.981926 0.727116
O O18 0.088367 0.250000 0.750000
#
# Coordination Sequence:
#
# PCOD9389825 Si02
#       8
#     8   8   8   8   8   8   8   8
#     4  10  19  30  45  71 103 129 166 212 253 311
#     4   9  16  30  49  67  93 127 171 206 249 309
#     4  11  20  32  48  67  98 136 177 210 242 302
#     4   8  15  28  49  71  92 123 160 207 254 301
#     4   9  18  32  46  67  96 131 172 207 250 298
#     4  11  20  30  46  72 101 131 167 208 263 319
#     4  11  22  32  47  70  99 136 165 209 258 306
#     4   9  17  29  48  68  93 132 167 206 250 307
#
# _framework density 16.566846000000002
#
# number of rings (size 3 to 8) (size 9 to 14) (size 15 to 20)
#    0.000    2.250    2.500    2.625    3.500    1.500 
#    0.000    0.000    0.000    0.375    0.000    0.000 
#    0.000    0.000    0.000    0.250    0.000    0.000 
#
# Total GULP energy -356674.551076 kJ/mol
# GULP energy per Si atom -5573.039861 kJ/mol
# Density = 1.652914 g / cm^3
# Si number density = 16.566846 Si / 1000 Ang^3
#
#
#
# Elastic Constant Matrix: (Units=GPa)
#
#
# Indices 1 2 3 4 5 6 
#
# 1 107.7620 37.6748 54.6625 0.0000 0.0000 0.0000
# 2 37.6748 36.3152 29.1654 0.0000 0.0000 0.0000
# 3 54.6625 29.1654 118.2286 0.0000 0.0000 0.0000
# 4 0.0000 0.0000 0.0000 18.2837 0.0000 0.0000
# 5 0.0000 0.0000 0.0000 0.0000 22.8578 0.0000
# 6 0.0000 0.0000 0.0000 0.0000 0.0000 21.7816
#
#
#
# Elastic Compliance Matrix: (Units=1/GPa)
#
#
# Indices 1 2 3 4 5 6 
#
# 1 0.016027 -0.013314 -0.004126 0.000000 0.000000 0.000000
# 2 -0.013314 0.045400 -0.005044 0.000000 0.000000 0.000000
# 3 -0.004126 -0.005044 0.011610 0.000000 0.000000 0.000000
# 4 0.000000 0.000000 0.000000 0.054694 0.000000 0.000000
# 5 0.000000 0.000000 0.000000 0.000000 0.043749 0.000000
# 6 0.000000 0.000000 0.000000 0.000000 0.000000 0.045910
#
#
# Mechanical properties :
#
#
# Convention : Reuss Voigt Hill
#
# Bulk Modulus (GPa) = 35.62523 56.14568 45.88546
# Shear Modulus (GPa) = 18.40177 21.97149 20.18663
#
# Velocity S-wave (km/s) = 3.33642 3.64570 3.49448
# Velocity P-wave (km/s) = 6.03265 7.18926 6.63620
#
# Compressibility (1/GPa) = 0.02807000
#
# Stress axis : x y z
#
# Youngs Moduli (GPa) = 62.39427 22.02657 86.13263
#
# Poissons Ratio (x) = 0.29325 0.35536
# Poissons Ratio (y) = 0.83070 0.43445
# Poissons Ratio (z) = 0.25742 0.11110
#
# Static dielectric constant tensor:
#      x y z
#    x 1.573550 0.000000 0.000000 
#    y 0.000000 1.553800 0.000000 
#    z 0.000000 0.000000 1.575220 
# 
# From -- ./inp_files/22418.got.cif
#   From: 2010.05.17/outbox.cif.g08.bks.cpg/sg48_12_cif.got.tgz:22418.got - 2010.06.03 20:39:00.
