data_PCOD9389876
_publ_section_title
;
Structure prediction by ZEFSAII (Michael W. Deem and Ramdas Pophale) SiO2 
 PCOD9389876
Probable space group: P N N N
;
_chemical_formula_sum "Si O2"
_cell_formula_units_Z 40
_cell_length_a 7.323356
_cell_length_b 15.434201
_cell_length_c 15.814388
_cell_angle_alpha 90.000000
_cell_angle_beta 90.000000
_cell_angle_gamma 90.000000
_cell_volume 1787.502624
_symmetry_space_group_name_H-M "P N N N"
_symmetry_group_IT_number 48
_space_group.IT_coordinate_system_code '2'
_symmetry_cell_setting 'orthorhombic'
loop_
_space_group_symop_operation_xyz
x,y,z
1/2-x,1/2-y,z
x,1/2-y,1/2-z
1/2-x,y,1/2-z
-x,-y,-z
1/2+x,1/2+y,-z
-x,1/2+y,1/2+z
1/2+x,-y,1/2+z
loop_
_atom_site_type_symbol
_atom_site_label
_atom_site_fract_x
_atom_site_fract_y
_atom_site_fract_z
Si Si1 0.534949 0.068370 0.077016
Si Si2 0.974068 0.245476 0.017007
Si Si3 0.470153 0.558583 0.917842
Si Si4 0.971738 0.525022 0.240778
Si Si5 0.955312 0.288200 0.831096
O O1 0.466077 0.163721 0.056108
O O2 0.752728 0.069084 0.088096
O O3 0.470937 0.044026 0.170307
O O4 0.500000 0.000000 0.000000
O O5 0.750000 0.250000 0.018182
O O6 0.035036 0.156707 0.061660
O O7 0.033054 0.255301 0.919362
O O8 0.534034 0.507065 0.833720
O O9 0.500000 0.500000 0.000000
O O10 0.750000 0.534562 0.250000
O O11 0.045524 0.611366 0.194132
O O12 0.750000 0.250000 0.833517
O O13 0.052900 0.250000 0.750000
#
# Coordination Sequence:
#
# PCOD9389876 Si02
#       5
#     8   8   8   8   8
#     4  10  19  37  60  84 114 156 196 246 297 354
#     4   9  18  33  57  82 111 150 200 234 283 356
#     4  10  21  37  55  85 122 155 193 247 297 355
#     4  10  21  36  57  87 123 154 194 249 312 355
#     4  10  19  32  53  84 112 149 199 244 291 350
#
# _framework density 22.377590000000001
#
# number of rings (size 3 to 8) (size 9 to 14) (size 15 to 20)
#    0.000    2.200    2.000    1.200    0.000    2.800 
#    0.000    5.000    0.000    0.000    0.000    2.800 
#    0.000    0.000    0.000    0.000    0.000    0.000 
#
# Total GULP energy -222925.760619 kJ/mol
# GULP energy per Si atom -5573.144015 kJ/mol
# Density = 2.232666 g / cm^3
# Si number density = 22.377590 Si / 1000 Ang^3
#
#
#
# Elastic Constant Matrix: (Units=GPa)
#
#
# Indices 1 2 3 4 5 6 
#
# 1 93.2678 5.5851 4.7562 0.0000 0.0000 0.0000
# 2 5.5851 133.5534 45.1381 0.0000 0.0000 0.0000
# 3 4.7562 45.1381 155.1065 0.0000 0.0000 0.0000
# 4 0.0000 0.0000 0.0000 58.0972 0.0000 0.0000
# 5 0.0000 0.0000 0.0000 0.0000 -9.7669 0.0000
# 6 0.0000 0.0000 0.0000 0.0000 0.0000 17.6615
#
#
#
# Elastic Compliance Matrix: (Units=1/GPa)
#
#
# Indices 1 2 3 4 5 6 
#
# 1 0.010756 -0.000375 -0.000221 0.000000 0.000000 0.000000
# 2 -0.000375 0.008318 -0.002409 0.000000 0.000000 0.000000
# 3 -0.000221 -0.002409 0.007155 0.000000 0.000000 0.000000
# 4 0.000000 0.000000 0.000000 0.017213 0.000000 0.000000
# 5 0.000000 0.000000 0.000000 0.000000 -0.102387 0.000000
# 6 0.000000 0.000000 0.000000 0.000000 0.000000 0.056620
#
#
# Mechanical properties :
#
#
# Convention : Reuss Voigt Hill
#
# Bulk Modulus (GPa) = 49.45998 54.76518 52.11258
# Shear Modulus (GPa) = 479.67946 34.96157 257.32051
#
# Velocity S-wave (km/s) = 14.65682 3.95694 10.73499
# Velocity P-wave (km/s) = 17.56645 6.73817 13.30382
#
# Compressibility (1/GPa) = 0.02021837
#
# Stress axis : x y z
#
# Youngs Moduli (GPa) = 92.97538 120.22806 139.76237
#
# Poissons Ratio (x) = 0.04511 0.03083
# Poissons Ratio (y) = 0.03489 0.33669
# Poissons Ratio (z) = 0.02051 0.28963
#
# Static dielectric constant tensor:
#      x y z
#    x 1.875990 0.000000 0.000000 
#    y 0.000000 1.838130 0.000000 
#    z 0.000000 0.000000 1.620670 
# 
# From -- ./inp_files/12296.got.cif
#   From: 2010.05.17/outbox.cif.g08.bks.cpg/sg48_7_cif.got.tgz:12296.got - 2010.06.03 20:39:00.
