data_PCOD9389328
_publ_section_title
;
Structure prediction by ZEFSAII (Michael W. Deem and Ramdas Pophale) SiO2 
 PCOD9389328
Probable space group: P M M M
;
_chemical_formula_sum "Si O2"
_cell_formula_units_Z 64
_cell_length_a 30.000000
_cell_length_b 9.000000
_cell_length_c 15.000000
_cell_angle_alpha 90.000000
_cell_angle_beta 90.000000
_cell_angle_gamma 90.000000
_cell_volume 4050.000000
_symmetry_space_group_name_H-M "P M M M"
_symmetry_group_IT_number 47
_symmetry_cell_setting 'orthorhombic'
loop_
_space_group_symop_operation_xyz
x,y,z
-x,-y,z
x,-y,-z
-x,y,-z
-x,-y,-z
x,y,-z
-x,y,z
x,-y,z
loop_
_atom_site_type_symbol
_atom_site_label
_atom_site_fract_x
_atom_site_fract_y
_atom_site_fract_z
Si Si1 0.451770 0.176184 0.392389
Si Si2 0.773114 0.678888 0.897223
Si Si3 0.191536 0.174981 0.606206
Si Si4 0.868644 0.822065 0.895732
Si Si5 0.904600 0.322675 0.603635
Si Si6 0.949714 0.178957 0.767056
Si Si7 0.271616 0.321249 0.715597
Si Si8 0.647609 0.819501 0.605751
O O1 0.451959 0.187896 0.500000
O O2 0.500000 0.238147 0.360894
O O3 0.402544 0.231284 0.366213
O O4 0.452132 0.000000 0.371740
O O5 0.776633 0.500000 0.896806
O O6 0.821612 0.745578 0.873237
O O7 0.738031 0.719318 0.819458
O O8 0.762613 0.724743 0.000000
O O9 0.200602 0.187303 0.500000
O O10 0.143165 0.246314 0.622473
O O11 0.229248 0.260110 0.660713
O O12 0.191081 0.000000 0.629271
O O13 0.910334 0.775571 0.834903
O O14 0.863227 0.000000 0.886139
O O15 0.877856 0.790658 0.000000
O O16 0.915760 0.292256 0.500000
O O17 0.900904 0.500000 0.614552
O O18 0.939383 0.254964 0.672800
O O19 0.000000 0.215148 0.797487
O O20 0.947131 0.000000 0.757590
O O21 0.273887 0.500000 0.709277
O O22 0.314979 0.250320 0.669010
O O23 0.654531 0.782584 0.500000
O O24 0.649386 0.000000 0.610955
#
# Coordination Sequence:
#
# PCOD9389328 Si02
#       8
#     8   8   8   8   8   8   8   8
#     4   7  10  19  37  59  82 113 156 198 227 256
#     4   9  19  35  51  66  86 114 148 183 220 265
#     4  10  20  33  49  68  91 120 151 181 215 259
#     4   9  18  33  53  75  95 114 139 174 217 264
#     4  10  21  36  52  69  90 117 150 187 223 257
#     4  10  21  35  51  72  96 121 147 175 211 257
#     4  11  21  30  44  66  92 122 152 185 226 267
#     4   9  17  28  42  63  93 127 159 190 226 267
#
# _framework density 15.802469
#
# number of rings (size 3 to 8) (size 9 to 14) (size 15 to 20)
#    0.000    2.625    0.000    3.375    0.000    7.500 
#    0.000    2.500    0.000    0.375    0.000    4.375 
#    0.000    0.500    0.000    6.250    0.000    0.250 
#
# Total GULP energy -356688.534877 kJ/mol
# GULP energy per Si atom -5573.258357 kJ/mol
# Density = 1.576650 g / cm^3
# Si number density = 15.802469 Si / 1000 Ang^3
#
#
#
# Elastic Constant Matrix: (Units=GPa)
#
#
# Indices 1 2 3 4 5 6 
#
# 1 112.5532 26.5566 66.7028 0.0000 0.0000 0.0000
# 2 26.5566 27.2992 26.1800 0.0000 0.0000 0.0000
# 3 66.7028 26.1800 73.9871 0.0000 0.0000 0.0000
# 4 0.0000 0.0000 0.0000 20.9453 0.0000 0.0000
# 5 0.0000 0.0000 0.0000 0.0000 21.3009 0.0000
# 6 0.0000 0.0000 0.0000 0.0000 0.0000 1.3305
#
#
#
# Elastic Compliance Matrix: (Units=1/GPa)
#
#
# Indices 1 2 3 4 5 6 
#
# 1 0.019255 -0.003154 -0.016244 0.000000 0.000000 0.000000
# 2 -0.003154 0.055963 -0.016959 0.000000 0.000000 0.000000
# 3 -0.016244 -0.016959 0.034161 0.000000 0.000000 0.000000
# 4 0.000000 0.000000 0.000000 0.047744 0.000000 0.000000
# 5 0.000000 0.000000 0.000000 0.000000 0.046946 0.000000
# 6 0.000000 0.000000 0.000000 0.000000 0.000000 0.751590
#
#
# Mechanical properties :
#
#
# Convention : Reuss Voigt Hill
#
# Bulk Modulus (GPa) = 27.27279 50.30203 38.78741
# Shear Modulus (GPa) = 4.80495 15.00868 9.90681
#
# Velocity S-wave (km/s) = 1.74563 3.08517 2.50654
# Velocity P-wave (km/s) = 4.62158 6.67772 5.74243
#
# Compressibility (1/GPa) = 0.03666658
#
# Stress axis : x y z
#
# Youngs Moduli (GPa) = 51.93357 17.86903 29.27315
#
# Poissons Ratio (x) = 0.05636 0.47550
# Poissons Ratio (y) = 0.16380 0.49643
# Poissons Ratio (z) = 0.84359 0.30304
#
# Static dielectric constant tensor:
#      x y z
#    x 1.539680 0.000000 0.000000 
#    y 0.000000 1.525810 0.000000 
#    z 0.000000 0.000000 1.532890 
# 
# From -- ./inp_files/14294.got.cif
#   From: 2010.05.17/outbox.ucp.g08.bks.cvg/sg47_8_cif.got.tgz:14294.got - 2010.06.11 16:36:43.
