data_PCOD9389379
_publ_section_title
;
Structure prediction by ZEFSAII (Michael W. Deem and Ramdas Pophale) SiO2 
 PCOD9389379
Probable space group: P M M M
;
_chemical_formula_sum "Si O2"
_cell_formula_units_Z 45
_cell_length_a 9.000000
_cell_length_b 24.000000
_cell_length_c 12.000000
_cell_angle_alpha 90.000000
_cell_angle_beta 90.000000
_cell_angle_gamma 90.000000
_cell_volume 2592.000000
_symmetry_space_group_name_H-M "P M M M"
_symmetry_group_IT_number 47
_symmetry_cell_setting 'orthorhombic'
loop_
_space_group_symop_operation_xyz
x,y,z
-x,-y,z
x,-y,-z
-x,y,-z
-x,-y,-z
x,y,-z
-x,y,z
x,-y,z
loop_
_atom_site_type_symbol
_atom_site_label
_atom_site_fract_x
_atom_site_fract_y
_atom_site_fract_z
Si Si1 0.228169 0.416664 0.500000
Si Si2 0.678679 0.333864 0.871777
Si Si3 0.678864 0.233768 0.712333
Si Si4 0.832612 0.437767 0.752435
Si Si5 0.500000 0.500000 0.500000
Si Si6 0.829550 0.000000 0.364743
Si Si7 0.322239 0.884856 0.369153
Si Si8 0.177493 0.290318 0.500000
O O1 0.156720 0.431081 0.381130
O O2 0.374596 0.451976 0.500000
O O3 0.249781 0.350938 0.500000
O O4 0.500000 0.338357 0.869545
O O5 0.716187 0.274259 0.815417
O O6 0.743168 0.386026 0.802812
O O7 0.728472 0.336358 0.000000
O O8 0.500000 0.237860 0.694426
O O9 0.714904 0.168045 0.708413
O O10 0.765771 0.258856 0.608185
O O11 0.769189 0.500000 0.775033
O O12 0.000000 0.435857 0.797864
O O13 0.750711 0.057408 0.331634
O O14 0.824815 0.000000 0.500000
O O15 0.000000 0.000000 0.329179
O O16 0.279698 0.873619 0.500000
O O17 0.500000 0.891545 0.368966
O O18 0.000000 0.296801 0.500000
#
# Coordination Sequence:
#
# PCOD9389379 Si02
#       8
#     4   8   8   8   1   4   8   4
#     4  12  24  37  55  85 113 137 174 212 268 325
#     4  10  23  40  58  79 103 135 180 230 273 317
#     4  10  20  35  55  78 108 142 181 219 265 322
#     4  11  23  39  58  79 109 140 172 216 268 328
#     4  12  28  36  58  88 110 148 178 214 268 334
#     4   9  17  27  41  67 106 147 176 208 251 302
#     4   9  16  28  46  71 103 141 180 212 251 307
#     4  12  23  33  53  83 112 138 171 217 273 321
#
# _framework density 17.361111000000001
#
# number of rings (size 3 to 8) (size 9 to 14) (size 15 to 20)
#    0.000    1.689    3.556    1.333    2.489    3.556 
#    0.000    1.778    0.000    0.000    0.000    0.622 
#    0.000    4.978    0.000    0.000    0.000    0.000 
#
# Total GULP energy -250505.853208 kJ/mol
# GULP energy per Si atom -5566.796738 kJ/mol
# Density = 1.732160 g / cm^3
# Si number density = 17.361111 Si / 1000 Ang^3
#
#
#
# Elastic Constant Matrix: (Units=GPa)
#
#
# Indices 1 2 3 4 5 6 
#
# 1 38.8271 53.8940 27.7786 0.0000 0.0000 0.0000
# 2 53.8940 193.0138 51.1844 0.0000 0.0000 0.0000
# 3 27.7786 51.1844 82.9800 0.0000 0.0000 0.0000
# 4 0.0000 0.0000 0.0000 6.6336 0.0000 0.0000
# 5 0.0000 0.0000 0.0000 0.0000 42.4724 0.0000
# 6 0.0000 0.0000 0.0000 0.0000 0.0000 -2.9356
#
#
#
# Elastic Compliance Matrix: (Units=1/GPa)
#
#
# Indices 1 2 3 4 5 6 
#
# 1 0.047264 -0.010762 -0.009184 0.000000 0.000000 0.000000
# 2 -0.010762 0.008645 -0.001730 0.000000 0.000000 0.000000
# 3 -0.009184 -0.001730 0.016192 0.000000 0.000000 0.000000
# 4 0.000000 0.000000 0.000000 0.150748 0.000000 0.000000
# 5 0.000000 0.000000 0.000000 0.000000 0.023545 0.000000
# 6 0.000000 0.000000 0.000000 0.000000 0.000000 -0.340640
#
#
# Mechanical properties :
#
#
# Convention : Reuss Voigt Hill
#
# Bulk Modulus (GPa) = 34.78252 64.50387 49.64319
# Shear Modulus (GPa) = -121.02621 21.36499 -49.83061
#
# Velocity S-wave (km/s) = -8.35838 3.51183 -5.36328
# Velocity P-wave (km/s) = 8.54820 7.32658 3.11391
#
# Compressibility (1/GPa) = 0.02875008
#
# Stress axis : x y z
#
# Youngs Moduli (GPa) = 21.15795 115.67983 61.75729
#
# Poissons Ratio (x) = 1.24490 0.56718
# Poissons Ratio (y) = 0.22769 0.10682
# Poissons Ratio (z) = 0.19431 0.20008
#
# Static dielectric constant tensor:
#      x y z
#    x 1.590930 0.000000 0.000000 
#    y 0.000000 1.600130 0.000000 
#    z 0.000000 0.000000 1.587940 
# 
# From -- ./inp_files/15337.got.cif
#   From: 2010.05.17/outbox.ucp.g08.bks.cvg/sg47_8_cif.got.tgz:15337.got - 2010.06.11 16:36:43.
