data_PCOD9389207
_publ_section_title
;
Structure prediction by ZEFSAII (Michael W. Deem and Ramdas Pophale) SiO2 
 PCOD9389207
Probable space group: P M M M
;
_chemical_formula_sum "Si O2"
_cell_formula_units_Z 40
_cell_length_a 22.566196
_cell_length_b 12.862518
_cell_length_c 7.697979
_cell_angle_alpha 90.000000
_cell_angle_beta 90.000000
_cell_angle_gamma 90.000000
_cell_volume 2234.400776
_symmetry_space_group_name_H-M "P M M M"
_symmetry_group_IT_number 47
_symmetry_cell_setting 'orthorhombic'
loop_
_space_group_symop_operation_xyz
x,y,z
-x,-y,z
x,-y,-z
-x,y,-z
-x,-y,-z
x,y,-z
-x,y,z
x,-y,z
loop_
_atom_site_type_symbol
_atom_site_label
_atom_site_fract_x
_atom_site_fract_y
_atom_site_fract_z
Si Si1 0.000000 0.380514 0.286646
Si Si2 0.235911 0.226941 0.294018
Si Si3 0.234605 0.000000 0.207133
Si Si4 0.101217 0.772930 0.707065
Si Si5 0.340308 0.376037 0.706031
Si Si6 0.432672 0.625987 0.000000
Si Si7 0.098880 0.000000 0.793014
O O1 0.057627 0.316275 0.227724
O O2 0.000000 0.500000 0.231863
O O3 0.000000 0.379657 0.500000
O O4 0.230726 0.242411 0.500000
O O5 0.260208 0.110340 0.264084
O O6 0.168644 0.232171 0.221161
O O7 0.282414 0.312695 0.233126
O O8 0.166768 0.000000 0.276148
O O9 0.232565 0.000000 0.000000
O O10 0.105207 0.760371 0.500000
O O11 0.074779 0.888249 0.737606
O O12 0.350622 0.355628 0.500000
O O13 0.330659 0.500000 0.724315
O O14 0.395213 0.345564 0.828509
O O15 0.435511 0.500000 0.000000
O O16 0.500000 0.665303 0.000000
O O17 0.099411 0.000000 0.000000
#
# Coordination Sequence:
#
# PCOD9389207 Si02
#       7
#     4   8   4   8   8   4   4
#     4   9  18  31  47  68  90 117 160 203 238 289
#     4   9  17  29  46  69  97 126 157 198 246 291
#     4   9  17  27  44  68  93 123 157 196 240 290
#     4   9  17  30  48  68  91 121 155 197 245 288
#     4   9  18  31  48  74 104 132 166 205 245 294
#     4   9  18  32  50  73 103 138 170 202 242 287
#     4   9  17  30  46  67  90 114 151 195 243 293
#
# _framework density 17.901890000000002
#
# number of rings (size 3 to 8) (size 9 to 14) (size 15 to 20)
#    0.000    3.000    0.000    0.600    1.400    4.000 
#    0.000    8.500    0.000    1.200    0.000    1.400 
#    0.000    3.200    0.000    0.000    0.000    0.000 
#
# Total GULP energy -222784.047119 kJ/mol
# GULP energy per Si atom -5569.601178 kJ/mol
# Density = 1.786114 g / cm^3
# Si number density = 17.901890 Si / 1000 Ang^3
#
#
#
# Elastic Constant Matrix: (Units=GPa)
#
#
# Indices 1 2 3 4 5 6 
#
# 1 118.8363 71.8501 33.2659 0.0000 0.0000 0.0000
# 2 71.8501 117.7489 19.8480 0.0000 0.0000 0.0000
# 3 33.2659 19.8480 47.5441 0.0000 0.0000 0.0000
# 4 0.0000 0.0000 0.0000 -0.8309 0.0000 0.0000
# 5 0.0000 0.0000 0.0000 0.0000 6.6828 0.0000
# 6 0.0000 0.0000 0.0000 0.0000 0.0000 3.6639
#
#
#
# Elastic Compliance Matrix: (Units=1/GPa)
#
#
# Indices 1 2 3 4 5 6 
#
# 1 0.015416 -0.008163 -0.007378 0.000000 0.000000 0.000000
# 2 -0.008163 0.013458 0.000093 0.000000 0.000000 0.000000
# 3 -0.007378 0.000093 0.026157 0.000000 0.000000 0.000000
# 4 0.000000 0.000000 0.000000 -1.203544 0.000000 0.000000
# 5 0.000000 0.000000 0.000000 0.000000 0.149638 0.000000
# 6 0.000000 0.000000 0.000000 0.000000 0.000000 0.272931
#
#
# Mechanical properties :
#
#
# Convention : Reuss Voigt Hill
#
# Bulk Modulus (GPa) = 41.43494 59.33970 50.38732
# Shear Modulus (GPa) = -7.27798 12.51419 2.61810
#
# Velocity S-wave (km/s) = -2.01849 2.64681 1.21064
# Velocity P-wave (km/s) = 4.21467 6.52380 5.49196
#
# Compressibility (1/GPa) = 0.02413422
#
# Stress axis : x y z
#
# Youngs Moduli (GPa) = 64.86821 74.30540 38.23107
#
# Poissons Ratio (x) = 0.60656 0.28209
# Poissons Ratio (y) = 0.52952 -0.00357
# Poissons Ratio (z) = 0.47863 -0.00693
#
# Static dielectric constant tensor:
#      x y z
#    x 1.628110 0.000000 0.000000 
#    y 0.000000 1.612530 0.000000 
#    z 0.000000 0.000000 1.635950 
# 
# From -- ./inp_files/10760.got.cif
#   From: 2010.05.17/outbox.cif.g08.bks.cpg/sg47_6_cif.got.tgz:10760.got - 2010.06.03 20:15:42.
