data_PCOD9389620
_publ_section_title
;
Structure prediction by ZEFSAII (Michael W. Deem and Ramdas Pophale) SiO2 
 PCOD9389620
Probable space group: P N N N
;
_chemical_formula_sum "Si O2"
_cell_formula_units_Z 64
_cell_length_a 5.547545
_cell_length_b 17.329334
_cell_length_c 30.867969
_cell_angle_alpha 90.000000
_cell_angle_beta 90.000000
_cell_angle_gamma 90.000000
_cell_volume 2967.500231
_symmetry_space_group_name_H-M "P N N N"
_symmetry_group_IT_number 48
_space_group.IT_coordinate_system_code '2'
_symmetry_cell_setting 'orthorhombic'
loop_
_space_group_symop_operation_xyz
x,y,z
1/2-x,1/2-y,z
x,1/2-y,1/2-z
1/2-x,y,1/2-z
-x,-y,-z
1/2+x,1/2+y,-z
-x,1/2+y,1/2+z
1/2+x,-y,1/2+z
loop_
_atom_site_type_symbol
_atom_site_label
_atom_site_fract_x
_atom_site_fract_y
_atom_site_fract_z
Si Si1 0.379576 0.065928 0.131649
Si Si2 0.939781 0.073020 0.859015
Si Si3 0.000970 0.124454 0.761583
Si Si4 0.676545 0.545649 0.431485
Si Si5 0.791447 0.340507 0.932923
Si Si6 0.149301 0.596947 0.519552
Si Si7 0.996849 0.049858 0.272232
Si Si8 0.342555 0.335665 0.444077
O O1 0.516697 0.069248 0.177004
O O2 0.352436 0.146585 0.107490
O O3 0.146872 0.015431 0.144351
O O4 0.494418 0.012638 0.093748
O O5 0.999602 0.103493 0.812028
O O6 0.752732 0.128596 0.884274
O O7 0.153776 0.070665 0.892701
O O8 0.750000 0.163519 0.750000
O O9 0.250000 0.164149 0.750000
O O10 0.999993 0.043651 0.734105
O O11 0.547566 0.623482 0.446636
O O12 0.779248 0.490820 0.468956
O O13 0.750000 0.250000 0.935186
O O14 0.626859 0.381480 0.969140
O O15 0.385899 0.645977 0.537478
O O16 0.890078 0.613741 0.540926
O O17 0.250000 0.076217 0.250000
O O18 0.750000 0.077235 0.250000
O O19 0.250000 0.250000 0.454137
#
# Coordination Sequence:
#
# PCOD9389620 Si02
#       8
#     8   8   8   8   8   8   8   8
#     4  10  20  36  57  94 126 161 211 269 317 380
#     4  11  21  38  62  92 125 160 212 266 324 384
#     4  10  19  32  58  90 117 151 201 261 315 368
#     4  10  22  39  65  92 125 166 215 273 320 376
#     4  11  26  42  61  92 132 175 213 265 335 401
#     4  11  24  44  67  93 127 171 229 270 319 383
#     4  10  18  29  53  86 120 152 203 257 313 364
#     4  11  23  40  65  93 131 175 219 271 327 389
#
# _framework density 21.566973000000001
#
# number of rings (size 3 to 8) (size 9 to 14) (size 15 to 20)
#    0.000    1.500    3.750    3.000    3.500    1.000 
#    0.000    0.000    0.000    0.750    0.000    1.750 
#    0.000    0.000    0.000    0.000    0.000    0.000 
#
# Total GULP energy -356951.151664 kJ/mol
# GULP energy per Si atom -5577.361745 kJ/mol
# Density = 2.151789 g / cm^3
# Si number density = 21.566973 Si / 1000 Ang^3
#
#
#
# Elastic Constant Matrix: (Units=GPa)
#
#
# Indices 1 2 3 4 5 6 
#
# 1 120.4656 14.7559 22.1543 0.0000 0.0000 0.0000
# 2 14.7559 70.0782 12.0573 0.0000 0.0000 0.0000
# 3 22.1543 12.0573 120.4971 0.0000 0.0000 0.0000
# 4 0.0000 0.0000 0.0000 16.2228 0.0000 0.0000
# 5 0.0000 0.0000 0.0000 0.0000 41.2189 0.0000
# 6 0.0000 0.0000 0.0000 0.0000 0.0000 83.3821
#
#
#
# Elastic Compliance Matrix: (Units=1/GPa)
#
#
# Indices 1 2 3 4 5 6 
#
# 1 0.008764 -0.001596 -0.001452 0.000000 0.000000 0.000000
# 2 -0.001596 0.014810 -0.001189 0.000000 0.000000 0.000000
# 3 -0.001452 -0.001189 0.008685 0.000000 0.000000 0.000000
# 4 0.000000 0.000000 0.000000 0.061642 0.000000 0.000000
# 5 0.000000 0.000000 0.000000 0.000000 0.024261 0.000000
# 6 0.000000 0.000000 0.000000 0.000000 0.000000 0.011993
#
#
# Mechanical properties :
#
#
# Convention : Reuss Voigt Hill
#
# Bulk Modulus (GPa) = 42.03961 45.44178 43.74070
# Shear Modulus (GPa) = 34.11699 45.63631 39.87665
#
# Velocity S-wave (km/s) = 3.98164 4.60502 4.30463
# Velocity P-wave (km/s) = 6.37752 7.02786 6.71057
#
# Compressibility (1/GPa) = 0.02378709
#
# Stress axis : x y z
#
# Youngs Moduli (GPa) = 114.10944 67.52084 115.14401
#
# Poissons Ratio (x) = 0.10773 0.16714
# Poissons Ratio (y) = 0.18206 0.13686
# Poissons Ratio (z) = 0.16564 0.08026
#
# Static dielectric constant tensor:
#      x y z
#    x 2.085680 0.000000 0.000000 
#    y 0.000000 1.776680 0.000000 
#    z 0.000000 0.000000 3.074240 
# 
# From -- ./inp_files/38417.got.cif
#   From: 2010.05.17/outbox.cif.g08.bks.cpg/sg48_20_cif.got.tgz:38417.got - 2010.06.03 20:39:00.
