data_PCOD9389575
_publ_section_title
;
Structure prediction by ZEFSAII (Michael W. Deem and Ramdas Pophale) SiO2 
 PCOD9389575
Probable space group: P N N N
;
_chemical_formula_sum "Si O2"
_cell_formula_units_Z 60
_cell_length_a 10.471022
_cell_length_b 12.428027
_cell_length_c 19.548133
_cell_angle_alpha 90.000000
_cell_angle_beta 90.000000
_cell_angle_gamma 90.000000
_cell_volume 2543.879557
_symmetry_space_group_name_H-M "P N N N"
_symmetry_group_IT_number 48
_space_group.IT_coordinate_system_code '2'
_symmetry_cell_setting 'orthorhombic'
loop_
_space_group_symop_operation_xyz
x,y,z
1/2-x,1/2-y,z
x,1/2-y,1/2-z
1/2-x,y,1/2-z
-x,-y,-z
1/2+x,1/2+y,-z
-x,1/2+y,1/2+z
1/2+x,-y,1/2+z
loop_
_atom_site_type_symbol
_atom_site_label
_atom_site_fract_x
_atom_site_fract_y
_atom_site_fract_z
Si Si1 0.437824 0.917999 0.136457
Si Si2 0.632767 0.889329 0.613013
Si Si3 0.882156 0.207916 0.514075
Si Si4 0.283321 0.131935 0.898279
Si Si5 0.578939 0.649488 0.595939
Si Si6 0.029185 0.957601 0.218187
Si Si7 0.750000 0.551515 0.250000
Si Si8 0.478871 0.417067 0.930449
O O1 0.343956 0.861694 0.082215
O O2 0.569076 0.892424 0.096444
O O3 0.427817 0.889015 0.216128
O O4 0.438856 0.046998 0.143831
O O5 0.573383 0.771349 0.622804
O O6 0.771111 0.870149 0.579529
O O7 0.553010 0.969954 0.564577
O O8 0.624664 0.952669 0.685954
O O9 0.750000 0.250000 0.482481
O O10 0.970453 0.142283 0.461602
O O11 0.964878 0.314062 0.532001
O O12 0.250000 0.250000 0.923312
O O13 0.268526 0.122360 0.816841
O O14 0.172904 0.060947 0.931617
O O15 0.887064 0.005445 0.236742
O O16 0.004301 0.886237 0.150471
#
# Coordination Sequence:
#
# PCOD9389575 Si02
#       8
#     8   8   8   8   8   8   4   8
#     4  11  23  40  68 101 140 180 227 292 371 430
#     4   9  22  46  70  99 137 177 249 290 356 421
#     4  12  26  44  64  97 141 184 241 302 364 428
#     4  10  17  32  60  97 131 174 216 264 349 432
#     4  11  25  44  67  94 135 196 241 295 343 417
#     4   8  19  39  67 104 136 172 223 292 360 432
#     4   8  15  30  58  95 138 164 203 268 345 422
#     4   9  20  41  66  99 137 174 229 296 357 433
#
# _framework density 23.586023000000001
#
# number of rings (size 3 to 8) (size 9 to 14) (size 15 to 20)
#    0.800    1.333    1.333    1.400    0.000    5.333 
#    0.000    2.000    0.000    0.800    0.000    0.000 
#    0.000    0.000    0.000    0.000    0.000    0.000 
#
# Total GULP energy -334076.898870 kJ/mol
# GULP energy per Si atom -5567.948314 kJ/mol
# Density = 2.353234 g / cm^3
# Si number density = 23.586023 Si / 1000 Ang^3
#
#
#
# Elastic Constant Matrix: (Units=GPa)
#
#
# Indices 1 2 3 4 5 6 
#
# 1 84.3441 9.0386 18.8207 0.0000 0.0000 0.0000
# 2 9.0386 69.9283 -5.6763 0.0000 0.0000 0.0000
# 3 18.8207 -5.6763 66.4947 0.0000 0.0000 0.0000
# 4 0.0000 0.0000 0.0000 19.8846 0.0000 0.0000
# 5 0.0000 0.0000 0.0000 0.0000 29.2534 0.0000
# 6 0.0000 0.0000 0.0000 0.0000 0.0000 33.1456
#
#
#
# Elastic Compliance Matrix: (Units=1/GPa)
#
#
# Indices 1 2 3 4 5 6 
#
# 1 0.012922 -0.001981 -0.003827 0.000000 0.000000 0.000000
# 2 -0.001981 0.014704 0.001816 0.000000 0.000000 0.000000
# 3 -0.003827 0.001816 0.016277 0.000000 0.000000 0.000000
# 4 0.000000 0.000000 0.000000 0.050290 0.000000 0.000000
# 5 0.000000 0.000000 0.000000 0.000000 0.034184 0.000000
# 6 0.000000 0.000000 0.000000 0.000000 0.000000 0.030170
#
#
# Mechanical properties :
#
#
# Convention : Reuss Voigt Hill
#
# Bulk Modulus (GPa) = 27.83991 29.45924 28.64957
# Shear Modulus (GPa) = 28.01063 29.69568 28.85316
#
# Velocity S-wave (km/s) = 3.44989 3.55214 3.50139
# Velocity P-wave (km/s) = 5.26290 5.41672 5.34037
#
# Compressibility (1/GPa) = 0.03591966
#
# Stress axis : x y z
#
# Youngs Moduli (GPa) = 77.38523 68.00967 61.43678
#
# Poissons Ratio (x) = 0.13472 0.23510
# Poissons Ratio (y) = 0.15329 -0.11156
# Poissons Ratio (z) = 0.29613 -0.12350
#
# Static dielectric constant tensor:
#      x y z
#    x 2.026110 0.000000 0.000000 
#    y 0.000000 1.891850 0.000000 
#    z 0.000000 0.000000 1.997680 
# 
# From -- ./inp_files/31151.got.cif
#   From: 2010.05.17/outbox.cif.g08.bks.cpg/sg48_16_cif.got.tgz:31151.got - 2010.06.03 20:39:00.
