data_PCOD9389360
_publ_section_title
;
Structure prediction by ZEFSAII (Michael W. Deem and Ramdas Pophale) SiO2 
 PCOD9389360
Probable space group: P M M M
;
_chemical_formula_sum "Si O2"
_cell_formula_units_Z 48
_cell_length_a 9.000000
_cell_length_b 9.000000
_cell_length_c 30.000000
_cell_angle_alpha 90.000000
_cell_angle_beta 90.000000
_cell_angle_gamma 90.000000
_cell_volume 2430.000000
_symmetry_space_group_name_H-M "P M M M"
_symmetry_group_IT_number 47
_symmetry_cell_setting 'orthorhombic'
loop_
_space_group_symop_operation_xyz
x,y,z
-x,-y,z
x,-y,-z
-x,y,-z
-x,-y,-z
x,y,-z
-x,y,z
x,-y,z
loop_
_atom_site_type_symbol
_atom_site_label
_atom_site_fract_x
_atom_site_fract_y
_atom_site_fract_z
Si Si1 0.674016 0.671734 0.587676
Si Si2 0.835063 0.821980 0.334518
Si Si3 0.167025 0.824032 0.078415
Si Si4 0.325134 0.664517 0.000000
Si Si5 0.330948 0.325316 0.154150
Si Si6 0.174123 0.321640 0.500000
Si Si7 0.668831 0.826297 0.247571
O O1 0.500000 0.673745 0.579251
O O2 0.721161 0.500000 0.593458
O O3 0.717879 0.758131 0.631409
O O4 0.755850 0.738496 0.544989
O O5 0.786081 0.783525 0.284802
O O6 0.000000 0.767053 0.345384
O O7 0.834397 0.000000 0.337107
O O8 0.274618 0.750665 0.043276
O O9 0.213541 0.766797 0.126441
O O10 0.000000 0.779126 0.067225
O O11 0.177390 0.000000 0.076249
O O12 0.258631 0.500000 0.000000
O O13 0.500000 0.653200 0.000000
O O14 0.500000 0.289143 0.139265
O O15 0.308617 0.500000 0.147955
O O16 0.320837 0.277979 0.205176
O O17 0.206352 0.500000 0.500000
O O18 0.000000 0.301039 0.500000
O O19 0.500000 0.815717 0.265701
O O20 0.690396 0.000000 0.234783
#
# Coordination Sequence:
#
# PCOD9389360 Si02
#       7
#     8   8   8   4   8   4   8
#     4  10  20  34  54  79 106 138 178 222 267 319
#     4  10  21  36  54  78 109 143 179 222 272 324
#     4  11  24  40  59  85 116 150 189 230 273 325
#     4  11  24  41  62  88 116 147 186 231 278 328
#     4  10  21  37  58  85 115 146 183 227 274 325
#     4   9  17  31  52  77 106 139 174 216 268 323
#     4   9  18  34  55  77 105 144 185 223 266 319
#
# _framework density 19.753086
#
# number of rings (size 3 to 8) (size 9 to 14) (size 15 to 20)
#    0.000    2.000    0.000    3.250    0.000   10.333 
#    0.000    3.750    0.000    2.500    0.000    0.000 
#    0.000    0.000    0.000    0.000    0.000    0.000 
#
# Total GULP energy -267788.674899 kJ/mol
# GULP energy per Si atom -5578.930727 kJ/mol
# Density = 1.970813 g / cm^3
# Si number density = 19.753086 Si / 1000 Ang^3
#
#
#
# Elastic Constant Matrix: (Units=GPa)
#
#
# Indices 1 2 3 4 5 6 
#
# 1 -35.9389 27.5672 9.4235 0.0000 0.0000 0.0000
# 2 27.5672 2.9046 17.3480 0.0000 0.0000 0.0000
# 3 9.4235 17.3480 44.4384 0.0000 0.0000 0.0000
# 4 0.0000 0.0000 0.0000 27.1926 0.0000 0.0000
# 5 0.0000 0.0000 0.0000 0.0000 16.8364 0.0000
# 6 0.0000 0.0000 0.0000 0.0000 0.0000 21.2468
#
#
#
# Elastic Compliance Matrix: (Units=1/GPa)
#
#
# Indices 1 2 3 4 5 6 
#
# 1 0.009124 0.056351 -0.023933 0.000000 0.000000 0.000000
# 2 0.056351 0.089491 -0.046885 0.000000 0.000000 0.000000
# 3 -0.023933 -0.046885 0.045881 0.000000 0.000000 0.000000
# 4 0.000000 0.000000 0.000000 0.036775 0.000000 0.000000
# 5 0.000000 0.000000 0.000000 0.000000 0.059395 0.000000
# 6 0.000000 0.000000 0.000000 0.000000 0.000000 0.047066
#
#
# Mechanical properties :
#
#
# Convention : Reuss Voigt Hill
#
# Bulk Modulus (GPa) = 8.65348 13.34238 10.99793
# Shear Modulus (GPa) = 14.07709 10.19285 12.13497
#
# Velocity S-wave (km/s) = 2.67245 2.27406 2.48126
# Velocity P-wave (km/s) = 3.73001 3.69653 3.71331
#
# Compressibility (1/GPa) = 0.11556046
#
# Stress axis : x y z
#
# Youngs Moduli (GPa) = 109.60551 11.17434 21.79529
#
# Poissons Ratio (x) = -0.62968 0.52163
# Poissons Ratio (y) = -6.17634 1.02188
# Poissons Ratio (z) = 2.62319 0.52391
#
# Static dielectric constant tensor:
#      x y z
#    x 1.709550 0.000000 0.000000 
#    y 0.000000 1.680180 0.000000 
#    z 0.000000 0.000000 1.698930 
# 
# From -- ./inp_files/13808.got.cif
#   From: 2010.05.17/outbox.ucp.g08.bks.cvg/sg47_7_cif.got.tgz:13808.got - 2010.06.11 16:36:43.
