data_PCOD9389560
_publ_section_title
;
Structure prediction by ZEFSAII (Michael W. Deem and Ramdas Pophale) SiO2 
 PCOD9389560
Probable space group: P N N N
;
_chemical_formula_sum "Si O2"
_cell_formula_units_Z 58
_cell_length_a 18.134252
_cell_length_b 17.763478
_cell_length_c 9.997037
_cell_angle_alpha 90.000000
_cell_angle_beta 90.000000
_cell_angle_gamma 90.000000
_cell_volume 3220.319401
_symmetry_space_group_name_H-M "P N N N"
_symmetry_group_IT_number 48
_space_group.IT_coordinate_system_code '2'
_symmetry_cell_setting 'orthorhombic'
loop_
_space_group_symop_operation_xyz
x,y,z
1/2-x,1/2-y,z
x,1/2-y,1/2-z
1/2-x,y,1/2-z
-x,-y,-z
1/2+x,1/2+y,-z
-x,1/2+y,1/2+z
1/2+x,-y,1/2+z
loop_
_atom_site_type_symbol
_atom_site_label
_atom_site_fract_x
_atom_site_fract_y
_atom_site_fract_z
Si Si1 0.585344 0.288503 0.106501
Si Si2 0.816253 0.411874 0.849836
Si Si3 0.422518 0.314481 0.134613
Si Si4 0.827779 0.589629 0.808678
Si Si5 0.762964 0.339857 0.404610
Si Si6 0.750000 0.750000 0.250000
Si Si7 0.374485 0.310015 0.560450
Si Si8 0.458804 0.685574 0.361527
O O1 0.603455 0.250000 0.250000
O O2 0.508168 0.330374 0.116883
O O3 0.650275 0.344122 0.064989
O O4 0.569790 0.222880 0.999803
O O5 0.750000 0.386241 0.750000
O O6 0.823096 0.501436 0.837003
O O7 0.896564 0.375483 0.824614
O O8 0.787455 0.386267 0.995385
O O9 0.417194 0.250000 0.250000
O O10 0.383327 0.387476 0.190929
O O11 0.389477 0.272764 0.005360
O O12 0.750000 0.617267 0.750000
O O13 0.850949 0.634004 0.941846
O O14 0.750000 0.250000 0.421965
O O15 0.750000 0.359545 0.250000
O O16 0.693392 0.700211 0.338502
O O17 0.454648 0.335374 0.618335
O O18 0.457356 0.750000 0.250000
#
# Coordination Sequence:
#
# PCOD9389560 Si02
#       8
#     8   8   8   8   8   2   8   8
#     4  10  17  31  56  85 113 145 201 249 279 342
#     4  11  24  37  60  88 123 168 198 243 301 358
#     4   8  17  33  59  84 101 140 192 250 280 328
#     4  10  21  40  59  84 117 151 205 246 296 360
#     4  11  19  33  56  86 117 157 198 244 290 343
#     4  12  20  36  58  84 110 148 190 238 320 348
#     4  10  21  36  61  87 111 149 196 250 301 356
#     4  11  21  36  57  91 124 147 197 252 300 352
#
# _framework density 18.010635000000001
#
# number of rings (size 3 to 8) (size 9 to 14) (size 15 to 20)
#    0.000    1.793    3.448    2.483    0.000    2.483 
#    1.241    0.000    0.000    4.966    0.000    0.000 
#    0.000    0.000    0.000    0.000    0.000    0.000 
#
# Total GULP energy -323299.015310 kJ/mol
# GULP energy per Si atom -5574.120954 kJ/mol
# Density = 1.796964 g / cm^3
# Si number density = 18.010635 Si / 1000 Ang^3
#
#
#
# Elastic Constant Matrix: (Units=GPa)
#
#
# Indices 1 2 3 4 5 6 
#
# 1 163.2537 45.0739 45.9620 0.0000 0.0000 0.0000
# 2 45.0739 53.5705 27.8590 0.0000 0.0000 0.0000
# 3 45.9620 27.8590 69.8446 0.0000 0.0000 0.0000
# 4 0.0000 0.0000 0.0000 18.2492 0.0000 0.0000
# 5 0.0000 0.0000 0.0000 0.0000 30.0126 0.0000
# 6 0.0000 0.0000 0.0000 0.0000 0.0000 -43.5536
#
#
#
# Elastic Compliance Matrix: (Units=1/GPa)
#
#
# Indices 1 2 3 4 5 6 
#
# 1 0.008608 -0.005422 -0.003502 0.000000 0.000000 0.000000
# 2 -0.005422 0.026967 -0.007189 0.000000 0.000000 0.000000
# 3 -0.003502 -0.007189 0.019490 0.000000 0.000000 0.000000
# 4 0.000000 0.000000 0.000000 0.054797 0.000000 0.000000
# 5 0.000000 0.000000 0.000000 0.000000 0.033319 0.000000
# 6 0.000000 0.000000 0.000000 0.000000 0.000000 -0.022960
#
#
# Mechanical properties :
#
#
# Convention : Reuss Voigt Hill
#
# Bulk Modulus (GPa) = 43.78302 58.27320 51.02811
# Shear Modulus (GPa) = 31.23832 12.12656 21.68244
#
# Velocity S-wave (km/s) = 4.16918 2.59762 3.47345
# Velocity P-wave (km/s) = 6.89481 6.43599 6.66934
#
# Compressibility (1/GPa) = 0.02283990
#
# Stress axis : x y z
#
# Youngs Moduli (GPa) = 116.16597 37.08207 51.30952
#
# Poissons Ratio (x) = 0.20105 0.17970
# Poissons Ratio (y) = 0.62982 0.36885
# Poissons Ratio (z) = 0.40685 0.26657
#
# Static dielectric constant tensor:
#      x y z
#    x 1.686670 0.000000 0.000000 
#    y 0.000000 1.578440 0.000000 
#    z 0.000000 0.000000 1.651380 
# 
# From -- ./inp_files/14437.got.cif
#   From: 2010.05.17/outbox.cif.g08.bks.cpg/sg48_8_cif.got.tgz:14437.got - 2010.06.03 20:39:00.
