data_PCOD9389319
_publ_section_title
;
Structure prediction by ZEFSAII (Michael W. Deem and Ramdas Pophale) SiO2 
 PCOD9389319
Probable space group: P M M M
;
_chemical_formula_sum "Si O2"
_cell_formula_units_Z 44
_cell_length_a 9.000000
_cell_length_b 9.000000
_cell_length_c 30.000000
_cell_angle_alpha 90.000000
_cell_angle_beta 90.000000
_cell_angle_gamma 90.000000
_cell_volume 2430.000000
_symmetry_space_group_name_H-M "P M M M"
_symmetry_group_IT_number 47
_symmetry_cell_setting 'orthorhombic'
loop_
_space_group_symop_operation_xyz
x,y,z
-x,-y,z
x,-y,-z
-x,y,-z
-x,-y,-z
x,y,-z
-x,y,z
x,-y,z
loop_
_atom_site_type_symbol
_atom_site_label
_atom_site_fract_x
_atom_site_fract_y
_atom_site_fract_z
Si Si1 0.818982 0.328104 0.000000
Si Si2 0.324161 0.323596 0.725258
Si Si3 0.177533 0.176212 0.908818
Si Si4 0.322279 0.175839 0.182867
Si Si5 0.325226 0.819723 0.548943
Si Si6 0.823427 0.175553 0.639953
O O1 0.768190 0.252011 0.045760
O O2 0.778943 0.500000 0.000000
O O3 0.000000 0.316567 0.000000
O O4 0.500000 0.288609 0.721543
O O5 0.306808 0.500000 0.726324
O O6 0.270398 0.255379 0.772091
O O7 0.243592 0.256669 0.682542
O O8 0.250270 0.231228 0.863023
O O9 0.000000 0.197148 0.905735
O O10 0.206481 0.000000 0.912272
O O11 0.500000 0.193978 0.179664
O O12 0.289924 0.000000 0.186857
O O13 0.272178 0.767898 0.500000
O O14 0.500000 0.784844 0.552646
O O15 0.241390 0.767141 0.592939
O O16 0.312595 0.000000 0.548549
O O17 0.000000 0.189775 0.639452
O O18 0.785875 0.000000 0.643442
#
# Coordination Sequence:
#
# PCOD9389319 Si02
#       6
#     4   8   8   8   8   8
#     4   9  17  29  46  69  96 126 160 195 232 278
#     4  10  21  36  53  72  96 130 169 206 247 297
#     4   9  17  30  49  71  94 122 157 196 236 281
#     4   9  18  33  52  73  97 125 158 199 247 295
#     4   8  14  26  46  72 100 130 165 204 245 290
#     4  10  20  32  49  75 104 133 165 203 248 296
#
# _framework density 18.106995999999999
#
# number of rings (size 3 to 8) (size 9 to 14) (size 15 to 20)
#    0.000    2.818    0.000    1.909    0.000    5.091 
#    0.000    4.091    0.000    3.273    0.000    3.818 
#    0.000    0.000    0.000    0.000    0.000    0.000 
#
# Total GULP energy -245263.521948 kJ/mol
# GULP energy per Si atom -5574.170953 kJ/mol
# Density = 1.806578 g / cm^3
# Si number density = 18.106996 Si / 1000 Ang^3
#
#
#
# Elastic Constant Matrix: (Units=GPa)
#
#
# Indices 1 2 3 4 5 6 
#
# 1 8.3744 31.6953 53.9092 0.0000 0.0000 0.0000
# 2 31.6953 15.5452 58.4709 0.0000 0.0000 0.0000
# 3 53.9092 58.4709 228.0810 0.0000 0.0000 0.0000
# 4 0.0000 0.0000 0.0000 -15.8406 0.0000 0.0000
# 5 0.0000 0.0000 0.0000 0.0000 39.8024 0.0000
# 6 0.0000 0.0000 0.0000 0.0000 0.0000 13.6839
#
#
#
# Elastic Compliance Matrix: (Units=1/GPa)
#
#
# Indices 1 2 3 4 5 6 
#
# 1 -0.001726 0.055522 -0.013826 0.000000 0.000000 0.000000
# 2 0.055522 0.013566 -0.016601 0.000000 0.000000 0.000000
# 3 -0.013826 -0.016601 0.011908 0.000000 0.000000 0.000000
# 4 0.000000 0.000000 0.000000 -0.063129 0.000000 0.000000
# 5 0.000000 0.000000 0.000000 0.000000 0.025124 0.000000
# 6 0.000000 0.000000 0.000000 0.000000 0.000000 0.073079
#
#
# Mechanical properties :
#
#
# Convention : Reuss Voigt Hill
#
# Bulk Modulus (GPa) = 13.52466 60.01683 36.77075
# Shear Modulus (GPa) = 150.24851 14.72416 82.48634
#
# Velocity S-wave (km/s) = 9.11912 2.85472 6.75676
# Velocity P-wave (km/s) = 10.87949 6.63954 9.01240
#
# Compressibility (1/GPa) = 0.07393900
#
# Stress axis : x y z
#
# Youngs Moduli (GPa) = -579.44111 73.71242 83.97651
#
# Poissons Ratio (x) = -4.09266 1.16103
# Poissons Ratio (y) = 32.17171 1.39410
# Poissons Ratio (z) = -8.01118 1.22370
#
# Static dielectric constant tensor:
#      x y z
#    x 1.611720 0.000000 0.000000 
#    y 0.000000 1.607050 0.000000 
#    z 0.000000 0.000000 1.619070 
# 
# From -- ./inp_files/2268.got.cif
#   From: 2010.05.17/outbox.ucp.g08.bks.cvg/sg47_2_cif.got.tgz:2268.got - 2010.06.11 16:36:43.
