data_PCOD9389831
_publ_section_title
;
Structure prediction by ZEFSAII (Michael W. Deem and Ramdas Pophale) SiO2 
 PCOD9389831
Probable space group: P N N N
;
_chemical_formula_sum "Si O2"
_cell_formula_units_Z 24
_cell_length_a 13.940979
_cell_length_b 9.827400
_cell_length_c 7.897283
_cell_angle_alpha 90.000000
_cell_angle_beta 90.000000
_cell_angle_gamma 90.000000
_cell_volume 1081.956020
_symmetry_space_group_name_H-M "P N N N"
_symmetry_group_IT_number 48
_space_group.IT_coordinate_system_code '2'
_symmetry_cell_setting 'orthorhombic'
loop_
_space_group_symop_operation_xyz
x,y,z
1/2-x,1/2-y,z
x,1/2-y,1/2-z
1/2-x,y,1/2-z
-x,-y,-z
1/2+x,1/2+y,-z
-x,1/2+y,1/2+z
1/2+x,-y,1/2+z
loop_
_atom_site_type_symbol
_atom_site_label
_atom_site_fract_x
_atom_site_fract_y
_atom_site_fract_z
Si Si1 0.824207 0.110731 0.083471
Si Si2 0.948282 0.905679 0.263505
Si Si3 0.366520 0.595778 0.447379
O O1 0.750000 0.110325 0.250000
O O2 0.747584 0.081001 0.936678
O O3 0.874383 0.255182 0.040686
O O4 0.902683 0.997242 0.117580
O O5 0.917524 0.750000 0.250000
O O6 0.063067 0.907122 0.287866
O O7 0.905309 0.976126 0.431758
#
# Coordination Sequence:
#
# PCOD9389831 Si02
#       3
#     8   8   8
#     4   9  17  34  54  72 106 148 177 213 268 325
#     4  10  19  30  52  82 104 133 183 228 262 311
#     4   9  18  33  52  75 105 143 180 214 266 327
#
# _framework density 22.182047000000001
#
# number of rings (size 3 to 8) (size 9 to 14) (size 15 to 20)
#    0.000    2.667    0.000    7.000    0.000    7.333 
#    0.000    3.333    0.000    0.000    0.000   14.000 
#    0.000    0.000    0.000    0.000    0.000    0.000 
#
# Total GULP energy -133671.440309 kJ/mol
# GULP energy per Si atom -5569.643346 kJ/mol
# Density = 2.213156 g / cm^3
# Si number density = 22.182047 Si / 1000 Ang^3
#
#
#
# Elastic Constant Matrix: (Units=GPa)
#
#
# Indices 1 2 3 4 5 6 
#
# 1 143.5415 101.7892 44.0079 0.0000 0.0000 0.0000
# 2 101.7892 190.4697 56.0863 0.0000 0.0000 0.0000
# 3 44.0079 56.0863 84.5978 0.0000 0.0000 0.0000
# 4 0.0000 0.0000 0.0000 12.4444 0.0000 0.0000
# 5 0.0000 0.0000 0.0000 0.0000 52.5905 0.0000
# 6 0.0000 0.0000 0.0000 0.0000 0.0000 27.1433
#
#
#
# Elastic Compliance Matrix: (Units=1/GPa)
#
#
# Indices 1 2 3 4 5 6 
#
# 1 0.011594 -0.005492 -0.002390 0.000000 0.000000 0.000000
# 2 -0.005492 0.009125 -0.003193 0.000000 0.000000 0.000000
# 3 -0.002390 -0.003193 0.015181 0.000000 0.000000 0.000000
# 4 0.000000 0.000000 0.000000 0.080358 0.000000 0.000000
# 5 0.000000 0.000000 0.000000 0.000000 0.019015 0.000000
# 6 0.000000 0.000000 0.000000 0.000000 0.000000 0.036841
#
#
# Mechanical properties :
#
#
# Convention : Reuss Voigt Hill
#
# Bulk Modulus (GPa) = 72.72747 91.37508 82.05128
# Shear Modulus (GPa) = 25.14486 32.88402 29.01444
#
# Velocity S-wave (km/s) = 3.37050 3.85445 3.62057
# Velocity P-wave (km/s) = 6.92855 7.81612 7.38568
#
# Compressibility (1/GPa) = 0.01374996
#
# Stress axis : x y z
#
# Youngs Moduli (GPa) = 86.25106 109.58331 65.87287
#
# Poissons Ratio (x) = 0.60186 0.15744
# Poissons Ratio (y) = 0.47371 0.21033
# Poissons Ratio (z) = 0.20614 0.34989
#
# Static dielectric constant tensor:
#      x y z
#    x 1.868910 0.000000 0.000000 
#    y 0.000000 1.769930 0.000000 
#    z 0.000000 0.000000 1.946440 
# 
# From -- ./inp_files/8112.got.cif
#   From: 2010.05.17/outbox.cif.g08.bks.cpg/sg48_5_cif.got.tgz:8112.got - 2010.06.03 20:39:00.
