data_PCOD9389015
_publ_section_title
;
Structure prediction by ZEFSAII (Michael W. Deem and Ramdas Pophale) SiO2 
 PCOD9389015
Probable space group: P M M M
;
_chemical_formula_sum "Si O2"
_cell_formula_units_Z 56
_cell_length_a 14.272654
_cell_length_b 30.528664
_cell_length_c 7.550348
_cell_angle_alpha 90.000000
_cell_angle_beta 90.000000
_cell_angle_gamma 90.000000
_cell_volume 3289.875823
_symmetry_space_group_name_H-M "P M M M"
_symmetry_group_IT_number 47
_symmetry_cell_setting 'orthorhombic'
loop_
_space_group_symop_operation_xyz
x,y,z
-x,-y,z
x,-y,-z
-x,y,-z
-x,-y,-z
x,y,-z
-x,y,z
x,-y,z
loop_
_atom_site_type_symbol
_atom_site_label
_atom_site_fract_x
_atom_site_fract_y
_atom_site_fract_z
Si Si1 0.608130 0.049340 0.783726
Si Si2 0.891007 0.547113 0.786993
Si Si3 0.605296 0.222114 0.713452
Si Si4 0.107157 0.356794 0.289637
Si Si5 0.105376 0.815052 0.786021
Si Si6 0.715023 0.865972 0.788223
Si Si7 0.215029 0.272938 0.710948
O O1 0.500000 0.057311 0.731577
O O2 0.674707 0.088250 0.719897
O O3 0.634222 0.000000 0.728903
O O4 0.609273 0.049845 0.000000
O O5 0.850864 0.500000 0.726810
O O6 0.852259 0.594327 0.734466
O O7 0.000000 0.547753 0.727694
O O8 0.891045 0.546447 0.000000
O O9 0.603331 0.225725 0.500000
O O10 0.500000 0.229206 0.779597
O O11 0.641937 0.173342 0.755020
O O12 0.685234 0.255431 0.781245
O O13 0.099546 0.349734 0.500000
O O14 0.171677 0.317898 0.217230
O O15 0.000000 0.355327 0.217787
O O16 0.184681 0.848802 0.720182
O O17 0.141896 0.766600 0.739278
O O18 0.000000 0.822538 0.721732
O O19 0.104160 0.817603 0.000000
O O20 0.724141 0.870447 0.000000
O O21 0.227208 0.278400 0.500000
#
# Coordination Sequence:
#
# PCOD9389015 Si02
#       7
#     8   8   8   8   8   8   8
#     4   8  13  21  35  56  77  94 117 152 190 226
#     4   8  14  24  36  50  70  97 126 152 180 217
#     4   9  17  28  41  57  78 102 125 152 188 227
#     4   9  16  24  35  52  73  97 124 153 182 211
#     4   9  17  27  38  54  76 100 126 157 190 220
#     4   9  16  26  41  58  75  98 127 156 185 220
#     4   9  17  28  40  55  76 101 129 157 185 222
#
# _framework density 17.021920000000001
#
# number of rings (size 3 to 8) (size 9 to 14) (size 15 to 20)
#    0.000    3.286    0.000    1.714    0.000    2.571 
#    0.000    2.857    0.000    0.857    0.000    5.000 
#    0.000    0.571    0.000   14.286    0.000    9.143 
#
# Total GULP energy -311839.513756 kJ/mol
# GULP energy per Si atom -5568.562746 kJ/mol
# Density = 1.698318 g / cm^3
# Si number density = 17.021920 Si / 1000 Ang^3
#
#
#
# Elastic Constant Matrix: (Units=GPa)
#
#
# Indices 1 2 3 4 5 6 
#
# 1 115.5092 85.4693 1.8482 0.0000 0.0000 0.0000
# 2 85.4693 175.6275 0.2738 0.0000 0.0000 0.0000
# 3 1.8482 0.2738 36.4345 0.0000 0.0000 0.0000
# 4 0.0000 0.0000 0.0000 15.9295 0.0000 0.0000
# 5 0.0000 0.0000 0.0000 0.0000 5.9646 0.0000
# 6 0.0000 0.0000 0.0000 0.0000 0.0000 21.8384
#
#
#
# Elastic Compliance Matrix: (Units=1/GPa)
#
#
# Indices 1 2 3 4 5 6 
#
# 1 0.013544 -0.006590 -0.000637 0.000000 0.000000 0.000000
# 2 -0.006590 0.008901 0.000267 0.000000 0.000000 0.000000
# 3 -0.000637 0.000267 0.027477 0.000000 0.000000 0.000000
# 4 0.000000 0.000000 0.000000 0.062777 0.000000 0.000000
# 5 0.000000 0.000000 0.000000 0.000000 0.167657 0.000000
# 6 0.000000 0.000000 0.000000 0.000000 0.000000 0.045791
#
#
# Mechanical properties :
#
#
# Convention : Reuss Voigt Hill
#
# Bulk Modulus (GPa) = 27.77721 55.86153 41.81937
# Shear Modulus (GPa) = 14.20188 24.74515 19.47352
#
# Velocity S-wave (km/s) = 2.89161 3.81691 3.38601
# Velocity P-wave (km/s) = 5.24428 7.23282 6.31728
#
# Compressibility (1/GPa) = 0.03600073
#
# Stress axis : x y z
#
# Youngs Moduli (GPa) = 73.83475 112.35297 36.39433
#
# Poissons Ratio (x) = 0.74042 0.02320
# Poissons Ratio (y) = 0.48658 -0.00973
# Poissons Ratio (z) = 0.04707 -0.03004
#
# Static dielectric constant tensor:
#      x y z
#    x 1.576170 0.000000 0.000000 
#    y 0.000000 1.594750 0.000000 
#    z 0.000000 0.000000 1.635690 
# 
# From -- ./inp_files/8145.got.cif
#   From: 2010.05.17/outbox.cif.g08.bks.cpg/sg47_5_cif.got.tgz:8145.got - 2010.06.03 20:15:42.
