data_PCOD9389881
_publ_section_title
;
Structure prediction by ZEFSAII (Michael W. Deem and Ramdas Pophale) SiO2 
 PCOD9389881
Probable space group: P N N N
;
_chemical_formula_sum "Si O2"
_cell_formula_units_Z 56
_cell_length_a 22.782068
_cell_length_b 23.599012
_cell_length_c 5.825792
_cell_angle_alpha 90.000000
_cell_angle_beta 90.000000
_cell_angle_gamma 90.000000
_cell_volume 3132.145581
_symmetry_space_group_name_H-M "P N N N"
_symmetry_group_IT_number 48
_space_group.IT_coordinate_system_code '2'
_symmetry_cell_setting 'orthorhombic'
loop_
_space_group_symop_operation_xyz
x,y,z
1/2-x,1/2-y,z
x,1/2-y,1/2-z
1/2-x,y,1/2-z
-x,-y,-z
1/2+x,1/2+y,-z
-x,1/2+y,1/2+z
1/2+x,-y,1/2+z
loop_
_atom_site_type_symbol
_atom_site_label
_atom_site_fract_x
_atom_site_fract_y
_atom_site_fract_z
Si Si1 0.730297 0.659490 0.993943
Si Si2 0.998048 0.693800 0.626615
Si Si3 0.980249 0.085176 0.871038
Si Si4 0.772070 0.527914 0.499887
Si Si5 0.063029 0.111859 0.481585
Si Si6 0.614966 0.692203 0.157098
Si Si7 0.092713 0.025971 0.115936
O O1 0.750000 0.684733 0.750000
O O2 0.748261 0.593535 0.995122
O O3 0.750000 0.680004 0.250000
O O4 0.660047 0.665653 0.980247
O O5 0.023442 0.750000 0.750000
O O6 0.960156 0.659563 0.811197
O O7 0.947842 0.709635 0.444147
O O8 0.035083 0.644663 0.496396
O O9 0.003936 0.093968 0.615226
O O10 0.930108 0.038364 0.876440
O O11 0.039652 0.059768 0.989234
O O12 0.750000 0.503604 0.750000
O O13 0.843110 0.527790 0.506331
O O14 0.750000 0.504750 0.250000
O O15 0.105749 0.144187 0.653859
O O16 0.092802 0.058359 0.360063
O O17 0.641406 0.750000 0.250000
#
# Coordination Sequence:
#
# PCOD9389881 Si02
#       7
#     8   8   8   8   8   8   8
#     4  10  23  37  53  69  97 133 186 238 284 321
#     4  10  19  33  51  75 103 136 174 215 273 338
#     4   9  20  33  53  82 108 141 176 225 281 333
#     4  10  22  37  57  79 104 147 186 228 281 334
#     4  10  19  32  55  76 100 141 177 227 280 337
#     4  11  22  34  51  70  94 136 185 234 282 335
#     4  10  20  35  54  79 110 138 185 227 278 339
#
# _framework density 17.879118999999999
#
# number of rings (size 3 to 8) (size 9 to 14) (size 15 to 20)
#    0.000    2.000    1.429    3.000   10.000    0.286 
#    0.000    0.714    0.000    0.000    0.000    0.000 
#    0.000    0.571    0.286    0.000    0.000    0.000 
#
# Total GULP energy -311833.310519 kJ/mol
# GULP energy per Si atom -5568.451974 kJ/mol
# Density = 1.783843 g / cm^3
# Si number density = 17.879119 Si / 1000 Ang^3
#
#
#
# Elastic Constant Matrix: (Units=GPa)
#
#
# Indices 1 2 3 4 5 6 
#
# 1 50.1753 27.2478 31.3185 0.0000 0.0000 0.0000
# 2 27.2478 87.7248 37.8013 0.0000 0.0000 0.0000
# 3 31.3185 37.8013 110.3381 0.0000 0.0000 0.0000
# 4 0.0000 0.0000 0.0000 16.7222 0.0000 0.0000
# 5 0.0000 0.0000 0.0000 0.0000 14.5116 0.0000
# 6 0.0000 0.0000 0.0000 0.0000 0.0000 14.1124
#
#
#
# Elastic Compliance Matrix: (Units=1/GPa)
#
#
# Indices 1 2 3 4 5 6 
#
# 1 0.026570 -0.005869 -0.005531 0.000000 0.000000 0.000000
# 2 -0.005869 0.014670 -0.003360 0.000000 0.000000 0.000000
# 3 -0.005531 -0.003360 0.011784 0.000000 0.000000 0.000000
# 4 0.000000 0.000000 0.000000 0.059801 0.000000 0.000000
# 5 0.000000 0.000000 0.000000 0.000000 0.068910 0.000000
# 6 0.000000 0.000000 0.000000 0.000000 0.000000 0.070860
#
#
# Mechanical properties :
#
#
# Convention : Reuss Voigt Hill
#
# Bulk Modulus (GPa) = 42.54658 48.99704 45.77181
# Shear Modulus (GPa) = 17.24437 19.19394 18.21916
#
# Velocity S-wave (km/s) = 3.10901 3.28005 3.19567
# Velocity P-wave (km/s) = 6.06105 6.46599 6.26679
#
# Compressibility (1/GPa) = 0.02350365
#
# Stress axis : x y z
#
# Youngs Moduli (GPa) = 37.63681 68.16535 84.86078
#
# Poissons Ratio (x) = 0.40009 0.46934
# Poissons Ratio (y) = 0.22091 0.28513
# Poissons Ratio (z) = 0.20816 0.22903
#
# Static dielectric constant tensor:
#      x y z
#    x 1.661720 0.000000 0.000000 
#    y 0.000000 1.627320 0.000000 
#    z 0.000000 0.000000 1.752190 
# 
# From -- ./inp_files/5344.got.cif
#   From: 2010.05.17/outbox.cif.g08.bks.cpg/sg48_3_cif.got.tgz:5344.got - 2010.06.03 20:39:00.
