data_PCOD9389407
_publ_section_title
;
Structure prediction by ZEFSAII (Michael W. Deem and Ramdas Pophale) SiO2 
 PCOD9389407
Probable space group: P M M M
;
_chemical_formula_sum "Si O2"
_cell_formula_units_Z 64
_cell_length_a 15.000000
_cell_length_b 24.000000
_cell_length_c 9.000000
_cell_angle_alpha 90.000000
_cell_angle_beta 90.000000
_cell_angle_gamma 90.000000
_cell_volume 3240.000000
_symmetry_space_group_name_H-M "P M M M"
_symmetry_group_IT_number 47
_symmetry_cell_setting 'orthorhombic'
loop_
_space_group_symop_operation_xyz
x,y,z
-x,-y,z
x,-y,-z
-x,y,-z
-x,-y,-z
x,y,-z
-x,y,z
x,-y,z
loop_
_atom_site_type_symbol
_atom_site_label
_atom_site_fract_x
_atom_site_fract_y
_atom_site_fract_z
Si Si1 0.782208 0.560049 0.681292
Si Si2 0.709661 0.061159 0.821484
Si Si3 0.608406 0.275348 0.168799
Si Si4 0.606775 0.837589 0.324668
Si Si5 0.895656 0.664568 0.321775
Si Si6 0.108271 0.776068 0.168641
Si Si7 0.600567 0.609153 0.321222
Si Si8 0.899598 0.099932 0.818967
O O1 0.785197 0.561046 0.500000
O O2 0.816291 0.500000 0.730221
O O3 0.839916 0.612037 0.733643
O O4 0.679098 0.567958 0.724276
O O5 0.656435 0.109370 0.740837
O O6 0.814553 0.063427 0.780429
O O7 0.673676 0.000000 0.786247
O O8 0.704412 0.069383 0.000000
O O9 0.500000 0.272435 0.166256
O O10 0.639419 0.218187 0.242380
O O11 0.628285 0.329907 0.264162
O O12 0.639719 0.281044 0.000000
O O13 0.621442 0.832096 0.500000
O O14 0.500000 0.842872 0.300319
O O15 0.890539 0.666511 0.500000
O O16 0.860619 0.722843 0.258636
O O17 0.000000 0.658282 0.281949
O O18 0.124951 0.837395 0.231575
O O19 0.000000 0.773173 0.163275
O O20 0.141788 0.773489 0.000000
O O21 0.597849 0.610067 0.500000
O O22 0.500000 0.596427 0.268238
O O23 0.000000 0.084804 0.768757
O O24 0.904223 0.101679 0.000000
#
# Coordination Sequence:
#
# PCOD9389407 Si02
#       8
#     8   8   8   8   8   8   8   8
#     4   9  18  31  46  67  94 124 164 208 241 277
#     4  10  21  35  52  77 106 136 174 216 254 296
#     4   9  17  31  53  79 104 128 157 198 250 305
#     4  10  21  37  56  76 101 135 172 211 256 305
#     4   9  17  29  46  68  93 120 152 195 244 288
#     4   8  14  27  48  71  95 124 156 191 236 291
#     4   9  17  30  49  72  98 127 158 195 241 292
#     4   8  15  30  52  77 104 133 166 205 249 299
#
# _framework density 19.753086
#
# number of rings (size 3 to 8) (size 9 to 14) (size 15 to 20)
#    0.000    3.000    0.000    1.500    0.000    4.500 
#    0.000    8.750    0.000    2.625    0.000    4.375 
#    0.000    0.000    0.000    0.000    0.000    0.000 
#
# Total GULP energy -356761.189688 kJ/mol
# GULP energy per Si atom -5574.393589 kJ/mol
# Density = 1.970813 g / cm^3
# Si number density = 19.753086 Si / 1000 Ang^3
#
#
#
# Elastic Constant Matrix: (Units=GPa)
#
#
# Indices 1 2 3 4 5 6 
#
# 1 27.2797 15.1525 12.9074 0.0000 0.0000 0.0000
# 2 15.1525 75.9694 7.6072 0.0000 0.0000 0.0000
# 3 12.9074 7.6072 -0.8885 0.0000 0.0000 0.0000
# 4 0.0000 0.0000 0.0000 17.9684 0.0000 0.0000
# 5 0.0000 0.0000 0.0000 0.0000 11.3410 0.0000
# 6 0.0000 0.0000 0.0000 0.0000 0.0000 50.2790
#
#
#
# Elastic Compliance Matrix: (Units=1/GPa)
#
#
# Indices 1 2 3 4 5 6 
#
# 1 0.009721 -0.008657 0.067094 0.000000 0.000000 0.000000
# 2 -0.008657 0.014797 0.000926 0.000000 0.000000 0.000000
# 3 0.067094 0.000926 -0.142889 0.000000 0.000000 0.000000
# 4 0.000000 0.000000 0.000000 0.055653 0.000000 0.000000
# 5 0.000000 0.000000 0.000000 0.000000 0.088176 0.000000
# 6 0.000000 0.000000 0.000000 0.000000 0.000000 0.019889
#
#
# Mechanical properties :
#
#
# Convention : Reuss Voigt Hill
#
# Bulk Modulus (GPa) = 2830.41506 19.29943 1424.85724
# Shear Modulus (GPa) = -68.24961 20.36392 -23.94284
#
# Velocity S-wave (km/s) = -5.88442 3.21428 -3.48531
# Velocity P-wave (km/s) = 37.28056 4.85459 26.58389
#
# Compressibility (1/GPa) = 0.00035331
#
# Stress axis : x y z
#
# Youngs Moduli (GPa) = 102.87340 67.58030 -6.99842
#
# Poissons Ratio (x) = 0.58506 0.46955
# Poissons Ratio (y) = 0.89060 0.00648
# Poissons Ratio (z) = -6.90215 -0.06258
#
# Static dielectric constant tensor:
#      x y z
#    x 1.722670 0.000000 0.000000 
#    y 0.000000 1.691590 0.000000 
#    z 0.000000 0.000000 1.667800 
# 
# From -- ./inp_files/7776.got.cif
#   From: 2010.05.17/outbox.ucp.g08.bks.cvg/sg47_4_cif.got.tgz:7776.got - 2010.06.11 16:36:43.
