data_PCOD9389789
_publ_section_title
;
Structure prediction by ZEFSAII (Michael W. Deem and Ramdas Pophale) SiO2 
 PCOD9389789
Probable space group: P N N N
;
_chemical_formula_sum "Si O2"
_cell_formula_units_Z 58
_cell_length_a 9.601758
_cell_length_b 17.022427
_cell_length_c 18.091885
_cell_angle_alpha 90.000000
_cell_angle_beta 90.000000
_cell_angle_gamma 90.000000
_cell_volume 2957.032208
_symmetry_space_group_name_H-M "P N N N"
_symmetry_group_IT_number 48
_space_group.IT_coordinate_system_code '2'
_symmetry_cell_setting 'orthorhombic'
loop_
_space_group_symop_operation_xyz
x,y,z
1/2-x,1/2-y,z
x,1/2-y,1/2-z
1/2-x,y,1/2-z
-x,-y,-z
1/2+x,1/2+y,-z
-x,1/2+y,1/2+z
1/2+x,-y,1/2+z
loop_
_atom_site_type_symbol
_atom_site_label
_atom_site_fract_x
_atom_site_fract_y
_atom_site_fract_z
Si Si1 0.702604 0.598824 0.471617
Si Si2 0.083879 0.661574 0.265577
Si Si3 0.518378 0.829369 0.431144
Si Si4 0.891880 0.296563 0.030305
Si Si5 0.083682 0.142902 0.366137
Si Si6 0.960331 0.460198 0.859506
Si Si7 0.250000 0.250000 0.250000
Si Si8 0.273644 0.935398 0.473439
O O1 0.655247 0.630840 0.552307
O O2 0.576888 0.570203 0.418226
O O3 0.785604 0.519335 0.490318
O O4 0.818020 0.655348 0.436620
O O5 0.033422 0.750000 0.250000
O O6 0.250000 0.661348 0.250000
O O7 0.040030 0.653811 0.350049
O O8 0.024616 0.593864 0.212711
O O9 0.481757 0.743563 0.464733
O O10 0.418314 0.889030 0.476393
O O11 0.750000 0.250000 0.029346
O O12 0.962451 0.297349 0.109483
O O13 0.843681 0.384914 0.015384
O O14 0.169282 0.189397 0.304553
O O15 0.035477 0.054325 0.344996
O O16 0.805435 0.445806 0.894506
#
# Coordination Sequence:
#
# PCOD9389789 Si02
#       8
#     8   8   8   8   8   8   2   8
#     4  11  22  39  66  95 127 166 216 279 321 384
#     4  11  24  40  62  93 134 172 212 263 323 404
#     4  11  23  35  62  96 132 164 216 270 326 384
#     4  10  20  38  67  93 123 170 223 274 321 385
#     4  11  23  44  67  95 130 173 219 277 330 400
#     4  11  21  40  69  91 129 179 215 257 335 391
#     4  12  28  40  66 100 134 166 224 278 348 388
#     4  10  18  38  61  93 117 164 220 260 316 378
#
# _framework density 19.614260000000002
#
# number of rings (size 3 to 8) (size 9 to 14) (size 15 to 20)
#    0.000    1.241    4.138    2.897    4.828    0.552 
#    0.000    3.793    3.034    0.000    0.000    0.000 
#    0.000    0.000    0.000    0.000    0.000    0.000 
#
# Total GULP energy -323035.728704 kJ/mol
# GULP energy per Si atom -5569.581529 kJ/mol
# Density = 1.956962 g / cm^3
# Si number density = 19.614260 Si / 1000 Ang^3
#
#
#
# Elastic Constant Matrix: (Units=GPa)
#
#
# Indices 1 2 3 4 5 6 
#
# 1 77.9084 37.1799 31.0400 0.0000 0.0000 0.0000
# 2 37.1799 93.4810 58.3244 0.0000 0.0000 0.0000
# 3 31.0400 58.3244 107.6741 0.0000 0.0000 0.0000
# 4 0.0000 0.0000 0.0000 32.0138 0.0000 0.0000
# 5 0.0000 0.0000 0.0000 0.0000 -16.4305 0.0000
# 6 0.0000 0.0000 0.0000 0.0000 0.0000 -10.5601
#
#
#
# Elastic Compliance Matrix: (Units=1/GPa)
#
#
# Indices 1 2 3 4 5 6 
#
# 1 0.016062 -0.005286 -0.001767 0.000000 0.000000 0.000000
# 2 -0.005286 0.017898 -0.008171 0.000000 0.000000 0.000000
# 3 -0.001767 -0.008171 0.014223 0.000000 0.000000 0.000000
# 4 0.000000 0.000000 0.000000 0.031237 0.000000 0.000000
# 5 0.000000 0.000000 0.000000 0.000000 -0.060862 0.000000
# 6 0.000000 0.000000 0.000000 0.000000 0.000000 -0.094696
#
#
# Mechanical properties :
#
#
# Convention : Reuss Voigt Hill
#
# Bulk Modulus (GPa) = 56.38656 59.12803 57.75730
# Shear Modulus (GPa) = -125.69189 11.17258 -57.25966
#
# Velocity S-wave (km/s) = -8.01380 2.38925 -5.40890
# Velocity P-wave (km/s) = 7.53776 6.14998 3.08185
#
# Compressibility (1/GPa) = 0.01773472
#
# Stress axis : x y z
#
# Youngs Moduli (GPa) = 62.25805 55.87318 70.31003
#
# Poissons Ratio (x) = 0.29533 0.12425
# Poissons Ratio (y) = 0.32908 0.57450
# Poissons Ratio (z) = 0.11002 0.45654
#
# Static dielectric constant tensor:
#      x y z
#    x 1.737630 0.000000 0.000000 
#    y 0.000000 1.722710 0.000000 
#    z 0.000000 0.000000 1.715450 
# 
# From -- ./inp_files/30483.got.cif
#   From: 2010.05.17/outbox.cif.g08.bks.cpg/sg48_16_cif.got.tgz:30483.got - 2010.06.03 20:39:00.
