data_PCOD9389845
_publ_section_title
;
Structure prediction by ZEFSAII (Michael W. Deem and Ramdas Pophale) SiO2 
 PCOD9389845
Probable space group: P N N N
;
_chemical_formula_sum "Si O2"
_cell_formula_units_Z 36
_cell_length_a 7.571815
_cell_length_b 10.484716
_cell_length_c 21.329728
_cell_angle_alpha 90.000000
_cell_angle_beta 90.000000
_cell_angle_gamma 90.000000
_cell_volume 1693.331483
_symmetry_space_group_name_H-M "P N N N"
_symmetry_group_IT_number 48
_space_group.IT_coordinate_system_code '2'
_symmetry_cell_setting 'orthorhombic'
loop_
_space_group_symop_operation_xyz
x,y,z
1/2-x,1/2-y,z
x,1/2-y,1/2-z
1/2-x,y,1/2-z
-x,-y,-z
1/2+x,1/2+y,-z
-x,1/2+y,1/2+z
1/2+x,-y,1/2+z
loop_
_atom_site_type_symbol
_atom_site_label
_atom_site_fract_x
_atom_site_fract_y
_atom_site_fract_z
Si Si1 0.964353 0.606609 0.181703
Si Si2 0.391635 0.003168 0.937204
Si Si3 0.466325 0.098055 0.677951
Si Si4 0.026089 0.584254 0.562654
Si Si5 0.250000 0.250000 0.500765
O O1 0.012854 0.517086 0.123687
O O2 0.025869 0.568171 0.250895
O O3 0.748938 0.597498 0.181277
O O4 0.016162 0.753338 0.167921
O O5 0.237231 0.900022 0.931118
O O6 0.293855 0.137431 0.950928
O O7 0.500000 0.000000 0.000000
O O8 0.524959 0.000077 0.623926
O O9 0.000000 0.500000 0.500000
O O10 0.909067 0.706705 0.545170
#
# Coordination Sequence:
#
# PCOD9389845 Si02
#       5
#     8   8   8   8   4
#     4   8  13  24  45  76 103 122 159 211 265 315
#     4  10  19  31  51  77 103 133 171 219 269 321
#     4   8  13  24  47  74 100 128 159 210 266 315
#     4   9  17  30  49  73 103 138 174 213 262 320
#     4  10  20  34  50  72 104 140 178 220 264 318
#
# _framework density 21.259865000000001
#
# number of rings (size 3 to 8) (size 9 to 14) (size 15 to 20)
#    0.000    3.111    0.000    5.333    0.000    0.889 
#    0.000    0.000    0.000    8.000    0.000   18.667 
#    0.000    0.000    0.000    0.000    0.000    0.000 
#
# Total GULP energy -200449.299292 kJ/mol
# GULP energy per Si atom -5568.036091 kJ/mol
# Density = 2.121148 g / cm^3
# Si number density = 21.259865 Si / 1000 Ang^3
#
#
#
# Elastic Constant Matrix: (Units=GPa)
#
#
# Indices 1 2 3 4 5 6 
#
# 1 56.5463 21.8416 28.6210 0.0000 0.0000 0.0000
# 2 21.8416 50.8233 33.1506 0.0000 0.0000 0.0000
# 3 28.6210 33.1506 201.7530 0.0000 0.0000 0.0000
# 4 0.0000 0.0000 0.0000 43.4288 0.0000 0.0000
# 5 0.0000 0.0000 0.0000 0.0000 14.5186 0.0000
# 6 0.0000 0.0000 0.0000 0.0000 0.0000 24.1576
#
#
#
# Elastic Compliance Matrix: (Units=1/GPa)
#
#
# Indices 1 2 3 4 5 6 
#
# 1 0.021733 -0.008209 -0.001734 0.000000 0.000000 0.000000
# 2 -0.008209 0.025138 -0.002966 0.000000 0.000000 0.000000
# 3 -0.001734 -0.002966 0.005690 0.000000 0.000000 0.000000
# 4 0.000000 0.000000 0.000000 0.023026 0.000000 0.000000
# 5 0.000000 0.000000 0.000000 0.000000 0.068877 0.000000
# 6 0.000000 0.000000 0.000000 0.000000 0.000000 0.041395
#
#
# Mechanical properties :
#
#
# Convention : Reuss Voigt Hill
#
# Bulk Modulus (GPa) = 37.39243 52.92768 45.16005
# Shear Modulus (GPa) = 22.66625 31.45496 27.06061
#
# Velocity S-wave (km/s) = 3.26874 3.85066 3.57157
# Velocity P-wave (km/s) = 5.64559 6.68728 6.18839
#
# Compressibility (1/GPa) = 0.02674338
#
# Stress axis : x y z
#
# Youngs Moduli (GPa) = 46.01264 39.77973 175.74847
#
# Poissons Ratio (x) = 0.32654 0.30480
# Poissons Ratio (y) = 0.37770 0.52128
# Poissons Ratio (z) = 0.07980 0.11799
#
# Static dielectric constant tensor:
#      x y z
#    x 6.483040 0.000000 0.000000 
#    y 0.000000 1.831210 0.000000 
#    z 0.000000 0.000000 1.849930 
# 
# From -- ./inp_files/11124.got.cif
#   From: 2010.05.17/outbox.cif.g08.bks.cpg/sg48_6_cif.got.tgz:11124.got - 2010.06.03 20:39:00.
