data_PCOD9389974
_publ_section_title
;
Structure prediction by ZEFSAII (Michael W. Deem and Ramdas Pophale) SiO2 
 PCOD9389974
Probable space group: P N N N
;
_chemical_formula_sum "Si O2"
_cell_formula_units_Z 56
_cell_length_a 9.379669
_cell_length_b 20.743552
_cell_length_c 14.650970
_cell_angle_alpha 90.000000
_cell_angle_beta 90.000000
_cell_angle_gamma 90.000000
_cell_volume 2850.604827
_symmetry_space_group_name_H-M "P N N N"
_symmetry_group_IT_number 48
_space_group.IT_coordinate_system_code '2'
_symmetry_cell_setting 'orthorhombic'
loop_
_space_group_symop_operation_xyz
x,y,z
1/2-x,1/2-y,z
x,1/2-y,1/2-z
1/2-x,y,1/2-z
-x,-y,-z
1/2+x,1/2+y,-z
-x,1/2+y,1/2+z
1/2+x,-y,1/2+z
loop_
_atom_site_type_symbol
_atom_site_label
_atom_site_fract_x
_atom_site_fract_y
_atom_site_fract_z
Si Si1 0.023205 0.403566 0.529696
Si Si2 0.230035 0.057210 0.131873
Si Si3 0.407517 0.218867 0.427925
Si Si4 0.690190 0.506712 0.154046
Si Si5 0.495805 0.142209 0.081128
Si Si6 0.517487 0.114207 0.282919
Si Si7 0.799563 0.053103 0.519091
O O1 0.103994 0.441000 0.446921
O O2 0.075842 0.330543 0.512364
O O3 0.077400 0.440921 0.618364
O O4 0.853347 0.410747 0.522122
O O5 0.337050 0.113845 0.100025
O O6 0.128127 0.071174 0.218638
O O7 0.307556 0.990105 0.110197
O O8 0.250000 0.250000 0.411980
O O9 0.498524 0.282933 0.441503
O O10 0.469054 0.176116 0.342954
O O11 0.750000 0.529684 0.250000
O O12 0.629111 0.435260 0.175075
O O13 0.797143 0.494559 0.069578
O O14 0.563218 0.133469 0.181893
O O15 0.574582 0.101653 0.004015
#
# Coordination Sequence:
#
# PCOD9389974 Si02
#       7
#     8   8   8   8   8   8   8
#     4  10  20  38  60  75 113 159 199 238 296 357
#     4  10  19  35  54  78 113 153 190 238 291 356
#     4  11  22  37  54  80 115 164 200 229 297 376
#     4  11  19  37  61  86 109 150 200 255 298 342
#     4  12  23  32  54  89 119 152 193 241 293 366
#     4  11  20  35  56  80 119 154 194 240 300 360
#     4  11  20  35  56  82 116 148 194 246 298 350
#
# _framework density 19.644955
#
# number of rings (size 3 to 8) (size 9 to 14) (size 15 to 20)
#    0.000    1.143    8.571    2.143    0.000    1.143 
#    0.000    0.000    0.000    0.429    0.000    0.000 
#    0.000    0.000    0.000    0.000    0.000    0.000 
#
# Total GULP energy -311914.711972 kJ/mol
# GULP energy per Si atom -5569.905571 kJ/mol
# Density = 1.960024 g / cm^3
# Si number density = 19.644955 Si / 1000 Ang^3
#
#
#
# Elastic Constant Matrix: (Units=GPa)
#
#
# Indices 1 2 3 4 5 6 
#
# 1 43.0905 24.5261 6.0034 0.0000 0.0000 0.0000
# 2 24.5261 144.1169 37.4660 0.0000 0.0000 0.0000
# 3 6.0034 37.4660 35.5978 0.0000 0.0000 0.0000
# 4 0.0000 0.0000 0.0000 28.6714 0.0000 0.0000
# 5 0.0000 0.0000 0.0000 0.0000 26.1137 0.0000
# 6 0.0000 0.0000 0.0000 0.0000 0.0000 28.5641
#
#
#
# Elastic Compliance Matrix: (Units=1/GPa)
#
#
# Indices 1 2 3 4 5 6 
#
# 1 0.025700 -0.004470 0.000370 0.000000 0.000000 0.000000
# 2 -0.004470 0.010330 -0.010118 0.000000 0.000000 0.000000
# 3 0.000370 -0.010118 0.038678 0.000000 0.000000 0.000000
# 4 0.000000 0.000000 0.000000 0.034878 0.000000 0.000000
# 5 0.000000 0.000000 0.000000 0.000000 0.038294 0.000000
# 6 0.000000 0.000000 0.000000 0.000000 0.000000 0.035009
#
#
# Mechanical properties :
#
#
# Convention : Reuss Voigt Hill
#
# Bulk Modulus (GPa) = 21.61115 39.86623 30.73869
# Shear Modulus (GPa) = 22.05088 26.99051 24.52069
#
# Velocity S-wave (km/s) = 3.35396 3.71066 3.53681
# Velocity P-wave (km/s) = 5.10132 6.22062 5.68857
#
# Compressibility (1/GPa) = 0.04627241
#
# Stress axis : x y z
#
# Youngs Moduli (GPa) = 38.91122 96.80609 25.85422
#
# Poissons Ratio (x) = 0.43271 -0.00958
# Poissons Ratio (y) = 0.17393 0.26160
# Poissons Ratio (z) = -0.01441 0.97951
#
# Static dielectric constant tensor:
#      x y z
#    x 1.797590 0.000000 0.000000 
#    y 0.000000 1.711230 0.000000 
#    z 0.000000 0.000000 1.825780 
# 
# From -- ./inp_files/25603.got.cif
#   From: 2010.05.17/outbox.cif.g08.bks.cpg/sg48_13_cif.got.tgz:25603.got - 2010.06.03 20:39:00.
