data_PCOD9389135
_publ_section_title
;
Structure prediction by ZEFSAII (Michael W. Deem and Ramdas Pophale) SiO2 
 PCOD9389135
Probable space group: P M M M
;
_chemical_formula_sum "Si O2"
_cell_formula_units_Z 44
_cell_length_a 16.034412
_cell_length_b 7.680025
_cell_length_c 17.765958
_cell_angle_alpha 90.000000
_cell_angle_beta 90.000000
_cell_angle_gamma 90.000000
_cell_volume 2187.783302
_symmetry_space_group_name_H-M "P M M M"
_symmetry_group_IT_number 47
_symmetry_cell_setting 'orthorhombic'
loop_
_space_group_symop_operation_xyz
x,y,z
-x,-y,z
x,-y,-z
-x,y,-z
-x,-y,-z
x,y,-z
-x,y,z
x,-y,z
loop_
_atom_site_type_symbol
_atom_site_label
_atom_site_fract_x
_atom_site_fract_y
_atom_site_fract_z
Si Si1 0.096430 0.286284 0.000000
Si Si2 0.588916 0.296090 0.303921
Si Si3 0.590549 0.791208 0.872460
Si Si4 0.094504 0.790301 0.415759
Si Si5 0.766550 0.291578 0.704696
Si Si6 0.774477 0.291812 0.124658
O O1 0.151253 0.227957 0.928366
O O2 0.095502 0.500000 0.000000
O O3 0.000000 0.230358 0.000000
O O4 0.500000 0.217506 0.327875
O O5 0.586764 0.500000 0.324635
O O6 0.591443 0.282600 0.212753
O O7 0.678294 0.221672 0.327257
O O8 0.500000 0.737463 0.905778
O O9 0.680505 0.741950 0.905574
O O10 0.589795 0.000000 0.868366
O O11 0.118540 0.730257 0.500000
O O12 0.158335 0.739443 0.351450
O O13 0.000000 0.729440 0.400745
O O14 0.092442 0.000000 0.417622
O O15 0.756257 0.500000 0.712069
O O16 0.780123 0.223370 0.789612
O O17 0.783280 0.500000 0.127674
#
# Coordination Sequence:
#
# PCOD9389135 Si02
#       6
#     4   8   8   8   8   8
#     4   9  18  34  54  71  90 122 163 203 240 279
#     4   8  14  26  44  67  97 129 157 187 225 271
#     4   9  16  26  43  68  96 125 156 191 233 278
#     4   9  19  35  51  67  91 124 158 191 233 285
#     4   9  17  28  47  76 100 119 151 194 235 275
#     4   9  18  32  50  72  96 124 159 196 234 278
#
# _framework density 20.111681000000001
#
# number of rings (size 3 to 8) (size 9 to 14) (size 15 to 20)
#    0.000    3.182    0.000    2.182    0.000    5.455 
#    0.000    3.636    0.000    4.364    0.000    3.818 
#    0.000    0.000    0.000    0.000    0.000    0.000 
#
# Total GULP energy -244986.039977 kJ/mol
# GULP energy per Si atom -5567.864545 kJ/mol
# Density = 2.006591 g / cm^3
# Si number density = 20.111681 Si / 1000 Ang^3
#
#
#
# Elastic Constant Matrix: (Units=GPa)
#
#
# Indices 1 2 3 4 5 6 
#
# 1 217.5155 0.8393 92.8251 0.0000 0.0000 0.0000
# 2 0.8393 34.4434 1.7303 0.0000 0.0000 0.0000
# 3 92.8251 1.7303 84.0313 0.0000 0.0000 0.0000
# 4 0.0000 0.0000 0.0000 14.5859 0.0000 0.0000
# 5 0.0000 0.0000 0.0000 0.0000 -71.4986 0.0000
# 6 0.0000 0.0000 0.0000 0.0000 0.0000 43.2828
#
#
#
# Elastic Compliance Matrix: (Units=1/GPa)
#
#
# Indices 1 2 3 4 5 6 
#
# 1 0.008700 0.000271 -0.009616 0.000000 0.000000 0.000000
# 2 0.000271 0.029072 -0.000898 0.000000 0.000000 0.000000
# 3 -0.009616 -0.000898 0.022541 0.000000 0.000000 0.000000
# 4 0.000000 0.000000 0.000000 0.068559 0.000000 0.000000
# 5 0.000000 0.000000 0.000000 0.000000 -0.013986 0.000000
# 6 0.000000 0.000000 0.000000 0.000000 0.000000 0.023104
#
#
# Mechanical properties :
#
#
# Convention : Reuss Voigt Hill
#
# Bulk Modulus (GPa) = 25.10874 58.53106 41.81990
# Shear Modulus (GPa) = 29.11191 13.31373 21.21282
#
# Velocity S-wave (km/s) = 3.80875 2.57571 3.25122
# Velocity P-wave (km/s) = 5.64392 6.16538 5.91040
#
# Compressibility (1/GPa) = 0.03982676
#
# Stress axis : x y z
#
# Youngs Moduli (GPa) = 114.94301 34.39782 44.36340
#
# Poissons Ratio (x) = -0.00932 0.42660
# Poissons Ratio (y) = -0.03116 0.03984
# Poissons Ratio (z) = 1.10529 0.03089
#
# Static dielectric constant tensor:
#      x y z
#    x 1.760830 0.000000 0.000000 
#    y 0.000000 1.767820 0.000000 
#    z 0.000000 0.000000 1.694780 
# 
# From -- ./inp_files/9001.got.cif
#   From: 2010.05.17/outbox.cif.g08.bks.cpg/sg47_5_cif.got.tgz:9001.got - 2010.06.03 20:15:42.
