data_PCOD9389561
_publ_section_title
;
Structure prediction by ZEFSAII (Michael W. Deem and Ramdas Pophale) SiO2 
 PCOD9389561
Probable space group: P N N N
;
_chemical_formula_sum "Si O2"
_cell_formula_units_Z 52
_cell_length_a 8.645665
_cell_length_b 15.757930
_cell_length_c 19.453832
_cell_angle_alpha 90.000000
_cell_angle_beta 90.000000
_cell_angle_gamma 90.000000
_cell_volume 2650.346960
_symmetry_space_group_name_H-M "P N N N"
_symmetry_group_IT_number 48
_space_group.IT_coordinate_system_code '2'
_symmetry_cell_setting 'orthorhombic'
loop_
_space_group_symop_operation_xyz
x,y,z
1/2-x,1/2-y,z
x,1/2-y,1/2-z
1/2-x,y,1/2-z
-x,-y,-z
1/2+x,1/2+y,-z
-x,1/2+y,1/2+z
1/2+x,-y,1/2+z
loop_
_atom_site_type_symbol
_atom_site_label
_atom_site_fract_x
_atom_site_fract_y
_atom_site_fract_z
Si Si1 0.600156 0.193609 0.043956
Si Si2 0.750000 0.497259 0.750000
Si Si3 0.534983 0.926529 0.859769
Si Si4 0.068448 0.228005 0.591824
Si Si5 0.452549 0.601577 0.140237
Si Si6 0.237852 0.524312 0.026376
Si Si7 0.292576 0.057020 0.881838
O O1 0.750000 0.250000 0.058748
O O2 0.504746 0.165741 0.110839
O O3 0.490447 0.233580 0.986206
O O4 0.661106 0.107849 0.006676
O O5 0.862301 0.557673 0.793666
O O6 0.653494 0.436191 0.800358
O O7 0.625033 0.976151 0.921041
O O8 0.372752 0.974725 0.851031
O O9 0.250000 0.250000 0.594419
O O10 0.078625 0.131894 0.619692
O O11 0.962755 0.296332 0.631440
O O12 0.384224 0.557550 0.070560
O O13 0.631035 0.577944 0.153365
O O14 0.254283 0.461575 0.961414
#
# Coordination Sequence:
#
# PCOD9389561 Si02
#       7
#     8   4   8   8   8   8   8
#     4  11  18  32  57  89 120 143 188 247 309 353
#     4  10  24  42  53  80 115 170 220 236 292 370
#     4  10  20  36  57  81 119 159 195 244 289 359
#     4  10  19  32  53  86 124 150 181 245 314 356
#     4  10  21  34  54  83 120 157 199 238 291 363
#     4  10  17  31  56  86 120 150 182 246 303 348
#     4  10  18  33  56  85 119 147 193 248 301 348
#
# _framework density 19.620073999999999
#
# number of rings (size 3 to 8) (size 9 to 14) (size 15 to 20)
#    0.000    1.846    4.615    1.385    0.000    0.615 
#    0.000    1.538    0.000    2.769    0.000   22.077 
#    0.000    0.000    0.000    0.000    0.000    0.000 
#
# Total GULP energy -289897.310940 kJ/mol
# GULP energy per Si atom -5574.948287 kJ/mol
# Density = 1.957542 g / cm^3
# Si number density = 19.620074 Si / 1000 Ang^3
#
#
#
# Elastic Constant Matrix: (Units=GPa)
#
#
# Indices 1 2 3 4 5 6 
#
# 1 72.5223 4.7362 28.6825 0.0000 0.0000 0.0000
# 2 4.7362 22.9329 10.6846 0.0000 0.0000 0.0000
# 3 28.6825 10.6846 73.4231 0.0000 0.0000 0.0000
# 4 0.0000 0.0000 0.0000 16.5856 0.0000 0.0000
# 5 0.0000 0.0000 0.0000 0.0000 20.9881 0.0000
# 6 0.0000 0.0000 0.0000 0.0000 0.0000 33.6077
#
#
#
# Elastic Compliance Matrix: (Units=1/GPa)
#
#
# Indices 1 2 3 4 5 6 
#
# 1 0.016312 -0.000429 -0.006310 0.000000 0.000000 0.000000
# 2 -0.000429 0.046788 -0.006641 0.000000 0.000000 0.000000
# 3 -0.006310 -0.006641 0.017051 0.000000 0.000000 0.000000
# 4 0.000000 0.000000 0.000000 0.060293 0.000000 0.000000
# 5 0.000000 0.000000 0.000000 0.000000 0.047646 0.000000
# 6 0.000000 0.000000 0.000000 0.000000 0.000000 0.029755
#
#
# Mechanical properties :
#
#
# Convention : Reuss Voigt Hill
#
# Bulk Modulus (GPa) = 18.72951 28.56497 23.64724
# Shear Modulus (GPa) = 19.05460 22.55460 20.80460
#
# Velocity S-wave (km/s) = 3.11976 3.39421 3.25987
# Velocity P-wave (km/s) = 4.74805 5.47280 5.12326
#
# Compressibility (1/GPa) = 0.05339167
#
# Stress axis : x y z
#
# Youngs Moduli (GPa) = 61.30282 21.37287 58.64735
#
# Poissons Ratio (x) = 0.00917 0.37006
# Poissons Ratio (y) = 0.02630 0.38948
# Poissons Ratio (z) = 0.38682 0.14194
#
# Static dielectric constant tensor:
#      x y z
#    x 1.701040 0.000000 0.000000 
#    y 0.000000 1.757740 0.000000 
#    z 0.000000 0.000000 1.702250 
# 
# From -- ./inp_files/30444.got.cif
#   From: 2010.05.17/outbox.cif.g08.bks.cpg/sg48_16_cif.got.tgz:30444.got - 2010.06.03 20:39:00.
