data_PCOD9389430
_publ_section_title
;
Structure prediction by ZEFSAII (Michael W. Deem and Ramdas Pophale) SiO2 
 PCOD9389430
Probable space group: P M M M
;
_chemical_formula_sum "Si O2"
_cell_formula_units_Z 48
_cell_length_a 15.000000
_cell_length_b 18.000000
_cell_length_c 9.000000
_cell_angle_alpha 90.000000
_cell_angle_beta 90.000000
_cell_angle_gamma 90.000000
_cell_volume 2430.000000
_symmetry_space_group_name_H-M "P M M M"
_symmetry_group_IT_number 47
_symmetry_cell_setting 'orthorhombic'
loop_
_space_group_symop_operation_xyz
x,y,z
-x,-y,z
x,-y,-z
-x,y,-z
-x,-y,-z
x,y,-z
-x,y,z
x,-y,z
loop_
_atom_site_type_symbol
_atom_site_label
_atom_site_fract_x
_atom_site_fract_y
_atom_site_fract_z
Si Si1 0.896302 0.811026 0.820237
Si Si2 0.752518 0.085245 0.679143
Si Si3 0.106180 0.349629 0.166501
Si Si4 0.606080 0.348780 0.834634
Si Si5 0.603275 0.200080 0.321988
Si Si6 0.854919 0.500000 0.663431
Si Si7 0.356479 0.500000 0.665055
O O1 0.836326 0.874401 0.751558
O O2 0.862698 0.729236 0.769116
O O3 0.000000 0.820773 0.779557
O O4 0.890980 0.810729 0.000000
O O5 0.760147 0.088250 0.500000
O O6 0.665130 0.131837 0.722102
O O7 0.746082 0.000000 0.724447
O O8 0.120905 0.424363 0.254906
O O9 0.000000 0.339617 0.154895
O O10 0.142082 0.359362 0.000000
O O11 0.500000 0.339109 0.844855
O O12 0.638616 0.276377 0.748557
O O13 0.619373 0.425540 0.750717
O O14 0.643811 0.352659 0.000000
O O15 0.605742 0.207948 0.500000
O O16 0.500000 0.188180 0.279499
O O17 0.894862 0.500000 0.500000
O O18 0.749181 0.500000 0.653357
O O19 0.395590 0.500000 0.500000
#
# Coordination Sequence:
#
# PCOD9389430 Si02
#       7
#     8   8   8   8   8   4   4
#     4   9  20  39  61  85 113 149 193 236 282 339
#     4  10  22  38  58  87 119 149 185 232 284 339
#     4   9  19  37  58  78 104 142 186 229 275 328
#     4  10  21  37  57  81 108 141 186 236 280 324
#     4   9  19  37  60  84 114 153 191 229 280 340
#     4  11  24  35  48  78 114 145 182 227 272 322
#     4  11  24  37  50  76 114 151 186 225 272 328
#
# _framework density 19.753086
#
# number of rings (size 3 to 8) (size 9 to 14) (size 15 to 20)
#    0.000    2.333    0.000    2.500    2.333    7.333 
#    0.000    5.000    0.000    0.000    0.000    3.500 
#    0.000    0.000    0.000    0.000    0.000    0.000 
#
# Total GULP energy -267715.205520 kJ/mol
# GULP energy per Si atom -5577.400115 kJ/mol
# Density = 1.970813 g / cm^3
# Si number density = 19.753086 Si / 1000 Ang^3
#
#
#
# Elastic Constant Matrix: (Units=GPa)
#
#
# Indices 1 2 3 4 5 6 
#
# 1 94.4776 71.5910 38.5700 0.0000 0.0000 0.0000
# 2 71.5910 232.0697 78.3856 0.0000 0.0000 0.0000
# 3 38.5700 78.3856 45.6373 0.0000 0.0000 0.0000
# 4 0.0000 0.0000 0.0000 31.4488 0.0000 0.0000
# 5 0.0000 0.0000 0.0000 0.0000 22.9510 0.0000
# 6 0.0000 0.0000 0.0000 0.0000 0.0000 34.4673
#
#
#
# Elastic Compliance Matrix: (Units=1/GPa)
#
#
# Indices 1 2 3 4 5 6 
#
# 1 0.016237 -0.000891 -0.012193 0.000000 0.000000 0.000000
# 2 -0.000891 0.010312 -0.016959 0.000000 0.000000 0.000000
# 3 -0.012193 -0.016959 0.061345 0.000000 0.000000 0.000000
# 4 0.000000 0.000000 0.000000 0.031798 0.000000 0.000000
# 5 0.000000 0.000000 0.000000 0.000000 0.043571 0.000000
# 6 0.000000 0.000000 0.000000 0.000000 0.000000 0.029013
#
#
# Mechanical properties :
#
#
# Convention : Reuss Voigt Hill
#
# Bulk Modulus (GPa) = 35.95953 83.25310 59.60632
# Shear Modulus (GPa) = 19.11088 30.01595 24.56342
#
# Velocity S-wave (km/s) = 3.11382 3.90238 3.53019
# Velocity P-wave (km/s) = 5.58318 7.90842 6.84525
#
# Compressibility (1/GPa) = 0.02780904
#
# Stress axis : x y z
#
# Youngs Moduli (GPa) = 61.58739 96.97475 16.30119
#
# Poissons Ratio (x) = 0.08636 0.19876
# Poissons Ratio (y) = 0.05485 0.27645
# Poissons Ratio (z) = 0.75094 1.64459
#
# Static dielectric constant tensor:
#      x y z
#    x 1.713570 0.000000 0.000000 
#    y 0.000000 1.772980 0.000000 
#    z 0.000000 0.000000 1.723780 
# 
# From -- ./inp_files/6475.got.cif
#   From: 2010.05.17/outbox.ucp.g08.bks.cvg/sg47_4_cif.got.tgz:6475.got - 2010.06.11 16:36:43.
