data_PCOD9389196
_publ_section_title
;
Structure prediction by ZEFSAII (Michael W. Deem and Ramdas Pophale) SiO2 
 PCOD9389196
Probable space group: P M M M
;
_chemical_formula_sum "Si O2"
_cell_formula_units_Z 52
_cell_length_a 20.245404
_cell_length_b 7.340352
_cell_length_c 15.362806
_cell_angle_alpha 90.000000
_cell_angle_beta 90.000000
_cell_angle_gamma 90.000000
_cell_volume 2283.041892
_symmetry_space_group_name_H-M "P M M M"
_symmetry_group_IT_number 47
_symmetry_cell_setting 'orthorhombic'
loop_
_space_group_symop_operation_xyz
x,y,z
-x,-y,z
x,-y,-z
-x,y,-z
-x,-y,-z
x,y,-z
-x,y,z
x,-y,z
loop_
_atom_site_type_symbol
_atom_site_label
_atom_site_fract_x
_atom_site_fract_y
_atom_site_fract_z
Si Si1 0.375683 0.723055 0.216530
Si Si2 0.928370 0.222742 0.716271
Si Si3 0.500000 0.277865 0.899744
Si Si4 0.807076 0.219760 0.599110
Si Si5 0.896874 0.789721 0.904957
Si Si6 0.742764 0.719684 0.097168
Si Si7 0.346143 0.711083 0.597161
O O1 0.375114 0.500000 0.218449
O O2 0.435568 0.777769 0.154405
O O3 0.307339 0.781138 0.171188
O O4 0.380074 0.787183 0.316224
O O5 0.864087 0.283917 0.663722
O O6 0.924687 0.287566 0.815907
O O7 0.000000 0.272437 0.678610
O O8 0.925526 0.000000 0.717337
O O9 0.500000 0.500000 0.901770
O O10 0.500000 0.217615 0.000000
O O11 0.823699 0.271364 0.500000
O O12 0.732604 0.283849 0.615979
O O13 0.804835 0.000000 0.603385
O O14 0.817416 0.786811 0.894489
O O15 0.918242 0.000000 0.908115
O O16 0.912154 0.708977 0.000000
O O17 0.745735 0.500000 0.100420
O O18 0.718533 0.769508 0.000000
O O19 0.356143 0.790393 0.500000
O O20 0.366051 0.500000 0.591676
#
# Coordination Sequence:
#
# PCOD9389196 Si02
#       7
#     8   8   4   8   8   8   8
#     4   9  16  26  41  62  88 116 144 174 209 249
#     4   9  17  28  42  61  84 109 138 173 212 253
#     4   9  16  26  41  63  92 121 147 177 212 248
#     4   9  17  29  46  67  87 108 139 178 215 251
#     4   9  17  28  42  61  83 107 138 174 210 250
#     4   9  16  26  42  63  84 106 135 173 215 253
#     4   9  17  29  45  65  89 115 141 171 211 255
#
# _framework density 22.776630000000001
#
# number of rings (size 3 to 8) (size 9 to 14) (size 15 to 20)
#    0.000    3.000    0.000    1.385    0.000    2.462 
#    0.000    3.462    0.000    4.154    0.000    6.462 
#    0.000    7.385    0.000    0.000    0.000    0.000 
#
# Total GULP energy -290319.797907 kJ/mol
# GULP energy per Si atom -5583.073037 kJ/mol
# Density = 2.272479 g / cm^3
# Si number density = 22.776630 Si / 1000 Ang^3
#
#
#
# Elastic Constant Matrix: (Units=GPa)
#
#
# Indices 1 2 3 4 5 6 
#
# 1 65.3472 -3.4931 65.2022 0.0000 0.0000 0.0000
# 2 -3.4931 87.8585 7.7636 0.0000 0.0000 0.0000
# 3 65.2022 7.7636 177.1447 0.0000 0.0000 0.0000
# 4 0.0000 0.0000 0.0000 -4.6419 0.0000 0.0000
# 5 0.0000 0.0000 0.0000 0.0000 -55.1459 0.0000
# 6 0.0000 0.0000 0.0000 0.0000 0.0000 13.0635
#
#
#
# Elastic Compliance Matrix: (Units=1/GPa)
#
#
# Indices 1 2 3 4 5 6 
#
# 1 0.024457 0.001775 -0.009080 0.000000 0.000000 0.000000
# 2 0.001775 0.011555 -0.001160 0.000000 0.000000 0.000000
# 3 -0.009080 -0.001160 0.009038 0.000000 0.000000 0.000000
# 4 0.000000 0.000000 0.000000 -0.215430 0.000000 0.000000
# 5 0.000000 0.000000 0.000000 0.000000 -0.018134 0.000000
# 6 0.000000 0.000000 0.000000 0.000000 0.000000 0.076549
#
#
# Mechanical properties :
#
#
# Convention : Reuss Voigt Hill
#
# Bulk Modulus (GPa) = 35.56086 52.14398 43.85242
# Shear Modulus (GPa) = -58.36939 8.04702 -25.16119
#
# Velocity S-wave (km/s) = -5.06779 1.88167 -3.32730
# Velocity P-wave (km/s) = 4.31238 5.25968 2.12928
#
# Compressibility (1/GPa) = 0.02812081
#
# Stress axis : x y z
#
# Youngs Moduli (GPa) = 40.88726 86.54286 110.64398
#
# Poissons Ratio (x) = -0.15359 1.00464
# Poissons Ratio (y) = -0.07256 0.12831
# Poissons Ratio (z) = 0.37125 0.10036
#
# Static dielectric constant tensor:
#      x y z
#    x 1.799480 0.000000 0.000000 
#    y 0.000000 1.888860 0.000000 
#    z 0.000000 0.000000 1.851570 
# 
# From -- ./inp_files/18596.got.cif
#   From: 2010.05.17/outbox.cif.g08.bks.cpg/sg47_10_cif.got.tgz:18596.got - 2010.06.03 20:15:42.
