data_PCOD9389173
_publ_section_title
;
Structure prediction by ZEFSAII (Michael W. Deem and Ramdas Pophale) SiO2 
 PCOD9389173
Probable space group: P M M M
;
_chemical_formula_sum "Si O2"
_cell_formula_units_Z 52
_cell_length_a 20.169310
_cell_length_b 13.775745
_cell_length_c 7.414646
_cell_angle_alpha 90.000000
_cell_angle_beta 90.000000
_cell_angle_gamma 90.000000
_cell_volume 2060.139159
_symmetry_space_group_name_H-M "P M M M"
_symmetry_group_IT_number 47
_symmetry_cell_setting 'orthorhombic'
loop_
_space_group_symop_operation_xyz
x,y,z
-x,-y,z
x,-y,-z
-x,y,-z
-x,-y,-z
x,y,-z
-x,y,z
x,-y,z
loop_
_atom_site_type_symbol
_atom_site_label
_atom_site_fract_x
_atom_site_fract_y
_atom_site_fract_z
Si Si1 0.255394 0.614763 0.703252
Si Si2 0.924224 0.000000 0.779815
Si Si3 0.599231 0.390273 0.794091
Si Si4 0.106204 0.392302 0.797386
Si Si5 0.283252 0.111063 0.781170
Si Si6 0.144490 0.802906 0.779647
Si Si7 0.571349 0.818642 0.778926
O O1 0.249749 0.652121 0.500000
O O2 0.264612 0.500000 0.684728
O O3 0.323287 0.641507 0.796998
O O4 0.186262 0.619224 0.805401
O O5 0.887592 0.096779 0.721441
O O6 0.000000 0.000000 0.724503
O O7 0.922101 0.000000 0.000000
O O8 0.590700 0.500000 0.717134
O O9 0.568912 0.293320 0.713824
O O10 0.576695 0.397460 0.000000
O O11 0.092227 0.500000 0.717074
O O12 0.097485 0.286327 0.712502
O O13 0.078969 0.394486 0.000000
O O14 0.223042 0.184418 0.731003
O O15 0.358137 0.136497 0.720507
O O16 0.267380 0.000000 0.727446
O O17 0.283860 0.112467 0.000000
O O18 0.141838 0.798101 0.000000
O O19 0.500000 0.864804 0.730051
O O20 0.573659 0.818158 0.000000
#
# Coordination Sequence:
#
# PCOD9389173 Si02
#       7
#     8   4   8   8   8   8   8
#     4   9  16  25  38  59  87 116 149 190 230 267
#     4   9  16  26  42  66  96 128 158 189 225 261
#     4   9  16  26  40  56  77 108 143 179 224 277
#     4   9  16  25  40  63  92 125 154 180 218 272
#     4   9  15  23  35  51  76 109 140 176 225 270
#     4   9  15  25  41  62  89 120 155 189 222 265
#     4   9  17  26  36  54  78 105 141 182 222 267
#
# _framework density 25.241012999999999
#
# number of rings (size 3 to 8) (size 9 to 14) (size 15 to 20)
#    0.000    3.000    0.769    1.385    0.000    4.923 
#    0.000    3.077    0.000    0.923    0.000    5.923 
#    0.000    1.231    0.000    7.846    0.000    8.615 
#
# Total GULP energy -289619.414168 kJ/mol
# GULP energy per Si atom -5569.604119 kJ/mol
# Density = 2.518356 g / cm^3
# Si number density = 25.241013 Si / 1000 Ang^3
#
#
#
# Elastic Constant Matrix: (Units=GPa)
#
#
# Indices 1 2 3 4 5 6 
#
# 1 101.2698 19.0077 8.3174 0.0000 0.0000 0.0000
# 2 19.0077 166.6038 8.3699 0.0000 0.0000 0.0000
# 3 8.3174 8.3699 93.3219 0.0000 0.0000 0.0000
# 4 0.0000 0.0000 0.0000 -5.5415 0.0000 0.0000
# 5 0.0000 0.0000 0.0000 0.0000 -17.4274 0.0000
# 6 0.0000 0.0000 0.0000 0.0000 0.0000 30.6260
#
#
#
# Elastic Compliance Matrix: (Units=1/GPa)
#
#
# Indices 1 2 3 4 5 6 
#
# 1 0.010150 -0.001118 -0.000804 0.000000 0.000000 0.000000
# 2 -0.001118 0.006152 -0.000452 0.000000 0.000000 0.000000
# 3 -0.000804 -0.000452 0.010828 0.000000 0.000000 0.000000
# 4 0.000000 0.000000 0.000000 -0.180457 0.000000 0.000000
# 5 0.000000 0.000000 0.000000 0.000000 -0.057381 0.000000
# 6 0.000000 0.000000 0.000000 0.000000 0.000000 0.032652
#
#
# Mechanical properties :
#
#
# Convention : Reuss Voigt Hill
#
# Bulk Modulus (GPa) = 44.67826 48.06507 46.37166
# Shear Modulus (GPa) = -30.14856 23.23144 -3.45856
#
# Velocity S-wave (km/s) = -3.45980 3.03708 -1.17183
# Velocity P-wave (km/s) = 1.33372 5.60198 4.07192
#
# Compressibility (1/GPa) = 0.02238225
#
# Stress axis : x y z
#
# Youngs Moduli (GPa) = 98.51772 162.53572 92.35438
#
# Poissons Ratio (x) = 0.18166 0.07429
# Poissons Ratio (y) = 0.11011 0.04176
# Poissons Ratio (z) = 0.07925 0.07350
#
# Static dielectric constant tensor:
#      x y z
#    x 2.019790 0.000000 0.000000 
#    y 0.000000 2.121420 0.000000 
#    z 0.000000 0.000000 1.992740 
# 
# From -- ./inp_files/11039.got.cif
#   From: 2010.05.17/outbox.cif.g08.bks.cpg/sg47_6_cif.got.tgz:11039.got - 2010.06.03 20:15:42.
