data_PCOD9389368
_publ_section_title
;
Structure prediction by ZEFSAII (Michael W. Deem and Ramdas Pophale) SiO2 
 PCOD9389368
Probable space group: P M M M
;
_chemical_formula_sum "Si O2"
_cell_formula_units_Z 52
_cell_length_a 9.000000
_cell_length_b 15.000000
_cell_length_c 21.000000
_cell_angle_alpha 90.000000
_cell_angle_beta 90.000000
_cell_angle_gamma 90.000000
_cell_volume 2835.000000
_symmetry_space_group_name_H-M "P M M M"
_symmetry_group_IT_number 47
_symmetry_cell_setting 'orthorhombic'
loop_
_space_group_symop_operation_xyz
x,y,z
-x,-y,z
x,-y,-z
-x,y,-z
-x,-y,-z
x,y,-z
-x,y,z
x,-y,z
loop_
_atom_site_type_symbol
_atom_site_label
_atom_site_fract_x
_atom_site_fract_y
_atom_site_fract_z
Si Si1 0.679867 0.203121 0.928912
Si Si2 0.179583 0.104548 0.192789
Si Si3 0.331611 0.398988 0.244957
Si Si4 0.677159 0.815677 0.426844
Si Si5 0.166222 0.000000 0.423388
Si Si6 0.673586 0.403142 0.907923
Si Si7 0.174010 0.239490 0.695616
O O1 0.500000 0.203890 0.920643
O O2 0.750470 0.149186 0.870397
O O3 0.733131 0.306715 0.928053
O O4 0.711584 0.166740 0.000000
O O5 0.224396 0.161042 0.255687
O O6 0.000000 0.110675 0.188307
O O7 0.219566 0.000000 0.197838
O O8 0.500000 0.369344 0.262152
O O9 0.311313 0.500000 0.268122
O O10 0.324927 0.401252 0.168597
O O11 0.210055 0.331163 0.269147
O O12 0.723260 0.795362 0.500000
O O13 0.500000 0.817893 0.425685
O O14 0.743662 0.911843 0.408285
O O15 0.741357 0.755256 0.371346
O O16 0.152838 0.000000 0.500000
O O17 0.000000 0.000000 0.395508
O O18 0.500000 0.404209 0.927434
O O19 0.738175 0.500000 0.927295
O O20 0.000000 0.226603 0.683606
#
# Coordination Sequence:
#
# PCOD9389368 Si02
#       7
#     8   8   8   8   4   8   8
#     4  10  20  34  55  82 109 138 178 229 277 322
#     4  10  23  41  56  74 104 144 188 228 270 323
#     4   9  17  32  56  82 109 143 180 220 270 331
#     4  10  21  36  54  79 112 149 188 227 272 332
#     4   9  17  31  51  75 107 145 182 221 266 319
#     4   8  14  27  49  77 108 139 170 210 265 327
#     4  11  22  35  57  84 110 143 183 232 281 326
#
# _framework density 18.342151999999999
#
# number of rings (size 3 to 8) (size 9 to 14) (size 15 to 20)
#    0.000    2.385    1.538    2.077    1.077    4.000 
#    0.000    3.077    0.000    0.923    0.000    4.308 
#    0.000    0.000    0.000    0.000    0.000    0.000 
#
# Total GULP energy -289770.397863 kJ/mol
# GULP energy per Si atom -5572.507651 kJ/mol
# Density = 1.830040 g / cm^3
# Si number density = 18.342152 Si / 1000 Ang^3
#
#
#
# Elastic Constant Matrix: (Units=GPa)
#
#
# Indices 1 2 3 4 5 6 
#
# 1 34.1521 17.6855 34.5883 0.0000 0.0000 0.0000
# 2 17.6855 72.1373 34.4388 0.0000 0.0000 0.0000
# 3 34.5883 34.4388 110.2227 0.0000 0.0000 0.0000
# 4 0.0000 0.0000 0.0000 -0.3192 0.0000 0.0000
# 5 0.0000 0.0000 0.0000 0.0000 15.4396 0.0000
# 6 0.0000 0.0000 0.0000 0.0000 0.0000 22.0506
#
#
#
# Elastic Compliance Matrix: (Units=1/GPa)
#
#
# Indices 1 2 3 4 5 6 
#
# 1 0.044391 -0.004975 -0.012376 0.000000 0.000000 0.000000
# 2 -0.004975 0.016850 -0.003704 0.000000 0.000000 0.000000
# 3 -0.012376 -0.003704 0.014113 0.000000 0.000000 0.000000
# 4 0.000000 0.000000 0.000000 -3.132729 0.000000 0.000000
# 5 0.000000 0.000000 0.000000 0.000000 0.064768 0.000000
# 6 0.000000 0.000000 0.000000 0.000000 0.000000 0.045350
#
#
# Mechanical properties :
#
#
# Convention : Reuss Voigt Hill
#
# Bulk Modulus (GPa) = 30.07890 43.32639 36.70264
# Shear Modulus (GPa) = -1.72767 16.08750 7.17992
#
# Velocity S-wave (km/s) = -0.97158 2.96476 1.98064
# Velocity P-wave (km/s) = 3.89561 5.94914 5.02832
#
# Compressibility (1/GPa) = 0.03324589
#
# Stress axis : x y z
#
# Youngs Moduli (GPa) = 22.52730 59.34616 70.85532
#
# Poissons Ratio (x) = 0.29524 0.87688
# Poissons Ratio (y) = 0.11207 0.26243
# Poissons Ratio (z) = 0.27879 0.21980
#
# Static dielectric constant tensor:
#      x y z
#    x 1.622660 0.000000 0.000000 
#    y 0.000000 1.664700 0.000000 
#    z 0.000000 0.000000 1.640350 
# 
# From -- ./inp_files/21444.got.cif
#   From: 2010.05.17/outbox.ucp.g08.bks.cvg/sg47_11_cif.got.tgz:21444.got - 2010.06.11 16:36:43.
