data_PCOD9389849
_publ_section_title
;
Structure prediction by ZEFSAII (Michael W. Deem and Ramdas Pophale) SiO2 
 PCOD9389849
Probable space group: P N N N
;
_chemical_formula_sum "Si O2"
_cell_formula_units_Z 48
_cell_length_a 13.383230
_cell_length_b 23.548714
_cell_length_c 8.322924
_cell_angle_alpha 90.000000
_cell_angle_beta 90.000000
_cell_angle_gamma 90.000000
_cell_volume 2623.034881
_symmetry_space_group_name_H-M "P N N N"
_symmetry_group_IT_number 48
_space_group.IT_coordinate_system_code '2'
_symmetry_cell_setting 'orthorhombic'
loop_
_space_group_symop_operation_xyz
x,y,z
1/2-x,1/2-y,z
x,1/2-y,1/2-z
1/2-x,y,1/2-z
-x,-y,-z
1/2+x,1/2+y,-z
-x,1/2+y,1/2+z
1/2+x,-y,1/2+z
loop_
_atom_site_type_symbol
_atom_site_label
_atom_site_fract_x
_atom_site_fract_y
_atom_site_fract_z
Si Si1 0.745725 0.314544 0.501985
Si Si2 0.847027 0.073020 0.888094
Si Si3 0.540413 0.591155 0.911024
Si Si4 0.423685 0.813056 0.761045
Si Si5 0.084111 0.490934 0.132194
Si Si6 0.230139 0.039901 0.940531
O O1 0.750000 0.250000 0.570101
O O2 0.784230 0.369337 0.596684
O O3 0.830003 0.312757 0.361990
O O4 0.634712 0.324628 0.428342
O O5 0.861123 0.045305 0.712072
O O6 0.957710 0.087155 0.951707
O O7 0.808192 0.023495 0.009808
O O8 0.506824 0.643629 0.800069
O O9 0.536195 0.539015 0.786462
O O10 0.647761 0.584304 0.995286
O O11 0.466115 0.750000 0.750000
O O12 0.169695 0.453990 0.046111
O O13 0.000000 0.500000 0.000000
O O14 0.250000 0.043210 0.750000
#
# Coordination Sequence:
#
# PCOD9389849 Si02
#       6
#     8   8   8   8   8   8
#     4   8  15  27  48  79 111 147 181 217 271 326
#     4  10  19  31  53  79 111 142 181 218 271 340
#     4  10  19  33  52  81 107 139 177 222 267 332
#     4   8  15  28  49  80 109 142 181 222 264 326
#     4  11  22  35  50  76 107 145 185 225 277 331
#     4  11  22  35  52  73 108 142 183 226 277 324
#
# _framework density 18.299413000000001
#
# number of rings (size 3 to 8) (size 9 to 14) (size 15 to 20)
#    0.000    2.333    0.000    7.000    7.000    0.000 
#    0.000    0.000    0.000    4.000    0.000    4.667 
#    0.000    0.000    0.000    0.000    0.000    0.000 
#
# Total GULP energy -267319.092139 kJ/mol
# GULP energy per Si atom -5569.147753 kJ/mol
# Density = 1.825776 g / cm^3
# Si number density = 18.299413 Si / 1000 Ang^3
#
#
#
# Elastic Constant Matrix: (Units=GPa)
#
#
# Indices 1 2 3 4 5 6 
#
# 1 104.8676 54.2816 46.0981 0.0000 0.0000 0.0000
# 2 54.2816 127.0059 39.8509 0.0000 0.0000 0.0000
# 3 46.0981 39.8509 110.1281 0.0000 0.0000 0.0000
# 4 0.0000 0.0000 0.0000 9.8604 0.0000 0.0000
# 5 0.0000 0.0000 0.0000 0.0000 32.6127 0.0000
# 6 0.0000 0.0000 0.0000 0.0000 0.0000 30.0693
#
#
#
# Elastic Compliance Matrix: (Units=1/GPa)
#
#
# Indices 1 2 3 4 5 6 
#
# 1 0.013696 -0.004574 -0.004078 0.000000 0.000000 0.000000
# 2 -0.004574 0.010410 -0.001852 0.000000 0.000000 0.000000
# 3 -0.004078 -0.001852 0.011457 0.000000 0.000000 0.000000
# 4 0.000000 0.000000 0.000000 0.101416 0.000000 0.000000
# 5 0.000000 0.000000 0.000000 0.000000 0.030663 0.000000
# 6 0.000000 0.000000 0.000000 0.000000 0.000000 0.033256
#
#
# Mechanical properties :
#
#
# Convention : Reuss Voigt Hill
#
# Bulk Modulus (GPa) = 68.70464 69.16254 68.93359
# Shear Modulus (GPa) = 22.04989 27.95988 25.00489
#
# Velocity S-wave (km/s) = 3.47501 3.91309 3.70054
# Velocity P-wave (km/s) = 7.32988 7.63501 7.48400
#
# Compressibility (1/GPa) = 0.01455506
#
# Stress axis : x y z
#
# Youngs Moduli (GPa) = 73.01394 96.06360 87.27925
#
# Poissons Ratio (x) = 0.43940 0.35591
# Poissons Ratio (y) = 0.33397 0.16166
# Poissons Ratio (z) = 0.29774 0.17793
#
# Static dielectric constant tensor:
#      x y z
#    x 1.665180 0.000000 0.000000 
#    y 0.000000 1.667900 0.000000 
#    z 0.000000 0.000000 1.669870 
# 
# From -- ./inp_files/11223.got.cif
#   From: 2010.05.17/outbox.cif.g08.bks.cpg/sg48_6_cif.got.tgz:11223.got - 2010.06.03 20:39:00.
