data_PCOD9389233
_publ_section_title
;
Structure prediction by ZEFSAII (Michael W. Deem and Ramdas Pophale) SiO2 
 PCOD9389233
Probable space group: P M M M
;
_chemical_formula_sum "Si O2"
_cell_formula_units_Z 52
_cell_length_a 15.000000
_cell_length_b 9.000000
_cell_length_c 24.000000
_cell_angle_alpha 90.000000
_cell_angle_beta 90.000000
_cell_angle_gamma 90.000000
_cell_volume 3240.000000
_symmetry_space_group_name_H-M "P M M M"
_symmetry_group_IT_number 47
_symmetry_cell_setting 'orthorhombic'
loop_
_space_group_symop_operation_xyz
x,y,z
-x,-y,z
x,-y,-z
-x,y,-z
-x,-y,-z
x,y,-z
-x,y,z
x,-y,z
loop_
_atom_site_type_symbol
_atom_site_label
_atom_site_fract_x
_atom_site_fract_y
_atom_site_fract_z
Si Si1 0.716941 0.819645 0.111482
Si Si2 0.605046 0.180463 0.000000
Si Si3 0.603296 0.180460 0.778482
Si Si4 0.896480 0.321217 0.154317
Si Si5 0.604462 0.679353 0.564935
Si Si6 0.897659 0.821464 0.722987
Si Si7 0.287772 0.179557 0.333020
O O1 0.659285 0.776348 0.166486
O O2 0.815755 0.749187 0.118199
O O3 0.725653 0.000000 0.111470
O O4 0.660911 0.777225 0.055786
O O5 0.500000 0.229500 0.000000
O O6 0.601779 0.000000 0.000000
O O7 0.500000 0.230698 0.780086
O O8 0.653575 0.224368 0.721434
O O9 0.601877 0.000000 0.778705
O O10 0.888481 0.500000 0.154306
O O11 0.885533 0.258460 0.217365
O O12 0.000000 0.284828 0.137604
O O13 0.624369 0.720204 0.500000
O O14 0.500000 0.719779 0.575595
O O15 0.610381 0.500000 0.568478
O O16 0.669074 0.750317 0.611388
O O17 0.815555 0.781538 0.681939
O O18 0.000000 0.790133 0.703825
O O19 0.891312 0.000000 0.732151
O O20 0.292348 0.000000 0.337921
#
# Coordination Sequence:
#
# PCOD9389233 Si02
#       7
#     8   4   8   8   8   8   8
#     4  10  18  32  52  74 100 132 167 204 247 295
#     4   9  18  32  54  81 102 128 171 213 246 291
#     4   9  16  26  43  70 102 128 152 193 247 294
#     4  10  20  33  50  73 100 130 165 206 252 299
#     4   9  19  35  51  68  96 135 172 204 243 289
#     4   9  17  31  51  75 103 132 162 199 247 300
#     4  10  18  29  48  76 102 126 161 202 248 296
#
# _framework density 16.049382999999999
#
# number of rings (size 3 to 8) (size 9 to 14) (size 15 to 20)
#    0.000    2.538    1.538    1.846    0.000    4.615 
#    0.000    1.538    0.000    5.077    0.000    3.231 
#    0.000    0.000    0.000    0.000    0.000    0.000 
#
# Total GULP energy -289777.329258 kJ/mol
# GULP energy per Si atom -5572.640947 kJ/mol
# Density = 1.601285 g / cm^3
# Si number density = 16.049383 Si / 1000 Ang^3
#
#
#
# Elastic Constant Matrix: (Units=GPa)
#
#
# Indices 1 2 3 4 5 6 
#
# 1 178.1266 35.1232 86.8404 0.0000 0.0000 0.0000
# 2 35.1232 25.0254 26.6202 0.0000 0.0000 0.0000
# 3 86.8404 26.6202 132.3549 0.0000 0.0000 0.0000
# 4 0.0000 0.0000 0.0000 18.0115 0.0000 0.0000
# 5 0.0000 0.0000 0.0000 0.0000 36.5372 0.0000
# 6 0.0000 0.0000 0.0000 0.0000 0.0000 23.9978
#
#
#
# Elastic Compliance Matrix: (Units=1/GPa)
#
#
# Indices 1 2 3 4 5 6 
#
# 1 0.009497 -0.008524 -0.004516 0.000000 0.000000 0.000000
# 2 -0.008524 0.058487 -0.006170 0.000000 0.000000 0.000000
# 3 -0.004516 -0.006170 0.011760 0.000000 0.000000 0.000000
# 4 0.000000 0.000000 0.000000 0.055520 0.000000 0.000000
# 5 0.000000 0.000000 0.000000 0.000000 0.027369 0.000000
# 6 0.000000 0.000000 0.000000 0.000000 0.000000 0.041670
#
#
# Mechanical properties :
#
#
# Convention : Reuss Voigt Hill
#
# Bulk Modulus (GPa) = 24.20071 70.29718 47.24894
# Shear Modulus (GPa) = 19.49322 28.17084 23.83203
#
# Velocity S-wave (km/s) = 3.48886 4.19413 3.85764
# Velocity P-wave (km/s) = 5.59832 8.20670 7.02464
#
# Compressibility (1/GPa) = 0.04132111
#
# Stress axis : x y z
#
# Youngs Moduli (GPa) = 105.29967 17.09783 85.03536
#
# Poissons Ratio (x) = 0.14575 0.38406
# Poissons Ratio (y) = 0.89761 0.52470
# Poissons Ratio (z) = 0.47558 0.10550
#
# Static dielectric constant tensor:
#      x y z
#    x 1.556040 0.000000 0.000000 
#    y 0.000000 1.537070 0.000000 
#    z 0.000000 0.000000 1.522970 
# 
# From -- ./inp_files/12476.got.cif
#   From: 2010.05.17/outbox.ucp.g08.bks.cvg/sg47_7_cif.got.tgz:12476.got - 2010.06.11 16:36:43.
