data_PCOD9389900
_publ_section_title
;
Structure prediction by ZEFSAII (Michael W. Deem and Ramdas Pophale) SiO2 
 PCOD9389900
Probable space group: P N N N
;
_chemical_formula_sum "Si O2"
_cell_formula_units_Z 48
_cell_length_a 7.576204
_cell_length_b 14.449512
_cell_length_c 19.262247
_cell_angle_alpha 90.000000
_cell_angle_beta 90.000000
_cell_angle_gamma 90.000000
_cell_volume 2108.685383
_symmetry_space_group_name_H-M "P N N N"
_symmetry_group_IT_number 48
_space_group.IT_coordinate_system_code '2'
_symmetry_cell_setting 'orthorhombic'
loop_
_space_group_symop_operation_xyz
x,y,z
1/2-x,1/2-y,z
x,1/2-y,1/2-z
1/2-x,y,1/2-z
-x,-y,-z
1/2+x,1/2+y,-z
-x,1/2+y,1/2+z
1/2+x,-y,1/2+z
loop_
_atom_site_type_symbol
_atom_site_label
_atom_site_fract_x
_atom_site_fract_y
_atom_site_fract_z
Si Si1 0.827215 0.841113 0.007826
Si Si2 0.313599 0.856151 0.094789
Si Si3 0.462488 0.458202 0.872848
Si Si4 0.547560 0.444097 0.725101
Si Si5 0.479356 0.686119 0.547595
Si Si6 0.288659 0.608202 0.675454
O O1 0.750000 0.750000 0.047761
O O2 0.679591 0.853413 0.949115
O O3 0.999289 0.794674 0.973506
O O4 0.849580 0.920011 0.063004
O O5 0.250000 0.750000 0.100003
O O6 0.158227 0.932102 0.101433
O O7 0.434997 0.873690 0.161646
O O8 0.400458 0.864357 0.019575
O O9 0.456153 0.410319 0.796597
O O10 0.387467 0.558988 0.854909
O O11 0.750000 0.468814 0.750000
O O12 0.431344 0.527682 0.694625
O O13 0.376560 0.670039 0.617145
O O14 0.250000 0.651202 0.750000
#
# Coordination Sequence:
#
# PCOD9389900 Si02
#       6
#     8   8   8   8   8   8
#     4   8  18  35  53  85 114 156 206 247 303 372
#     4  11  19  35  54  85 120 162 206 257 310 371
#     4  10  19  33  53  84 122 154 205 244 304 380
#     4   9  21  34  53  82 121 159 196 244 313 379
#     4   9  20  36  59  82 119 155 202 259 312 376
#     4  10  21  39  59  87 120 158 203 262 326 388
#
# _framework density 22.762999000000001
#
# number of rings (size 3 to 8) (size 9 to 14) (size 15 to 20)
#    1.000    1.333    1.667    1.000    0.000    6.333 
#    0.000    3.333    0.000    0.500    0.000    0.000 
#    0.000    0.000    0.000    0.000    0.000    0.000 
#
# Total GULP energy -267366.778312 kJ/mol
# GULP energy per Si atom -5570.141215 kJ/mol
# Density = 2.271119 g / cm^3
# Si number density = 22.762999 Si / 1000 Ang^3
#
#
#
# Elastic Constant Matrix: (Units=GPa)
#
#
# Indices 1 2 3 4 5 6 
#
# 1 73.1226 31.2352 58.3308 0.0000 0.0000 0.0000
# 2 31.2352 59.1176 50.4126 0.0000 0.0000 0.0000
# 3 58.3308 50.4126 182.7074 0.0000 0.0000 0.0000
# 4 0.0000 0.0000 0.0000 102.7695 0.0000 0.0000
# 5 0.0000 0.0000 0.0000 0.0000 45.1857 0.0000
# 6 0.0000 0.0000 0.0000 0.0000 0.0000 12.6218
#
#
#
# Elastic Compliance Matrix: (Units=1/GPa)
#
#
# Indices 1 2 3 4 5 6 
#
# 1 0.020231 -0.006776 -0.004589 0.000000 0.000000 0.000000
# 2 -0.006776 0.024389 -0.004566 0.000000 0.000000 0.000000
# 3 -0.004589 -0.004566 0.008198 0.000000 0.000000 0.000000
# 4 0.000000 0.000000 0.000000 0.009731 0.000000 0.000000
# 5 0.000000 0.000000 0.000000 0.000000 0.022131 0.000000
# 6 0.000000 0.000000 0.000000 0.000000 0.000000 0.079228
#
#
# Mechanical properties :
#
#
# Convention : Reuss Voigt Hill
#
# Bulk Modulus (GPa) = 47.71891 66.10053 56.90972
# Shear Modulus (GPa) = 24.66019 43.78001 34.22010
#
# Velocity S-wave (km/s) = 3.29499 4.39030 3.88148
# Velocity P-wave (km/s) = 5.95692 7.40279 6.71886
#
# Compressibility (1/GPa) = 0.02095605
#
# Stress axis : x y z
#
# Youngs Moduli (GPa) = 49.42926 41.00155 121.97551
#
# Poissons Ratio (x) = 0.27781 0.55979
# Poissons Ratio (y) = 0.33491 0.55698
# Poissons Ratio (z) = 0.22685 0.18723
#
# Static dielectric constant tensor:
#      x y z
#    x 1.978780 0.000000 0.000000 
#    y 0.000000 1.855330 0.000000 
#    z 0.000000 0.000000 1.814460 
# 
# From -- ./inp_files/25405.got.cif
#   From: 2010.05.17/outbox.cif.g08.bks.cpg/sg48_13_cif.got.tgz:25405.got - 2010.06.03 20:39:00.
