data_PCOD9389545
_publ_section_title
;
Structure prediction by ZEFSAII (Michael W. Deem and Ramdas Pophale) SiO2 
 PCOD9389545
Probable space group: P N N N
;
_chemical_formula_sum "Si O2"
_cell_formula_units_Z 40
_cell_length_a 8.193535
_cell_length_b 11.674596
_cell_length_c 20.967388
_cell_angle_alpha 90.000000
_cell_angle_beta 90.000000
_cell_angle_gamma 90.000000
_cell_volume 2005.660889
_symmetry_space_group_name_H-M "P N N N"
_symmetry_group_IT_number 48
_space_group.IT_coordinate_system_code '2'
_symmetry_cell_setting 'orthorhombic'
loop_
_space_group_symop_operation_xyz
x,y,z
1/2-x,1/2-y,z
x,1/2-y,1/2-z
1/2-x,y,1/2-z
-x,-y,-z
1/2+x,1/2+y,-z
-x,1/2+y,1/2+z
1/2+x,-y,1/2+z
loop_
_atom_site_type_symbol
_atom_site_label
_atom_site_fract_x
_atom_site_fract_y
_atom_site_fract_z
Si Si1 0.163473 0.447652 0.422042
Si Si2 0.359072 0.147479 0.884935
Si Si3 0.309167 0.925627 0.556204
Si Si4 0.977031 0.634268 0.979690
Si Si5 0.299013 0.877376 0.176316
O O1 0.161510 0.532796 0.483300
O O2 0.318344 0.366873 0.435759
O O3 0.202752 0.526089 0.362063
O O4 0.987201 0.388585 0.419644
O O5 0.250000 0.250000 0.858102
O O6 0.247385 0.038649 0.903845
O O7 0.509017 0.111815 0.840151
O O8 0.436956 0.192419 0.952660
O O9 0.149785 0.845221 0.553167
O O10 0.000000 0.500000 0.000000
O O11 0.250000 0.750000 0.153663
O O12 0.250000 0.884689 0.250000
#
# Coordination Sequence:
#
# PCOD9389545 Si02
#       5
#     8   8   8   8   8
#     4   9  15  29  46  63  81 109 153 192 236 267
#     4  10  17  30  45  65  90 119 156 189 237 274
#     4   9  15  27  51  65  79 111 149 197 244 276
#     4   8  14  28  47  65  84 104 146 199 238 277
#     4  11  21  31  40  60  94 133 166 192 213 261
#
# _framework density 19.943550999999999
#
# number of rings (size 3 to 8) (size 9 to 14) (size 15 to 20)
#    0.000    3.000    6.000    1.200    0.000    0.000 
#    0.000    7.000    0.000    0.000    0.000    0.000 
#    0.000   12.800    0.000    0.000  153.600    2.400 
#
# Total GULP energy -222966.525193 kJ/mol
# GULP energy per Si atom -5574.163130 kJ/mol
# Density = 1.989816 g / cm^3
# Si number density = 19.943551 Si / 1000 Ang^3
#
#
#
# Elastic Constant Matrix: (Units=GPa)
#
#
# Indices 1 2 3 4 5 6 
#
# 1 217.0944 44.1338 46.2115 0.0000 0.0000 0.0000
# 2 44.1338 54.5298 21.4796 0.0000 0.0000 0.0000
# 3 46.2115 21.4796 66.4380 0.0000 0.0000 0.0000
# 4 0.0000 0.0000 0.0000 2.7036 0.0000 0.0000
# 5 0.0000 0.0000 0.0000 0.0000 -0.8563 0.0000
# 6 0.0000 0.0000 0.0000 0.0000 0.0000 36.5852
#
#
#
# Elastic Compliance Matrix: (Units=1/GPa)
#
#
# Indices 1 2 3 4 5 6 
#
# 1 0.005987 -0.003673 -0.002977 0.000000 0.000000 0.000000
# 2 -0.003673 0.023268 -0.004968 0.000000 0.000000 0.000000
# 3 -0.002977 -0.004968 0.018728 0.000000 0.000000 0.000000
# 4 0.000000 0.000000 0.000000 0.369873 0.000000 0.000000
# 5 0.000000 0.000000 0.000000 0.000000 -1.167790 0.000000
# 6 0.000000 0.000000 0.000000 0.000000 0.000000 0.027333
#
#
# Mechanical properties :
#
#
# Convention : Reuss Voigt Hill
#
# Bulk Modulus (GPa) = 40.40712 62.41243 51.40977
# Shear Modulus (GPa) = -7.23467 22.76900 7.76717
#
# Velocity S-wave (km/s) = -1.90668 3.38253 1.97561
# Velocity P-wave (km/s) = 3.93160 6.82772 5.57114
#
# Compressibility (1/GPa) = 0.02474812
#
# Stress axis : x y z
#
# Youngs Moduli (GPa) = 167.04152 42.97740 53.39542
#
# Poissons Ratio (x) = 0.15784 0.15894
# Poissons Ratio (y) = 0.61350 0.26527
# Poissons Ratio (z) = 0.49721 0.21351
#
# Static dielectric constant tensor:
#      x y z
#    x 1.814730 0.000000 0.000000 
#    y 0.000000 1.829220 0.000000 
#    z 0.000000 0.000000 1.680980 
# 
# From -- ./inp_files/12895.got.cif
#   From: 2010.05.17/outbox.cif.g08.bks.cpg/sg48_7_cif.got.tgz:12895.got - 2010.06.03 20:39:00.
