data_PCOD9389627
_publ_section_title
;
Structure prediction by ZEFSAII (Michael W. Deem and Ramdas Pophale) SiO2 
 PCOD9389627
Probable space group: P N N N
;
_chemical_formula_sum "Si O2"
_cell_formula_units_Z 52
_cell_length_a 23.488837
_cell_length_b 5.609285
_cell_length_c 24.885531
_cell_angle_alpha 90.000000
_cell_angle_beta 90.000000
_cell_angle_gamma 90.000000
_cell_volume 3278.807597
_symmetry_space_group_name_H-M "P N N N"
_symmetry_group_IT_number 48
_space_group.IT_coordinate_system_code '2'
_symmetry_cell_setting 'orthorhombic'
loop_
_space_group_symop_operation_xyz
x,y,z
1/2-x,1/2-y,z
x,1/2-y,1/2-z
1/2-x,y,1/2-z
-x,-y,-z
1/2+x,1/2+y,-z
-x,1/2+y,1/2+z
1/2+x,-y,1/2+z
loop_
_atom_site_type_symbol
_atom_site_label
_atom_site_fract_x
_atom_site_fract_y
_atom_site_fract_z
Si Si1 0.924583 0.432613 0.316648
Si Si2 0.438310 0.421886 0.660284
Si Si3 0.259376 0.505673 0.961039
Si Si4 0.199922 0.061104 0.651896
Si Si5 0.891280 0.050650 0.057341
Si Si6 0.673316 0.250000 0.250000
Si Si7 0.946701 0.951993 0.461949
O O1 0.957085 0.680053 0.310851
O O2 0.909836 0.429958 0.380376
O O3 0.867753 0.437465 0.280782
O O4 0.949231 0.167424 0.308507
O O5 0.368772 0.395322 0.651284
O O6 0.464021 0.443759 0.600957
O O7 0.250000 0.250000 0.987845
O O8 0.218332 0.518526 0.908240
O O9 0.324334 0.505087 0.942293
O O10 0.250000 0.750000 0.992738
O O11 0.250000 0.250000 0.663357
O O12 0.203489 0.883716 0.701851
O O13 0.907044 0.310187 0.032673
O O14 0.919387 0.813272 0.030572
O O15 0.000000 0.000000 0.500000
#
# Coordination Sequence:
#
# PCOD9389627 Si02
#       7
#     8   8   8   8   8   4   8
#     4   9  17  30  42  51  72  99 119 158 201 224
#     4   9  18  32  43  55  75  93 119 160 202 245
#     4  11  19  31  46  57  75 108 134 153 196 245
#     4  10  20  33  42  53  76 106 136 168 202 236
#     4  10  19  32  42  59  82  96 122 165 203 248
#     4  10  20  32  41  54  74 102 146 174 188 228
#     4  10  18  30  48  62  72  91 118 156 212 268
#
# _framework density 15.859425999999999
#
# number of rings (size 3 to 8) (size 9 to 14) (size 15 to 20)
#    0.000    2.154    0.000    7.846    0.000    2.462 
#    0.000   22.692    0.000    0.000    0.000    0.000 
#    0.000    0.000    0.000    0.000    0.000    0.000 
#
# Total GULP energy -289474.599688 kJ/mol
# GULP energy per Si atom -5566.819225 kJ/mol
# Density = 1.582333 g / cm^3
# Si number density = 15.859426 Si / 1000 Ang^3
#
#
#
# Elastic Constant Matrix: (Units=GPa)
#
#
# Indices 1 2 3 4 5 6 
#
# 1 29.9946 16.4088 23.9897 0.0000 0.0000 0.0000
# 2 16.4088 158.5500 20.9799 0.0000 0.0000 0.0000
# 3 23.9897 20.9799 42.6584 0.0000 0.0000 0.0000
# 4 0.0000 0.0000 0.0000 15.2056 0.0000 0.0000
# 5 0.0000 0.0000 0.0000 0.0000 4.8404 0.0000
# 6 0.0000 0.0000 0.0000 0.0000 0.0000 19.8836
#
#
#
# Elastic Compliance Matrix: (Units=1/GPa)
#
#
# Indices 1 2 3 4 5 6 
#
# 1 0.061124 -0.001901 -0.033439 0.000000 0.000000 0.000000
# 2 -0.001901 0.006805 -0.002278 0.000000 0.000000 0.000000
# 3 -0.033439 -0.002278 0.043367 0.000000 0.000000 0.000000
# 4 0.000000 0.000000 0.000000 0.065765 0.000000 0.000000
# 5 0.000000 0.000000 0.000000 0.000000 0.206593 0.000000
# 6 0.000000 0.000000 0.000000 0.000000 0.000000 0.050293
#
#
# Mechanical properties :
#
#
# Convention : Reuss Voigt Hill
#
# Bulk Modulus (GPa) = 27.73115 39.32887 33.53001
# Shear Modulus (GPa) = 9.59318 19.30758 14.45038
#
# Velocity S-wave (km/s) = 2.46212 3.49294 3.02181
# Velocity P-wave (km/s) = 5.06026 6.41247 5.77607
#
# Compressibility (1/GPa) = 0.03606053
#
# Stress axis : x y z
#
# Youngs Moduli (GPa) = 16.36020 146.94396 23.05883
#
# Poissons Ratio (x) = 0.27936 0.77107
# Poissons Ratio (y) = 0.03110 0.05252
# Poissons Ratio (z) = 0.54707 0.33471
#
# Static dielectric constant tensor:
#      x y z
#    x 1.539910 0.000000 0.000000 
#    y 0.000000 1.764530 0.000000 
#    z 0.000000 0.000000 1.523510 
# 
# From -- ./inp_files/39157.got.cif
#   From: 2010.05.17/outbox.cif.g08.bks.cpg/sg48_20_cif.got.tgz:39157.got - 2010.06.03 20:39:00.
