data_PCOD9389364
_publ_section_title
;
Structure prediction by ZEFSAII (Michael W. Deem and Ramdas Pophale) SiO2 
 PCOD9389364
Probable space group: P M M M
;
_chemical_formula_sum "Si O2"
_cell_formula_units_Z 52
_cell_length_a 21.000000
_cell_length_b 9.000000
_cell_length_c 15.000000
_cell_angle_alpha 90.000000
_cell_angle_beta 90.000000
_cell_angle_gamma 90.000000
_cell_volume 2835.000000
_symmetry_space_group_name_H-M "P M M M"
_symmetry_group_IT_number 47
_symmetry_cell_setting 'orthorhombic'
loop_
_space_group_symop_operation_xyz
x,y,z
-x,-y,z
x,-y,-z
-x,y,-z
-x,-y,-z
x,y,-z
-x,y,z
x,-y,z
loop_
_atom_site_type_symbol
_atom_site_label
_atom_site_fract_x
_atom_site_fract_y
_atom_site_fract_z
Si Si1 0.000000 0.180096 0.107477
Si Si2 0.229319 0.174929 0.894535
Si Si3 0.633661 0.677129 0.899098
Si Si4 0.570996 0.321598 0.716697
Si Si5 0.684433 0.822916 0.604933
Si Si6 0.117996 0.678669 0.217364
Si Si7 0.167537 0.820258 0.605319
O O1 0.060789 0.247733 0.159913
O O2 0.000000 0.000000 0.114435
O O3 0.000000 0.215048 0.000000
O O4 0.301206 0.233065 0.883292
O O5 0.181677 0.269651 0.834497
O O6 0.224616 0.000000 0.871659
O O7 0.213401 0.190901 0.000000
O O8 0.647811 0.500000 0.894425
O O9 0.584374 0.711085 0.820832
O O10 0.611412 0.708637 0.000000
O O11 0.500000 0.269115 0.690662
O O12 0.572251 0.500000 0.706052
O O13 0.629713 0.254851 0.661722
O O14 0.673893 0.793950 0.500000
O O15 0.758026 0.779812 0.623980
O O16 0.680621 0.000000 0.619326
O O17 0.111851 0.500000 0.218753
O O18 0.125004 0.742091 0.318624
O O19 0.154535 0.784471 0.500000
O O20 0.162071 0.000000 0.613450
#
# Coordination Sequence:
#
# PCOD9389364 Si02
#       7
#     4   8   8   8   8   8   8
#     4  11  25  45  66  87 116 157 201 236 268 315
#     4  10  20  34  54  80 109 142 182 228 277 331
#     4   9  18  33  52  74 101 134 175 225 279 331
#     4  10  21  34  48  71 103 139 179 221 270 331
#     4   9  19  36  57  80 105 136 177 225 275 325
#     4  12  24  37  58  88 121 153 185 227 277 327
#     4   9  19  38  63  88 114 146 186 231 278 329
#
# _framework density 18.342151999999999
#
# number of rings (size 3 to 8) (size 9 to 14) (size 15 to 20)
#    0.000    2.077    0.000    4.385    0.000    8.615 
#    0.000    5.000    0.000    2.308    0.000    3.231 
#    0.000    0.000    0.000    0.000    0.000    0.000 
#
# Total GULP energy -290293.020339 kJ/mol
# GULP energy per Si atom -5582.558083 kJ/mol
# Density = 1.830040 g / cm^3
# Si number density = 18.342152 Si / 1000 Ang^3
#
#
#
# Elastic Constant Matrix: (Units=GPa)
#
#
# Indices 1 2 3 4 5 6 
#
# 1 72.3164 34.6229 65.2550 0.0000 0.0000 0.0000
# 2 34.6229 74.6920 54.5021 0.0000 0.0000 0.0000
# 3 65.2550 54.5021 116.1896 0.0000 0.0000 0.0000
# 4 0.0000 0.0000 0.0000 31.5385 0.0000 0.0000
# 5 0.0000 0.0000 0.0000 0.0000 28.0927 0.0000
# 6 0.0000 0.0000 0.0000 0.0000 0.0000 29.1912
#
#
#
# Elastic Compliance Matrix: (Units=1/GPa)
#
#
# Indices 1 2 3 4 5 6 
#
# 1 0.028297 -0.002312 -0.014808 0.000000 0.000000 0.000000
# 2 -0.002312 0.020545 -0.008339 0.000000 0.000000 0.000000
# 3 -0.014808 -0.008339 0.020835 0.000000 0.000000 0.000000
# 4 0.000000 0.000000 0.000000 0.031707 0.000000 0.000000
# 5 0.000000 0.000000 0.000000 0.000000 0.035596 0.000000
# 6 0.000000 0.000000 0.000000 0.000000 0.000000 0.034257
#
#
# Mechanical properties :
#
#
# Convention : Reuss Voigt Hill
#
# Bulk Modulus (GPa) = 53.30625 63.55088 58.42856
# Shear Modulus (GPa) = 21.89080 25.01901 23.45491
#
# Velocity S-wave (km/s) = 3.45841 3.69727 3.57983
# Velocity P-wave (km/s) = 6.71362 7.27661 7.00078
#
# Compressibility (1/GPa) = 0.01875953
#
# Stress axis : x y z
#
# Youngs Moduli (GPa) = 35.33965 48.67464 47.99690
#
# Poissons Ratio (x) = 0.11252 0.71073
# Poissons Ratio (y) = 0.08169 0.40024
# Poissons Ratio (z) = 0.52331 0.40589
#
# Static dielectric constant tensor:
#      x y z
#    x 1.623090 0.000000 0.000000 
#    y 0.000000 1.614190 0.000000 
#    z 0.000000 0.000000 1.647330 
# 
# From -- ./inp_files/25015.got.cif
#   From: 2010.05.17/outbox.ucp.g08.bks.cvg/sg47_13_cif.got.tgz:25015.got - 2010.06.11 16:36:43.
