data_PCOD9389362
_publ_section_title
;
Structure prediction by ZEFSAII (Michael W. Deem and Ramdas Pophale) SiO2 
 PCOD9389362
Probable space group: P M M M
;
_chemical_formula_sum "Si O2"
_cell_formula_units_Z 40
_cell_length_a 21.000000
_cell_length_b 9.000000
_cell_length_c 12.000000
_cell_angle_alpha 90.000000
_cell_angle_beta 90.000000
_cell_angle_gamma 90.000000
_cell_volume 2268.000000
_symmetry_space_group_name_H-M "P M M M"
_symmetry_group_IT_number 47
_symmetry_cell_setting 'orthorhombic'
loop_
_space_group_symop_operation_xyz
x,y,z
-x,-y,z
x,-y,-z
-x,y,-z
-x,-y,-z
x,y,-z
-x,y,z
x,-y,z
loop_
_atom_site_type_symbol
_atom_site_label
_atom_site_fract_x
_atom_site_fract_y
_atom_site_fract_z
Si Si1 0.077123 0.330657 0.000000
Si Si2 0.812253 0.829758 0.366099
Si Si3 0.577179 0.669344 0.000000
Si Si4 0.574118 0.177503 0.769319
Si Si5 0.073773 0.319674 0.243895
Si Si6 0.317313 0.329068 0.634108
O O1 0.093042 0.264365 0.880335
O O2 0.101693 0.500000 0.000000
O O3 0.000000 0.339647 0.000000
O O4 0.810484 0.830300 0.500000
O O5 0.875563 0.746115 0.327860
O O6 0.748299 0.746897 0.327083
O O7 0.812668 0.000000 0.327321
O O8 0.594861 0.755222 0.888066
O O9 0.600474 0.500000 0.000000
O O10 0.500000 0.665307 0.000000
O O11 0.500000 0.219510 0.749350
O O12 0.621639 0.242357 0.678536
O O13 0.577322 0.000000 0.772684
O O14 0.075976 0.500000 0.243657
O O15 0.000000 0.278537 0.265902
O O16 0.317376 0.326567 0.500000
O O17 0.319708 0.500000 0.671020
#
# Coordination Sequence:
#
# PCOD9389362 Si02
#       6
#     4   8   4   8   8   8
#     4   7  12  26  48  73 100 129 160 198 246 293
#     4  10  21  36  52  71 100 136 170 208 257 309
#     4   9  17  31  52  77 106 139 174 212 254 299
#     4  10  20  34  54  80 109 139 171 209 255 308
#     4   9  17  31  53  78 102 130 167 209 250 298
#     4  10  21  37  56  76 100 133 174 218 261 307
#
# _framework density 17.636683999999999
#
# number of rings (size 3 to 8) (size 9 to 14) (size 15 to 20)
#    0.000    2.600    0.000    3.300    0.000    6.000 
#    0.000    5.500    0.000    3.000    0.000    0.000 
#    0.000    0.000    0.000    0.000    0.000    0.000 
#
# Total GULP energy -222848.203786 kJ/mol
# GULP energy per Si atom -5571.205095 kJ/mol
# Density = 1.759654 g / cm^3
# Si number density = 17.636684 Si / 1000 Ang^3
#
#
#
# Elastic Constant Matrix: (Units=GPa)
#
#
# Indices 1 2 3 4 5 6 
#
# 1 99.8824 55.1758 28.0308 0.0000 0.0000 0.0000
# 2 55.1758 79.8169 25.6939 0.0000 0.0000 0.0000
# 3 28.0308 25.6939 19.5777 0.0000 0.0000 0.0000
# 4 0.0000 0.0000 0.0000 24.1612 0.0000 0.0000
# 5 0.0000 0.0000 0.0000 0.0000 387.0153 0.0000
# 6 0.0000 0.0000 0.0000 0.0000 0.0000 20.1940
#
#
#
# Elastic Compliance Matrix: (Units=1/GPa)
#
#
# Indices 1 2 3 4 5 6 
#
# 1 0.019079 -0.007611 -0.017328 0.000000 0.000000 0.000000
# 2 -0.007611 0.024730 -0.021559 0.000000 0.000000 0.000000
# 3 -0.017328 -0.021559 0.104182 0.000000 0.000000 0.000000
# 4 0.000000 0.000000 0.000000 0.041389 0.000000 0.000000
# 5 0.000000 0.000000 0.000000 0.000000 0.002584 0.000000
# 6 0.000000 0.000000 0.000000 0.000000 0.000000 0.049520
#
#
# Mechanical properties :
#
#
# Convention : Reuss Voigt Hill
#
# Bulk Modulus (GPa) = 18.18329 46.34200 32.26264
# Shear Modulus (GPa) = 14.17194 92.29923 53.23558
#
# Velocity S-wave (km/s) = 2.83777 7.24205 5.50001
# Velocity P-wave (km/s) = 4.59016 9.81135 7.65938
#
# Compressibility (1/GPa) = 0.05499555
#
# Stress axis : x y z
#
# Youngs Moduli (GPa) = 52.41371 40.43718 9.59858
#
# Poissons Ratio (x) = 0.30776 0.16633
# Poissons Ratio (y) = 0.39891 0.20693
# Poissons Ratio (z) = 0.90824 0.87177
#
# Static dielectric constant tensor:
#      x y z
#    x 1.565340 0.000000 0.000000 
#    y 0.000000 1.603100 0.000000 
#    z 0.000000 0.000000 1.622530 
# 
# From -- ./inp_files/18969.got.cif
#   From: 2010.05.17/outbox.ucp.g08.bks.cvg/sg47_10_cif.got.tgz:18969.got - 2010.06.11 16:36:43.
