data_PCOD9389033
_publ_section_title
;
Structure prediction by ZEFSAII (Michael W. Deem and Ramdas Pophale) SiO2 
 PCOD9389033
Probable space group: P M M M
;
_chemical_formula_sum "Si O2"
_cell_formula_units_Z 44
_cell_length_a 7.596292
_cell_length_b 13.977052
_cell_length_c 17.081760
_cell_angle_alpha 90.000000
_cell_angle_beta 90.000000
_cell_angle_gamma 90.000000
_cell_volume 1813.634828
_symmetry_space_group_name_H-M "P M M M"
_symmetry_group_IT_number 47
_symmetry_cell_setting 'orthorhombic'
loop_
_space_group_symop_operation_xyz
x,y,z
-x,-y,z
x,-y,-z
-x,y,-z
-x,-y,-z
x,y,-z
-x,y,z
x,-y,z
loop_
_atom_site_type_symbol
_atom_site_label
_atom_site_fract_x
_atom_site_fract_y
_atom_site_fract_z
Si Si1 0.293052 0.608257 0.000000
Si Si2 0.210243 0.611282 0.167892
Si Si3 0.215266 0.203001 0.415386
Si Si4 0.785086 0.391257 0.659511
Si Si5 0.789349 0.108028 0.744915
Si Si6 0.711387 0.112897 0.084902
O O1 0.252612 0.655211 0.083570
O O2 0.210619 0.500000 0.000000
O O3 0.500000 0.598135 0.000000
O O4 0.271780 0.500000 0.163272
O O5 0.271860 0.643826 0.253517
O O6 0.000000 0.610791 0.172203
O O7 0.273636 0.165674 0.500000
O O8 0.266121 0.313768 0.404110
O O9 0.277123 0.152786 0.335830
O O10 0.000000 0.198039 0.415142
O O11 0.726247 0.500000 0.647445
O O12 0.000000 0.393187 0.660060
O O13 0.760628 0.154764 0.830301
O O14 0.000000 0.104867 0.737022
O O15 0.719295 0.000000 0.749711
O O16 0.500000 0.115919 0.082413
O O17 0.765641 0.000000 0.087047
O O18 0.775997 0.149663 0.000000
#
# Coordination Sequence:
#
# PCOD9389033 Si02
#       6
#     4   8   8   8   8   8
#     4   9  15  21  33  57  85 109 138 175 212 256
#     4   8  13  22  37  56  78 106 139 174 214 261
#     4   9  17  28  43  65  93 123 155 194 237 279
#     4   8  14  25  42  63  85 112 150 194 236 276
#     4   9  17  28  44  69 100 131 159 187 224 274
#     4   8  14  26  46  71  96 124 159 195 232 275
#
# _framework density 24.260672
#
# number of rings (size 3 to 8) (size 9 to 14) (size 15 to 20)
#    0.000    3.545    0.000    1.909    0.000    2.182 
#    0.000    5.455    2.000    1.636    0.000    2.545 
#    0.000    0.000    0.000    8.727    0.000    9.091 
#
# Total GULP energy -245310.324501 kJ/mol
# GULP energy per Si atom -5575.234648 kJ/mol
# Density = 2.420545 g / cm^3
# Si number density = 24.260672 Si / 1000 Ang^3
#
#
#
# Elastic Constant Matrix: (Units=GPa)
#
#
# Indices 1 2 3 4 5 6 
#
# 1 46.3248 -1.9554 5.5105 0.0000 0.0000 0.0000
# 2 -1.9554 60.2156 66.2611 0.0000 0.0000 0.0000
# 3 5.5105 66.2611 248.0555 0.0000 0.0000 0.0000
# 4 0.0000 0.0000 0.0000 31.5149 0.0000 0.0000
# 5 0.0000 0.0000 0.0000 0.0000 91.2316 0.0000
# 6 0.0000 0.0000 0.0000 0.0000 0.0000 -5.4078
#
#
#
# Elastic Compliance Matrix: (Units=1/GPa)
#
#
# Indices 1 2 3 4 5 6 
#
# 1 0.021774 0.001755 -0.000953 0.000000 0.000000 0.000000
# 2 0.001755 0.023662 -0.006360 0.000000 0.000000 0.000000
# 3 -0.000953 -0.006360 0.005751 0.000000 0.000000 0.000000
# 4 0.000000 0.000000 0.000000 0.031731 0.000000 0.000000
# 5 0.000000 0.000000 0.000000 0.000000 0.010961 0.000000
# 6 0.000000 0.000000 0.000000 0.000000 0.000000 -0.184919
#
#
# Mechanical properties :
#
#
# Convention : Reuss Voigt Hill
#
# Bulk Modulus (GPa) = 24.95402 54.91425 39.93413
# Shear Modulus (GPa) = -75.11188 42.45308 -16.32940
#
# Velocity S-wave (km/s) = -5.57024 4.18769 -2.59720
# Velocity P-wave (km/s) = 5.57333 6.78723 2.73903
#
# Compressibility (1/GPa) = 0.04007371
#
# Stress axis : x y z
#
# Youngs Moduli (GPa) = 45.92609 42.26156 173.87293
#
# Poissons Ratio (x) = -0.07418 0.16563
# Poissons Ratio (y) = -0.08061 1.10578
# Poissons Ratio (z) = 0.04375 0.26877
#
# Static dielectric constant tensor:
#      x y z
#    x 1.521570 0.000000 0.000000 
#    y 0.000000 1.986990 0.000000 
#    z 0.000000 0.000000 1.962220 
# 
# From -- ./inp_files/20935.got.cif
#   From: 2010.05.17/outbox.cif.g08.bks.cpg/sg47_11_cif.got.tgz:20935.got - 2010.06.03 20:15:42.
