data_PCOD9389476
_publ_section_title
;
Structure prediction by ZEFSAII (Michael W. Deem and Ramdas Pophale) SiO2 
 PCOD9389476
Probable space group: P N N N
;
_chemical_formula_sum "Si O2"
_cell_formula_units_Z 32
_cell_length_a 10.985917
_cell_length_b 13.575495
_cell_length_c 7.671432
_cell_angle_alpha 90.000000
_cell_angle_beta 90.000000
_cell_angle_gamma 90.000000
_cell_volume 1144.111702
_symmetry_space_group_name_H-M "P N N N"
_symmetry_group_IT_number 48
_space_group.IT_coordinate_system_code '2'
_symmetry_cell_setting 'orthorhombic'
loop_
_space_group_symop_operation_xyz
x,y,z
1/2-x,1/2-y,z
x,1/2-y,1/2-z
1/2-x,y,1/2-z
-x,-y,-z
1/2+x,1/2+y,-z
-x,1/2+y,1/2+z
1/2+x,-y,1/2+z
loop_
_atom_site_type_symbol
_atom_site_label
_atom_site_fract_x
_atom_site_fract_y
_atom_site_fract_z
Si Si1 0.876652 0.711236 0.050528
Si Si2 0.373204 0.792658 0.446537
Si Si3 0.633416 0.526287 0.864654
Si Si4 0.618742 0.984208 0.251053
O O1 0.750000 0.750000 0.967666
O O2 0.873121 0.750000 0.250000
O O3 0.884419 0.594107 0.094429
O O4 0.002488 0.751134 0.970022
O O5 0.250000 0.750000 0.528258
O O6 0.377045 0.750000 0.250000
O O7 0.362362 0.909253 0.411645
O O8 0.750000 0.551123 0.750000
O O9 0.507111 0.542182 0.762401
O O10 0.623619 0.569784 0.058903
O O11 0.750000 0.036688 0.250000
#
# Coordination Sequence:
#
# PCOD9389476 Si02
#       4
#     8   8   8   8
#     4  10  15  28  52  77  99 129 185 224 253 308
#     4  10  15  28  52  77  99 129 185 224 253 308
#     4  11  21  34  53  83 115 144 180 232 282 324
#     4  11  21  34  53  83 115 144 180 232 282 324
#
# _framework density 27.9693
#
# number of rings (size 3 to 8) (size 9 to 14) (size 15 to 20)
#    0.000    1.500   10.000    0.000    0.000    1.000 
#    0.000    0.000    0.000    1.500    0.000   10.500 
#    0.000    0.000    0.000    0.000    0.000    0.000 
#
# Total GULP energy -178891.703353 kJ/mol
# GULP energy per Si atom -5590.365730 kJ/mol
# Density = 2.790564 g / cm^3
# Si number density = 27.969300 Si / 1000 Ang^3
#
#
#
# Elastic Constant Matrix: (Units=GPa)
#
#
# Indices 1 2 3 4 5 6 
#
# 1 339.2703 12.1202 54.7594 0.0000 0.0000 0.0000
# 2 12.1202 115.1260 37.8468 0.0000 0.0000 0.0000
# 3 54.7594 37.8468 123.6282 0.0000 0.0000 0.0000
# 4 0.0000 0.0000 0.0000 34.5300 0.0000 0.0000
# 5 0.0000 0.0000 0.0000 0.0000 17.7126 0.0000
# 6 0.0000 0.0000 0.0000 0.0000 0.0000 14.0357
#
#
#
# Elastic Compliance Matrix: (Units=1/GPa)
#
#
# Indices 1 2 3 4 5 6 
#
# 1 0.003177 0.000142 -0.001451 0.000000 0.000000 0.000000
# 2 0.000142 0.009665 -0.003022 0.000000 0.000000 0.000000
# 3 -0.001451 -0.003022 0.009656 0.000000 0.000000 0.000000
# 4 0.000000 0.000000 0.000000 0.028960 0.000000 0.000000
# 5 0.000000 0.000000 0.000000 0.000000 0.056457 0.000000
# 6 0.000000 0.000000 0.000000 0.000000 0.000000 0.071247
#
#
# Mechanical properties :
#
#
# Convention : Reuss Voigt Hill
#
# Bulk Modulus (GPa) = 72.26672 87.49747 79.88210
# Shear Modulus (GPa) = 25.98293 44.80886 35.39589
#
# Velocity S-wave (km/s) = 3.05122 4.00693 3.56128
# Velocity P-wave (km/s) = 6.18929 7.26352 6.74781
#
# Compressibility (1/GPa) = 0.01383763
#
# Stress axis : x y z
#
# Youngs Moduli (GPa) = 314.80712 103.47135 103.55877
#
# Poissons Ratio (x) = -0.01474 0.15022
# Poissons Ratio (y) = -0.04485 0.31293
# Poissons Ratio (z) = 0.45667 0.31266
#
# Static dielectric constant tensor:
#      x y z
#    x 2.351100 0.000000 0.000000 
#    y 0.000000 2.215120 0.000000 
#    z 0.000000 0.000000 2.116820 
# 
# From -- ./inp_files/10147.got.cif
#   From: 2010.05.17/outbox.cif.g08.bks.cpg/sg48_6_cif.got.tgz:10147.got - 2010.06.03 20:39:00.
