data_PCOD9389467
_publ_section_title
;
Structure prediction by ZEFSAII (Michael W. Deem and Ramdas Pophale) SiO2 
 PCOD9389467
Probable space group: P M M M
;
_chemical_formula_sum "Si O2"
_cell_formula_units_Z 52
_cell_length_a 18.000000
_cell_length_b 18.000000
_cell_length_c 9.000000
_cell_angle_alpha 90.000000
_cell_angle_beta 90.000000
_cell_angle_gamma 90.000000
_cell_volume 2916.000000
_symmetry_space_group_name_H-M "P M M M"
_symmetry_group_IT_number 47
_symmetry_cell_setting 'orthorhombic'
loop_
_space_group_symop_operation_xyz
x,y,z
-x,-y,z
x,-y,-z
-x,y,-z
-x,-y,-z
x,y,-z
-x,y,z
x,-y,z
loop_
_atom_site_type_symbol
_atom_site_label
_atom_site_fract_x
_atom_site_fract_y
_atom_site_fract_z
Si Si1 0.585798 0.500000 0.318651
Si Si2 0.000000 0.854713 0.172136
Si Si3 0.000000 0.326143 0.172483
Si Si4 0.152379 0.852698 0.676677
Si Si5 0.414620 0.216791 0.318603
Si Si6 0.846673 0.325275 0.323116
Si Si7 0.317712 0.358570 0.681313
Si Si8 0.689200 0.916246 0.318634
O O1 0.500000 0.500000 0.269048
O O2 0.583751 0.500000 0.500000
O O3 0.632447 0.428074 0.272525
O O4 0.076572 0.879662 0.247801
O O5 0.000000 0.764259 0.184891
O O6 0.000000 0.874478 0.000000
O O7 0.077027 0.351301 0.247496
O O8 0.000000 0.345631 0.000000
O O9 0.145601 0.864475 0.500000
O O10 0.159868 0.763861 0.700263
O O11 0.228524 0.890512 0.728897
O O12 0.416072 0.217729 0.500000
O O13 0.500000 0.223834 0.269265
O O14 0.361558 0.284537 0.272673
O O15 0.374009 0.141313 0.271346
O O16 0.853356 0.337325 0.500000
O O17 0.768321 0.359405 0.270201
O O18 0.315158 0.357822 0.500000
O O19 0.690263 0.914354 0.500000
O O20 0.674267 0.000000 0.271488
#
# Coordination Sequence:
#
# PCOD9389467 Si02
#       8
#     4   4   4   8   8   8   8   8
#     4   9  16  24  36  59  93 126 150 177 219 267
#     4   9  17  27  42  64  88 111 141 185 228 265
#     4   9  17  27  41  67  95 113 142 189 230 260
#     4   9  15  26  42  60  83 115 150 181 217 263
#     4   9  15  23  36  55  82 114 145 179 221 264
#     4   9  15  25  43  63  87 119 153 182 215 264
#     4   9  15  24  38  59  87 119 151 180 214 261
#     4   9  16  25  37  55  80 111 148 185 217 256
#
# _framework density 17.832647000000001
#
# number of rings (size 3 to 8) (size 9 to 14) (size 15 to 20)
#    0.000    3.000    1.538    0.923    0.000    4.000 
#    0.000    1.923    0.000    3.231    0.000    3.769 
#    0.000    4.923    0.000    1.385    0.000    1.538 
#
# Total GULP energy -289643.631758 kJ/mol
# GULP energy per Si atom -5570.069842 kJ/mol
# Density = 1.779206 g / cm^3
# Si number density = 17.832647 Si / 1000 Ang^3
#
#
#
# Elastic Constant Matrix: (Units=GPa)
#
#
# Indices 1 2 3 4 5 6 
#
# 1 206.7802 72.6638 29.2102 0.0000 0.0000 0.0000
# 2 72.6638 68.0620 20.6598 0.0000 0.0000 0.0000
# 3 29.2102 20.6598 1.2085 0.0000 0.0000 0.0000
# 4 0.0000 0.0000 0.0000 2.4990 0.0000 0.0000
# 5 0.0000 0.0000 0.0000 0.0000 -1.9341 0.0000
# 6 0.0000 0.0000 0.0000 0.0000 0.0000 9.3941
#
#
#
# Elastic Compliance Matrix: (Units=1/GPa)
#
#
# Indices 1 2 3 4 5 6 
#
# 1 0.007178 -0.010742 0.010143 0.000000 0.000000 0.000000
# 2 -0.010742 0.012569 0.044779 0.000000 0.000000 0.000000
# 3 0.010143 0.044779 -0.183194 0.000000 0.000000 0.000000
# 4 0.000000 0.000000 0.000000 0.400156 0.000000 0.000000
# 5 0.000000 0.000000 0.000000 0.000000 -0.517033 0.000000
# 6 0.000000 0.000000 0.000000 0.000000 0.000000 0.106450
#
#
# Mechanical properties :
#
#
# Convention : Reuss Voigt Hill
#
# Bulk Modulus (GPa) = -13.31762 57.90204 22.29221
# Shear Modulus (GPa) = -17.40572 12.22626 -2.58973
#
# Velocity S-wave (km/s) = -3.12758 2.62126 -1.20640
# Velocity P-wave (km/s) = 4.53064 6.45767 3.25383
#
# Compressibility (1/GPa) = -0.07508847
#
# Stress axis : x y z
#
# Youngs Moduli (GPa) = 139.31157 79.56172 -5.45870
#
# Poissons Ratio (x) = 0.85468 0.05537
# Poissons Ratio (y) = 1.49653 0.24443
# Poissons Ratio (z) = -1.41302 -3.56266
#
# Static dielectric constant tensor:
#      x y z
#    x 1.604710 0.000000 0.000000 
#    y 0.000000 1.616290 0.000000 
#    z 0.000000 0.000000 1.586790 
# 
# From -- ./inp_files/9630.got.cif
#   From: 2010.05.17/outbox.ucp.g08.bks.cvg/sg47_5_cif.got.tgz:9630.got - 2010.06.11 16:36:43.
