data_PCOD9389949
_publ_section_title
;
Structure prediction by ZEFSAII (Michael W. Deem and Ramdas Pophale) SiO2 
 PCOD9389949
Probable space group: P N N N
;
_chemical_formula_sum "Si O2"
_cell_formula_units_Z 48
_cell_length_a 11.288453
_cell_length_b 17.194483
_cell_length_c 11.417324
_cell_angle_alpha 90.000000
_cell_angle_beta 90.000000
_cell_angle_gamma 90.000000
_cell_volume 2216.092464
_symmetry_space_group_name_H-M "P N N N"
_symmetry_group_IT_number 48
_space_group.IT_coordinate_system_code '2'
_symmetry_cell_setting 'orthorhombic'
loop_
_space_group_symop_operation_xyz
x,y,z
1/2-x,1/2-y,z
x,1/2-y,1/2-z
1/2-x,y,1/2-z
-x,-y,-z
1/2+x,1/2+y,-z
-x,1/2+y,1/2+z
1/2+x,-y,1/2+z
loop_
_atom_site_type_symbol
_atom_site_label
_atom_site_fract_x
_atom_site_fract_y
_atom_site_fract_z
Si Si1 0.986380 0.428994 0.654992
Si Si2 0.704272 0.661182 0.870769
Si Si3 0.822185 0.450268 0.449994
Si Si4 0.057066 0.981329 0.622431
Si Si5 0.059784 0.663075 0.711112
Si Si6 0.799270 0.662046 0.372013
O O1 0.077644 0.490743 0.596752
O O2 0.996273 0.457380 0.788097
O O3 0.058521 0.348450 0.638141
O O4 0.862678 0.435328 0.584823
O O5 0.750000 0.750000 0.868638
O O6 0.750000 0.622688 0.750000
O O7 0.563497 0.662352 0.859845
O O8 0.736906 0.629967 0.999133
O O9 0.696782 0.481490 0.406719
O O10 0.842842 0.372052 0.375140
O O11 0.039011 0.896306 0.681053
O O12 0.000000 0.000000 0.500000
O O13 0.084744 0.750000 0.750000
O O14 0.750000 0.750000 0.373197
O O15 0.750000 0.626988 0.250000
#
# Coordination Sequence:
#
# PCOD9389949 Si02
#       6
#     8   8   8   8   8   8
#     4  10  20  41  65  90 127 176 216 274 340 419
#     4  10  19  34  55  97 141 164 219 287 352 406
#     4  10  22  41  65  91 127 172 232 270 343 423
#     4  11  26  45  64  99 133 181 236 290 354 430
#     4  11  21  41  68  97 131 179 225 291 349 421
#     4  10  20  34  58  92 136 181 219 269 344 426
#
# _framework density 21.659746999999999
#
# number of rings (size 3 to 8) (size 9 to 14) (size 15 to 20)
#    0.000    1.667    3.333    3.000    0.000    4.667 
#    3.000    0.000    0.000    0.000    0.000    2.333 
#    0.000    0.000    0.000    0.000    0.000    0.000 
#
# Total GULP energy -267548.341311 kJ/mol
# GULP energy per Si atom -5573.923777 kJ/mol
# Density = 2.161045 g / cm^3
# Si number density = 21.659747 Si / 1000 Ang^3
#
#
#
# Elastic Constant Matrix: (Units=GPa)
#
#
# Indices 1 2 3 4 5 6 
#
# 1 49.1268 15.9067 47.1904 0.0000 0.0000 0.0000
# 2 15.9067 106.7719 42.9115 0.0000 0.0000 0.0000
# 3 47.1904 42.9115 235.7639 0.0000 0.0000 0.0000
# 4 0.0000 0.0000 0.0000 -6.7308 0.0000 0.0000
# 5 0.0000 0.0000 0.0000 0.0000 30.5861 0.0000
# 6 0.0000 0.0000 0.0000 0.0000 0.0000 19.9893
#
#
#
# Elastic Compliance Matrix: (Units=1/GPa)
#
#
# Indices 1 2 3 4 5 6 
#
# 1 0.025549 -0.001889 -0.004770 0.000000 0.000000 0.000000
# 2 -0.001889 0.010245 -0.001486 0.000000 0.000000 0.000000
# 3 -0.004770 -0.001486 0.005467 0.000000 0.000000 0.000000
# 4 0.000000 0.000000 0.000000 -0.148570 0.000000 0.000000
# 5 0.000000 0.000000 0.000000 0.000000 0.032695 0.000000
# 6 0.000000 0.000000 0.000000 0.000000 0.000000 0.050027
#
#
# Mechanical properties :
#
#
# Convention : Reuss Voigt Hill
#
# Bulk Modulus (GPa) = 40.04930 67.07553 53.56241
# Shear Modulus (GPa) = 190197.44941 27.81252 95112.63096
#
# Velocity S-wave (km/s) = 296.65150 3.58727 209.77962
# Velocity P-wave (km/s) = 342.57069 6.94212 242.28379
#
# Compressibility (1/GPa) = 0.02496922
#
# Stress axis : x y z
#
# Youngs Moduli (GPa) = 39.14012 97.61218 182.92022
#
# Poissons Ratio (x) = 0.18441 0.87254
# Poissons Ratio (y) = 0.07394 0.27191
# Poissons Ratio (z) = 0.18670 0.14510
#
# Static dielectric constant tensor:
#      x y z
#    x 1.791030 0.000000 0.000000 
#    y 0.000000 1.235600 0.000000 
#    z 0.000000 0.000000 1.858330 
# 
# From -- ./inp_files/20094.got.cif
#   From: 2010.05.17/outbox.cif.g08.bks.cpg/sg48_11_cif.got.tgz:20094.got - 2010.06.03 20:39:00.
