data_PCOD9389485
_publ_section_title
;
Structure prediction by ZEFSAII (Michael W. Deem and Ramdas Pophale) SiO2 
 PCOD9389485
Probable space group: P N N N
;
_chemical_formula_sum "Si O2"
_cell_formula_units_Z 48
_cell_length_a 13.785102
_cell_length_b 9.809932
_cell_length_c 14.153045
_cell_angle_alpha 90.000000
_cell_angle_beta 90.000000
_cell_angle_gamma 90.000000
_cell_volume 1913.929200
_symmetry_space_group_name_H-M "P N N N"
_symmetry_group_IT_number 48
_space_group.IT_coordinate_system_code '2'
_symmetry_cell_setting 'orthorhombic'
loop_
_space_group_symop_operation_xyz
x,y,z
1/2-x,1/2-y,z
x,1/2-y,1/2-z
1/2-x,y,1/2-z
-x,-y,-z
1/2+x,1/2+y,-z
-x,1/2+y,1/2+z
1/2+x,-y,1/2+z
loop_
_atom_site_type_symbol
_atom_site_label
_atom_site_fract_x
_atom_site_fract_y
_atom_site_fract_z
Si Si1 0.403218 0.310508 0.157433
Si Si2 0.069432 0.606356 0.881884
Si Si3 0.449666 0.845626 0.106920
Si Si4 0.750000 0.250000 0.578015
Si Si5 0.983384 0.955456 0.109240
Si Si6 0.726593 0.039193 0.410783
Si Si7 0.750000 0.750000 0.001879
O O1 0.355103 0.250000 0.250000
O O2 0.505605 0.232780 0.149737
O O3 0.429309 0.468351 0.161974
O O4 0.341408 0.274973 0.065904
O O5 0.182589 0.604766 0.856232
O O6 0.011312 0.470436 0.852938
O O7 0.066531 0.617575 0.996225
O O8 0.339103 0.813012 0.136475
O O9 0.508572 0.705870 0.118085
O O10 0.788169 0.368059 0.505321
O O11 0.877156 0.011288 0.135748
O O12 0.000000 0.000000 0.000000
O O13 0.763517 0.888410 0.440493
#
# Coordination Sequence:
#
# PCOD9389485 Si02
#       7
#     8   8   8   4   8   8   4
#     4  12  25  40  58  87 133 171 196 245 324 400
#     4  10  20  35  53  87 117 151 203 254 312 349
#     4  10  18  31  56  81 113 142 197 268 293 339
#     4  10  16  26  44  82 108 142 174 236 316 338
#     4  12  19  37  57  87 116 156 211 255 302 357
#     4  11  20  31  61  87 114 147 204 269 300 345
#     4  12  21  38  62  94 121 154 206 258 316 369
#
# _framework density 25.079298000000001
#
# number of rings (size 3 to 8) (size 9 to 14) (size 15 to 20)
#    0.000    1.000    5.000    5.250    0.000    0.000 
#    0.000    2.500    0.000    0.000    0.000   12.833 
#    0.000    0.000    0.000    0.000    0.000    0.000 
#
# Total GULP energy -268732.419369 kJ/mol
# GULP energy per Si atom -5598.592070 kJ/mol
# Density = 2.502222 g / cm^3
# Si number density = 25.079298 Si / 1000 Ang^3
#
#
#
# Elastic Constant Matrix: (Units=GPa)
#
#
# Indices 1 2 3 4 5 6 
#
# 1 175.4194 28.7779 4.7253 0.0000 0.0000 0.0000
# 2 28.7779 142.1044 -10.1753 0.0000 0.0000 0.0000
# 3 4.7253 -10.1753 35.9364 0.0000 0.0000 0.0000
# 4 0.0000 0.0000 0.0000 10.4149 0.0000 0.0000
# 5 0.0000 0.0000 0.0000 0.0000 91.7240 0.0000
# 6 0.0000 0.0000 0.0000 0.0000 0.0000 46.0325
#
#
#
# Elastic Compliance Matrix: (Units=1/GPa)
#
#
# Indices 1 2 3 4 5 6 
#
# 1 0.005942 -0.001285 -0.001145 0.000000 0.000000 0.000000
# 2 -0.001285 0.007461 0.002282 0.000000 0.000000 0.000000
# 3 -0.001145 0.002282 0.028624 0.000000 0.000000 0.000000
# 4 0.000000 0.000000 0.000000 0.096017 0.000000 0.000000
# 5 0.000000 0.000000 0.000000 0.000000 0.010902 0.000000
# 6 0.000000 0.000000 0.000000 0.000000 0.000000 0.021724
#
#
# Mechanical properties :
#
#
# Convention : Reuss Voigt Hill
#
# Bulk Modulus (GPa) = 23.96458 44.45734 34.21096
# Shear Modulus (GPa) = 27.04498 51.64308 39.34403
#
# Velocity S-wave (km/s) = 3.28743 4.54275 3.96509
# Velocity P-wave (km/s) = 4.89754 6.72909 5.88500
#
# Compressibility (1/GPa) = 0.04172824
#
# Stress axis : x y z
#
# Youngs Moduli (GPa) = 168.28362 134.03460 34.93624
#
# Poissons Ratio (x) = 0.17229 0.04001
# Poissons Ratio (y) = 0.21631 -0.07971
# Poissons Ratio (z) = 0.19274 -0.30580
#
# Static dielectric constant tensor:
#      x y z
#    x 2.034950 0.000000 0.000000 
#    y 0.000000 1.958720 0.000000 
#    z 0.000000 0.000000 2.045110 
# 
# From -- ./inp_files/31592.got.cif
#   From: 2010.05.17/outbox.cif.g08.bks.cpg/sg48_16_cif.got.tgz:31592.got - 2010.06.03 20:39:00.
