data_PCOD9389093
_publ_section_title
;
Structure prediction by ZEFSAII (Michael W. Deem and Ramdas Pophale) SiO2 
 PCOD9389093
Probable space group: P M M M
;
_chemical_formula_sum "Si O2"
_cell_formula_units_Z 44
_cell_length_a 9.669080
_cell_length_b 31.426850
_cell_length_c 7.435849
_cell_angle_alpha 90.000000
_cell_angle_beta 90.000000
_cell_angle_gamma 90.000000
_cell_volume 2259.521968
_symmetry_space_group_name_H-M "P M M M"
_symmetry_group_IT_number 47
_symmetry_cell_setting 'orthorhombic'
loop_
_space_group_symop_operation_xyz
x,y,z
-x,-y,z
x,-y,-z
-x,y,-z
-x,-y,-z
x,y,-z
-x,y,z
x,-y,z
loop_
_atom_site_type_symbol
_atom_site_label
_atom_site_fract_x
_atom_site_fract_y
_atom_site_fract_z
Si Si1 0.657262 0.125550 0.284357
Si Si2 0.342046 0.778931 0.785479
Si Si3 0.667449 0.451865 0.500000
Si Si4 0.159943 0.047227 0.719359
Si Si5 0.663405 0.382093 0.786246
Si Si6 0.158955 0.700299 0.219504
O O1 0.651755 0.121539 0.500000
O O2 0.500000 0.123124 0.215437
O O3 0.709681 0.173124 0.246536
O O4 0.749493 0.086721 0.216743
O O5 0.500000 0.775704 0.714813
O O6 0.241196 0.742158 0.717939
O O7 0.350804 0.773309 0.000000
O O8 0.721512 0.500000 0.500000
O O9 0.500000 0.454578 0.500000
O O10 0.704353 0.423628 0.673482
O O11 0.162056 0.047696 0.500000
O O12 0.000000 0.051811 0.772884
O O13 0.208625 0.000000 0.774139
O O14 0.500000 0.373267 0.752714
O O15 0.755063 0.341721 0.731057
O O16 0.679222 0.388806 0.000000
O O17 0.000000 0.699269 0.279098
O O18 0.157264 0.701219 0.000000
#
# Coordination Sequence:
#
# PCOD9389093 Si02
#       6
#     8   8   4   8   8   8
#     4   9  17  28  42  63  88 110 139 183 228 269
#     4   9  17  30  47  65  89 122 154 184 227 284
#     4   9  18  32  51  79 109 133 167 213 252 291
#     4   8  14  25  41  60  82 110 143 179 222 271
#     4   9  17  31  52  75 100 133 169 205 249 296
#     4   9  17  30  49  71  94 122 159 200 236 277
#
# _framework density 19.473144999999999
#
# number of rings (size 3 to 8) (size 9 to 14) (size 15 to 20)
#    0.000    3.182    0.000    1.091    0.000    3.636 
#    1.636    4.091    0.000    1.636    0.000    6.364 
#    0.000    0.000    0.000    0.000    0.000    0.000 
#
# Total GULP energy -245379.886589 kJ/mol
# GULP energy per Si atom -5576.815604 kJ/mol
# Density = 1.942882 g / cm^3
# Si number density = 19.473145 Si / 1000 Ang^3
#
#
#
# Elastic Constant Matrix: (Units=GPa)
#
#
# Indices 1 2 3 4 5 6 
#
# 1 86.4062 107.9382 22.1149 0.0000 0.0000 0.0000
# 2 107.9382 234.7624 31.9282 0.0000 0.0000 0.0000
# 3 22.1149 31.9282 64.3900 0.0000 0.0000 0.0000
# 4 0.0000 0.0000 0.0000 22.9171 0.0000 0.0000
# 5 0.0000 0.0000 0.0000 0.0000 1.3636 0.0000
# 6 0.0000 0.0000 0.0000 0.0000 0.0000 -49.3554
#
#
#
# Elastic Compliance Matrix: (Units=1/GPa)
#
#
# Indices 1 2 3 4 5 6 
#
# 1 0.027888 -0.012352 -0.003453 0.000000 0.000000 0.000000
# 2 -0.012352 0.010039 -0.000735 0.000000 0.000000 0.000000
# 3 -0.003453 -0.000735 0.017081 0.000000 0.000000 0.000000
# 4 0.000000 0.000000 0.000000 0.043636 0.000000 0.000000
# 5 0.000000 0.000000 0.000000 0.000000 0.733367 0.000000
# 6 0.000000 0.000000 0.000000 0.000000 0.000000 -0.020261
#
#
# Mechanical properties :
#
#
# Convention : Reuss Voigt Hill
#
# Bulk Modulus (GPa) = 45.60837 78.83568 62.22202
# Shear Modulus (GPa) = 5.86758 9.89020 7.87889
#
# Velocity S-wave (km/s) = 1.73773 2.25608 2.01366
# Velocity P-wave (km/s) = 5.24388 6.88177 6.11789
#
# Compressibility (1/GPa) = 0.02192580
#
# Stress axis : x y z
#
# Youngs Moduli (GPa) = 35.85823 99.61153 58.54461
#
# Poissons Ratio (x) = 1.23044 0.20216
# Poissons Ratio (y) = 0.44294 0.04306
# Poissons Ratio (z) = 0.12382 0.07326
#
# Static dielectric constant tensor:
#      x y z
#    x 1.659550 0.000000 0.000000 
#    y 0.000000 1.659770 0.000000 
#    z 0.000000 0.000000 1.758050 
# 
# From -- ./inp_files/2025.got.cif
#   From: 2010.05.17/outbox.cif.g08.bks.cpg/sg47_2_cif.got.tgz:2025.got - 2010.06.03 20:15:42.
