data_PCOD9389929
_publ_section_title
;
Structure prediction by ZEFSAII (Michael W. Deem and Ramdas Pophale) SiO2 
 PCOD9389929
Probable space group: P N N N
;
_chemical_formula_sum "Si O2"
_cell_formula_units_Z 64
_cell_length_a 9.758937
_cell_length_b 22.432821
_cell_length_c 15.303669
_cell_angle_alpha 90.000000
_cell_angle_beta 90.000000
_cell_angle_gamma 90.000000
_cell_volume 3350.286668
_symmetry_space_group_name_H-M "P N N N"
_symmetry_group_IT_number 48
_space_group.IT_coordinate_system_code '2'
_symmetry_cell_setting 'orthorhombic'
loop_
_space_group_symop_operation_xyz
x,y,z
1/2-x,1/2-y,z
x,1/2-y,1/2-z
1/2-x,y,1/2-z
-x,-y,-z
1/2+x,1/2+y,-z
-x,1/2+y,1/2+z
1/2+x,-y,1/2+z
loop_
_atom_site_type_symbol
_atom_site_label
_atom_site_fract_x
_atom_site_fract_y
_atom_site_fract_z
Si Si1 0.292996 0.616622 0.653555
Si Si2 0.902728 0.191360 0.597181
Si Si3 0.988024 0.979065 0.600580
Si Si4 0.588040 0.414259 0.725724
Si Si5 0.989726 0.156680 0.073481
Si Si6 0.991987 0.706993 0.899054
Si Si7 0.574054 0.321930 0.879126
Si Si8 0.736914 0.884222 0.853868
O O1 0.250000 0.599616 0.750000
O O2 0.382463 0.563803 0.614256
O O3 0.158916 0.632248 0.598472
O O4 0.393298 0.673785 0.658115
O O5 0.943495 0.133035 0.649002
O O6 0.958527 0.194743 0.498875
O O7 0.737321 0.184125 0.599861
O O8 0.952463 0.252411 0.644115
O O9 0.853054 0.938418 0.610425
O O10 0.975225 0.026456 0.681212
O O11 0.000000 0.000000 0.500000
O O12 0.750000 0.425122 0.750000
O O13 0.544385 0.374618 0.810647
O O14 0.007739 0.222600 0.114085
O O15 0.111667 0.116422 0.107869
O O16 0.999174 0.163872 0.969651
O O17 0.847770 0.675230 0.880664
O O18 0.750000 0.887098 0.750000
#
# Coordination Sequence:
#
# PCOD9389929 Si02
#       8
#     8   8   8   8   8   8   8   8
#     4  11  23  39  60  87 122 158 211 262 300 364
#     4   9  16  33  58  92 125 154 191 245 310 383
#     4  11  25  45  64  81 117 175 215 258 313 371
#     4  10  19  33  62  88 117 156 209 250 310 365
#     4  11  21  37  61  94 126 156 196 260 311 367
#     4  10  20  36  62  89 127 166 193 234 323 390
#     4   9  18  31  58  96 127 146 191 257 313 369
#     4  11  24  41  60  89 125 160 211 258 302 372
#
# _framework density 19.102843
#
# number of rings (size 3 to 8) (size 9 to 14) (size 15 to 20)
#    0.000    1.750    1.250    4.500    1.750    4.500 
#    2.250    0.625    0.000    0.000    0.000    3.500 
#    0.000    0.000    0.000    0.000    0.000    0.000 
#
# Total GULP energy -356749.868025 kJ/mol
# GULP energy per Si atom -5574.216688 kJ/mol
# Density = 1.905936 g / cm^3
# Si number density = 19.102843 Si / 1000 Ang^3
#
#
#
# Elastic Constant Matrix: (Units=GPa)
#
#
# Indices 1 2 3 4 5 6 
#
# 1 45.2074 26.3167 1.5496 0.0000 0.0000 0.0000
# 2 26.3167 100.9624 31.1024 0.0000 0.0000 0.0000
# 3 1.5496 31.1024 56.5739 0.0000 0.0000 0.0000
# 4 0.0000 0.0000 0.0000 45.7254 0.0000 0.0000
# 5 0.0000 0.0000 0.0000 0.0000 20.2095 0.0000
# 6 0.0000 0.0000 0.0000 0.0000 0.0000 10.2247
#
#
#
# Elastic Compliance Matrix: (Units=1/GPa)
#
#
# Indices 1 2 3 4 5 6 
#
# 1 0.026715 -0.008112 0.003728 0.000000 0.000000 0.000000
# 2 -0.008112 0.014387 -0.007687 0.000000 0.000000 0.000000
# 3 0.003728 -0.007687 0.021800 0.000000 0.000000 0.000000
# 4 0.000000 0.000000 0.000000 0.021870 0.000000 0.000000
# 5 0.000000 0.000000 0.000000 0.000000 0.049482 0.000000
# 6 0.000000 0.000000 0.000000 0.000000 0.000000 0.097802
#
#
# Mechanical properties :
#
#
# Convention : Reuss Voigt Hill
#
# Bulk Modulus (GPa) = 25.80026 35.63124 30.71575
# Shear Modulus (GPa) = 18.57917 24.81691 21.69804
#
# Velocity S-wave (km/s) = 3.12202 3.60824 3.37390
# Velocity P-wave (km/s) = 5.15085 6.00433 5.59389
#
# Compressibility (1/GPa) = 0.03875930
#
# Stress axis : x y z
#
# Youngs Moduli (GPa) = 37.43264 69.50582 45.87117
#
# Poissons Ratio (x) = 0.56382 -0.17100
# Poissons Ratio (y) = 0.30365 0.35263
# Poissons Ratio (z) = -0.13954 0.53432
#
# Static dielectric constant tensor:
#      x y z
#    x 1.686500 0.000000 0.000000 
#    y 0.000000 1.715350 0.000000 
#    z 0.000000 0.000000 1.677780 
# 
# From -- ./inp_files/25754.got.cif
#   From: 2010.05.17/outbox.cif.g08.bks.cpg/sg48_13_cif.got.tgz:25754.got - 2010.06.03 20:39:00.
