data_PCOD9389286
_publ_section_title
;
Structure prediction by ZEFSAII (Michael W. Deem and Ramdas Pophale) SiO2 
 PCOD9389286
Probable space group: P M M M
;
_chemical_formula_sum "Si O2"
_cell_formula_units_Z 64
_cell_length_a 9.000000
_cell_length_b 24.000000
_cell_length_c 15.000000
_cell_angle_alpha 90.000000
_cell_angle_beta 90.000000
_cell_angle_gamma 90.000000
_cell_volume 3240.000000
_symmetry_space_group_name_H-M "P M M M"
_symmetry_group_IT_number 47
_symmetry_cell_setting 'orthorhombic'
loop_
_space_group_symop_operation_xyz
x,y,z
-x,-y,z
x,-y,-z
-x,y,-z
-x,-y,-z
x,y,-z
-x,y,z
x,-y,z
loop_
_atom_site_type_symbol
_atom_site_label
_atom_site_fract_x
_atom_site_fract_y
_atom_site_fract_z
Si Si1 0.823305 0.117900 0.897340
Si Si2 0.671769 0.731765 0.643944
Si Si3 0.181325 0.439446 0.223463
Si Si4 0.821119 0.615510 0.598508
Si Si5 0.680742 0.851784 0.595844
Si Si6 0.330038 0.233310 0.149352
Si Si7 0.678230 0.061462 0.740686
Si Si8 0.171239 0.657935 0.901297
O O1 0.762360 0.177759 0.866118
O O2 0.749986 0.071716 0.835688
O O3 0.000000 0.116866 0.888567
O O4 0.783211 0.110345 0.000000
O O5 0.500000 0.723013 0.616537
O O6 0.761984 0.676708 0.622503
O O7 0.732328 0.788200 0.600186
O O8 0.673109 0.747144 0.748110
O O9 0.232301 0.500000 0.193301
O O10 0.223816 0.427274 0.324949
O O11 0.234416 0.387548 0.165714
O O12 0.000000 0.438990 0.217562
O O13 0.770218 0.599953 0.500000
O O14 0.000000 0.617457 0.599033
O O15 0.716556 0.876596 0.500000
O O16 0.500000 0.848812 0.603424
O O17 0.734145 0.890389 0.675119
O O18 0.500000 0.222489 0.123944
O O19 0.260749 0.285286 0.098789
O O20 0.500000 0.066841 0.748048
O O21 0.711105 0.000000 0.705677
O O22 0.000000 0.670887 0.876026
O O23 0.169789 0.633326 0.000000
#
# Coordination Sequence:
#
# PCOD9389286 Si02
#       8
#     8   8   8   8   8   8   8   8
#     4  11  24  40  59  83 112 147 185 227 277 331
#     4  10  19  33  55  80 109 144 177 216 270 328
#     4   9  18  33  52  75 105 141 182 228 271 312
#     4  10  20  33  52  79 108 139 177 221 270 323
#     4   9  17  32  55  83 113 143 178 221 269 322
#     4  11  21  35  58  85 112 142 178 221 271 329
#     4  10  21  38  59  84 114 148 189 233 274 319
#     4  10  20  34  54  80 109 141 177 218 270 329
#
# _framework density 19.753086
#
# number of rings (size 3 to 8) (size 9 to 14) (size 15 to 20)
#    0.000    2.000    2.500    1.500    0.000    5.250 
#    0.000    5.000    0.000    1.875    0.000    2.625 
#    0.000    0.000    0.000    0.000    0.000    0.000 
#
# Total GULP energy -356902.453793 kJ/mol
# GULP energy per Si atom -5576.600841 kJ/mol
# Density = 1.970813 g / cm^3
# Si number density = 19.753086 Si / 1000 Ang^3
#
#
#
# Elastic Constant Matrix: (Units=GPa)
#
#
# Indices 1 2 3 4 5 6 
#
# 1 -14.9954 3.3412 8.7614 0.0000 0.0000 0.0000
# 2 3.3412 52.1280 19.2011 0.0000 0.0000 0.0000
# 3 8.7614 19.2011 62.3902 0.0000 0.0000 0.0000
# 4 0.0000 0.0000 0.0000 -19.5441 0.0000 0.0000
# 5 0.0000 0.0000 0.0000 0.0000 12.0029 0.0000
# 6 0.0000 0.0000 0.0000 0.0000 0.0000 21.1869
#
#
#
# Elastic Compliance Matrix: (Units=1/GPa)
#
#
# Indices 1 2 3 4 5 6 
#
# 1 -0.061596 0.000859 0.008385 0.000000 0.000000 0.000000
# 2 0.000859 0.021624 -0.006776 0.000000 0.000000 0.000000
# 3 0.008385 -0.006776 0.016936 0.000000 0.000000 0.000000
# 4 0.000000 0.000000 0.000000 -0.051166 0.000000 0.000000
# 5 0.000000 0.000000 0.000000 0.000000 0.083313 0.000000
# 6 0.000000 0.000000 0.000000 0.000000 0.000000 0.047199
#
#
# Mechanical properties :
#
#
# Convention : Reuss Voigt Hill
#
# Bulk Modulus (GPa) = -55.25446 18.01446 -18.62000
# Shear Modulus (GPa) = 110.28090 7.27709 58.77900
#
# Velocity S-wave (km/s) = 7.48003 1.92146 5.46090
# Velocity P-wave (km/s) = 6.82407 3.74998 5.50592
#
# Compressibility (1/GPa) = -0.01809809
#
# Stress axis : x y z
#
# Youngs Moduli (GPa) = -16.23473 46.24435 59.04626
#
# Poissons Ratio (x) = -0.03974 -0.49513
# Poissons Ratio (y) = 0.01395 0.40008
# Poissons Ratio (z) = 0.13614 0.31334
#
# Static dielectric constant tensor:
#      x y z
#    x 1.678240 0.000000 0.000000 
#    y 0.000000 1.661420 0.000000 
#    z 0.000000 0.000000 1.763250 
# 
# From -- ./inp_files/7840.got.cif
#   From: 2010.05.17/outbox.ucp.g08.bks.cvg/sg47_4_cif.got.tgz:7840.got - 2010.06.11 16:36:43.
