data_PCOD9389024
_publ_section_title
;
Structure prediction by ZEFSAII (Michael W. Deem and Ramdas Pophale) SiO2 
 PCOD9389024
Probable space group: P M M M
;
_chemical_formula_sum "Si O2"
_cell_formula_units_Z 52
_cell_length_a 24.744663
_cell_length_b 7.539855
_cell_length_c 14.138856
_cell_angle_alpha 90.000000
_cell_angle_beta 90.000000
_cell_angle_gamma 90.000000
_cell_volume 2637.902921
_symmetry_space_group_name_H-M "P M M M"
_symmetry_group_IT_number 47
_symmetry_cell_setting 'orthorhombic'
loop_
_space_group_symop_operation_xyz
x,y,z
-x,-y,z
x,-y,-z
-x,y,-z
-x,-y,-z
x,y,-z
-x,y,z
x,-y,z
loop_
_atom_site_type_symbol
_atom_site_label
_atom_site_fract_x
_atom_site_fract_y
_atom_site_fract_z
Si Si1 0.226098 0.789656 0.897434
Si Si2 0.560851 0.716327 0.109187
Si Si3 0.331899 0.285742 0.207582
Si Si4 0.727286 0.710035 0.396177
Si Si5 0.937571 0.711423 0.000000
Si Si6 0.167570 0.784955 0.709137
Si Si7 0.939055 0.209587 0.790356
O O1 0.289054 0.763145 0.873710
O O2 0.195161 0.717987 0.806321
O O3 0.215480 0.000000 0.899975
O O4 0.211708 0.714872 0.000000
O O5 0.500000 0.772501 0.134867
O O6 0.561174 0.500000 0.110289
O O7 0.608796 0.776508 0.177594
O O8 0.571075 0.768586 0.000000
O O9 0.333018 0.500000 0.212446
O O10 0.307116 0.218463 0.307093
O O11 0.715053 0.784057 0.500000
O O12 0.716645 0.500000 0.398997
O O13 0.790810 0.732190 0.372093
O O14 0.916431 0.770903 0.102046
O O15 0.937017 0.500000 0.000000
O O16 0.000000 0.776041 0.000000
O O17 0.105664 0.722794 0.716763
O O18 0.167130 0.000000 0.709725
O O19 0.000000 0.285879 0.786473
O O20 0.943848 0.000000 0.774338
#
# Coordination Sequence:
#
# PCOD9389024 Si02
#       7
#     8   8   8   8   4   8   8
#     4   9  17  27  39  58  87 117 139 168 212 254
#     4   8  13  21  36  61  90 117 145 177 209 241
#     4   9  16  27  44  63  83 110 147 182 211 251
#     4   9  18  32  48  65  86 110 138 179 230 273
#     4   9  17  27  39  59  87 119 153 181 204 239
#     4   9  18  30  46  66  86 110 143 179 215 262
#     4   9  17  29  45  63  85 115 148 180 216 259
#
# _framework density 19.712627000000001
#
# number of rings (size 3 to 8) (size 9 to 14) (size 15 to 20)
#    0.000    3.154    0.000    1.154    1.077    2.769 
#    0.000    0.000    0.000    1.385    0.000    8.615 
#    0.000    0.000    0.000    7.692    0.000    8.308 
#
# Total GULP energy -289757.339596 kJ/mol
# GULP energy per Si atom -5572.256531 kJ/mol
# Density = 1.966776 g / cm^3
# Si number density = 19.712627 Si / 1000 Ang^3
#
#
#
# Elastic Constant Matrix: (Units=GPa)
#
#
# Indices 1 2 3 4 5 6 
#
# 1 97.4377 -2.4527 25.8242 0.0000 0.0000 0.0000
# 2 -2.4527 51.4950 1.5179 0.0000 0.0000 0.0000
# 3 25.8242 1.5179 77.0692 0.0000 0.0000 0.0000
# 4 0.0000 0.0000 0.0000 9.2749 0.0000 0.0000
# 5 0.0000 0.0000 0.0000 0.0000 21.4162 0.0000
# 6 0.0000 0.0000 0.0000 0.0000 0.0000 12.6645
#
#
#
# Elastic Compliance Matrix: (Units=1/GPa)
#
#
# Indices 1 2 3 4 5 6 
#
# 1 0.011285 0.000649 -0.003794 0.000000 0.000000 0.000000
# 2 0.000649 0.019468 -0.000601 0.000000 0.000000 0.000000
# 3 -0.003794 -0.000601 0.014259 0.000000 0.000000 0.000000
# 4 0.000000 0.000000 0.000000 0.107818 0.000000 0.000000
# 5 0.000000 0.000000 0.000000 0.000000 0.046694 0.000000
# 6 0.000000 0.000000 0.000000 0.000000 0.000000 0.078961
#
#
# Mechanical properties :
#
#
# Convention : Reuss Voigt Hill
#
# Bulk Modulus (GPa) = 26.65256 30.64230 28.64743
# Shear Modulus (GPa) = 16.75139 22.07860 19.41500
#
# Velocity S-wave (km/s) = 2.91826 3.35031 3.14172
# Velocity P-wave (km/s) = 4.99048 5.52669 5.26542
#
# Compressibility (1/GPa) = 0.03751985
#
# Stress axis : x y z
#
# Youngs Moduli (GPa) = 88.61419 51.36632 70.13360
#
# Poissons Ratio (x) = -0.03335 0.26609
# Poissons Ratio (y) = -0.05754 0.04215
# Poissons Ratio (z) = 0.33621 0.03087
#
# Static dielectric constant tensor:
#      x y z
#    x 1.733350 0.000000 0.000000 
#    y 0.000000 1.744530 0.000000 
#    z 0.000000 0.000000 1.694800 
# 
# From -- ./inp_files/21741.got.cif
#   From: 2010.05.17/outbox.cif.g08.bks.cpg/sg47_11_cif.got.tgz:21741.got - 2010.06.03 20:15:42.
