data_PCOD9389577
_publ_section_title
;
Structure prediction by ZEFSAII (Michael W. Deem and Ramdas Pophale) SiO2 
 PCOD9389577
Probable space group: P N N N
;
_chemical_formula_sum "Si O2"
_cell_formula_units_Z 48
_cell_length_a 5.849003
_cell_length_b 21.255960
_cell_length_c 23.218662
_cell_angle_alpha 90.000000
_cell_angle_beta 90.000000
_cell_angle_gamma 90.000000
_cell_volume 2886.687407
_symmetry_space_group_name_H-M "P N N N"
_symmetry_group_IT_number 48
_space_group.IT_coordinate_system_code '2'
_symmetry_cell_setting 'orthorhombic'
loop_
_space_group_symop_operation_xyz
x,y,z
1/2-x,1/2-y,z
x,1/2-y,1/2-z
1/2-x,y,1/2-z
-x,-y,-z
1/2+x,1/2+y,-z
-x,1/2+y,1/2+z
1/2+x,-y,1/2+z
loop_
_atom_site_type_symbol
_atom_site_label
_atom_site_fract_x
_atom_site_fract_y
_atom_site_fract_z
Si Si1 0.366908 0.405120 0.019226
Si Si2 0.855555 0.971214 0.807714
Si Si3 0.997644 0.337015 0.278823
Si Si4 0.893882 0.979607 0.088480
Si Si5 0.868908 0.314555 0.401983
Si Si6 0.513486 0.426215 0.398130
O O1 0.484566 0.463962 0.052583
O O2 0.478229 0.343528 0.047085
O O3 0.108836 0.410018 0.041667
O O4 0.397416 0.418831 0.951969
O O5 0.750000 0.999683 0.750000
O O6 0.666646 0.935728 0.847103
O O7 0.011012 0.912858 0.787356
O O8 0.983293 0.019263 0.849911
O O9 0.750000 0.319660 0.250000
O O10 0.003780 0.306124 0.342201
O O11 0.250000 0.324853 0.250000
O O12 0.641951 0.007499 0.096550
O O13 0.750000 0.250000 0.418376
O O14 0.683986 0.368852 0.386954
#
# Coordination Sequence:
#
# PCOD9389577 Si02
#       6
#     8   8   8   8   8   8
#     4   9  18  32  46  71  90 125 166 214 261 309
#     4  10  19  29  49  72  98 131 163 205 257 308
#     4  11  22  37  52  69 101 137 180 222 257 304
#     4   9  17  29  50  68  95 121 165 207 259 321
#     4  11  22  35  49  68  96 135 178 223 260 299
#     4  10  17  33  46  69  93 131 168 215 258 308
#
# _framework density 16.628056999999998
#
# number of rings (size 3 to 8) (size 9 to 14) (size 15 to 20)
#    0.000    2.000    5.000    2.500    0.000    2.333 
#    0.000    3.333    0.000    0.000    0.000    0.000 
#    0.000    0.667    0.000    0.667    0.000    0.000 
#
# Total GULP energy -267368.800859 kJ/mol
# GULP energy per Si atom -5570.183351 kJ/mol
# Density = 1.659021 g / cm^3
# Si number density = 16.628057 Si / 1000 Ang^3
#
#
#
# Elastic Constant Matrix: (Units=GPa)
#
#
# Indices 1 2 3 4 5 6 
#
# 1 80.4417 24.0969 42.7349 0.0000 0.0000 0.0000
# 2 24.0969 46.7847 48.5995 0.0000 0.0000 0.0000
# 3 42.7349 48.5995 119.4580 0.0000 0.0000 0.0000
# 4 0.0000 0.0000 0.0000 11.2404 0.0000 0.0000
# 5 0.0000 0.0000 0.0000 0.0000 17.3317 0.0000
# 6 0.0000 0.0000 0.0000 0.0000 0.0000 4.7898
#
#
#
# Elastic Compliance Matrix: (Units=1/GPa)
#
#
# Indices 1 2 3 4 5 6 
#
# 1 0.015751 -0.003913 -0.004043 0.000000 0.000000 0.000000
# 2 -0.003913 0.037992 -0.014056 0.000000 0.000000 0.000000
# 3 -0.004043 -0.014056 0.015536 0.000000 0.000000 0.000000
# 4 0.000000 0.000000 0.000000 0.088965 0.000000 0.000000
# 5 0.000000 0.000000 0.000000 0.000000 0.057698 0.000000
# 6 0.000000 0.000000 0.000000 0.000000 0.000000 0.208778
#
#
# Mechanical properties :
#
#
# Convention : Reuss Voigt Hill
#
# Bulk Modulus (GPa) = 39.59738 53.06080 46.32909
# Shear Modulus (GPa) = 10.47862 15.42259 12.95060
#
# Velocity S-wave (km/s) = 2.51306 3.04880 2.79380
# Velocity P-wave (km/s) = 5.68207 6.66132 6.19109
#
# Compressibility (1/GPa) = 0.02525420
#
# Stress axis : x y z
#
# Youngs Moduli (GPa) = 63.48646 26.32159 64.36643
#
# Poissons Ratio (x) = 0.10300 0.26023
# Poissons Ratio (y) = 0.24843 0.90476
# Poissons Ratio (z) = 0.25667 0.36999
#
# Static dielectric constant tensor:
#      x y z
#    x 1.676750 0.000000 0.000000 
#    y 0.000000 1.531500 0.000000 
#    z 0.000000 0.000000 1.624210 
# 
# From -- ./inp_files/5300.got.cif
#   From: 2010.05.17/outbox.cif.g08.bks.cpg/sg48_3_cif.got.tgz:5300.got - 2010.06.03 20:39:00.
