data_PCOD9389643
_publ_section_title
;
Structure prediction by ZEFSAII (Michael W. Deem and Ramdas Pophale) SiO2 
 PCOD9389643
Probable space group: P N N N
;
_chemical_formula_sum "Si O2"
_cell_formula_units_Z 48
_cell_length_a 10.557529
_cell_length_b 9.554242
_cell_length_c 26.183830
_cell_angle_alpha 90.000000
_cell_angle_beta 90.000000
_cell_angle_gamma 90.000000
_cell_volume 2641.141644
_symmetry_space_group_name_H-M "P N N N"
_symmetry_group_IT_number 48
_space_group.IT_coordinate_system_code '2'
_symmetry_cell_setting 'orthorhombic'
loop_
_space_group_symop_operation_xyz
x,y,z
1/2-x,1/2-y,z
x,1/2-y,1/2-z
1/2-x,y,1/2-z
-x,-y,-z
1/2+x,1/2+y,-z
-x,1/2+y,1/2+z
1/2+x,-y,1/2+z
loop_
_atom_site_type_symbol
_atom_site_label
_atom_site_fract_x
_atom_site_fract_y
_atom_site_fract_z
Si Si1 0.597641 0.251225 0.307894
Si Si2 0.052124 0.544570 0.888354
Si Si3 0.166417 0.612436 0.488060
Si Si4 0.389629 0.398226 0.477906
Si Si5 0.648944 0.049586 0.399969
Si Si6 0.053249 0.232614 0.925325
O O1 0.750000 0.250000 0.303451
O O2 0.547708 0.250000 0.250000
O O3 0.546931 0.394634 0.332105
O O4 0.584323 0.132266 0.352906
O O5 0.198992 0.577468 0.903570
O O6 0.949337 0.627170 0.922602
O O7 0.032784 0.378827 0.896065
O O8 0.250000 0.750000 0.496263
O O9 0.260010 0.484259 0.475937
O O10 0.100033 0.585473 0.542853
O O11 0.074953 0.654601 0.442050
O O12 0.500000 0.500000 0.500000
O O13 0.386960 0.277339 0.519963
O O14 0.633818 0.882213 0.395313
#
# Coordination Sequence:
#
# PCOD9389643 Si02
#       6
#     8   8   8   8   8   8
#     4   9  19  35  55  75  96 133 179 218 268 323
#     4  10  18  33  52  70 104 140 171 210 258 310
#     4  12  19  31  49  73 109 149 174 201 242 321
#     4  10  18  31  49  71 106 145 178 197 246 313
#     4  11  20  31  49  74 108 136 168 215 261 304
#     4  11  21  31  45  76 107 139 175 208 256 310
#
# _framework density 18.173960000000001
#
# number of rings (size 3 to 8) (size 9 to 14) (size 15 to 20)
#    0.000    1.500    6.667    3.500    0.000    0.000 
#    0.000    0.833    0.000    4.000    0.000    2.333 
#    0.000    0.000    0.000    0.000    0.000    0.000 
#
# Total GULP energy -267307.528519 kJ/mol
# GULP energy per Si atom -5568.906844 kJ/mol
# Density = 1.813260 g / cm^3
# Si number density = 18.173960 Si / 1000 Ang^3
#
#
#
# Elastic Constant Matrix: (Units=GPa)
#
#
# Indices 1 2 3 4 5 6 
#
# 1 49.1294 35.5667 26.7854 0.0000 0.0000 0.0000
# 2 35.5667 93.7706 45.5890 0.0000 0.0000 0.0000
# 3 26.7854 45.5890 122.8408 0.0000 0.0000 0.0000
# 4 0.0000 0.0000 0.0000 18.9109 0.0000 0.0000
# 5 0.0000 0.0000 0.0000 0.0000 9.6394 0.0000
# 6 0.0000 0.0000 0.0000 0.0000 0.0000 32.2552
#
#
#
# Elastic Compliance Matrix: (Units=1/GPa)
#
#
# Indices 1 2 3 4 5 6 
#
# 1 0.028782 -0.009597 -0.002714 0.000000 0.000000 0.000000
# 2 -0.009597 0.016212 -0.003924 0.000000 0.000000 0.000000
# 3 -0.002714 -0.003924 0.010189 0.000000 0.000000 0.000000
# 4 0.000000 0.000000 0.000000 0.052880 0.000000 0.000000
# 5 0.000000 0.000000 0.000000 0.000000 0.103740 0.000000
# 6 0.000000 0.000000 0.000000 0.000000 0.000000 0.031003
#
#
# Mechanical properties :
#
#
# Convention : Reuss Voigt Hill
#
# Bulk Modulus (GPa) = 44.02947 53.51365 48.77156
# Shear Modulus (GPa) = 17.67736 22.68108 20.17922
#
# Velocity S-wave (km/s) = 3.12216 3.53654 3.33579
# Velocity P-wave (km/s) = 6.10544 6.79597 6.45994
#
# Compressibility (1/GPa) = 0.02271206
#
# Stress axis : x y z
#
# Youngs Moduli (GPa) = 34.74388 61.68145 98.14753
#
# Poissons Ratio (x) = 0.59198 0.26638
# Poissons Ratio (y) = 0.33345 0.38514
# Poissons Ratio (z) = 0.09430 0.24204
#
# Static dielectric constant tensor:
#      x y z
#    x 1.712560 0.000000 0.000000 
#    y 0.000000 1.711090 0.000000 
#    z 0.000000 0.000000 1.661320 
# 
# From -- ./inp_files/18889.got.cif
#   From: 2010.05.17/outbox.cif.g08.bks.cpg/sg48_10_cif.got.tgz:18889.got - 2010.06.03 20:39:00.
