data_PCOD9389720
_publ_section_title
;
Structure prediction by ZEFSAII (Michael W. Deem and Ramdas Pophale) SiO2 
 PCOD9389720
Probable space group: P N N N
;
_chemical_formula_sum "Si O2"
_cell_formula_units_Z 52
_cell_length_a 13.222216
_cell_length_b 7.886975
_cell_length_c 25.219250
_cell_angle_alpha 90.000000
_cell_angle_beta 90.000000
_cell_angle_gamma 90.000000
_cell_volume 2629.946287
_symmetry_space_group_name_H-M "P N N N"
_symmetry_group_IT_number 48
_space_group.IT_coordinate_system_code '2'
_symmetry_cell_setting 'orthorhombic'
loop_
_space_group_symop_operation_xyz
x,y,z
1/2-x,1/2-y,z
x,1/2-y,1/2-z
1/2-x,y,1/2-z
-x,-y,-z
1/2+x,1/2+y,-z
-x,1/2+y,1/2+z
1/2+x,-y,1/2+z
loop_
_atom_site_type_symbol
_atom_site_label
_atom_site_fract_x
_atom_site_fract_y
_atom_site_fract_z
Si Si1 0.519260 0.750000 0.250000
Si Si2 0.250000 0.250000 0.066387
Si Si3 0.636375 0.277119 0.657401
Si Si4 0.116737 0.536317 0.051503
Si Si5 0.750000 0.250000 0.369833
Si Si6 0.440999 0.078464 0.383698
Si Si7 0.925302 0.293056 0.049905
Si Si8 0.597674 0.100558 0.293012
O O1 0.444261 0.687085 0.296792
O O2 0.582727 0.586710 0.231027
O O3 0.200740 0.401288 0.032663
O O4 0.340710 0.318789 0.102351
O O5 0.750000 0.250000 0.678636
O O6 0.644720 0.413420 0.610891
O O7 0.592731 0.111842 0.627397
O O8 0.009358 0.440743 0.054455
O O9 0.111921 0.691092 0.010361
O O10 0.835580 0.176434 0.408606
O O11 0.694609 0.116229 0.331438
O O12 0.518540 0.120986 0.431670
O O13 0.500552 0.135008 0.330837
O O14 0.604669 0.250000 0.250000
#
# Coordination Sequence:
#
# PCOD9389720 Si02
#       8
#     4   4   8   8   4   8   8   8
#     4  10  25  40  61  94 130 160 214 261 315 382
#     4  10  18  34  57  88 122 154 205 238 304 388
#     4  11  21  37  60  90 122 161 200 256 315 371
#     4  10  21  37  62  87 125 164 195 256 316 364
#     4  10  21  40  68  88 120 163 220 252 308 374
#     4   9  20  36  57  88 119 153 204 247 308 372
#     4   9  21  39  60  88 121 160 205 257 303 372
#     4  10  22  41  64  87 121 167 205 262 310 362
#
# _framework density 19.772266999999999
#
# number of rings (size 3 to 8) (size 9 to 14) (size 15 to 20)
#    0.000    2.154    1.538    0.462    7.538    0.615 
#    0.000   14.231    3.385    0.000    0.000    0.000 
#    0.000    0.000    0.000    0.000    0.000    0.000 
#
# Total GULP energy -289915.666712 kJ/mol
# GULP energy per Si atom -5575.301283 kJ/mol
# Density = 1.972726 g / cm^3
# Si number density = 19.772267 Si / 1000 Ang^3
#
#
#
# Elastic Constant Matrix: (Units=GPa)
#
#
# Indices 1 2 3 4 5 6 
#
# 1 116.7648 34.8703 41.3102 0.0000 0.0000 0.0000
# 2 34.8703 48.7253 32.5623 0.0000 0.0000 0.0000
# 3 41.3102 32.5623 89.1576 0.0000 0.0000 0.0000
# 4 0.0000 0.0000 0.0000 26.0577 0.0000 0.0000
# 5 0.0000 0.0000 0.0000 0.0000 2.0653 0.0000
# 6 0.0000 0.0000 0.0000 0.0000 0.0000 20.3140
#
#
#
# Elastic Compliance Matrix: (Units=1/GPa)
#
#
# Indices 1 2 3 4 5 6 
#
# 1 0.011494 -0.006174 -0.003071 0.000000 0.000000 0.000000
# 2 -0.006174 0.030466 -0.008266 0.000000 0.000000 0.000000
# 3 -0.003071 -0.008266 0.015658 0.000000 0.000000 0.000000
# 4 0.000000 0.000000 0.000000 0.038376 0.000000 0.000000
# 5 0.000000 0.000000 0.000000 0.000000 0.484198 0.000000
# 6 0.000000 0.000000 0.000000 0.000000 0.000000 0.049227
#
#
# Mechanical properties :
#
#
# Convention : Reuss Voigt Hill
#
# Bulk Modulus (GPa) = 44.25522 52.45926 48.35724
# Shear Modulus (GPa) = 7.44077 19.41437 13.42757
#
# Velocity S-wave (km/s) = 1.94201 3.13693 2.60880
# Velocity P-wave (km/s) = 5.24019 6.30157 5.79523
#
# Compressibility (1/GPa) = 0.02259620
#
# Stress axis : x y z
#
# Youngs Moduli (GPa) = 86.99874 32.82392 63.86501
#
# Poissons Ratio (x) = 0.20264 0.19613
# Poissons Ratio (y) = 0.53710 0.52792
# Poissons Ratio (z) = 0.26718 0.27133
#
# Static dielectric constant tensor:
#      x y z
#    x 1.712540 0.000000 0.000000 
#    y 0.000000 1.728100 0.000000 
#    z 0.000000 0.000000 1.716290 
# 
# From -- ./inp_files/34464.got.cif
#   From: 2010.05.17/outbox.cif.g08.bks.cpg/sg48_18_cif.got.tgz:34464.got - 2010.06.03 20:39:00.
