data_PCOD9389183
_publ_section_title
;
Structure prediction by ZEFSAII (Michael W. Deem and Ramdas Pophale) SiO2 
 PCOD9389183
Probable space group: P M M M
;
_chemical_formula_sum "Si O2"
_cell_formula_units_Z 52
_cell_length_a 14.187568
_cell_length_b 7.416687
_cell_length_c 21.524927
_cell_angle_alpha 90.000000
_cell_angle_beta 90.000000
_cell_angle_gamma 90.000000
_cell_volume 2264.955087
_symmetry_space_group_name_H-M "P M M M"
_symmetry_group_IT_number 47
_symmetry_cell_setting 'orthorhombic'
loop_
_space_group_symop_operation_xyz
x,y,z
-x,-y,z
x,-y,-z
-x,y,-z
-x,-y,-z
x,y,-z
-x,y,z
x,-y,z
loop_
_atom_site_type_symbol
_atom_site_label
_atom_site_fract_x
_atom_site_fract_y
_atom_site_fract_z
Si Si1 0.000000 0.780641 0.072063
Si Si2 0.388230 0.293172 0.302660
Si Si3 0.692840 0.721496 0.433192
Si Si4 0.808025 0.778539 0.141764
Si Si5 0.102492 0.706135 0.409438
Si Si6 0.394275 0.207998 0.839906
Si Si7 0.108204 0.211761 0.732056
O O1 0.900382 0.722327 0.102768
O O2 0.000000 0.000000 0.076840
O O3 0.000000 0.731071 0.000000
O O4 0.500000 0.293864 0.312630
O O5 0.355030 0.500000 0.297014
O O6 0.346415 0.216300 0.366616
O O7 0.374898 0.208747 0.234692
O O8 0.648309 0.771936 0.500000
O O9 0.689873 0.500000 0.430976
O O10 0.801273 0.783340 0.434523
O O11 0.700849 0.718414 0.127670
O O12 0.828825 0.720110 0.212394
O O13 0.807772 0.000000 0.140723
O O14 0.098462 0.500000 0.430811
O O15 0.115180 0.702179 0.334982
O O16 0.000000 0.789635 0.422150
O O17 0.500000 0.287827 0.848794
O O18 0.400538 0.000000 0.859325
O O19 0.000000 0.228230 0.753353
O O20 0.127746 0.000000 0.722748
#
# Coordination Sequence:
#
# PCOD9389183 Si02
#       7
#     4   8   8   8   8   8   8
#     4   9  16  26  42  66  95 125 156 187 214 240
#     4   9  17  29  45  64  85 108 138 180 222 259
#     4   9  17  28  41  57  77 103 137 175 214 257
#     4   9  15  25  41  62  89 118 149 181 211 251
#     4   9  17  27  39  57  80 103 131 170 211 256
#     4   9  17  28  44  66  91 118 143 172 218 271
#     4   9  15  24  40  60  81 104 132 169 214 257
#
# _framework density 22.958513
#
# number of rings (size 3 to 8) (size 9 to 14) (size 15 to 20)
#    0.000    3.000    0.769    0.923    0.000    0.615 
#    0.000    3.077    0.000    2.308    0.000    7.538 
#    0.000    4.923    0.000    3.846    0.000    4.000 
#
# Total GULP energy -289829.189841 kJ/mol
# GULP energy per Si atom -5573.638266 kJ/mol
# Density = 2.290626 g / cm^3
# Si number density = 22.958513 Si / 1000 Ang^3
#
#
#
# Elastic Constant Matrix: (Units=GPa)
#
#
# Indices 1 2 3 4 5 6 
#
# 1 154.0179 16.1423 75.5064 0.0000 0.0000 0.0000
# 2 16.1423 68.9546 -4.3349 0.0000 0.0000 0.0000
# 3 75.5064 -4.3349 59.2164 0.0000 0.0000 0.0000
# 4 0.0000 0.0000 0.0000 -25.2975 0.0000 0.0000
# 5 0.0000 0.0000 0.0000 0.0000 -55.6199 0.0000
# 6 0.0000 0.0000 0.0000 0.0000 0.0000 -1.5750
#
#
#
# Elastic Compliance Matrix: (Units=1/GPa)
#
#
# Indices 1 2 3 4 5 6 
#
# 1 0.019647 -0.006203 -0.025506 0.000000 0.000000 0.000000
# 2 -0.006203 0.016528 0.009119 0.000000 0.000000 0.000000
# 3 -0.025506 0.009119 0.050077 0.000000 0.000000 0.000000
# 4 0.000000 0.000000 0.000000 -0.039530 0.000000 0.000000
# 5 0.000000 0.000000 0.000000 0.000000 -0.017979 0.000000
# 6 0.000000 0.000000 0.000000 0.000000 0.000000 -0.634914
#
#
# Mechanical properties :
#
#
# Convention : Reuss Voigt Hill
#
# Bulk Modulus (GPa) = 24.34720 50.75738 37.55229
# Shear Modulus (GPa) = -9.13573 -3.50681 -6.32127
#
# Velocity S-wave (km/s) = -1.99697 -1.23724 -1.66112
# Velocity P-wave (km/s) = 2.30450 4.48501 3.56553
#
# Compressibility (1/GPa) = 0.04107249
#
# Stress axis : x y z
#
# Youngs Moduli (GPa) = 50.89887 60.50469 19.96936
#
# Poissons Ratio (x) = 0.37530 0.50933
# Poissons Ratio (y) = 0.31571 -0.18210
# Poissons Ratio (z) = 1.29820 -0.55174
#
# Static dielectric constant tensor:
#      x y z
#    x 1.908970 0.000000 0.000000 
#    y 0.000000 1.914390 0.000000 
#    z 0.000000 0.000000 1.827010 
# 
# From -- ./inp_files/32649.got.cif
#   From: 2010.05.17/outbox.cif.g08.bks.cpg/sg47_17_cif.got.tgz:32649.got - 2010.06.03 20:15:42.
