data_PCOD9389624
_publ_section_title
;
Structure prediction by ZEFSAII (Michael W. Deem and Ramdas Pophale) SiO2 
 PCOD9389624
Probable space group: P N N N
;
_chemical_formula_sum "Si O2"
_cell_formula_units_Z 44
_cell_length_a 14.918411
_cell_length_b 7.374823
_cell_length_c 17.063578
_cell_angle_alpha 90.000000
_cell_angle_beta 90.000000
_cell_angle_gamma 90.000000
_cell_volume 1877.345782
_symmetry_space_group_name_H-M "P N N N"
_symmetry_group_IT_number 48
_space_group.IT_coordinate_system_code '2'
_symmetry_cell_setting 'orthorhombic'
loop_
_space_group_symop_operation_xyz
x,y,z
1/2-x,1/2-y,z
x,1/2-y,1/2-z
1/2-x,y,1/2-z
-x,-y,-z
1/2+x,1/2+y,-z
-x,1/2+y,1/2+z
1/2+x,-y,1/2+z
loop_
_atom_site_type_symbol
_atom_site_label
_atom_site_fract_x
_atom_site_fract_y
_atom_site_fract_z
Si Si1 0.097660 0.644514 0.581893
Si Si2 0.694858 0.939637 0.686022
Si Si3 0.597823 0.043929 0.964418
Si Si4 0.114542 0.144290 0.038328
Si Si5 0.464612 0.555426 0.288011
Si Si6 0.399268 0.750000 0.750000
O O1 0.132133 0.797589 0.520886
O O2 0.114931 0.447998 0.545345
O O3 0.987283 0.653411 0.574727
O O4 0.137327 0.665493 0.668806
O O5 0.750000 0.750000 0.678967
O O6 0.750000 0.052884 0.750000
O O7 0.670749 0.981520 0.597703
O O8 0.600958 0.943561 0.730732
O O9 0.581018 0.087223 0.872782
O O10 0.647106 0.850746 0.966266
O O11 0.500000 0.000000 0.000000
O O12 0.483706 0.750000 0.250000
O O13 0.548228 0.420586 0.289754
#
# Coordination Sequence:
#
# PCOD9389624 Si02
#       6
#     8   8   8   8   8   4
#     4  10  21  32  55  76 110 153 192 230 290 348
#     4  11  21  35  58  77 112 156 188 231 281 348
#     4  10  18  30  47  73 102 144 184 223 279 338
#     4  10  19  35  51  76 110 150 188 233 285 343
#     4  12  23  35  53  79 116 153 194 235 287 355
#     4  12  20  34  53  80 110 155 192 238 292 348
#
# _framework density 23.437346000000002
#
# number of rings (size 3 to 8) (size 9 to 14) (size 15 to 20)
#    0.000    1.273    5.455    4.364    5.091    0.364 
#    0.000    1.818    0.000    0.000    0.000    0.000 
#    0.000   17.455    0.000    0.000    0.000    0.000 
#
# Total GULP energy -245064.179271 kJ/mol
# GULP energy per Si atom -5569.640438 kJ/mol
# Density = 2.338400 g / cm^3
# Si number density = 23.437346 Si / 1000 Ang^3
#
#
#
# Elastic Constant Matrix: (Units=GPa)
#
#
# Indices 1 2 3 4 5 6 
#
# 1 17.4427 2.7038 6.1424 0.0000 0.0000 0.0000
# 2 2.7038 117.8613 46.0791 0.0000 0.0000 0.0000
# 3 6.1424 46.0791 198.1574 0.0000 0.0000 0.0000
# 4 0.0000 0.0000 0.0000 30.1641 0.0000 0.0000
# 5 0.0000 0.0000 0.0000 0.0000 26.1431 0.0000
# 6 0.0000 0.0000 0.0000 0.0000 0.0000 -14.5196
#
#
#
# Elastic Compliance Matrix: (Units=1/GPa)
#
#
# Indices 1 2 3 4 5 6 
#
# 1 0.058014 -0.000691 -0.001638 0.000000 0.000000 0.000000
# 2 -0.000691 0.009341 -0.002151 0.000000 0.000000 0.000000
# 3 -0.001638 -0.002151 0.005597 0.000000 0.000000 0.000000
# 4 0.000000 0.000000 0.000000 0.033152 0.000000 0.000000
# 5 0.000000 0.000000 0.000000 0.000000 0.038251 0.000000
# 6 0.000000 0.000000 0.000000 0.000000 0.000000 -0.068872
#
#
# Mechanical properties :
#
#
# Convention : Reuss Voigt Hill
#
# Bulk Modulus (GPa) = 15.62628 49.25690 32.44159
# Shear Modulus (GPa) = 47.27086 26.92659 37.09872
#
# Velocity S-wave (km/s) = 4.49587 3.39318 3.98287
# Velocity P-wave (km/s) = 5.79932 6.03437 5.91801
#
# Compressibility (1/GPa) = 0.06399474
#
# Stress axis : x y z
#
# Youngs Moduli (GPa) = 17.23713 107.05182 178.65441
#
# Poissons Ratio (x) = 0.07393 0.29258
# Poissons Ratio (y) = 0.01190 0.38425
# Poissons Ratio (z) = 0.02823 0.23025
#
# Static dielectric constant tensor:
#      x y z
#    x 2.006930 0.000000 0.000000 
#    y 0.000000 1.931040 0.000000 
#    z 0.000000 0.000000 1.900540 
# 
# From -- ./inp_files/27802.got.cif
#   From: 2010.05.17/outbox.cif.g08.bks.cpg/sg48_14_cif.got.tgz:27802.got - 2010.06.03 20:39:00.
