data_PCOD9389302
_publ_section_title
;
Structure prediction by ZEFSAII (Michael W. Deem and Ramdas Pophale) SiO2 
 PCOD9389302
Probable space group: P M M M
;
_chemical_formula_sum "Si O2"
_cell_formula_units_Z 64
_cell_length_a 21.000000
_cell_length_b 9.000000
_cell_length_c 21.000000
_cell_angle_alpha 90.000000
_cell_angle_beta 90.000000
_cell_angle_gamma 90.000000
_cell_volume 3969.000000
_symmetry_space_group_name_H-M "P M M M"
_symmetry_group_IT_number 47
_symmetry_cell_setting 'orthorhombic'
loop_
_space_group_symop_operation_xyz
x,y,z
-x,-y,z
x,-y,-z
-x,y,-z
-x,-y,-z
x,y,-z
-x,y,z
x,-y,z
loop_
_atom_site_type_symbol
_atom_site_label
_atom_site_fract_x
_atom_site_fract_y
_atom_site_fract_z
Si Si1 0.426856 0.821534 0.790705
Si Si2 0.246227 0.175502 0.115350
Si Si3 0.662286 0.320830 0.316080
Si Si4 0.425789 0.179079 0.424596
Si Si5 0.385471 0.179818 0.069458
Si Si6 0.928692 0.320632 0.794817
Si Si7 0.104899 0.823249 0.070760
Si Si8 0.210634 0.321358 0.247885
O O1 0.500000 0.796960 0.771171
O O2 0.378666 0.738160 0.744115
O O3 0.418292 0.773736 0.864527
O O4 0.414491 0.000000 0.787326
O O5 0.310588 0.214596 0.078549
O O6 0.181462 0.195814 0.075907
O O7 0.238789 0.265066 0.180703
O O8 0.250635 0.000000 0.131290
O O9 0.659869 0.500000 0.319211
O O10 0.626057 0.253887 0.377982
O O11 0.736677 0.276598 0.301492
O O12 0.415557 0.212375 0.500000
O O13 0.500000 0.220681 0.409406
O O14 0.421708 0.000000 0.417065
O O15 0.391907 0.000000 0.067934
O O16 0.407760 0.234835 0.000000
O O17 0.926830 0.500000 0.797244
O O18 0.921887 0.258416 0.866932
O O19 0.864625 0.272597 0.755416
O O20 0.000000 0.277695 0.771060
O O21 0.091493 0.000000 0.076232
O O22 0.083675 0.774428 0.000000
O O23 0.209525 0.500000 0.248873
#
# Coordination Sequence:
#
# PCOD9389302 Si02
#       8
#     8   8   8   8   8   8   8   8
#     4  10  20  32  46  65  89 119 157 199 241 285
#     4   9  15  26  44  62  80 107 145 188 235 288
#     4  11  21  32  50  74 100 128 158 194 233 275
#     4   9  19  36  56  78 106 138 167 193 222 261
#     4   9  16  26  42  62  82 106 144 197 248 288
#     4   9  18  32  47  61  82 115 152 189 231 282
#     4   9  17  27  40  60  84 108 138 182 238 296
#     4   9  18  31  46  66  91 116 148 191 234 273
#
# _framework density 16.124969
#
# number of rings (size 3 to 8) (size 9 to 14) (size 15 to 20)
#    0.000    2.625    1.250    1.500    0.000    5.250 
#    0.000    3.125    0.000    2.250    0.000    0.875 
#    0.000    0.500    0.000    6.250    0.000    1.000 
#
# Total GULP energy -356477.107855 kJ/mol
# GULP energy per Si atom -5569.954810 kJ/mol
# Density = 1.608827 g / cm^3
# Si number density = 16.124969 Si / 1000 Ang^3
#
#
#
# Elastic Constant Matrix: (Units=GPa)
#
#
# Indices 1 2 3 4 5 6 
#
# 1 114.6472 22.8041 48.6425 0.0000 0.0000 0.0000
# 2 22.8041 15.1852 16.7537 0.0000 0.0000 0.0000
# 3 48.6425 16.7537 83.5501 0.0000 0.0000 0.0000
# 4 0.0000 0.0000 0.0000 14.5421 0.0000 0.0000
# 5 0.0000 0.0000 0.0000 0.0000 18.6936 0.0000
# 6 0.0000 0.0000 0.0000 0.0000 0.0000 19.2573
#
#
#
# Elastic Compliance Matrix: (Units=1/GPa)
#
#
# Indices 1 2 3 4 5 6 
#
# 1 0.013903 -0.015343 -0.005018 0.000000 0.000000 0.000000
# 2 -0.015343 0.101493 -0.011419 0.000000 0.000000 0.000000
# 3 -0.005018 -0.011419 0.017180 0.000000 0.000000 0.000000
# 4 0.000000 0.000000 0.000000 0.068766 0.000000 0.000000
# 5 0.000000 0.000000 0.000000 0.000000 0.053494 0.000000
# 6 0.000000 0.000000 0.000000 0.000000 0.000000 0.051928
#
#
# Mechanical properties :
#
#
# Convention : Reuss Voigt Hill
#
# Bulk Modulus (GPa) = 14.48929 43.30925 28.89927
# Shear Modulus (GPa) = 12.71200 18.84408 15.77804
#
# Velocity S-wave (km/s) = 2.81079 3.42223 3.13147
# Velocity P-wave (km/s) = 4.42032 6.52168 5.57097
#
# Compressibility (1/GPa) = 0.06901651
#
# Stress axis : x y z
#
# Youngs Moduli (GPa) = 71.92637 9.85293 58.20722
#
# Poissons Ratio (x) = 0.15117 0.29207
# Poissons Ratio (y) = 1.10354 0.66468
# Poissons Ratio (z) = 0.36091 0.11251
#
# Static dielectric constant tensor:
#      x y z
#    x 1.586870 0.000000 0.000000 
#    y 0.000000 1.540630 0.000000 
#    z 0.000000 0.000000 1.531820 
# 
# From -- ./inp_files/31527.got.cif
#   From: 2010.05.17/outbox.ucp.g08.bks.cvg/sg47_16_cif.got.tgz:31527.got - 2010.06.11 16:36:43.
