data_PCOD9389648
_publ_section_title
;
Structure prediction by ZEFSAII (Michael W. Deem and Ramdas Pophale) SiO2 
 PCOD9389648
Probable space group: P N N N
;
_chemical_formula_sum "Si O2"
_cell_formula_units_Z 64
_cell_length_a 9.183683
_cell_length_b 14.060807
_cell_length_c 22.737816
_cell_angle_alpha 90.000000
_cell_angle_beta 90.000000
_cell_angle_gamma 90.000000
_cell_volume 2936.134048
_symmetry_space_group_name_H-M "P N N N"
_symmetry_group_IT_number 48
_space_group.IT_coordinate_system_code '2'
_symmetry_cell_setting 'orthorhombic'
loop_
_space_group_symop_operation_xyz
x,y,z
1/2-x,1/2-y,z
x,1/2-y,1/2-z
1/2-x,y,1/2-z
-x,-y,-z
1/2+x,1/2+y,-z
-x,1/2+y,1/2+z
1/2+x,-y,1/2+z
loop_
_atom_site_type_symbol
_atom_site_label
_atom_site_fract_x
_atom_site_fract_y
_atom_site_fract_z
Si Si1 0.345535 0.427437 0.195040
Si Si2 0.449854 0.181443 0.576615
Si Si3 0.687615 0.356467 0.829070
Si Si4 0.662390 0.382767 0.023608
Si Si5 0.346340 0.344620 0.405689
Si Si6 0.187558 0.078646 0.537736
Si Si7 0.089135 0.621347 0.066779
Si Si8 0.408223 0.716329 0.852821
O O1 0.250000 0.390149 0.250000
O O2 0.354026 0.543517 0.203891
O O3 0.248064 0.411893 0.136737
O O4 0.490548 0.360767 0.183767
O O5 0.540354 0.160655 0.634932
O O6 0.530295 0.134329 0.520683
O O7 0.287019 0.147319 0.576912
O O8 0.478199 0.291754 0.567602
O O9 0.750000 0.250000 0.808817
O O10 0.811656 0.382801 0.876516
O O11 0.701072 0.491413 0.032784
O O12 0.631543 0.334147 0.085285
O O13 0.806367 0.353310 0.987244
O O14 0.250000 0.250000 0.411365
O O15 0.347223 0.384696 0.471823
O O16 0.492066 0.307039 0.372619
O O17 0.033098 0.040541 0.562954
O O18 0.250000 0.750000 0.827501
#
# Coordination Sequence:
#
# PCOD9389648 Si02
#       8
#     8   8   8   8   8   8   8   8
#     4  11  24  44  66  87 114 153 206 266 320 368
#     4  10  18  31  50  76 114 155 192 230 281 352
#     4   9  20  39  61  89 123 157 196 246 304 370
#     4  11  20  31  49  79 119 157 195 237 289 355
#     4  10  21  36  57  86 123 164 207 250 301 365
#     4  12  20  30  52  83 119 159 199 237 288 355
#     4  10  20  32  50  79 120 157 187 226 284 359
#     4  11  23  40  63  90 121 159 205 257 310 366
#
# _framework density 21.797369
#
# number of rings (size 3 to 8) (size 9 to 14) (size 15 to 20)
#    0.000    1.500    0.000    9.000    0.000    3.500 
#    0.000    1.250    0.000    0.000    0.000    0.000 
#    0.000    6.000    0.000    0.000    0.000    0.000 
#
# Total GULP energy -356387.221379 kJ/mol
# GULP energy per Si atom -5568.550334 kJ/mol
# Density = 2.174776 g / cm^3
# Si number density = 21.797369 Si / 1000 Ang^3
#
#
#
# Elastic Constant Matrix: (Units=GPa)
#
#
# Indices 1 2 3 4 5 6 
#
# 1 152.1648 31.5605 20.4117 0.0000 0.0000 0.0000
# 2 31.5605 93.3046 -0.5858 0.0000 0.0000 0.0000
# 3 20.4117 -0.5858 63.6235 0.0000 0.0000 0.0000
# 4 0.0000 0.0000 0.0000 219.2638 0.0000 0.0000
# 5 0.0000 0.0000 0.0000 0.0000 6.4796 0.0000
# 6 0.0000 0.0000 0.0000 0.0000 0.0000 -17.5041
#
#
#
# Elastic Compliance Matrix: (Units=1/GPa)
#
#
# Indices 1 2 3 4 5 6 
#
# 1 0.007418 -0.002524 -0.002403 0.000000 0.000000 0.000000
# 2 -0.002524 0.011577 0.000916 0.000000 0.000000 0.000000
# 3 -0.002403 0.000916 0.016497 0.000000 0.000000 0.000000
# 4 0.000000 0.000000 0.000000 0.004561 0.000000 0.000000
# 5 0.000000 0.000000 0.000000 0.000000 0.154330 0.000000
# 6 0.000000 0.000000 0.000000 0.000000 0.000000 -0.057130
#
#
# Mechanical properties :
#
#
# Convention : Reuss Voigt Hill
#
# Bulk Modulus (GPa) = 36.40310 45.76287 41.08298
# Shear Modulus (GPa) = 32.37688 58.82830 45.60259
#
# Velocity S-wave (km/s) = 3.85821 5.20070 4.57893
# Velocity P-wave (km/s) = 6.04853 7.55667 6.84427
#
# Compressibility (1/GPa) = 0.02747019
#
# Stress axis : x y z
#
# Youngs Moduli (GPa) = 134.81270 86.37716 60.61766
#
# Poissons Ratio (x) = 0.21803 0.14566
# Poissons Ratio (y) = 0.34029 -0.05555
# Poissons Ratio (z) = 0.32395 -0.07916
#
# Static dielectric constant tensor:
#      x y z
#    x 1.783070 0.000000 0.000000 
#    y 0.000000 1.853500 0.000000 
#    z 0.000000 0.000000 1.813240 
# 
# From -- ./inp_files/35993.got.cif
#   From: 2010.05.17/outbox.cif.g08.bks.cpg/sg48_18_cif.got.tgz:35993.got - 2010.06.03 20:39:00.
