data_PCOD9389721
_publ_section_title
;
Structure prediction by ZEFSAII (Michael W. Deem and Ramdas Pophale) SiO2 
 PCOD9389721
Probable space group: P N N N
;
_chemical_formula_sum "Si O2"
_cell_formula_units_Z 52
_cell_length_a 5.576444
_cell_length_b 21.727111
_cell_length_c 18.681060
_cell_angle_alpha 90.000000
_cell_angle_beta 90.000000
_cell_angle_gamma 90.000000
_cell_volume 2263.397562
_symmetry_space_group_name_H-M "P N N N"
_symmetry_group_IT_number 48
_space_group.IT_coordinate_system_code '2'
_symmetry_cell_setting 'orthorhombic'
loop_
_space_group_symop_operation_xyz
x,y,z
1/2-x,1/2-y,z
x,1/2-y,1/2-z
1/2-x,y,1/2-z
-x,-y,-z
1/2+x,1/2+y,-z
-x,1/2+y,1/2+z
1/2+x,-y,1/2+z
loop_
_atom_site_type_symbol
_atom_site_label
_atom_site_fract_x
_atom_site_fract_y
_atom_site_fract_z
Si Si1 0.750000 0.750000 0.631245
Si Si2 0.259175 0.515224 0.663559
Si Si3 0.782867 0.119798 0.450383
Si Si4 0.708494 0.648250 0.991396
Si Si5 0.257961 0.947757 0.337102
Si Si6 0.750000 0.750000 0.110058
Si Si7 0.250000 0.750000 0.874656
Si Si8 0.839055 0.312689 0.830921
O O1 0.734415 0.810583 0.580917
O O2 0.495417 0.749111 0.668767
O O3 0.250000 0.523334 0.750000
O O4 0.284536 0.578541 0.620681
O O5 0.503922 0.478929 0.643765
O O6 0.007897 0.481184 0.643629
O O7 0.526514 0.106081 0.487012
O O8 0.761994 0.191033 0.426703
O O9 0.032440 0.114652 0.494015
O O10 0.664732 0.698154 0.053277
O O11 0.250000 0.946431 0.250000
O O12 0.245255 0.876870 0.361460
O O13 0.616813 0.797567 0.163525
O O14 0.750000 0.250000 0.869373
O O15 0.750000 0.311739 0.750000
#
# Coordination Sequence:
#
# PCOD9389721 Si02
#       8
#     4   8   8   8   8   4   4   8
#     4   7  12  24  40  67  98 135 178 235 284 331
#     4  10  20  36  62  91 125 173 223 264 319 389
#     4  10  18  34  57  88 123 167 218 271 317 365
#     4   9  19  32  56  86 121 160 213 256 302 369
#     4   9  20  39  61  90 126 166 211 257 319 396
#     4  11  24  39  68  97 130 170 212 259 324 409
#     4   8  14  24  43  70 106 140 187 248 302 340
#     4  10  24  42  66  99 130 159 197 262 336 392
#
# _framework density 22.974312000000001
#
# number of rings (size 3 to 8) (size 9 to 14) (size 15 to 20)
#    0.000    2.615    0.000    1.846    4.308    1.231 
#    2.769    0.385    0.000    5.538    0.000   12.923 
#    0.000    0.000    0.000    0.000    0.000    0.000 
#
# Total GULP energy -289508.085578 kJ/mol
# GULP energy per Si atom -5567.463184 kJ/mol
# Density = 2.292202 g / cm^3
# Si number density = 22.974312 Si / 1000 Ang^3
#
#
#
# Elastic Constant Matrix: (Units=GPa)
#
#
# Indices 1 2 3 4 5 6 
#
# 1 226.8178 45.4821 46.4973 0.0000 0.0000 0.0000
# 2 45.4821 118.5017 29.9434 0.0000 0.0000 0.0000
# 3 46.4973 29.9434 79.7296 0.0000 0.0000 0.0000
# 4 0.0000 0.0000 0.0000 15.6859 0.0000 0.0000
# 5 0.0000 0.0000 0.0000 0.0000 -5.4020 0.0000
# 6 0.0000 0.0000 0.0000 0.0000 0.0000 31.1168
#
#
#
# Elastic Compliance Matrix: (Units=1/GPa)
#
#
# Indices 1 2 3 4 5 6 
#
# 1 0.005198 -0.001358 -0.002521 0.000000 0.000000 0.000000
# 2 -0.001358 0.009678 -0.002843 0.000000 0.000000 0.000000
# 3 -0.002521 -0.002843 0.015081 0.000000 0.000000 0.000000
# 4 0.000000 0.000000 0.000000 0.063752 0.000000 0.000000
# 5 0.000000 0.000000 0.000000 0.000000 -0.185117 0.000000
# 6 0.000000 0.000000 0.000000 0.000000 0.000000 0.032137
#
#
# Mechanical properties :
#
#
# Convention : Reuss Voigt Hill
#
# Bulk Modulus (GPa) = 60.56069 74.32162 67.44116
# Shear Modulus (GPa) = -123.99916 28.48856 -47.75530
#
# Velocity S-wave (km/s) = -7.35460 3.52521 -4.56416
# Velocity P-wave (km/s) = 6.76038 6.99925 1.28195
#
# Compressibility (1/GPa) = 0.01651236
#
# Stress axis : x y z
#
# Youngs Moduli (GPa) = 192.38132 103.32475 66.31063
#
# Poissons Ratio (x) = 0.14031 0.16720
# Poissons Ratio (y) = 0.26124 0.18851
# Poissons Ratio (z) = 0.48508 0.29374
#
# Static dielectric constant tensor:
#      x y z
#    x 1.354610 0.000000 0.000000 
#    y 0.000000 1.830120 0.000000 
#    z 0.000000 0.000000 1.788310 
# 
# From -- ./inp_files/32942.got.cif
#   From: 2010.05.17/outbox.cif.g08.bks.cpg/sg48_17_cif.got.tgz:32942.got - 2010.06.03 20:39:00.
