data_PCOD9389626
_publ_section_title
;
Structure prediction by ZEFSAII (Michael W. Deem and Ramdas Pophale) SiO2 
 PCOD9389626
Probable space group: P N N N
;
_chemical_formula_sum "Si O2"
_cell_formula_units_Z 34
_cell_length_a 5.610943
_cell_length_b 17.188084
_cell_length_c 14.517514
_cell_angle_alpha 90.000000
_cell_angle_beta 90.000000
_cell_angle_gamma 90.000000
_cell_volume 1400.088788
_symmetry_space_group_name_H-M "P N N N"
_symmetry_group_IT_number 48
_space_group.IT_coordinate_system_code '2'
_symmetry_cell_setting 'orthorhombic'
loop_
_space_group_symop_operation_xyz
x,y,z
1/2-x,1/2-y,z
x,1/2-y,1/2-z
1/2-x,y,1/2-z
-x,-y,-z
1/2+x,1/2+y,-z
-x,1/2+y,1/2+z
1/2+x,-y,1/2+z
loop_
_atom_site_type_symbol
_atom_site_label
_atom_site_fract_x
_atom_site_fract_y
_atom_site_fract_z
Si Si1 0.040152 0.004834 0.890204
Si Si2 0.934593 0.683044 0.396917
Si Si3 0.028895 0.447239 0.091337
Si Si4 0.001404 0.266372 0.091534
Si Si5 0.250000 0.750000 0.250000
O O1 0.128109 0.093931 0.882401
O O2 0.272188 0.956941 0.858825
O O3 0.775682 0.974984 0.859332
O O4 0.000000 0.000000 0.000000
O O5 0.750000 0.750000 0.368090
O O6 0.002065 0.709578 0.500784
O O7 0.139778 0.691936 0.323589
O O8 0.030695 0.356535 0.063188
O O9 0.000000 0.500000 0.000000
O O10 0.250000 0.250000 0.141809
O O11 0.750000 0.250000 0.138521
#
# Coordination Sequence:
#
# PCOD9389626 Si02
#       5
#     8   8   8   8   2
#     4  10  20  32  53  73 101 136 187 224 277 325
#     4  11  23  37  52  76 107 151 197 224 273 326
#     4  10  18  30  47  76  96 136 178 215 278 322
#     4  11  19  31  52  74 109 142 182 220 269 341
#     4  12  26  36  56  70 112 152 208 228 260 316
#
# _framework density 24.284172000000002
#
# number of rings (size 3 to 8) (size 9 to 14) (size 15 to 20)
#    0.000    1.412    1.176   10.235    3.294    0.000 
#    0.000    0.000    0.000    0.000    0.000    0.000 
#    0.000    0.000    0.000   48.706    3.294    0.000 
#
# Total GULP energy -189300.121476 kJ/mol
# GULP energy per Si atom -5567.650632 kJ/mol
# Density = 2.422890 g / cm^3
# Si number density = 24.284172 Si / 1000 Ang^3
#
#
#
# Elastic Constant Matrix: (Units=GPa)
#
#
# Indices 1 2 3 4 5 6 
#
# 1 226.7245 44.2405 8.0525 0.0000 0.0000 0.0000
# 2 44.2405 128.7808 -15.6917 0.0000 0.0000 0.0000
# 3 8.0525 -15.6917 64.4556 0.0000 0.0000 0.0000
# 4 0.0000 0.0000 0.0000 -25.9731 0.0000 0.0000
# 5 0.0000 0.0000 0.0000 0.0000 -92.1318 0.0000
# 6 0.0000 0.0000 0.0000 0.0000 0.0000 32.5039
#
#
#
# Elastic Compliance Matrix: (Units=1/GPa)
#
#
# Indices 1 2 3 4 5 6 
#
# 1 0.004793 -0.001772 -0.001030 0.000000 0.000000 0.000000
# 2 -0.001772 0.008658 0.002329 0.000000 0.000000 0.000000
# 3 -0.001030 0.002329 0.016210 0.000000 0.000000 0.000000
# 4 0.000000 0.000000 0.000000 -0.038501 0.000000 0.000000
# 5 0.000000 0.000000 0.000000 0.000000 -0.010854 0.000000
# 6 0.000000 0.000000 0.000000 0.000000 0.000000 0.030766
#
#
# Mechanical properties :
#
#
# Convention : Reuss Voigt Hill
#
# Bulk Modulus (GPa) = 34.82549 54.79595 44.81072
# Shear Modulus (GPa) = 231.59900 8.43711 120.01805
#
# Velocity S-wave (km/s) = 9.77637 1.86598 7.03773
# Velocity P-wave (km/s) = 11.90834 5.22072 9.19414
#
# Compressibility (1/GPa) = 0.02871460
#
# Stress axis : x y z
#
# Youngs Moduli (GPa) = 208.63700 115.50415 61.68926
#
# Poissons Ratio (x) = 0.20468 0.06355
# Poissons Ratio (y) = 0.36972 -0.14368
# Poissons Ratio (z) = 0.21494 -0.26902
#
# Static dielectric constant tensor:
#      x y z
#    x 2.381160 0.000000 0.000000 
#    y 0.000000 2.076050 0.000000 
#    z 0.000000 0.000000 1.899690 
# 
# From -- ./inp_files/3098.got.cif
#   From: 2010.05.17/outbox.cif.g08.bks.cpg/sg48_2_cif.got.tgz:3098.got - 2010.06.03 20:39:00.
