data_PCOD9389725
_publ_section_title
;
Structure prediction by ZEFSAII (Michael W. Deem and Ramdas Pophale) SiO2 
 PCOD9389725
Probable space group: P N N N
;
_chemical_formula_sum "Si O2"
_cell_formula_units_Z 36
_cell_length_a 5.683217
_cell_length_b 18.611325
_cell_length_c 18.843554
_cell_angle_alpha 90.000000
_cell_angle_beta 90.000000
_cell_angle_gamma 90.000000
_cell_volume 1993.124137
_symmetry_space_group_name_H-M "P N N N"
_symmetry_group_IT_number 48
_space_group.IT_coordinate_system_code '2'
_symmetry_cell_setting 'orthorhombic'
loop_
_space_group_symop_operation_xyz
x,y,z
1/2-x,1/2-y,z
x,1/2-y,1/2-z
1/2-x,y,1/2-z
-x,-y,-z
1/2+x,1/2+y,-z
-x,1/2+y,1/2+z
1/2+x,-y,1/2+z
loop_
_atom_site_type_symbol
_atom_site_label
_atom_site_fract_x
_atom_site_fract_y
_atom_site_fract_z
Si Si1 0.627067 0.821943 0.642254
Si Si2 0.250000 0.750000 0.540597
Si Si3 0.470366 0.382702 0.478208
Si Si4 0.817841 0.990016 0.063116
Si Si5 0.503033 0.967110 0.711718
O O1 0.750000 0.750000 0.671258
O O2 0.418156 0.794307 0.592619
O O3 0.538328 0.881957 0.696223
O O4 0.804276 0.859872 0.587012
O O5 0.394484 0.689566 0.498964
O O6 0.641349 0.442748 0.444780
O O7 0.329502 0.419144 0.542733
O O8 0.959240 0.993851 0.136348
O O9 0.000000 0.000000 0.000000
O O10 0.250000 0.976829 0.750000
O O11 0.750000 0.989636 0.750000
#
# Coordination Sequence:
#
# PCOD9389725 Si02
#       5
#     8   4   8   8   8
#     4  10  21  37  54  84 120 170 206 247 293 368
#     4  10  18  34  59  84 118 155 214 268 296 378
#     4  10  19  34  61  84 118 155 215 258 315 356
#     4  11  21  37  61  83 115 172 203 261 315 372
#     4  12  26  41  56  87 128 170 212 256 309 378
#
# _framework density 18.062097999999999
#
# number of rings (size 3 to 8) (size 9 to 14) (size 15 to 20)
#    0.000    1.333    4.444    1.333    6.222    0.444 
#    0.000    0.000    0.000    0.000    0.000    0.000 
#    0.000   36.444    0.000    0.000    0.000    0.000 
#
# Total GULP energy -200830.477914 kJ/mol
# GULP energy per Si atom -5578.624387 kJ/mol
# Density = 1.802099 g / cm^3
# Si number density = 18.062098 Si / 1000 Ang^3
#
#
#
# Elastic Constant Matrix: (Units=GPa)
#
#
# Indices 1 2 3 4 5 6 
#
# 1 137.2870 46.3103 66.3378 0.0000 0.0000 0.0000
# 2 46.3103 70.7569 38.9808 0.0000 0.0000 0.0000
# 3 66.3378 38.9808 109.6903 0.0000 0.0000 0.0000
# 4 0.0000 0.0000 0.0000 14.4473 0.0000 0.0000
# 5 0.0000 0.0000 0.0000 0.0000 16.1539 0.0000
# 6 0.0000 0.0000 0.0000 0.0000 0.0000 49.6153
#
#
#
# Elastic Compliance Matrix: (Units=1/GPa)
#
#
# Indices 1 2 3 4 5 6 
#
# 1 0.011353 -0.004536 -0.005254 0.000000 0.000000 0.000000
# 2 -0.004536 0.019386 -0.004146 0.000000 0.000000 0.000000
# 3 -0.005254 -0.004146 0.013767 0.000000 0.000000 0.000000
# 4 0.000000 0.000000 0.000000 0.069217 0.000000 0.000000
# 5 0.000000 0.000000 0.000000 0.000000 0.061904 0.000000
# 6 0.000000 0.000000 0.000000 0.000000 0.000000 0.020155
#
#
# Mechanical properties :
#
#
# Convention : Reuss Voigt Hill
#
# Bulk Modulus (GPa) = 60.11678 68.99911 64.55795
# Shear Modulus (GPa) = 21.81513 27.11700 24.46607
#
# Velocity S-wave (km/s) = 3.47909 3.87889 3.68442
# Velocity P-wave (km/s) = 7.03523 7.63839 7.34301
#
# Compressibility (1/GPa) = 0.01663429
#
# Stress axis : x y z
#
# Youngs Moduli (GPa) = 88.08370 51.58443 72.63552
#
# Poissons Ratio (x) = 0.23398 0.38162
# Poissons Ratio (y) = 0.39954 0.30114
# Poissons Ratio (z) = 0.46279 0.21386
#
# Static dielectric constant tensor:
#      x y z
#    x 1.675040 0.000000 0.000000 
#    y 0.000000 1.619750 0.000000 
#    z 0.000000 0.000000 1.616920 
# 
# From -- ./inp_files/3232.got.cif
#   From: 2010.05.17/outbox.cif.g08.bks.cpg/sg48_2_cif.got.tgz:3232.got - 2010.06.03 20:39:00.
