data_PCOD9389805
_publ_section_title
;
Structure prediction by ZEFSAII (Michael W. Deem and Ramdas Pophale) SiO2 
 PCOD9389805
Probable space group: P N N N
;
_chemical_formula_sum "Si O2"
_cell_formula_units_Z 32
_cell_length_a 14.152972
_cell_length_b 5.276081
_cell_length_c 19.210211
_cell_angle_alpha 90.000000
_cell_angle_beta 90.000000
_cell_angle_gamma 90.000000
_cell_volume 1434.469230
_symmetry_space_group_name_H-M "P N N N"
_symmetry_group_IT_number 48
_space_group.IT_coordinate_system_code '2'
_symmetry_cell_setting 'orthorhombic'
loop_
_space_group_symop_operation_xyz
x,y,z
1/2-x,1/2-y,z
x,1/2-y,1/2-z
1/2-x,y,1/2-z
-x,-y,-z
1/2+x,1/2+y,-z
-x,1/2+y,1/2+z
1/2+x,-y,1/2+z
loop_
_atom_site_type_symbol
_atom_site_label
_atom_site_fract_x
_atom_site_fract_y
_atom_site_fract_z
Si Si1 0.250000 0.750000 0.470282
Si Si2 0.618218 0.183368 0.404050
Si Si3 0.115465 0.179365 0.671961
Si Si4 0.953270 0.852358 0.674360
Si Si5 0.750000 0.750000 0.877220
O O1 0.340567 0.746245 0.521607
O O2 0.240057 0.499307 0.424555
O O3 0.506116 0.210171 0.389455
O O4 0.643403 0.902214 0.379897
O O5 0.653617 0.093344 0.147839
O O6 0.141186 0.250000 0.750000
O O7 0.001064 0.130209 0.669701
O O8 0.985310 0.750000 0.750000
O O9 0.843214 0.810538 0.667111
#
# Coordination Sequence:
#
# PCOD9389805 Si02
#       5
#     4   8   8   8   4
#     4  12  28  48  58 102 136 186 222 262 316 424
#     4  10  22  41  70  89 140 169 224 265 333 391
#     4  10  18  39  67 101 124 168 209 284 332 390
#     4  10  23  44  70 102 127 169 221 287 337 387
#     4  12  29  42  68  94 141 178 224 264 336 394
#
# _framework density 22.307903
#
# number of rings (size 3 to 8) (size 9 to 14) (size 15 to 20)
#    1.500    0.000    2.500    2.625    3.500    2.000 
#    0.000    8.125    0.000    0.000    0.000    0.000 
#    0.000    0.000    0.000    0.000    0.000    0.000 
#
# Total GULP energy -178418.681399 kJ/mol
# GULP energy per Si atom -5575.583794 kJ/mol
# Density = 2.225713 g / cm^3
# Si number density = 22.307903 Si / 1000 Ang^3
#
#
#
# Elastic Constant Matrix: (Units=GPa)
#
#
# Indices 1 2 3 4 5 6 
#
# 1 133.6595 8.8526 12.7044 0.0000 0.0000 0.0000
# 2 8.8526 149.6273 28.7501 0.0000 0.0000 0.0000
# 3 12.7044 28.7501 67.1615 0.0000 0.0000 0.0000
# 4 0.0000 0.0000 0.0000 16.7193 0.0000 0.0000
# 5 0.0000 0.0000 0.0000 0.0000 34.0149 0.0000
# 6 0.0000 0.0000 0.0000 0.0000 0.0000 27.8698
#
#
#
# Elastic Compliance Matrix: (Units=1/GPa)
#
#
# Indices 1 2 3 4 5 6 
#
# 1 0.007624 -0.000190 -0.001361 0.000000 0.000000 0.000000
# 2 -0.000190 0.007287 -0.003084 0.000000 0.000000 0.000000
# 3 -0.001361 -0.003084 0.016467 0.000000 0.000000 0.000000
# 4 0.000000 0.000000 0.000000 0.059811 0.000000 0.000000
# 5 0.000000 0.000000 0.000000 0.000000 0.029399 0.000000
# 6 0.000000 0.000000 0.000000 0.000000 0.000000 0.035881
#
#
# Mechanical properties :
#
#
# Convention : Reuss Voigt Hill
#
# Bulk Modulus (GPa) = 45.22952 50.11805 47.67378
# Shear Modulus (GPa) = 28.88395 35.73021 32.30708
#
# Velocity S-wave (km/s) = 3.60222 4.00645 3.80970
# Velocity P-wave (km/s) = 6.13355 6.62702 6.38505
#
# Compressibility (1/GPa) = 0.02210945
#
# Stress axis : x y z
#
# Youngs Moduli (GPa) = 131.17146 137.23131 60.72796
#
# Poissons Ratio (x) = 0.02601 0.08265
# Poissons Ratio (y) = 0.02486 0.18725
# Poissons Ratio (z) = 0.17852 0.42315
#
# Static dielectric constant tensor:
#      x y z
#    x 1.931460 0.000000 0.000000 
#    y 0.000000 1.804140 0.000000 
#    z 0.000000 0.000000 1.770720 
# 
# From -- ./inp_files/27575.got.cif
#   From: 2010.05.17/outbox.cif.g08.bks.cpg/sg48_14_cif.got.tgz:27575.got - 2010.06.03 20:39:00.
