data_PCOD9389927
_publ_section_title
;
Structure prediction by ZEFSAII (Michael W. Deem and Ramdas Pophale) SiO2 
 PCOD9389927
Probable space group: P N N N
;
_chemical_formula_sum "Si O2"
_cell_formula_units_Z 32
_cell_length_a 7.731884
_cell_length_b 14.373509
_cell_length_c 12.916116
_cell_angle_alpha 90.000000
_cell_angle_beta 90.000000
_cell_angle_gamma 90.000000
_cell_volume 1435.423565
_symmetry_space_group_name_H-M "P N N N"
_symmetry_group_IT_number 48
_space_group.IT_coordinate_system_code '2'
_symmetry_cell_setting 'orthorhombic'
loop_
_space_group_symop_operation_xyz
x,y,z
1/2-x,1/2-y,z
x,1/2-y,1/2-z
1/2-x,y,1/2-z
-x,-y,-z
1/2+x,1/2+y,-z
-x,1/2+y,1/2+z
1/2+x,-y,1/2+z
loop_
_atom_site_type_symbol
_atom_site_label
_atom_site_fract_x
_atom_site_fract_y
_atom_site_fract_z
Si Si1 0.944304 0.712139 0.856440
Si Si2 0.338209 0.545693 0.633152
Si Si3 0.364675 0.827989 0.468626
Si Si4 0.214092 0.147011 0.871060
O O1 0.750000 0.750000 0.857754
O O2 0.024273 0.750000 0.750000
O O3 0.982020 0.602136 0.858457
O O4 0.043008 0.761610 0.948171
O O5 0.250000 0.549659 0.750000
O O6 0.232564 0.598232 0.541964
O O7 0.336931 0.438293 0.597721
O O8 0.250000 0.750000 0.408602
O O9 0.514796 0.873910 0.399410
O O10 0.250000 0.250000 0.913443
O O11 0.250000 0.153582 0.750000
#
# Coordination Sequence:
#
# PCOD9389927 Si02
#       4
#     8   8   8   8
#     4  10  19  33  59  96 132 161 204 269 338 399
#     4  10  19  36  63  94 129 170 215 271 342 400
#     4  10  20  36  63  91 123 166 220 269 339 396
#     4  10  22  41  61  84 127 179 226 275 319 391
#
# _framework density 22.293071999999999
#
# number of rings (size 3 to 8) (size 9 to 14) (size 15 to 20)
#    0.000    2.000    2.500    1.500    0.000    0.000 
#    0.000   16.250    0.000    0.000    0.000    0.000 
#    0.000    0.000    0.000    0.000    0.000    0.000 
#
# Total GULP energy -178244.902374 kJ/mol
# GULP energy per Si atom -5570.153199 kJ/mol
# Density = 2.224233 g / cm^3
# Si number density = 22.293072 Si / 1000 Ang^3
#
#
#
# Elastic Constant Matrix: (Units=GPa)
#
#
# Indices 1 2 3 4 5 6 
#
# 1 74.1488 50.2137 16.3608 0.0000 0.0000 0.0000
# 2 50.2137 197.1504 5.6659 0.0000 0.0000 0.0000
# 3 16.3608 5.6659 89.4459 0.0000 0.0000 0.0000
# 4 0.0000 0.0000 0.0000 -2.4040 0.0000 0.0000
# 5 0.0000 0.0000 0.0000 0.0000 21.6862 0.0000
# 6 0.0000 0.0000 0.0000 0.0000 0.0000 48.3872
#
#
#
# Elastic Compliance Matrix: (Units=1/GPa)
#
#
# Indices 1 2 3 4 5 6 
#
# 1 0.016987 -0.004245 -0.002838 0.000000 0.000000 0.000000
# 2 -0.004245 0.006142 0.000387 0.000000 0.000000 0.000000
# 3 -0.002838 0.000387 0.011675 0.000000 0.000000 0.000000
# 4 0.000000 0.000000 0.000000 -0.415976 0.000000 0.000000
# 5 0.000000 0.000000 0.000000 0.000000 0.046112 0.000000
# 6 0.000000 0.000000 0.000000 0.000000 0.000000 0.020667
#
#
# Mechanical properties :
#
#
# Convention : Reuss Voigt Hill
#
# Bulk Modulus (GPa) = 46.70203 56.13621 51.41912
# Shear Modulus (GPa) = -17.01470 32.76754 7.87642
#
# Velocity S-wave (km/s) = -2.76566 3.83803 1.88170
# Velocity P-wave (km/s) = 3.28575 6.69897 5.27600
#
# Compressibility (1/GPa) = 0.02141234
#
# Stress axis : x y z
#
# Youngs Moduli (GPa) = 58.86698 162.80419 85.65621
#
# Poissons Ratio (x) = 0.69112 0.24312
# Poissons Ratio (y) = 0.24990 -0.03318
# Poissons Ratio (z) = 0.16708 -0.06307
#
# Static dielectric constant tensor:
#      x y z
#    x 2.004870 0.000000 0.000000 
#    y 0.000000 1.885680 0.000000 
#    z 0.000000 0.000000 1.846650 
# 
# From -- ./inp_files/11951.got.cif
#   From: 2010.05.17/outbox.cif.g08.bks.cpg/sg48_6_cif.got.tgz:11951.got - 2010.06.03 20:39:00.
