data_PCOD9389823
_publ_section_title
;
Structure prediction by ZEFSAII (Michael W. Deem and Ramdas Pophale) SiO2 
 PCOD9389823
Probable space group: P N N N
;
_chemical_formula_sum "Si O2"
_cell_formula_units_Z 56
_cell_length_a 23.625844
_cell_length_b 5.435927
_cell_length_c 19.328757
_cell_angle_alpha 90.000000
_cell_angle_beta 90.000000
_cell_angle_gamma 90.000000
_cell_volume 2482.360626
_symmetry_space_group_name_H-M "P N N N"
_symmetry_group_IT_number 48
_space_group.IT_coordinate_system_code '2'
_symmetry_cell_setting 'orthorhombic'
loop_
_space_group_symop_operation_xyz
x,y,z
1/2-x,1/2-y,z
x,1/2-y,1/2-z
1/2-x,y,1/2-z
-x,-y,-z
1/2+x,1/2+y,-z
-x,1/2+y,1/2+z
1/2+x,-y,1/2+z
loop_
_atom_site_type_symbol
_atom_site_label
_atom_site_fract_x
_atom_site_fract_y
_atom_site_fract_z
Si Si1 0.666233 0.856403 0.455600
Si Si2 0.535425 0.828999 0.402923
Si Si3 0.569458 0.369534 0.550148
Si Si4 0.774140 0.504546 0.672085
Si Si5 0.119713 0.374328 0.396238
Si Si6 0.654935 0.141461 0.082557
Si Si7 0.049874 0.830072 0.671625
O O1 0.599872 0.844543 0.429815
O O2 0.662378 0.866933 0.537881
O O3 0.690022 0.604666 0.426844
O O4 0.688408 0.109462 0.426499
O O5 0.495604 0.716075 0.463052
O O6 0.529273 0.606017 0.347128
O O7 0.524979 0.101303 0.373077
O O8 0.585356 0.618026 0.593106
O O9 0.608853 0.365865 0.481892
O O10 0.585756 0.126195 0.593606
O O11 0.750000 0.750000 0.638214
O O12 0.750000 0.498889 0.750000
O O13 0.840871 0.562252 0.669306
O O14 0.750000 0.250000 0.640199
O O15 0.616204 0.154301 0.150482
O O16 0.041566 0.750000 0.750000
#
# Coordination Sequence:
#
# PCOD9389823 Si02
#       7
#     8   8   8   8   8   8   8
#     4   8  16  27  44  71  96 116 150 193 246 298
#     4  10  19  31  48  68  95 132 163 200 253 307
#     4  10  19  31  51  75  97 118 157 210 264 308
#     4  10  21  38  60  74  90 124 167 210 261 332
#     4  10  19  32  52  76  93 112 154 211 258 306
#     4   8  16  27  42  66  86 117 153 197 242 284
#     4  10  19  30  44  57  89 131 175 196 222 287
#
# _framework density 22.559170999999999
#
# number of rings (size 3 to 8) (size 9 to 14) (size 15 to 20)
#    0.000    2.571    0.000    2.143    0.000   10.286 
#    0.000    0.000   31.429    0.000    0.000    0.000 
#    0.000    0.000    0.000    0.000    0.000  867.857 
#
# Total GULP energy -311776.621357 kJ/mol
# GULP energy per Si atom -5567.439667 kJ/mol
# Density = 2.250783 g / cm^3
# Si number density = 22.559171 Si / 1000 Ang^3
#
#
#
# Elastic Constant Matrix: (Units=GPa)
#
#
# Indices 1 2 3 4 5 6 
#
# 1 45.7458 25.5080 10.3764 0.0000 0.0000 0.0000
# 2 25.5080 243.2475 18.1568 0.0000 0.0000 0.0000
# 3 10.3764 18.1568 59.5846 0.0000 0.0000 0.0000
# 4 0.0000 0.0000 0.0000 13.0189 0.0000 0.0000
# 5 0.0000 0.0000 0.0000 0.0000 -0.8585 0.0000
# 6 0.0000 0.0000 0.0000 0.0000 0.0000 25.5227
#
#
#
# Elastic Compliance Matrix: (Units=1/GPa)
#
#
# Indices 1 2 3 4 5 6 
#
# 1 0.023902 -0.002247 -0.003478 0.000000 0.000000 0.000000
# 2 -0.002247 0.004418 -0.000955 0.000000 0.000000 0.000000
# 3 -0.003478 -0.000955 0.017680 0.000000 0.000000 0.000000
# 4 0.000000 0.000000 0.000000 0.076811 0.000000 0.000000
# 5 0.000000 0.000000 0.000000 0.000000 -1.164849 0.000000
# 6 0.000000 0.000000 0.000000 0.000000 0.000000 0.039181
#
#
# Mechanical properties :
#
#
# Convention : Reuss Voigt Hill
#
# Bulk Modulus (GPa) = 30.63724 50.74003 40.68863
# Shear Modulus (GPa) = -5.10924 27.17239 11.03158
#
# Velocity S-wave (km/s) = -1.50656 3.47435 2.21375
# Velocity P-wave (km/s) = 3.25331 6.21575 4.96083
#
# Compressibility (1/GPa) = 0.03264002
#
# Stress axis : x y z
#
# Youngs Moduli (GPa) = 41.83813 226.35010 56.56266
#
# Poissons Ratio (x) = 0.50857 0.19671
# Poissons Ratio (y) = 0.09400 0.05402
# Poissons Ratio (z) = 0.14550 0.21616
#
# Static dielectric constant tensor:
#      x y z
#    x 2.028360 0.000000 0.000000 
#    y 0.000000 1.952870 0.000000 
#    z 0.000000 0.000000 1.830860 
# 
# From -- ./inp_files/35015.got.cif
#   From: 2010.05.17/outbox.cif.g08.bks.cpg/sg48_18_cif.got.tgz:35015.got - 2010.06.03 20:39:00.
