data_PCOD9389779
_publ_section_title
;
Structure prediction by ZEFSAII (Michael W. Deem and Ramdas Pophale) SiO2 
 PCOD9389779
Probable space group: P N N N
;
_chemical_formula_sum "Si O2"
_cell_formula_units_Z 58
_cell_length_a 11.407383
_cell_length_b 8.601576
_cell_length_c 23.357785
_cell_angle_alpha 90.000000
_cell_angle_beta 90.000000
_cell_angle_gamma 90.000000
_cell_volume 2291.900243
_symmetry_space_group_name_H-M "P N N N"
_symmetry_group_IT_number 48
_space_group.IT_coordinate_system_code '2'
_symmetry_cell_setting 'orthorhombic'
loop_
_space_group_symop_operation_xyz
x,y,z
1/2-x,1/2-y,z
x,1/2-y,1/2-z
1/2-x,y,1/2-z
-x,-y,-z
1/2+x,1/2+y,-z
-x,1/2+y,1/2+z
1/2+x,-y,1/2+z
loop_
_atom_site_type_symbol
_atom_site_label
_atom_site_fract_x
_atom_site_fract_y
_atom_site_fract_z
Si Si1 0.728997 0.934905 0.128024
Si Si2 0.879289 0.055639 0.028256
Si Si3 0.041036 0.890706 0.551383
Si Si4 0.634903 0.851598 0.851894
Si Si5 0.557345 0.985604 0.216026
Si Si6 0.538334 0.146263 0.678111
Si Si7 0.792078 0.421891 0.584764
Si Si8 0.250000 0.750000 0.250000
O O1 0.750000 0.750000 0.132395
O O2 0.686105 0.003142 0.189082
O O3 0.836701 0.997793 0.089981
O O4 0.618315 0.994861 0.090527
O O5 0.886523 0.242092 0.030705
O O6 0.792245 0.999434 0.977386
O O7 0.000000 0.000000 0.000000
O O8 0.940330 0.810446 0.591256
O O9 0.000000 0.000000 0.500000
O O10 0.750000 0.750000 0.837353
O O11 0.537951 0.887043 0.804027
O O12 0.696739 0.006870 0.873497
O O13 0.546422 0.961367 0.284016
O O14 0.513136 0.820131 0.187059
O O15 0.581812 0.089070 0.616585
O O16 0.661442 0.149153 0.712693
O O17 0.750000 0.250000 0.576233
#
# Coordination Sequence:
#
# PCOD9389779 Si02
#       8
#     8   8   8   8   8   8   8   2
#     4  11  24  42  67  96 137 185 237 292 360 429
#     4  12  26  40  64  98 138 186 240 294 361 440
#     4  11  23  41  62  93 142 187 232 289 351 429
#     4  11  22  38  60  97 137 176 217 280 362 431
#     4   9  21  40  65  96 134 175 223 300 357 427
#     4  10  18  36  66  98 131 166 233 294 359 414
#     4  12  21  37  64  95 129 175 228 287 356 423
#     4   8  12  28  52  92 120 156 192 284 350 398
#
# _framework density 25.306512999999999
#
# number of rings (size 3 to 8) (size 9 to 14) (size 15 to 20)
#    0.000    1.379    2.069    5.379    3.862    1.103 
#    0.000    2.759    0.000    0.000    0.000    0.000 
#    8.276    0.000    0.000    0.000    0.000    0.000 
#
# Total GULP energy -323915.668995 kJ/mol
# GULP energy per Si atom -5584.752914 kJ/mol
# Density = 2.524891 g / cm^3
# Si number density = 25.306513 Si / 1000 Ang^3
#
#
#
# Elastic Constant Matrix: (Units=GPa)
#
#
# Indices 1 2 3 4 5 6 
#
# 1 147.0567 23.9142 57.9466 0.0000 0.0000 0.0000
# 2 23.9142 65.4870 23.3922 0.0000 0.0000 0.0000
# 3 57.9466 23.3922 145.4612 0.0000 0.0000 0.0000
# 4 0.0000 0.0000 0.0000 20.7080 0.0000 0.0000
# 5 0.0000 0.0000 0.0000 0.0000 41.3000 0.0000
# 6 0.0000 0.0000 0.0000 0.0000 0.0000 32.1680
#
#
#
# Elastic Compliance Matrix: (Units=1/GPa)
#
#
# Indices 1 2 3 4 5 6 
#
# 1 0.008297 -0.001962 -0.002990 0.000000 0.000000 0.000000
# 2 -0.001962 0.016665 -0.001898 0.000000 0.000000 0.000000
# 3 -0.002990 -0.001898 0.008371 0.000000 0.000000 0.000000
# 4 0.000000 0.000000 0.000000 0.048290 0.000000 0.000000
# 5 0.000000 0.000000 0.000000 0.000000 0.024213 0.000000
# 6 0.000000 0.000000 0.000000 0.000000 0.000000 0.031087
#
#
# Mechanical properties :
#
#
# Convention : Reuss Voigt Hill
#
# Bulk Modulus (GPa) = 50.93531 63.16787 57.05159
# Shear Modulus (GPa) = 31.81311 35.68533 33.74922
#
# Velocity S-wave (km/s) = 3.54942 3.75924 3.65584
# Velocity P-wave (km/s) = 6.08021 6.62252 6.35715
#
# Compressibility (1/GPa) = 0.01963275
#
# Stress axis : x y z
#
# Youngs Moduli (GPa) = 120.52158 60.00688 119.45989
#
# Poissons Ratio (x) = 0.11773 0.35716
# Poissons Ratio (y) = 0.23646 0.22678
# Poissons Ratio (z) = 0.36034 0.11391
#
# Static dielectric constant tensor:
#      x y z
#    x 2.120960 0.000000 0.000000 
#    y 0.000000 1.940260 0.000000 
#    z 0.000000 0.000000 2.065560 
# 
# From -- ./inp_files/37772.got.cif
#   From: 2010.05.17/outbox.cif.g08.bks.cpg/sg48_19_cif.got.tgz:37772.got - 2010.06.03 20:39:00.
