data_PCOD9389347
_publ_section_title
;
Structure prediction by ZEFSAII (Michael W. Deem and Ramdas Pophale) SiO2 
 PCOD9389347
Probable space group: P M M M
;
_chemical_formula_sum "Si O2"
_cell_formula_units_Z 64
_cell_length_a 9.000000
_cell_length_b 24.000000
_cell_length_c 15.000000
_cell_angle_alpha 90.000000
_cell_angle_beta 90.000000
_cell_angle_gamma 90.000000
_cell_volume 3240.000000
_symmetry_space_group_name_H-M "P M M M"
_symmetry_group_IT_number 47
_symmetry_cell_setting 'orthorhombic'
loop_
_space_group_symop_operation_xyz
x,y,z
-x,-y,z
x,-y,-z
-x,y,-z
-x,-y,-z
x,y,-z
-x,y,z
x,-y,z
loop_
_atom_site_type_symbol
_atom_site_label
_atom_site_fract_x
_atom_site_fract_y
_atom_site_fract_z
Si Si1 0.828898 0.627483 0.232348
Si Si2 0.663494 0.434054 0.099315
Si Si3 0.677547 0.736444 0.784337
Si Si4 0.321439 0.216802 0.597247
Si Si5 0.325609 0.060692 0.225982
Si Si6 0.681730 0.159285 0.899201
Si Si7 0.181244 0.563519 0.600600
Si Si8 0.822810 0.905265 0.597638
O O1 0.797867 0.578327 0.164340
O O2 0.742539 0.678127 0.189570
O O3 0.765948 0.607384 0.327029
O O4 0.000000 0.641371 0.242563
O O5 0.500000 0.414790 0.132985
O O6 0.653945 0.500000 0.092037
O O7 0.684928 0.410704 0.000000
O O8 0.500000 0.735777 0.786117
O O9 0.725566 0.748416 0.682708
O O10 0.728923 0.785342 0.848509
O O11 0.286758 0.241496 0.500000
O O12 0.500000 0.208711 0.602424
O O13 0.244438 0.156829 0.602708
O O14 0.500000 0.071644 0.244002
O O15 0.268796 0.107520 0.159877
O O16 0.242675 0.062694 0.319270
O O17 0.312900 0.000000 0.184279
O O18 0.500000 0.158379 0.900410
O O19 0.733469 0.156841 0.000000
O O20 0.227324 0.576291 0.500000
O O21 0.226882 0.500000 0.621934
O O22 0.000000 0.563750 0.602920
O O23 0.782146 0.928171 0.500000
O O24 0.000000 0.902932 0.603117
#
# Coordination Sequence:
#
# PCOD9389347 Si02
#       8
#     8   8   8   8   8   8   8   8
#     4  11  22  33  51  82 114 142 179 227 272 315
#     4   9  19  37  59  80 104 138 178 219 270 332
#     4  10  20  35  53  75 106 145 183 217 264 324
#     4   9  17  32  55  78 102 136 180 226 266 310
#     4  10  20  35  57  84 110 137 175 224 274 325
#     4   9  18  35  58  81 104 134 176 224 274 326
#     4   8  15  30  51  74 104 144 184 219 262 316
#     4  10  20  33  52  79 111 145 177 212 260 317
#
# _framework density 19.753086
#
# number of rings (size 3 to 8) (size 9 to 14) (size 15 to 20)
#    0.000    2.500    1.250    1.875    0.000    4.000 
#    0.000    4.375    0.000    2.250    0.000    5.250 
#    0.000    0.000    0.000    0.000    0.000    0.000 
#
# Total GULP energy -356444.597026 kJ/mol
# GULP energy per Si atom -5569.446829 kJ/mol
# Density = 1.970813 g / cm^3
# Si number density = 19.753086 Si / 1000 Ang^3
#
#
#
# Elastic Constant Matrix: (Units=GPa)
#
#
# Indices 1 2 3 4 5 6 
#
# 1 -5.2702 9.4156 14.6060 0.0000 0.0000 0.0000
# 2 9.4156 52.0850 41.7022 0.0000 0.0000 0.0000
# 3 14.6060 41.7022 88.7624 0.0000 0.0000 0.0000
# 4 0.0000 0.0000 0.0000 35.1232 0.0000 0.0000
# 5 0.0000 0.0000 0.0000 0.0000 11.3227 0.0000
# 6 0.0000 0.0000 0.0000 0.0000 0.0000 -46.9918
#
#
#
# Elastic Compliance Matrix: (Units=1/GPa)
#
#
# Indices 1 2 3 4 5 6 
#
# 1 -0.126995 0.009980 0.016208 0.000000 0.000000 0.000000
# 2 0.009980 0.029992 -0.015733 0.000000 0.000000 0.000000
# 3 0.016208 -0.015733 0.015991 0.000000 0.000000 0.000000
# 4 0.000000 0.000000 0.000000 0.028471 0.000000 0.000000
# 5 0.000000 0.000000 0.000000 0.000000 0.088318 0.000000
# 6 0.000000 0.000000 0.000000 0.000000 0.000000 -0.021280
#
#
# Mechanical properties :
#
#
# Convention : Reuss Voigt Hill
#
# Bulk Modulus (GPa) = -16.63846 29.66940 6.51547
# Shear Modulus (GPa) = -189.04937 4.54771 -92.25083
#
# Velocity S-wave (km/s) = -9.79357 1.51897 -6.84130
# Velocity P-wave (km/s) = 11.67591 4.25783 7.68758
#
# Compressibility (1/GPa) = -0.06010171
#
# Stress axis : x y z
#
# Youngs Moduli (GPa) = -7.87432 33.34220 62.53692
#
# Poissons Ratio (x) = -0.33275 -1.01363
# Poissons Ratio (y) = 0.07858 0.98389
# Poissons Ratio (z) = 0.12763 0.52457
#
# Static dielectric constant tensor:
#      x y z
#    x 1.702070 0.000000 0.000000 
#    y 0.000000 1.743760 0.000000 
#    z 0.000000 0.000000 1.705870 
# 
# From -- ./inp_files/21912.got.cif
#   From: 2010.05.17/outbox.ucp.g08.bks.cvg/sg47_11_cif.got.tgz:21912.got - 2010.06.11 16:36:43.
