data_PCOD9389224
_publ_section_title
;
Structure prediction by ZEFSAII (Michael W. Deem and Ramdas Pophale) SiO2 
 PCOD9389224
Probable space group: P M M M
;
_chemical_formula_sum "Si O2"
_cell_formula_units_Z 64
_cell_length_a 30.000000
_cell_length_b 9.000000
_cell_length_c 15.000000
_cell_angle_alpha 90.000000
_cell_angle_beta 90.000000
_cell_angle_gamma 90.000000
_cell_volume 4050.000000
_symmetry_space_group_name_H-M "P M M M"
_symmetry_group_IT_number 47
_symmetry_cell_setting 'orthorhombic'
loop_
_space_group_symop_operation_xyz
x,y,z
-x,-y,z
x,-y,-z
-x,y,-z
-x,-y,-z
x,y,-z
-x,y,z
x,-y,z
loop_
_atom_site_type_symbol
_atom_site_label
_atom_site_fract_x
_atom_site_fract_y
_atom_site_fract_z
Si Si1 0.870773 0.680627 0.602603
Si Si2 0.049734 0.679181 0.730820
Si Si3 0.548055 0.824013 0.107756
Si Si4 0.273801 0.320676 0.217072
Si Si5 0.185463 0.673778 0.894481
Si Si6 0.091438 0.822949 0.103074
Si Si7 0.230856 0.680903 0.602083
Si Si8 0.646663 0.819782 0.895030
O O1 0.879169 0.723219 0.500000
O O2 0.870836 0.500000 0.605779
O O3 0.910121 0.732140 0.667050
O O4 0.820103 0.726607 0.625369
O O5 0.052050 0.500000 0.734920
O O6 0.058699 0.745044 0.828066
O O7 0.000000 0.719188 0.699126
O O8 0.500000 0.761127 0.138824
O O9 0.596930 0.767207 0.134419
O O10 0.547614 0.000000 0.129036
O O11 0.548096 0.813828 0.000000
O O12 0.279137 0.500000 0.214729
O O13 0.228707 0.285319 0.162134
O O14 0.264301 0.273556 0.319314
O O15 0.315284 0.246214 0.167633
O O16 0.175099 0.500000 0.875789
O O17 0.141623 0.768777 0.875076
O O18 0.195408 0.687455 0.000000
O O19 0.088473 0.000000 0.110515
O O20 0.082953 0.780917 0.000000
O O21 0.240563 0.728041 0.500000
O O22 0.230834 0.500000 0.601715
O O23 0.647325 0.000000 0.891384
O O24 0.653452 0.779534 0.000000
#
# Coordination Sequence:
#
# PCOD9389224 Si02
#       8
#     8   8   8   8   8   8   8   8
#     4   8  14  27  48  71  91 108 130 166 208 247
#     4  10  20  32  48  71  94 113 134 163 203 251
#     4   7  10  19  36  55  75 105 147 187 216 245
#     4  10  18  27  42  63  88 117 144 172 210 254
#     4   9  17  29  45  64  85 110 141 174 207 248
#     4  10  21  35  49  64  83 111 147 182 211 239
#     4   8  14  25  42  63  84 108 140 174 206 244
#     4   9  17  27  39  59  88 119 149 181 215 251
#
# _framework density 15.802469
#
# number of rings (size 3 to 8) (size 9 to 14) (size 15 to 20)
#    0.000    3.125    0.000    3.375    0.000    4.750 
#    0.000    3.750    0.000    1.125    0.000    4.375 
#    0.000    0.500    0.000    6.250    0.000    0.250 
#
# Total GULP energy -356331.373970 kJ/mol
# GULP energy per Si atom -5567.677718 kJ/mol
# Density = 1.576650 g / cm^3
# Si number density = 15.802469 Si / 1000 Ang^3
#
#
#
# Elastic Constant Matrix: (Units=GPa)
#
#
# Indices 1 2 3 4 5 6 
#
# 1 104.4372 15.6564 66.7661 0.0000 0.0000 0.0000
# 2 15.6564 2.4333 14.4218 0.0000 0.0000 0.0000
# 3 66.7661 14.4218 75.2407 0.0000 0.0000 0.0000
# 4 0.0000 0.0000 0.0000 8.7907 0.0000 0.0000
# 5 0.0000 0.0000 0.0000 0.0000 17.7529 0.0000
# 6 0.0000 0.0000 0.0000 0.0000 0.0000 19.5220
#
#
#
# Elastic Compliance Matrix: (Units=1/GPa)
#
#
# Indices 1 2 3 4 5 6 
#
# 1 0.014310 0.123581 -0.036386 0.000000 0.000000 0.000000
# 2 0.123581 -1.953406 0.264760 0.000000 0.000000 0.000000
# 3 -0.036386 0.264760 -0.005170 0.000000 0.000000 0.000000
# 4 0.000000 0.000000 0.000000 0.113756 0.000000 0.000000
# 5 0.000000 0.000000 0.000000 0.000000 0.056329 0.000000
# 6 0.000000 0.000000 0.000000 0.000000 0.000000 0.051224
#
#
# Mechanical properties :
#
#
# Convention : Reuss Voigt Hill
#
# Bulk Modulus (GPa) = -0.80622 41.75554 20.47466
# Shear Modulus (GPa) = -1.76037 14.89756 6.56860
#
# Velocity S-wave (km/s) = -1.05660 3.07373 2.04101
# Velocity P-wave (km/s) = 1.41415 6.25123 4.30570
#
# Compressibility (1/GPa) = -1.24035669
#
# Stress axis : x y z
#
# Youngs Moduli (GPa) = 69.88127 -0.51193 -193.42429
#
# Poissons Ratio (x) = 0.06326 -7.03787
# Poissons Ratio (y) = -8.63598 51.21098
# Poissons Ratio (z) = 2.54268 0.13554
#
# Static dielectric constant tensor:
#      x y z
#    x 1.547450 0.000000 0.000000 
#    y 0.000000 1.532160 0.000000 
#    z 0.000000 0.000000 1.532050 
# 
# From -- ./inp_files/22142.got.cif
#   From: 2010.05.17/outbox.ucp.g08.bks.cvg/sg47_12_cif.got.tgz:22142.got - 2010.06.11 16:36:43.
