data_PCOD9389252
_publ_section_title
;
Structure prediction by ZEFSAII (Michael W. Deem and Ramdas Pophale) SiO2 
 PCOD9389252
Probable space group: P M M M
;
_chemical_formula_sum "Si O2"
_cell_formula_units_Z 48
_cell_length_a 18.000000
_cell_length_b 15.000000
_cell_length_c 9.000000
_cell_angle_alpha 90.000000
_cell_angle_beta 90.000000
_cell_angle_gamma 90.000000
_cell_volume 2430.000000
_symmetry_space_group_name_H-M "P M M M"
_symmetry_group_IT_number 47
_symmetry_cell_setting 'orthorhombic'
loop_
_space_group_symop_operation_xyz
x,y,z
-x,-y,z
x,-y,-z
-x,y,-z
-x,-y,-z
x,y,-z
-x,y,z
x,-y,z
loop_
_atom_site_type_symbol
_atom_site_label
_atom_site_fract_x
_atom_site_fract_y
_atom_site_fract_z
Si Si1 0.856884 0.394640 0.166891
Si Si2 0.708095 0.607304 0.325399
Si Si3 0.413648 0.728315 0.821134
Si Si4 0.320287 0.102093 0.818674
Si Si5 0.000000 0.333222 0.325562
Si Si6 0.839461 0.105726 0.167974
Si Si7 0.000000 0.851629 0.175675
O O1 0.846855 0.500000 0.152780
O O2 0.780475 0.359276 0.235346
O O3 0.924718 0.382312 0.279717
O O4 0.872053 0.359496 0.000000
O O5 0.717178 0.625835 0.500000
O O6 0.702221 0.500000 0.308334
O O7 0.636425 0.655411 0.259620
O O8 0.500000 0.720172 0.784365
O O9 0.381983 0.825893 0.779651
O O10 0.405412 0.718817 0.000000
O O11 0.238822 0.134731 0.763355
O O12 0.334878 0.000000 0.771096
O O13 0.315314 0.100297 0.000000
O O14 0.000000 0.310380 0.500000
O O15 0.000000 0.251309 0.211779
O O16 0.920364 0.117968 0.239110
O O17 0.829693 0.000000 0.154521
O O18 0.844319 0.144093 0.000000
O O19 0.000000 0.876727 0.000000
#
# Coordination Sequence:
#
# PCOD9389252 Si02
#       7
#     8   8   8   8   4   8   4
#     4  10  21  39  62  84 107 141 187 235 280 328
#     4  10  22  40  61  85 114 150 189 232 290 353
#     4  10  21  35  55  85 117 151 192 240 291 342
#     4   8  15  29  50  78 112 148 187 235 289 340
#     4  12  25  36  49  78 119 156 189 226 272 326
#     4   8  14  26  46  73 103 136 180 235 286 330
#     4  10  19  29  47  76 105 141 189 234 276 326
#
# _framework density 19.753086
#
# number of rings (size 3 to 8) (size 9 to 14) (size 15 to 20)
#    0.000    2.500    0.000    3.250    2.333    5.000 
#    0.000    3.333    0.000    1.500    0.000    3.500 
#    0.000    0.000    0.000    0.000    0.000    0.000 
#
# Total GULP energy -267371.203326 kJ/mol
# GULP energy per Si atom -5570.233403 kJ/mol
# Density = 1.970813 g / cm^3
# Si number density = 19.753086 Si / 1000 Ang^3
#
#
#
# Elastic Constant Matrix: (Units=GPa)
#
#
# Indices 1 2 3 4 5 6 
#
# 1 144.4271 25.4759 37.0039 0.0000 0.0000 0.0000
# 2 25.4759 49.6739 13.7559 0.0000 0.0000 0.0000
# 3 37.0039 13.7559 23.6872 0.0000 0.0000 0.0000
# 4 0.0000 0.0000 0.0000 5.2452 0.0000 0.0000
# 5 0.0000 0.0000 0.0000 0.0000 -6.9413 0.0000
# 6 0.0000 0.0000 0.0000 0.0000 0.0000 34.0599
#
#
#
# Elastic Compliance Matrix: (Units=1/GPa)
#
#
# Indices 1 2 3 4 5 6 
#
# 1 0.011596 -0.001109 -0.017471 0.000000 0.000000 0.000000
# 2 -0.001109 0.024095 -0.012261 0.000000 0.000000 0.000000
# 3 -0.017471 -0.012261 0.076630 0.000000 0.000000 0.000000
# 4 0.000000 0.000000 0.000000 0.190651 0.000000 0.000000
# 5 0.000000 0.000000 0.000000 0.000000 -0.144065 0.000000
# 6 0.000000 0.000000 0.000000 0.000000 0.000000 0.029360
#
#
# Mechanical properties :
#
#
# Convention : Reuss Voigt Hill
#
# Bulk Modulus (GPa) = 19.74716 41.13996 30.44356
# Shear Modulus (GPa) = 18.73872 15.90959 17.32416
#
# Velocity S-wave (km/s) = 3.08335 2.84108 2.96469
# Velocity P-wave (km/s) = 4.76391 5.62446 5.21198
#
# Compressibility (1/GPa) = 0.05064020
#
# Stress axis : x y z
#
# Youngs Moduli (GPa) = 86.23870 41.50184 13.04978
#
# Poissons Ratio (x) = 0.04602 0.22799
# Poissons Ratio (y) = 0.09563 0.16000
# Poissons Ratio (z) = 1.50665 0.50884
#
# Static dielectric constant tensor:
#      x y z
#    x 1.779570 0.000000 0.000000 
#    y 0.000000 1.717210 0.000000 
#    z 0.000000 0.000000 1.699140 
# 
# From -- ./inp_files/9195.got.cif
#   From: 2010.05.17/outbox.ucp.g08.bks.cvg/sg47_5_cif.got.tgz:9195.got - 2010.06.11 16:36:43.
