data_PCOD9389872
_publ_section_title
;
Structure prediction by ZEFSAII (Michael W. Deem and Ramdas Pophale) SiO2 
 PCOD9389872
Probable space group: P N N N
;
_chemical_formula_sum "Si O2"
_cell_formula_units_Z 40
_cell_length_a 4.886927
_cell_length_b 21.380695
_cell_length_c 22.998072
_cell_angle_alpha 90.000000
_cell_angle_beta 90.000000
_cell_angle_gamma 90.000000
_cell_volume 2402.974152
_symmetry_space_group_name_H-M "P N N N"
_symmetry_group_IT_number 48
_space_group.IT_coordinate_system_code '2'
_symmetry_cell_setting 'orthorhombic'
loop_
_space_group_symop_operation_xyz
x,y,z
1/2-x,1/2-y,z
x,1/2-y,1/2-z
1/2-x,y,1/2-z
-x,-y,-z
1/2+x,1/2+y,-z
-x,1/2+y,1/2+z
1/2+x,-y,1/2+z
loop_
_atom_site_type_symbol
_atom_site_label
_atom_site_fract_x
_atom_site_fract_y
_atom_site_fract_z
Si Si1 0.370425 0.816471 0.843344
Si Si2 0.246287 0.461232 0.070684
Si Si3 0.237708 0.920595 0.997976
Si Si4 0.483547 0.794895 0.980579
Si Si5 0.355589 0.395245 0.188685
O O1 0.250000 0.750000 0.825045
O O2 0.411735 0.813108 0.913328
O O3 0.666758 0.833821 0.819988
O O4 0.162947 0.870310 0.821269
O O5 0.318658 0.531207 0.050234
O O6 0.284925 0.442928 0.136989
O O7 0.446685 0.413583 0.034771
O O8 0.935530 0.453445 0.049410
O O9 0.414799 0.859640 0.013699
O O10 0.250000 0.750000 0.003170
O O11 0.750000 0.750000 0.981058
O O12 0.250000 0.421089 0.250000
#
# Coordination Sequence:
#
# PCOD9389872 Si02
#       5
#     8   8   8   8   8
#     4  11  22  34  46  65  93 132 167 202 236 274
#     4  10  19  34  48  70  90 123 165 192 249 286
#     4  10  19  32  53  66  93 123 156 202 236 306
#     4  11  19  30  49  71  95 122 158 201 244 285
#     4  12  22  34  49  66  94 125 169 210 235 280
#
# _framework density 16.646038000000001
#
# number of rings (size 3 to 8) (size 9 to 14) (size 15 to 20)
#    0.000    1.200    4.000    4.800    0.000    2.400 
#    0.000    0.000    0.000    0.000    0.000    0.000 
#    0.000    0.800    0.000    3.600    0.000    0.000 
#
# Total GULP energy -222759.292845 kJ/mol
# GULP energy per Si atom -5568.982321 kJ/mol
# Density = 1.660815 g / cm^3
# Si number density = 16.646038 Si / 1000 Ang^3
#
#
#
# Elastic Constant Matrix: (Units=GPa)
#
#
# Indices 1 2 3 4 5 6 
#
# 1 89.5387 15.8821 7.8685 0.0000 0.0000 0.0000
# 2 15.8821 76.3113 39.9822 0.0000 0.0000 0.0000
# 3 7.8685 39.9822 70.2738 0.0000 0.0000 0.0000
# 4 0.0000 0.0000 0.0000 19.3050 0.0000 0.0000
# 5 0.0000 0.0000 0.0000 0.0000 -745.4887 0.0000
# 6 0.0000 0.0000 0.0000 0.0000 0.0000 22.1399
#
#
#
# Elastic Compliance Matrix: (Units=1/GPa)
#
#
# Indices 1 2 3 4 5 6 
#
# 1 0.011597 -0.002469 0.000106 0.000000 0.000000 0.000000
# 2 -0.002469 0.019195 -0.010645 0.000000 0.000000 0.000000
# 3 0.000106 -0.010645 0.020274 0.000000 0.000000 0.000000
# 4 0.000000 0.000000 0.000000 0.051800 0.000000 0.000000
# 5 0.000000 0.000000 0.000000 0.000000 -0.001341 0.000000
# 6 0.000000 0.000000 0.000000 0.000000 0.000000 0.045167
#
#
# Mechanical properties :
#
#
# Convention : Reuss Voigt Hill
#
# Bulk Modulus (GPa) = 39.91771 40.39882 40.15826
# Shear Modulus (GPa) = 27.61542 -129.31602 -50.85030
#
# Velocity S-wave (km/s) = 4.07747 -8.82351 -5.53302
# Velocity P-wave (km/s) = 6.79707 8.91537 4.07945
#
# Compressibility (1/GPa) = 0.02505154
#
# Stress axis : x y z
#
# Youngs Moduli (GPa) = 86.22916 52.09617 49.32326
#
# Poissons Ratio (x) = 0.12864 -0.00525
# Poissons Ratio (y) = 0.21293 0.52503
# Poissons Ratio (z) = -0.00918 0.55455
#
# Static dielectric constant tensor:
#      x y z
#    x 1.605430 0.000000 0.000000 
#    y 0.000000 1.382650 0.000000 
#    z 0.000000 0.000000 1.589990 
# 
# From -- ./inp_files/32850.got.cif
#   From: 2010.05.17/outbox.cif.g08.bks.cpg/sg48_17_cif.got.tgz:32850.got - 2010.06.03 20:39:00.
