data_PCOD9389057
_publ_section_title
;
Structure prediction by ZEFSAII (Michael W. Deem and Ramdas Pophale) SiO2 
 PCOD9389057
Probable space group: P M M M
;
_chemical_formula_sum "Si O2"
_cell_formula_units_Z 52
_cell_length_a 7.610768
_cell_length_b 14.167515
_cell_length_c 27.728768
_cell_angle_alpha 90.000000
_cell_angle_beta 90.000000
_cell_angle_gamma 90.000000
_cell_volume 2989.872982
_symmetry_space_group_name_H-M "P M M M"
_symmetry_group_IT_number 47
_symmetry_cell_setting 'orthorhombic'
loop_
_space_group_symop_operation_xyz
x,y,z
-x,-y,z
x,-y,-z
-x,y,-z
-x,-y,-z
x,y,-z
-x,y,z
x,-y,z
loop_
_atom_site_type_symbol
_atom_site_label
_atom_site_fract_x
_atom_site_fract_y
_atom_site_fract_z
Si Si1 0.290621 0.392283 0.342952
Si Si2 0.215365 0.890423 0.000000
Si Si3 0.211432 0.794514 0.098665
Si Si4 0.288257 0.292919 0.247227
Si Si5 0.210898 0.394661 0.148154
Si Si6 0.289255 0.104767 0.197840
Si Si7 0.788769 0.390291 0.551902
O O1 0.500000 0.399145 0.336595
O O2 0.219614 0.500000 0.341982
O O3 0.221371 0.332419 0.298013
O O4 0.262249 0.349873 0.396259
O O5 0.274543 0.836613 0.951775
O O6 0.000000 0.890248 0.000000
O O7 0.269363 0.000000 0.000000
O O8 0.277605 0.690620 0.114335
O O9 0.253674 0.863863 0.142955
O O10 0.000000 0.788435 0.095612
O O11 0.500000 0.286569 0.250137
O O12 0.247559 0.363355 0.203118
O O13 0.221155 0.189864 0.231268
O O14 0.279043 0.500000 0.138649
O O15 0.000000 0.397294 0.142575
O O16 0.500000 0.101997 0.203697
O O17 0.219913 0.000000 0.207370
O O18 0.728877 0.350059 0.500000
O O19 0.728620 0.500000 0.552839
O O20 0.000000 0.391027 0.551002
#
# Coordination Sequence:
#
# PCOD9389057 Si02
#       7
#     8   4   8   8   8   8   8
#     4   9  16  24  35  53  76 101 129 159 188 220
#     4   9  16  26  42  62  80  99 127 163 200 237
#     4   9  17  29  44  61  80 103 131 160 192 234
#     4   9  17  28  41  58  80 105 133 162 193 234
#     4   9  17  28  41  58  80 104 131 163 195 227
#     4   9  17  29  44  61  81 104 129 159 197 237
#     4   8  14  24  36  50  71 101 133 160 188 224
#
# _framework density 17.392043999999999
#
# number of rings (size 3 to 8) (size 9 to 14) (size 15 to 20)
#    0.000    3.154    0.000    1.385    0.000    2.769 
#    0.000    3.846    0.000    3.692    0.000    0.000 
#    0.000    5.538    0.000    7.692    0.000    1.538 
#
# Total GULP energy -289628.386141 kJ/mol
# GULP energy per Si atom -5569.776657 kJ/mol
# Density = 1.735246 g / cm^3
# Si number density = 17.392044 Si / 1000 Ang^3
#
#
#
# Elastic Constant Matrix: (Units=GPa)
#
#
# Indices 1 2 3 4 5 6 
#
# 1 35.4166 6.2228 3.2757 0.0000 0.0000 0.0000
# 2 6.2228 119.7885 75.7266 0.0000 0.0000 0.0000
# 3 3.2757 75.7266 164.0791 0.0000 0.0000 0.0000
# 4 0.0000 0.0000 0.0000 16.1054 0.0000 0.0000
# 5 0.0000 0.0000 0.0000 0.0000 16.5879 0.0000
# 6 0.0000 0.0000 0.0000 0.0000 0.0000 7.7120
#
#
#
# Elastic Compliance Matrix: (Units=1/GPa)
#
#
# Indices 1 2 3 4 5 6 
#
# 1 0.028498 -0.001582 0.000161 0.000000 0.000000 0.000000
# 2 -0.001582 0.011875 -0.005449 0.000000 0.000000 0.000000
# 3 0.000161 -0.005449 0.008606 0.000000 0.000000 0.000000
# 4 0.000000 0.000000 0.000000 0.062091 0.000000 0.000000
# 5 0.000000 0.000000 0.000000 0.000000 0.060285 0.000000
# 6 0.000000 0.000000 0.000000 0.000000 0.000000 0.129668
#
#
# Mechanical properties :
#
#
# Convention : Reuss Voigt Hill
#
# Bulk Modulus (GPa) = 28.37724 54.41493 41.39608
# Shear Modulus (GPa) = 15.31346 23.68501 19.49924
#
# Velocity S-wave (km/s) = 2.97052 3.69430 3.35200
# Velocity P-wave (km/s) = 5.30254 7.03934 6.23174
#
# Compressibility (1/GPa) = 0.03523951
#
# Stress axis : x y z
#
# Youngs Moduli (GPa) = 35.08964 84.21098 116.19476
#
# Poissons Ratio (x) = 0.13326 -0.01875
# Poissons Ratio (y) = 0.05553 0.63314
# Poissons Ratio (z) = -0.00566 0.45886
#
# Static dielectric constant tensor:
#      x y z
#    x 1.641720 0.000000 0.000000 
#    y 0.000000 1.598700 0.000000 
#    z 0.000000 0.000000 1.604410 
# 
# From -- ./inp_files/22025.got.cif
#   From: 2010.05.17/outbox.cif.g08.bks.cpg/sg47_12_cif.got.tgz:22025.got - 2010.06.03 20:15:42.
