data_PCOD9389348
_publ_section_title
;
Structure prediction by ZEFSAII (Michael W. Deem and Ramdas Pophale) SiO2 
 PCOD9389348
Probable space group: P M M M
;
_chemical_formula_sum "Si O2"
_cell_formula_units_Z 52
_cell_length_a 15.000000
_cell_length_b 9.000000
_cell_length_c 21.000000
_cell_angle_alpha 90.000000
_cell_angle_beta 90.000000
_cell_angle_gamma 90.000000
_cell_volume 2835.000000
_symmetry_space_group_name_H-M "P M M M"
_symmetry_group_IT_number 47
_symmetry_cell_setting 'orthorhombic'
loop_
_space_group_symop_operation_xyz
x,y,z
-x,-y,z
x,-y,-z
-x,y,-z
-x,-y,-z
x,y,-z
-x,y,z
x,-y,z
loop_
_atom_site_type_symbol
_atom_site_label
_atom_site_fract_x
_atom_site_fract_y
_atom_site_fract_z
Si Si1 0.500000 0.829949 0.577301
Si Si2 0.771058 0.321778 0.693239
Si Si3 0.784839 0.177589 0.928967
Si Si4 0.401166 0.177941 0.756825
Si Si5 0.400666 0.678529 0.103112
Si Si6 0.104984 0.679071 0.187629
Si Si7 0.299951 0.820206 0.425315
O O1 0.500000 0.838182 0.500000
O O2 0.598444 0.767006 0.591749
O O3 0.500000 0.000000 0.601677
O O4 0.767505 0.500000 0.689338
O O5 0.679983 0.255023 0.721716
O O6 0.847766 0.282337 0.744815
O O7 0.770995 0.251985 0.622597
O O8 0.686088 0.249214 0.928117
O O9 0.842332 0.245958 0.871181
O O10 0.777580 0.000000 0.920066
O O11 0.823481 0.205107 0.000000
O O12 0.500000 0.204375 0.728346
O O13 0.401963 0.249778 0.826743
O O14 0.388124 0.000000 0.760237
O O15 0.500000 0.707496 0.075477
O O16 0.389766 0.500000 0.106196
O O17 0.112636 0.500000 0.180556
O O18 0.000000 0.717789 0.187300
O O19 0.284406 0.787504 0.500000
O O20 0.299788 0.000000 0.418231
#
# Coordination Sequence:
#
# PCOD9389348 Si02
#       7
#     4   8   8   8   8   8   8
#     4   7  12  26  47  71 103 147 194 229 260 311
#     4  11  22  35  56  85 115 147 187 239 291 340
#     4  11  24  40  60  88 120 153 190 234 287 347
#     4  10  20  33  52  79 113 153 193 233 279 335
#     4  10  20  35  56  83 117 156 197 238 279 327
#     4  10  23  44  66  86 110 145 190 239 296 359
#     4   9  18  33  53  78 112 155 198 234 274 332
#
# _framework density 18.342151999999999
#
# number of rings (size 3 to 8) (size 9 to 14) (size 15 to 20)
#    0.000    2.077    1.538    2.769    1.077    4.923 
#    0.000    3.077    0.000    1.846    0.000    3.231 
#    0.000    0.000    0.000    0.000    0.000    0.000 
#
# Total GULP energy -290077.021593 kJ/mol
# GULP energy per Si atom -5578.404261 kJ/mol
# Density = 1.830040 g / cm^3
# Si number density = 18.342152 Si / 1000 Ang^3
#
#
#
# Elastic Constant Matrix: (Units=GPa)
#
#
# Indices 1 2 3 4 5 6 
#
# 1 119.8118 44.8538 71.7064 0.0000 0.0000 0.0000
# 2 44.8538 60.6483 46.4295 0.0000 0.0000 0.0000
# 3 71.7064 46.4295 137.0494 0.0000 0.0000 0.0000
# 4 0.0000 0.0000 0.0000 672.7566 0.0000 0.0000
# 5 0.0000 0.0000 0.0000 0.0000 12.8793 0.0000
# 6 0.0000 0.0000 0.0000 0.0000 0.0000 20.2343
#
#
#
# Elastic Compliance Matrix: (Units=1/GPa)
#
#
# Indices 1 2 3 4 5 6 
#
# 1 0.013721 -0.006281 -0.005051 0.000000 0.000000 0.000000
# 2 -0.006281 0.025137 -0.005230 0.000000 0.000000 0.000000
# 3 -0.005051 -0.005230 0.011711 0.000000 0.000000 0.000000
# 4 0.000000 0.000000 0.000000 0.001486 0.000000 0.000000
# 5 0.000000 0.000000 0.000000 0.000000 0.077644 0.000000
# 6 0.000000 0.000000 0.000000 0.000000 0.000000 0.049421
#
#
# Mechanical properties :
#
#
# Convention : Reuss Voigt Hill
#
# Bulk Modulus (GPa) = 57.31978 71.49877 64.40927
# Shear Modulus (GPa) = 22.92955 151.47536 87.20246
#
# Velocity S-wave (km/s) = 3.53951 9.09739 6.90256
# Velocity P-wave (km/s) = 6.92982 12.22355 9.93573
#
# Compressibility (1/GPa) = 0.01744598
#
# Stress axis : x y z
#
# Youngs Moduli (GPa) = 72.88230 39.78177 85.38774
#
# Poissons Ratio (x) = 0.24985 0.43131
# Poissons Ratio (y) = 0.45774 0.44657
# Poissons Ratio (z) = 0.36814 0.20805
#
# Static dielectric constant tensor:
#      x y z
#    x 1.619110 0.000000 0.000000 
#    y 0.000000 1.606410 0.000000 
#    z 0.000000 0.000000 1.707710 
# 
# From -- ./inp_files/24971.got.cif
#   From: 2010.05.17/outbox.ucp.g08.bks.cvg/sg47_13_cif.got.tgz:24971.got - 2010.06.11 16:36:43.
