data_PCOD9389171
_publ_section_title
;
Structure prediction by ZEFSAII (Michael W. Deem and Ramdas Pophale) SiO2 
 PCOD9389171
Probable space group: P M M M
;
_chemical_formula_sum "Si O2"
_cell_formula_units_Z 32
_cell_length_a 23.148874
_cell_length_b 7.451359
_cell_length_c 8.259603
_cell_angle_alpha 90.000000
_cell_angle_beta 90.000000
_cell_angle_gamma 90.000000
_cell_volume 1424.703635
_symmetry_space_group_name_H-M "P M M M"
_symmetry_group_IT_number 47
_symmetry_cell_setting 'orthorhombic'
loop_
_space_group_symop_operation_xyz
x,y,z
-x,-y,z
x,-y,-z
-x,y,-z
-x,-y,-z
x,y,-z
-x,y,z
x,-y,z
loop_
_atom_site_type_symbol
_atom_site_label
_atom_site_fract_x
_atom_site_fract_y
_atom_site_fract_z
Si Si1 0.000000 0.211774 0.184524
Si Si2 0.246075 0.281114 0.317138
Si Si3 0.365715 0.280989 0.822265
Si Si4 0.124631 0.286507 0.183949
Si Si5 0.566778 0.280759 0.500000
O O1 0.061585 0.258930 0.261566
O O2 0.000000 0.000000 0.170672
O O3 0.000000 0.291047 0.000000
O O4 0.259709 0.227138 0.500000
O O5 0.245034 0.500000 0.314621
O O6 0.298868 0.227263 0.203309
O O7 0.182276 0.217601 0.268941
O O8 0.367233 0.500000 0.820945
O O9 0.401563 0.222242 0.665050
O O10 0.386429 0.223437 0.000000
O O11 0.131722 0.500000 0.173788
O O12 0.122154 0.214583 0.000000
O O13 0.569027 0.500000 0.500000
O O14 0.500000 0.227736 0.500000
#
# Coordination Sequence:
#
# PCOD9389171 Si02
#       5
#     4   8   8   8   4
#     4   9  17  29  44  61  84 114 144 175 218 273
#     4   9  15  24  38  56  77  99 128 174 227 267
#     4   9  15  23  35  50  71 101 137 178 222 263
#     4   9  16  26  42  63  82 103 139 185 226 265
#     4   9  16  24  32  46  72 105 141 178 214 259
#
# _framework density 22.460811
#
# number of rings (size 3 to 8) (size 9 to 14) (size 15 to 20)
#    0.000    3.000    1.250    1.125    0.000    5.000 
#    0.000    3.125    0.000    4.500    0.000    0.000 
#    0.000    0.000    0.000    0.000    0.000    2.500 
#
# Total GULP energy -178497.998507 kJ/mol
# GULP energy per Si atom -5578.062453 kJ/mol
# Density = 2.240969 g / cm^3
# Si number density = 22.460811 Si / 1000 Ang^3
#
#
#
# Elastic Constant Matrix: (Units=GPa)
#
#
# Indices 1 2 3 4 5 6 
#
# 1 168.9518 -0.6221 83.7856 0.0000 0.0000 0.0000
# 2 -0.6221 67.0546 1.8916 0.0000 0.0000 0.0000
# 3 83.7856 1.8916 145.2859 0.0000 0.0000 0.0000
# 4 0.0000 0.0000 0.0000 -9.6388 0.0000 0.0000
# 5 0.0000 0.0000 0.0000 0.0000 -0.7626 0.0000
# 6 0.0000 0.0000 0.0000 0.0000 0.0000 -55.0297
#
#
#
# Elastic Compliance Matrix: (Units=1/GPa)
#
#
# Indices 1 2 3 4 5 6 
#
# 1 0.008293 0.000212 -0.004785 0.000000 0.000000 0.000000
# 2 0.000212 0.014924 -0.000317 0.000000 0.000000 0.000000
# 3 -0.004785 -0.000317 0.009647 0.000000 0.000000 0.000000
# 4 0.000000 0.000000 0.000000 -0.103748 0.000000 0.000000
# 5 0.000000 0.000000 0.000000 0.000000 -1.311354 0.000000
# 6 0.000000 0.000000 0.000000 0.000000 0.000000 -0.018172
#
#
# Mechanical properties :
#
#
# Convention : Reuss Voigt Hill
#
# Bulk Modulus (GPa) = 43.32003 61.26694 52.29349
# Shear Modulus (GPa) = -3.61550 6.66293 1.52372
#
# Velocity S-wave (km/s) = -1.27011 1.72421 0.82454
# Velocity P-wave (km/s) = 4.14462 5.59467 4.92332
#
# Compressibility (1/GPa) = 0.02308401
#
# Stress axis : x y z
#
# Youngs Moduli (GPa) = 120.58927 67.00569 103.66321
#
# Poissons Ratio (x) = -0.01420 0.49604
# Poissons Ratio (y) = -0.02556 0.03281
# Poissons Ratio (z) = 0.57703 0.02121
#
# Static dielectric constant tensor:
#      x y z
#    x 1.836620 0.000000 0.000000 
#    y 0.000000 1.846240 0.000000 
#    z 0.000000 0.000000 1.817160 
# 
# From -- ./inp_files/1290.got.cif
#   From: 2010.05.17/outbox.cif.g08.bks.cpg/sg47_1_cif.got.tgz:1290.got - 2010.06.03 20:15:42.
