data_PCOD9389676
_publ_section_title
;
Structure prediction by ZEFSAII (Michael W. Deem and Ramdas Pophale) SiO2 
 PCOD9389676
Probable space group: P N N N
;
_chemical_formula_sum "Si O2"
_cell_formula_units_Z 40
_cell_length_a 6.768338
_cell_length_b 21.990631
_cell_length_c 15.718691
_cell_angle_alpha 90.000000
_cell_angle_beta 90.000000
_cell_angle_gamma 90.000000
_cell_volume 2339.570337
_symmetry_space_group_name_H-M "P N N N"
_symmetry_group_IT_number 48
_space_group.IT_coordinate_system_code '2'
_symmetry_cell_setting 'orthorhombic'
loop_
_space_group_symop_operation_xyz
x,y,z
1/2-x,1/2-y,z
x,1/2-y,1/2-z
1/2-x,y,1/2-z
-x,-y,-z
1/2+x,1/2+y,-z
-x,1/2+y,1/2+z
1/2+x,-y,1/2+z
loop_
_atom_site_type_symbol
_atom_site_label
_atom_site_fract_x
_atom_site_fract_y
_atom_site_fract_z
Si Si1 0.272913 0.178568 0.147880
Si Si2 0.862725 0.394820 0.170745
Si Si3 0.498049 0.416579 0.054685
Si Si4 0.198330 0.958677 0.105158
Si Si5 0.528366 0.525686 0.279084
O O1 0.250000 0.250000 0.133311
O O2 0.250000 0.167735 0.250000
O O3 0.488950 0.151574 0.127249
O O4 0.115309 0.140948 0.093119
O O5 0.750000 0.364250 0.250000
O O6 0.696210 0.423741 0.110893
O O7 0.980450 0.452543 0.208256
O O8 0.351902 0.474428 0.066247
O O9 0.587405 0.414181 0.959962
O O10 0.427421 0.949986 0.133445
O O11 0.093088 0.957063 0.195911
O O12 0.750000 0.541193 0.250000
#
# Coordination Sequence:
#
# PCOD9389676 Si02
#       5
#     8   8   8   8   8
#     4  11  22  36  52  71 103 144 189 224 254 306
#     4  11  19  32  52  71 104 143 175 214 257 305
#     4  11  21  33  49  76 106 141 180 216 262 316
#     4  10  20  31  51  75 106 141 171 215 264 326
#     4  10  18  32  51  74 106 142 171 210 268 325
#
# _framework density 17.097156999999999
#
# number of rings (size 3 to 8) (size 9 to 14) (size 15 to 20)
#    0.000    1.400    8.000    0.000    0.000    3.200 
#    0.000    0.000    0.000    0.000    0.000    0.000 
#    0.000   32.800    0.000    0.000    0.000    0.000 
#
# Total GULP energy -222681.436564 kJ/mol
# GULP energy per Si atom -5567.035914 kJ/mol
# Density = 1.705824 g / cm^3
# Si number density = 17.097157 Si / 1000 Ang^3
#
#
#
# Elastic Constant Matrix: (Units=GPa)
#
#
# Indices 1 2 3 4 5 6 
#
# 1 82.0519 23.3013 40.4073 0.0000 0.0000 0.0000
# 2 23.3013 57.1021 31.6714 0.0000 0.0000 0.0000
# 3 40.4073 31.6714 96.5887 0.0000 0.0000 0.0000
# 4 0.0000 0.0000 0.0000 -5.0348 0.0000 0.0000
# 5 0.0000 0.0000 0.0000 0.0000 35.4742 0.0000
# 6 0.0000 0.0000 0.0000 0.0000 0.0000 -1.3711
#
#
#
# Elastic Compliance Matrix: (Units=1/GPa)
#
#
# Indices 1 2 3 4 5 6 
#
# 1 0.015877 -0.003416 -0.005522 0.000000 0.000000 0.000000
# 2 -0.003416 0.022140 -0.005831 0.000000 0.000000 0.000000
# 3 -0.005522 -0.005831 0.014575 0.000000 0.000000 0.000000
# 4 0.000000 0.000000 0.000000 -0.198619 0.000000 0.000000
# 5 0.000000 0.000000 0.000000 0.000000 0.028189 0.000000
# 6 0.000000 0.000000 0.000000 0.000000 0.000000 -0.729357
#
#
# Mechanical properties :
#
#
# Convention : Reuss Voigt Hill
#
# Bulk Modulus (GPa) = 43.37447 47.38919 45.38183
# Shear Modulus (GPa) = -6.17305 15.17120 4.49908
#
# Velocity S-wave (km/s) = -1.90221 2.98208 1.62394
# Velocity P-wave (km/s) = 4.53872 6.29562 5.48793
#
# Compressibility (1/GPa) = 0.02305504
#
# Stress axis : x y z
#
# Youngs Moduli (GPa) = 62.98500 45.16616 68.61019
#
# Poissons Ratio (x) = 0.15429 0.37885
# Poissons Ratio (y) = 0.21516 0.40005
# Poissons Ratio (z) = 0.34779 0.26335
#
# Static dielectric constant tensor:
#      x y z
#    x 1.747060 0.000000 0.000000 
#    y 0.000000 1.549520 0.000000 
#    z 0.000000 0.000000 1.660170 
# 
# From -- ./inp_files/24312.got.cif
#   From: 2010.05.17/outbox.cif.g08.bks.cpg/sg48_13_cif.got.tgz:24312.got - 2010.06.03 20:39:00.
