data_PCOD9389582
_publ_section_title
;
Structure prediction by ZEFSAII (Michael W. Deem and Ramdas Pophale) SiO2 
 PCOD9389582
Probable space group: P N N N
;
_chemical_formula_sum "Si O2"
_cell_formula_units_Z 46
_cell_length_a 8.366762
_cell_length_b 22.241383
_cell_length_c 13.144681
_cell_angle_alpha 90.000000
_cell_angle_beta 90.000000
_cell_angle_gamma 90.000000
_cell_volume 2446.072105
_symmetry_space_group_name_H-M "P N N N"
_symmetry_group_IT_number 48
_space_group.IT_coordinate_system_code '2'
_symmetry_cell_setting 'orthorhombic'
loop_
_space_group_symop_operation_xyz
x,y,z
1/2-x,1/2-y,z
x,1/2-y,1/2-z
1/2-x,y,1/2-z
-x,-y,-z
1/2+x,1/2+y,-z
-x,1/2+y,1/2+z
1/2+x,-y,1/2+z
loop_
_atom_site_type_symbol
_atom_site_label
_atom_site_fract_x
_atom_site_fract_y
_atom_site_fract_z
Si Si1 0.555138 0.900918 0.559463
Si Si2 0.750000 0.250000 0.750000
Si Si3 0.750000 0.577122 0.750000
Si Si4 0.810423 0.818323 0.102944
Si Si5 0.492023 0.847424 0.190935
Si Si6 0.180184 0.997024 0.910618
Si Si7 0.504836 0.019285 0.800909
O O1 0.639405 0.889970 0.667826
O O2 0.586229 0.843428 0.489570
O O3 0.376753 0.928455 0.569203
O O4 0.638727 0.957362 0.501145
O O5 0.861854 0.205378 0.683452
O O6 0.633583 0.532392 0.689780
O O7 0.750000 0.750000 0.099820
O O8 0.639032 0.851043 0.111996
O O9 0.915317 0.831988 0.203319
O O10 0.422738 0.914258 0.189711
O O11 0.361744 0.005351 0.877946
O O12 0.074056 0.016350 0.812119
#
# Coordination Sequence:
#
# PCOD9389582 Si02
#       7
#     8   2   4   8   8   8   8
#     4  10  19  34  51  79 103 139 187 226 261 333
#     4  12  22  30  44  80 128 134 168 220 282 330
#     4  10  23  32  49  77 116 135 174 230 284 318
#     4  11  19  36  57  72 102 150 190 212 267 336
#     4  11  19  33  52  81 109 142 172 219 276 350
#     4   9  17  31  57  74 105 137 179 216 273 339
#     4  10  17  34  52  81 107 142 167 219 286 345
#
# _framework density 18.805661000000001
#
# number of rings (size 3 to 8) (size 9 to 14) (size 15 to 20)
#    0.000    1.739    5.217    2.087    0.000    0.696 
#    0.000    0.435    0.000    0.000    0.000    0.000 
#    0.000    0.000    0.000    0.000    0.000    0.000 
#
# Total GULP energy -256358.234139 kJ/mol
# GULP energy per Si atom -5573.005090 kJ/mol
# Density = 1.876286 g / cm^3
# Si number density = 18.805661 Si / 1000 Ang^3
#
#
#
# Elastic Constant Matrix: (Units=GPa)
#
#
# Indices 1 2 3 4 5 6 
#
# 1 64.0836 7.9369 4.7381 0.0000 0.0000 0.0000
# 2 7.9369 52.1235 8.2780 0.0000 0.0000 0.0000
# 3 4.7381 8.2780 42.8110 0.0000 0.0000 0.0000
# 4 0.0000 0.0000 0.0000 -9.0818 0.0000 0.0000
# 5 0.0000 0.0000 0.0000 0.0000 15.9755 0.0000
# 6 0.0000 0.0000 0.0000 0.0000 0.0000 -3.2858
#
#
#
# Elastic Compliance Matrix: (Units=1/GPa)
#
#
# Indices 1 2 3 4 5 6 
#
# 1 0.015979 -0.002220 -0.001339 0.000000 0.000000 0.000000
# 2 -0.002220 0.020102 -0.003641 0.000000 0.000000 0.000000
# 3 -0.001339 -0.003641 0.024211 0.000000 0.000000 0.000000
# 4 0.000000 0.000000 0.000000 -0.110111 0.000000 0.000000
# 5 0.000000 0.000000 0.000000 0.000000 0.062596 0.000000
# 6 0.000000 0.000000 0.000000 0.000000 0.000000 -0.304344
#
#
# Mechanical properties :
#
#
# Convention : Reuss Voigt Hill
#
# Bulk Modulus (GPa) = 21.79137 22.32488 22.05813
# Shear Modulus (GPa) = -19.09345 9.92593 -4.58376
#
# Velocity S-wave (km/s) = -3.18984 2.29992 -1.56292
# Velocity P-wave (km/s) = 1.39784 4.35316 2.91513
#
# Compressibility (1/GPa) = 0.04588972
#
# Stress axis : x y z
#
# Youngs Moduli (GPa) = 62.58360 49.74737 41.30394
#
# Poissons Ratio (x) = 0.11046 0.05531
# Poissons Ratio (y) = 0.13896 0.15039
# Poissons Ratio (z) = 0.08381 0.18114
#
# Static dielectric constant tensor:
#      x y z
#    x 1.687760 0.000000 0.000000 
#    y 0.000000 1.678380 0.000000 
#    z 0.000000 0.000000 1.678670 
# 
# From -- ./inp_files/11274.got.cif
#   From: 2010.05.17/outbox.cif.g08.bks.cpg/sg48_6_cif.got.tgz:11274.got - 2010.06.03 20:39:00.
