data_PCOD9389331
_publ_section_title
;
Structure prediction by ZEFSAII (Michael W. Deem and Ramdas Pophale) SiO2 
 PCOD9389331
Probable space group: P M M M
;
_chemical_formula_sum "Si O2"
_cell_formula_units_Z 64
_cell_length_a 9.000000
_cell_length_b 21.000000
_cell_length_c 18.000000
_cell_angle_alpha 90.000000
_cell_angle_beta 90.000000
_cell_angle_gamma 90.000000
_cell_volume 3402.000000
_symmetry_space_group_name_H-M "P M M M"
_symmetry_group_IT_number 47
_symmetry_cell_setting 'orthorhombic'
loop_
_space_group_symop_operation_xyz
x,y,z
-x,-y,z
x,-y,-z
-x,y,-z
-x,-y,-z
x,y,-z
-x,y,z
x,-y,z
loop_
_atom_site_type_symbol
_atom_site_label
_atom_site_fract_x
_atom_site_fract_y
_atom_site_fract_z
Si Si1 0.323667 0.427078 0.879211
Si Si2 0.335387 0.425319 0.702363
Si Si3 0.676470 0.798177 0.793822
Si Si4 0.177924 0.902291 0.419047
Si Si5 0.829415 0.352075 0.580885
Si Si6 0.673269 0.226429 0.378720
Si Si7 0.179573 0.929441 0.251448
Si Si8 0.176929 0.705695 0.915943
O O1 0.500000 0.422509 0.896432
O O2 0.277070 0.500000 0.898953
O O3 0.307935 0.419631 0.790051
O O4 0.238407 0.366691 0.911715
O O5 0.500000 0.397171 0.687069
O O6 0.341844 0.500000 0.686526
O O7 0.213546 0.395174 0.650073
O O8 0.500000 0.802357 0.806649
O O9 0.699110 0.770703 0.710344
O O10 0.746888 0.869161 0.789276
O O11 0.748220 0.751397 0.854619
O O12 0.231999 0.926226 0.500000
O O13 0.226196 0.829107 0.412295
O O14 0.227577 0.928899 0.338834
O O15 0.000000 0.909622 0.419683
O O16 0.811164 0.383786 0.500000
O O17 0.721786 0.292114 0.585934
O O18 0.000000 0.330744 0.586902
O O19 0.500000 0.211856 0.390899
O O20 0.000000 0.921642 0.249862
O O21 0.215004 0.000000 0.221370
O O22 0.000000 0.704718 0.903631
O O23 0.205925 0.729313 0.000000
#
# Coordination Sequence:
#
# PCOD9389331 Si02
#       8
#     8   8   8   8   8   8   8   8
#     4   9  19  37  60  85 113 145 181 219 259 310
#     4   9  19  36  55  73  94 124 166 213 258 307
#     4  10  21  37  58  82 108 141 181 225 270 319
#     4   9  17  29  46  71 105 142 179 220 264 311
#     4  11  23  34  45  66  96 129 168 217 270 319
#     4  10  20  33  50  72  97 129 173 219 262 312
#     4   9  18  33  54  80 110 146 186 227 274 325
#     4  11  24  39  57  85 118 147 176 214 261 315
#
# _framework density 18.812463000000001
#
# number of rings (size 3 to 8) (size 9 to 14) (size 15 to 20)
#    0.000    2.250    0.000    3.375    0.000   10.250 
#    0.000    5.000    0.000    0.375    0.000    6.125 
#    0.000    0.000    0.000    0.000    0.000    0.000 
#
# Total GULP energy -356962.781337 kJ/mol
# GULP energy per Si atom -5577.543458 kJ/mol
# Density = 1.876965 g / cm^3
# Si number density = 18.812463 Si / 1000 Ang^3
#
#
#
# Elastic Constant Matrix: (Units=GPa)
#
#
# Indices 1 2 3 4 5 6 
#
# 1 43.1025 32.8995 40.7164 0.0000 0.0000 0.0000
# 2 32.8995 90.1769 53.7929 0.0000 0.0000 0.0000
# 3 40.7164 53.7929 76.7491 0.0000 0.0000 0.0000
# 4 0.0000 0.0000 0.0000 -104.1138 0.0000 0.0000
# 5 0.0000 0.0000 0.0000 0.0000 17.1954 0.0000
# 6 0.0000 0.0000 0.0000 0.0000 0.0000 19.2177
#
#
#
# Elastic Compliance Matrix: (Units=1/GPa)
#
#
# Indices 1 2 3 4 5 6 
#
# 1 0.047305 -0.003932 -0.022340 0.000000 0.000000 0.000000
# 2 -0.003932 0.019384 -0.011500 0.000000 0.000000 0.000000
# 3 -0.022340 -0.011500 0.032942 0.000000 0.000000 0.000000
# 4 0.000000 0.000000 0.000000 -0.009605 0.000000 0.000000
# 5 0.000000 0.000000 0.000000 0.000000 0.058155 0.000000
# 6 0.000000 0.000000 0.000000 0.000000 0.000000 0.052035
#
#
# Mechanical properties :
#
#
# Convention : Reuss Voigt Hill
#
# Bulk Modulus (GPa) = 41.51748 51.64957 46.58352
# Shear Modulus (GPa) = 17.61869 -8.03217 4.79326
#
# Velocity S-wave (km/s) = 3.06362 -2.06854 1.59795
# Velocity P-wave (km/s) = 5.88484 4.67006 5.31229
#
# Compressibility (1/GPa) = 0.02408624
#
# Stress axis : x y z
#
# Youngs Moduli (GPa) = 21.13931 51.58913 30.35679
#
# Poissons Ratio (x) = 0.20285 0.67818
# Poissons Ratio (y) = 0.08312 0.34911
# Poissons Ratio (z) = 0.47226 0.59328
#
# Static dielectric constant tensor:
#      x y z
#    x 1.644700 0.000000 0.000000 
#    y 0.000000 1.658740 0.000000 
#    z 0.000000 0.000000 1.670550 
# 
# From -- ./inp_files/27020.got.cif
#   From: 2010.05.17/outbox.ucp.g08.bks.cvg/sg47_14_cif.got.tgz:27020.got - 2010.06.11 16:36:43.
