data_PCOD9389096
_publ_section_title
;
Structure prediction by ZEFSAII (Michael W. Deem and Ramdas Pophale) SiO2 
 PCOD9389096
Probable space group: P M M M
;
_chemical_formula_sum "Si O2"
_cell_formula_units_Z 44
_cell_length_a 9.298838
_cell_length_b 7.365914
_cell_length_c 29.836161
_cell_angle_alpha 90.000000
_cell_angle_beta 90.000000
_cell_angle_gamma 90.000000
_cell_volume 2043.611170
_symmetry_space_group_name_H-M "P M M M"
_symmetry_group_IT_number 47
_symmetry_cell_setting 'orthorhombic'
loop_
_space_group_symop_operation_xyz
x,y,z
-x,-y,z
x,-y,-z
-x,y,-z
-x,-y,-z
x,y,-z
-x,y,z
x,-y,z
loop_
_atom_site_type_symbol
_atom_site_label
_atom_site_fract_x
_atom_site_fract_y
_atom_site_fract_z
Si Si1 0.332848 0.782228 0.951880
Si Si2 0.663750 0.714457 0.146411
Si Si3 0.834169 0.721588 0.589145
Si Si4 0.165112 0.722031 0.232882
Si Si5 0.665590 0.278518 0.678169
Si Si6 0.334122 0.721574 0.500000
O O1 0.500000 0.719883 0.950807
O O2 0.271015 0.734672 0.903425
O O3 0.334580 0.000000 0.953152
O O4 0.271133 0.720070 0.000000
O O5 0.500000 0.789160 0.146617
O O6 0.651004 0.500000 0.153954
O O7 0.759256 0.784738 0.187090
O O8 0.834338 0.500000 0.589145
O O9 0.752429 0.779046 0.634135
O O10 0.749287 0.778883 0.544707
O O11 0.000000 0.779199 0.588608
O O12 0.164510 0.500000 0.232718
O O13 0.255334 0.778220 0.276353
O O14 0.000000 0.779778 0.235693
O O15 0.500000 0.220497 0.676933
O O16 0.665342 0.500000 0.678053
O O17 0.334363 0.500000 0.500000
O O18 0.500000 0.779211 0.500000
#
# Coordination Sequence:
#
# PCOD9389096 Si02
#       6
#     8   8   8   8   8   4
#     4   8  14  25  41  61  84 108 133 162 197 236
#     4   9  16  25  39  60  82 102 128 164 201 234
#     4   9  15  21  28  38  53  75 105 142 186 234
#     4   9  16  25  36  50  70  95 120 148 187 234
#     4   9  15  22  32  45  61  82 110 145 185 229
#     4   9  15  21  27  35  49  71 103 145 190 231
#
# _framework density 21.530514
#
# number of rings (size 3 to 8) (size 9 to 14) (size 15 to 20)
#    0.000    3.182    0.000    2.455    0.000    8.000 
#    0.000    1.818    0.000    1.091    0.000    3.818 
#    0.000    0.000    0.000    0.000    0.000    0.000 
#
# Total GULP energy -245533.570545 kJ/mol
# GULP energy per Si atom -5580.308421 kJ/mol
# Density = 2.148151 g / cm^3
# Si number density = 21.530514 Si / 1000 Ang^3
#
#
#
# Elastic Constant Matrix: (Units=GPa)
#
#
# Indices 1 2 3 4 5 6 
#
# 1 175.5937 5.1564 137.9081 0.0000 0.0000 0.0000
# 2 5.1564 76.1855 2.8425 0.0000 0.0000 0.0000
# 3 137.9081 2.8425 272.1800 0.0000 0.0000 0.0000
# 4 0.0000 0.0000 0.0000 81.2934 0.0000 0.0000
# 5 0.0000 0.0000 0.0000 0.0000 -19.0996 0.0000
# 6 0.0000 0.0000 0.0000 0.0000 0.0000 -10.8899
#
#
#
# Elastic Compliance Matrix: (Units=1/GPa)
#
#
# Indices 1 2 3 4 5 6 
#
# 1 0.009475 -0.000462 -0.004796 0.000000 0.000000 0.000000
# 2 -0.000462 0.013154 0.000097 0.000000 0.000000 0.000000
# 3 -0.004796 0.000097 0.006103 0.000000 0.000000 0.000000
# 4 0.000000 0.000000 0.000000 0.012301 0.000000 0.000000
# 5 0.000000 0.000000 0.000000 0.000000 -0.052357 0.000000
# 6 0.000000 0.000000 0.000000 0.000000 0.000000 -0.091828
#
#
# Mechanical properties :
#
#
# Convention : Reuss Voigt Hill
#
# Bulk Modulus (GPa) = 54.32181 90.64147 72.48164
# Shear Modulus (GPa) = -57.67482 35.46426 -11.10528
#
# Velocity S-wave (km/s) = -5.18128 4.06293 -2.27357
# Velocity P-wave (km/s) = 3.24180 8.01251 5.18127
#
# Compressibility (1/GPa) = 0.01840881
#
# Stress axis : x y z
#
# Youngs Moduli (GPa) = 105.53710 76.02519 163.85028
#
# Poissons Ratio (x) = 0.03515 0.78585
# Poissons Ratio (y) = 0.04880 -0.01588
# Poissons Ratio (z) = 0.50617 -0.00737
#
# Static dielectric constant tensor:
#      x y z
#    x 1.722840 0.000000 0.000000 
#    y 0.000000 1.835280 0.000000 
#    z 0.000000 0.000000 1.769340 
# 
# From -- ./inp_files/2295.got.cif
#   From: 2010.05.17/outbox.cif.g08.bks.cpg/sg47_2_cif.got.tgz:2295.got - 2010.06.03 20:15:42.
