data_PCOD9389259
_publ_section_title
;
Structure prediction by ZEFSAII (Michael W. Deem and Ramdas Pophale) SiO2 
 PCOD9389259
Probable space group: P M M M
;
_chemical_formula_sum "Si O2"
_cell_formula_units_Z 48
_cell_length_a 18.000000
_cell_length_b 21.000000
_cell_length_c 9.000000
_cell_angle_alpha 90.000000
_cell_angle_beta 90.000000
_cell_angle_gamma 90.000000
_cell_volume 3402.000000
_symmetry_space_group_name_H-M "P M M M"
_symmetry_group_IT_number 47
_symmetry_cell_setting 'orthorhombic'
loop_
_space_group_symop_operation_xyz
x,y,z
-x,-y,z
x,-y,-z
-x,y,-z
-x,-y,-z
x,y,-z
-x,y,z
x,-y,z
loop_
_atom_site_type_symbol
_atom_site_label
_atom_site_fract_x
_atom_site_fract_y
_atom_site_fract_z
Si Si1 0.776007 0.076438 0.163080
Si Si2 0.641076 0.871335 0.671766
Si Si3 0.500000 0.074958 0.836637
Si Si4 0.589881 0.625919 0.667221
Si Si5 0.412538 0.246173 0.826021
Si Si6 0.083501 0.077467 0.668939
Si Si7 0.590920 0.500000 0.828926
O O1 0.717272 0.096400 0.284657
O O2 0.856722 0.099287 0.212566
O O3 0.777450 0.000000 0.157720
O O4 0.753646 0.099865 0.000000
O O5 0.626652 0.873466 0.500000
O O6 0.573990 0.905572 0.754524
O O7 0.638094 0.800306 0.732348
O O8 0.500000 0.000000 0.849307
O O9 0.500000 0.104608 0.000000
O O10 0.616808 0.637017 0.500000
O O11 0.500000 0.621804 0.658786
O O12 0.605572 0.682931 0.778003
O O13 0.616655 0.561202 0.739350
O O14 0.500000 0.234338 0.788329
O O15 0.403430 0.236520 0.000000
O O16 0.103779 0.095446 0.500000
O O17 0.000000 0.098769 0.699658
O O18 0.082979 0.000000 0.671689
O O19 0.500000 0.500000 0.829580
O O20 0.613931 0.500000 0.000000
#
# Coordination Sequence:
#
# PCOD9389259 Si02
#       7
#     8   8   4   8   8   8   4
#     4  10  20  32  45  61  81 103 127 158 197 239
#     4  12  23  33  46  60  76  98 129 165 202 242
#     4  11  23  37  49  59  73  94 123 162 207 249
#     4   9  16  25  38  55  75  95 120 153 190 229
#     4  10  19  31  45  57  73  97 126 160 199 239
#     4   8  14  26  44  64  84 103 122 147 183 229
#     4   9  15  23  35  53  75  97 121 147 186 231
#
# _framework density 14.109347
#
# number of rings (size 3 to 8) (size 9 to 14) (size 15 to 20)
#    0.000    2.167    0.833    4.500    0.000    7.667 
#    0.000    1.667    0.000    0.000    0.000    0.000 
#    0.000    0.000    0.000    0.000    0.000    0.000 
#
# Total GULP energy -267259.794518 kJ/mol
# GULP energy per Si atom -5567.912386 kJ/mol
# Density = 1.407723 g / cm^3
# Si number density = 14.109347 Si / 1000 Ang^3
#
#
#
# Elastic Constant Matrix: (Units=GPa)
#
#
# Indices 1 2 3 4 5 6 
#
# 1 27.0289 15.6915 19.6493 0.0000 0.0000 0.0000
# 2 15.6915 42.0432 24.7390 0.0000 0.0000 0.0000
# 3 19.6493 24.7390 75.7169 0.0000 0.0000 0.0000
# 4 0.0000 0.0000 0.0000 16.3696 0.0000 0.0000
# 5 0.0000 0.0000 0.0000 0.0000 12.7530 0.0000
# 6 0.0000 0.0000 0.0000 0.0000 0.0000 54.2519
#
#
#
# Elastic Compliance Matrix: (Units=1/GPa)
#
#
# Indices 1 2 3 4 5 6 
#
# 1 0.051550 -0.014074 -0.008779 0.000000 0.000000 0.000000
# 2 -0.014074 0.033289 -0.007224 0.000000 0.000000 0.000000
# 3 -0.008779 -0.007224 0.017846 0.000000 0.000000 0.000000
# 4 0.000000 0.000000 0.000000 0.061089 0.000000 0.000000
# 5 0.000000 0.000000 0.000000 0.000000 0.078413 0.000000
# 6 0.000000 0.000000 0.000000 0.000000 0.000000 0.018433
#
#
# Mechanical properties :
#
#
# Convention : Reuss Voigt Hill
#
# Bulk Modulus (GPa) = 23.51286 29.43874 26.47580
# Shear Modulus (GPa) = 14.92759 22.32218 18.62489
#
# Velocity S-wave (km/s) = 3.25621 3.98186 3.63718
# Velocity P-wave (km/s) = 5.55321 6.48462 6.03690
#
# Compressibility (1/GPa) = 0.04252992
#
# Stress axis : x y z
#
# Youngs Moduli (GPa) = 19.39853 30.04040 56.03572
#
# Poissons Ratio (x) = 0.42278 0.49196
# Poissons Ratio (y) = 0.27301 0.40481
# Poissons Ratio (z) = 0.17031 0.21701
#
# Static dielectric constant tensor:
#      x y z
#    x 1.416920 0.000000 0.000000 
#    y 0.000000 1.451030 0.000000 
#    z 0.000000 0.000000 1.493050 
# 
# From -- ./inp_files/9765.got.cif
#   From: 2010.05.17/outbox.ucp.g08.bks.cvg/sg47_5_cif.got.tgz:9765.got - 2010.06.11 16:36:43.
