data_PCOD9389592
_publ_section_title
;
Structure prediction by ZEFSAII (Michael W. Deem and Ramdas Pophale) SiO2 
 PCOD9389592
Probable space group: P N N N
;
_chemical_formula_sum "Si O2"
_cell_formula_units_Z 48
_cell_length_a 16.514096
_cell_length_b 8.674426
_cell_length_c 16.903407
_cell_angle_alpha 90.000000
_cell_angle_beta 90.000000
_cell_angle_gamma 90.000000
_cell_volume 2421.418186
_symmetry_space_group_name_H-M "P N N N"
_symmetry_group_IT_number 48
_space_group.IT_coordinate_system_code '2'
_symmetry_cell_setting 'orthorhombic'
loop_
_space_group_symop_operation_xyz
x,y,z
1/2-x,1/2-y,z
x,1/2-y,1/2-z
1/2-x,y,1/2-z
-x,-y,-z
1/2+x,1/2+y,-z
-x,1/2+y,1/2+z
1/2+x,-y,1/2+z
loop_
_atom_site_type_symbol
_atom_site_label
_atom_site_fract_x
_atom_site_fract_y
_atom_site_fract_z
Si Si1 0.915399 0.650731 0.669534
Si Si2 0.335393 0.685812 0.951873
Si Si3 0.994858 0.390260 0.076559
Si Si4 0.669258 0.161230 0.641364
Si Si5 0.001190 0.182940 0.668866
Si Si6 0.454482 0.040612 0.582660
O O1 0.912357 0.750000 0.750000
O O2 0.845827 0.517813 0.666307
O O3 0.930014 0.776094 0.598545
O O4 0.994094 0.542480 0.652426
O O5 0.250000 0.750000 0.923518
O O6 0.411960 0.794937 0.932946
O O7 0.364523 0.523342 0.917790
O O8 0.330758 0.662883 0.046057
O O9 0.989401 0.504810 0.151429
O O10 0.000000 0.500000 0.000000
O O11 0.750000 0.250000 0.666388
O O12 0.593072 0.267024 0.665714
O O13 0.035381 0.250000 0.750000
O O14 0.040642 0.279644 0.597828
O O15 0.500000 0.000000 0.500000
#
# Coordination Sequence:
#
# PCOD9389592 Si02
#       6
#     8   8   8   8   8   8
#     4  10  20  35  59  87 121 158 205 249 298 363
#     4  10  20  36  61  86 113 151 199 250 305 353
#     4  11  20  34  60  90 116 150 206 252 292 357
#     4  10  20  37  59  85 120 164 198 239 305 369
#     4  11  21  35  59  89 118 156 196 245 307 360
#     4  10  17  36  61  83 115 159 197 246 296 357
#
# _framework density 19.823094000000001
#
# number of rings (size 3 to 8) (size 9 to 14) (size 15 to 20)
#    0.000    1.667    5.000    3.000    0.000    0.333 
#    0.000    1.667    0.000   24.000    0.000    0.000 
#    0.000    0.000    0.000    0.000    0.000    0.000 
#
# Total GULP energy -267371.473813 kJ/mol
# GULP energy per Si atom -5570.239038 kJ/mol
# Density = 1.977798 g / cm^3
# Si number density = 19.823094 Si / 1000 Ang^3
#
#
#
# Elastic Constant Matrix: (Units=GPa)
#
#
# Indices 1 2 3 4 5 6 
#
# 1 101.3512 46.3012 22.7851 0.0000 0.0000 0.0000
# 2 46.3012 131.0706 43.6808 0.0000 0.0000 0.0000
# 3 22.7851 43.6808 82.5084 0.0000 0.0000 0.0000
# 4 0.0000 0.0000 0.0000 43.7301 0.0000 0.0000
# 5 0.0000 0.0000 0.0000 0.0000 8.2009 0.0000
# 6 0.0000 0.0000 0.0000 0.0000 0.0000 33.5388
#
#
#
# Elastic Compliance Matrix: (Units=1/GPa)
#
#
# Indices 1 2 3 4 5 6 
#
# 1 0.011877 -0.003767 -0.001285 0.000000 0.000000 0.000000
# 2 -0.003767 0.010459 -0.004497 0.000000 0.000000 0.000000
# 3 -0.001285 -0.004497 0.014856 0.000000 0.000000 0.000000
# 4 0.000000 0.000000 0.000000 0.022868 0.000000 0.000000
# 5 0.000000 0.000000 0.000000 0.000000 0.121938 0.000000
# 6 0.000000 0.000000 0.000000 0.000000 0.000000 0.029816
#
#
# Mechanical properties :
#
#
# Convention : Reuss Voigt Hill
#
# Bulk Modulus (GPa) = 55.27148 60.05160 57.66154
# Shear Modulus (GPa) = 21.10220 30.57150 25.83685
#
# Velocity S-wave (km/s) = 3.26625 3.93137 3.61414
# Velocity P-wave (km/s) = 6.49364 7.13912 6.82402
#
# Compressibility (1/GPa) = 0.01809251
#
# Stress axis : x y z
#
# Youngs Moduli (GPa) = 84.19914 95.61347 67.31482
#
# Poissons Ratio (x) = 0.36018 0.08653
# Poissons Ratio (y) = 0.31718 0.30269
# Poissons Ratio (z) = 0.10824 0.42994
#
# Static dielectric constant tensor:
#      x y z
#    x 1.694530 0.000000 0.000000 
#    y 0.000000 1.713780 0.000000 
#    z 0.000000 0.000000 1.797250 
# 
# From -- ./inp_files/31928.got.cif
#   From: 2010.05.17/outbox.cif.g08.bks.cpg/sg48_16_cif.got.tgz:31928.got - 2010.06.03 20:39:00.
