data_PCOD9389102
_publ_section_title
;
Structure prediction by ZEFSAII (Michael W. Deem and Ramdas Pophale) SiO2 
 PCOD9389102
Probable space group: P M M M
;
_chemical_formula_sum "Si O2"
_cell_formula_units_Z 44
_cell_length_a 31.639796
_cell_length_b 7.572429
_cell_length_c 8.501313
_cell_angle_alpha 90.000000
_cell_angle_beta 90.000000
_cell_angle_gamma 90.000000
_cell_volume 2036.830506
_symmetry_space_group_name_H-M "P M M M"
_symmetry_group_IT_number 47
_symmetry_cell_setting 'orthorhombic'
loop_
_space_group_symop_operation_xyz
x,y,z
-x,-y,z
x,-y,-z
-x,y,-z
-x,-y,-z
x,y,-z
-x,y,z
x,-y,z
loop_
_atom_site_type_symbol
_atom_site_label
_atom_site_fract_x
_atom_site_fract_y
_atom_site_fract_z
Si Si1 0.775655 0.287878 0.820801
Si Si2 0.133632 0.211832 0.821882
Si Si3 0.549589 0.215175 0.000000
Si Si4 0.407004 0.203966 0.319926
Si Si5 0.687971 0.702613 0.687080
Si Si6 0.954535 0.214482 0.315293
O O1 0.772532 0.500000 0.820779
O O2 0.821004 0.248313 0.742705
O O3 0.731666 0.220097 0.751356
O O4 0.777953 0.222467 0.000000
O O5 0.089839 0.280109 0.751354
O O6 0.130213 0.000000 0.826509
O O7 0.136172 0.280752 0.000000
O O8 0.569834 0.280016 0.165424
O O9 0.500000 0.253827 0.000000
O O10 0.555066 0.000000 0.000000
O O11 0.412458 0.278884 0.500000
O O12 0.356924 0.208546 0.282156
O O13 0.420620 0.000000 0.331178
O O14 0.692794 0.698800 0.500000
O O15 0.683840 0.500000 0.744484
O O16 0.954777 0.253894 0.500000
O O17 0.000000 0.274897 0.247913
O O18 0.954329 0.000000 0.299533
#
# Coordination Sequence:
#
# PCOD9389102 Si02
#       6
#     8   8   4   8   8   8
#     4   9  18  31  45  62  87 120 152 181 221 275
#     4   9  17  28  42  63  88 111 141 182 224 264
#     4   9  18  32  51  77 105 133 167 203 242 289
#     4   9  18  32  50  74 102 130 163 204 245 284
#     4   9  18  32  49  69  93 123 159 196 235 281
#     4   8  14  25  41  61  84 109 138 174 218 267
#
# _framework density 21.602188999999999
#
# number of rings (size 3 to 8) (size 9 to 14) (size 15 to 20)
#    0.000    3.182    0.000    0.545    1.273    2.182 
#    0.000    3.636    0.000    1.636    0.000    6.364 
#    0.000    0.000    0.000    0.000    0.000    0.000 
#
# Total GULP energy -244952.808644 kJ/mol
# GULP energy per Si atom -5567.109287 kJ/mol
# Density = 2.155302 g / cm^3
# Si number density = 21.602189 Si / 1000 Ang^3
#
#
#
# Elastic Constant Matrix: (Units=GPa)
#
#
# Indices 1 2 3 4 5 6 
#
# 1 184.1627 -0.4587 97.2105 0.0000 0.0000 0.0000
# 2 -0.4587 47.0216 7.2530 0.0000 0.0000 0.0000
# 3 97.2105 7.2530 85.8287 0.0000 0.0000 0.0000
# 4 0.0000 0.0000 0.0000 -2.2655 0.0000 0.0000
# 5 0.0000 0.0000 0.0000 0.0000 47.3258 0.0000
# 6 0.0000 0.0000 0.0000 0.0000 0.0000 38.3749
#
#
#
# Elastic Compliance Matrix: (Units=1/GPa)
#
#
# Indices 1 2 3 4 5 6 
#
# 1 0.013805 0.002580 -0.015853 0.000000 0.000000 0.000000
# 2 0.002580 0.022030 -0.004784 0.000000 0.000000 0.000000
# 3 -0.015853 -0.004784 0.030011 0.000000 0.000000 0.000000
# 4 0.000000 0.000000 0.000000 -0.441403 0.000000 0.000000
# 5 0.000000 0.000000 0.000000 0.000000 0.021130 0.000000
# 6 0.000000 0.000000 0.000000 0.000000 0.000000 0.026059
#
#
# Mechanical properties :
#
#
# Convention : Reuss Voigt Hill
#
# Bulk Modulus (GPa) = 33.63454 58.33586 45.98520
# Shear Modulus (GPa) = -17.70885 30.88758 6.58936
#
# Velocity S-wave (km/s) = -2.86627 3.78542 1.74841
# Velocity P-wave (km/s) = 2.15633 6.79478 5.04078
#
# Compressibility (1/GPa) = 0.02973134
#
# Stress axis : x y z
#
# Youngs Moduli (GPa) = 72.43993 45.39286 33.32125
#
# Poissons Ratio (x) = -0.11711 0.52825
# Poissons Ratio (y) = -0.18689 0.15940
# Poissons Ratio (z) = 1.14840 0.21715
#
# Static dielectric constant tensor:
#      x y z
#    x 1.817450 0.000000 0.000000 
#    y 0.000000 1.836570 0.000000 
#    z 0.000000 0.000000 1.788460 
# 
# From -- ./inp_files/2177.got.cif
#   From: 2010.05.17/outbox.cif.g08.bks.cpg/sg47_2_cif.got.tgz:2177.got - 2010.06.03 20:15:42.
