data_PCOD9389356
_publ_section_title
;
Structure prediction by ZEFSAII (Michael W. Deem and Ramdas Pophale) SiO2 
 PCOD9389356
Probable space group: P M M M
;
_chemical_formula_sum "Si O2"
_cell_formula_units_Z 52
_cell_length_a 27.000000
_cell_length_b 12.000000
_cell_length_c 9.000000
_cell_angle_alpha 90.000000
_cell_angle_beta 90.000000
_cell_angle_gamma 90.000000
_cell_volume 2916.000000
_symmetry_space_group_name_H-M "P M M M"
_symmetry_group_IT_number 47
_symmetry_cell_setting 'orthorhombic'
loop_
_space_group_symop_operation_xyz
x,y,z
-x,-y,z
x,-y,-z
-x,y,-z
-x,-y,-z
x,y,-z
-x,y,z
x,-y,z
loop_
_atom_site_type_symbol
_atom_site_label
_atom_site_fract_x
_atom_site_fract_y
_atom_site_fract_z
Si Si1 0.800350 0.000000 0.672097
Si Si2 0.445160 0.873579 0.319620
Si Si3 0.185372 0.753454 0.671376
Si Si4 0.346388 0.223549 0.322053
Si Si5 0.000000 0.364276 0.670940
Si Si6 0.302137 0.000000 0.824370
Si Si7 0.099492 0.366090 0.831082
Si Si8 0.271853 0.373339 0.823685
O O1 0.827838 0.883225 0.690539
O O2 0.755844 0.000000 0.787672
O O3 0.780874 0.000000 0.500000
O O4 0.446232 0.876649 0.500000
O O5 0.500000 0.848238 0.265992
O O6 0.403642 0.786518 0.278690
O O7 0.432091 0.000000 0.272280
O O8 0.199221 0.736141 0.500000
O O9 0.140651 0.677402 0.720752
O O10 0.230794 0.714279 0.771551
O O11 0.340669 0.219215 0.500000
O O12 0.320969 0.332310 0.257253
O O13 0.322696 0.111669 0.252744
O O14 0.047585 0.329344 0.763485
O O15 0.000000 0.500000 0.666767
O O16 0.000000 0.326384 0.500000
O O17 0.312034 0.000000 0.000000
O O18 0.100374 0.500000 0.834412
O O19 0.107662 0.327058 0.000000
O O20 0.257683 0.500000 0.783549
O O21 0.277563 0.367875 0.000000
#
# Coordination Sequence:
#
# PCOD9389356 Si02
#       8
#     4   8   8   8   4   4   8   8
#     4  10  22  38  54  76 106 140 178 221 262 308
#     4   8  14  26  47  76 106 133 164 208 262 311
#     4  11  22  36  56  79 107 140 178 220 263 313
#     4  11  20  33  55  79 105 136 175 219 261 310
#     4   9  17  31  53  80 107 138 181 225 265 313
#     4  12  22  32  51  77 107 142 176 210 261 318
#     4  10  20  34  53  79 112 145 177 218 269 318
#     4  11  24  39  53  74 106 141 177 217 265 320
#
# _framework density 17.832647000000001
#
# number of rings (size 3 to 8) (size 9 to 14) (size 15 to 20)
#    0.000    1.769    2.308    3.692    0.000    5.538 
#    0.000    0.000    0.000    3.231    0.000    6.462 
#    0.000    0.000    0.000    0.000    0.000    0.000 
#
# Total GULP energy -289810.287600 kJ/mol
# GULP energy per Si atom -5573.274762 kJ/mol
# Density = 1.779206 g / cm^3
# Si number density = 17.832647 Si / 1000 Ang^3
#
#
#
# Elastic Constant Matrix: (Units=GPa)
#
#
# Indices 1 2 3 4 5 6 
#
# 1 62.0717 11.8005 0.0851 0.0000 0.0000 0.0000
# 2 11.8005 48.1445 31.0394 0.0000 0.0000 0.0000
# 3 0.0851 31.0394 54.0564 0.0000 0.0000 0.0000
# 4 0.0000 0.0000 0.0000 10.7562 0.0000 0.0000
# 5 0.0000 0.0000 0.0000 0.0000 25.0311 0.0000
# 6 0.0000 0.0000 0.0000 0.0000 0.0000 -36.9516
#
#
#
# Elastic Compliance Matrix: (Units=1/GPa)
#
#
# Indices 1 2 3 4 5 6 
#
# 1 0.017386 -0.006738 0.003842 0.000000 0.000000 0.000000
# 2 -0.006738 0.035591 -0.020426 0.000000 0.000000 0.000000
# 3 0.003842 -0.020426 0.030222 0.000000 0.000000 0.000000
# 4 0.000000 0.000000 0.000000 0.092970 0.000000 0.000000
# 5 0.000000 0.000000 0.000000 0.000000 0.039950 0.000000
# 6 0.000000 0.000000 0.000000 0.000000 0.000000 -0.027062
#
#
# Mechanical properties :
#
#
# Convention : Reuss Voigt Hill
#
# Bulk Modulus (GPa) = 27.35662 27.79139 27.57400
# Shear Modulus (GPa) = 20.17049 7.85698 14.01373
#
# Velocity S-wave (km/s) = 3.36683 2.10131 2.80634
# Velocity P-wave (km/s) = 5.52160 4.63743 5.09872
#
# Compressibility (1/GPa) = 0.03655422
#
# Stress axis : x y z
#
# Youngs Moduli (GPa) = 57.51703 28.09672 33.08860
#
# Poissons Ratio (x) = 0.18932 -0.12712
# Poissons Ratio (y) = 0.38757 0.67587
# Poissons Ratio (z) = -0.22097 0.57391
#
# Static dielectric constant tensor:
#      x y z
#    x 1.591810 0.000000 0.000000 
#    y 0.000000 1.609820 0.000000 
#    z 0.000000 0.000000 1.604210 
# 
# From -- ./inp_files/13294.got.cif
#   From: 2010.05.17/outbox.ucp.g08.bks.cvg/sg47_7_cif.got.tgz:13294.got - 2010.06.11 16:36:43.
