data_PCOD9389431
_publ_section_title
;
Structure prediction by ZEFSAII (Michael W. Deem and Ramdas Pophale) SiO2 
 PCOD9389431
Probable space group: P M M M
;
_chemical_formula_sum "Si O2"
_cell_formula_units_Z 44
_cell_length_a 9.000000
_cell_length_b 30.000000
_cell_length_c 9.000000
_cell_angle_alpha 90.000000
_cell_angle_beta 90.000000
_cell_angle_gamma 90.000000
_cell_volume 2430.000000
_symmetry_space_group_name_H-M "P M M M"
_symmetry_group_IT_number 47
_symmetry_cell_setting 'orthorhombic'
loop_
_space_group_symop_operation_xyz
x,y,z
-x,-y,z
x,-y,-z
-x,y,-z
-x,-y,-z
x,y,-z
-x,y,z
x,-y,z
loop_
_atom_site_type_symbol
_atom_site_label
_atom_site_fract_x
_atom_site_fract_y
_atom_site_fract_z
Si Si1 0.679834 0.947796 0.500000
Si Si2 0.677228 0.550429 0.322500
Si Si3 0.826517 0.806509 0.825723
Si Si4 0.679428 0.096540 0.824582
Si Si5 0.673934 0.722133 0.677295
Si Si6 0.824718 0.363930 0.176762
O O1 0.500000 0.944053 0.500000
O O2 0.725246 0.927763 0.334310
O O3 0.720747 0.000000 0.500000
O O4 0.700945 0.554363 0.500000
O O5 0.500000 0.554567 0.297037
O O6 0.721711 0.500000 0.278024
O O7 0.760911 0.589913 0.240270
O O8 0.740862 0.853246 0.808632
O O9 0.755384 0.766589 0.733156
O O10 0.000000 0.812566 0.787375
O O11 0.818104 0.794137 0.000000
O O12 0.500000 0.095592 0.825234
O O13 0.722424 0.082217 0.000000
O O14 0.686935 0.718667 0.500000
O O15 0.500000 0.725002 0.716415
O O16 0.743897 0.678228 0.750078
O O17 0.000000 0.361063 0.208286
O O18 0.802917 0.362523 0.000000
#
# Coordination Sequence:
#
# PCOD9389431 Si02
#       6
#     4   8   8   8   8   8
#     4   9  18  32  53  83 115 147 191 245 290 337
#     4   9  19  37  60  84 109 139 179 226 273 324
#     4  10  21  37  57  82 112 145 183 228 278 333
#     4   9  18  33  54  80 112 150 190 236 289 341
#     4  11  24  39  57  82 110 142 182 227 274 328
#     4  11  24  39  55  79 112 146 181 224 272 325
#
# _framework density 18.106995999999999
#
# number of rings (size 3 to 8) (size 9 to 14) (size 15 to 20)
#    0.000    2.091    0.000    3.273    1.273    9.818 
#    0.000    4.545    0.000    1.091    0.000    2.545 
#    0.000    0.000    0.000    0.000    0.000    0.000 
#
# Total GULP energy -245320.212331 kJ/mol
# GULP energy per Si atom -5575.459371 kJ/mol
# Density = 1.806578 g / cm^3
# Si number density = 18.106996 Si / 1000 Ang^3
#
#
#
# Elastic Constant Matrix: (Units=GPa)
#
#
# Indices 1 2 3 4 5 6 
#
# 1 48.2857 38.3860 47.8330 0.0000 0.0000 0.0000
# 2 38.3860 113.3411 66.4518 0.0000 0.0000 0.0000
# 3 47.8330 66.4518 98.4199 0.0000 0.0000 0.0000
# 4 0.0000 0.0000 0.0000 36.6670 0.0000 0.0000
# 5 0.0000 0.0000 0.0000 0.0000 29.0773 0.0000
# 6 0.0000 0.0000 0.0000 0.0000 0.0000 -9.4483
#
#
#
# Elastic Compliance Matrix: (Units=1/GPa)
#
#
# Indices 1 2 3 4 5 6 
#
# 1 0.040822 -0.003631 -0.017388 0.000000 0.000000 0.000000
# 2 -0.003631 0.014927 -0.008314 0.000000 0.000000 0.000000
# 3 -0.017388 -0.008314 0.024225 0.000000 0.000000 0.000000
# 4 0.000000 0.000000 0.000000 0.027273 0.000000 0.000000
# 5 0.000000 0.000000 0.000000 0.000000 0.034391 0.000000
# 6 0.000000 0.000000 0.000000 0.000000 0.000000 -0.105839
#
#
# Mechanical properties :
#
#
# Convention : Reuss Voigt Hill
#
# Bulk Modulus (GPa) = 46.93146 62.82092 54.87619
# Shear Modulus (GPa) = 49.22868 18.41759 33.82314
#
# Velocity S-wave (km/s) = 5.21984 3.19274 4.32668
# Velocity P-wave (km/s) = 7.89330 6.95421 7.43859
#
# Compressibility (1/GPa) = 0.02130767
#
# Stress axis : x y z
#
# Youngs Moduli (GPa) = 24.49686 66.99261 41.27966
#
# Poissons Ratio (x) = 0.24322 0.71779
# Poissons Ratio (y) = 0.08894 0.34320
# Poissons Ratio (z) = 0.42596 0.55698
#
# Static dielectric constant tensor:
#      x y z
#    x 1.608080 0.000000 0.000000 
#    y 0.000000 1.589280 0.000000 
#    z 0.000000 0.000000 1.641920 
# 
# From -- ./inp_files/1986.got.cif
#   From: 2010.05.17/outbox.ucp.g08.bks.cvg/sg47_1_cif.got.tgz:1986.got - 2010.06.11 16:36:43.
