data_PCOD9389044
_publ_section_title
;
Structure prediction by ZEFSAII (Michael W. Deem and Ramdas Pophale) SiO2 
 PCOD9389044
Probable space group: P M M M
;
_chemical_formula_sum "Si O2"
_cell_formula_units_Z 52
_cell_length_a 9.138048
_cell_length_b 22.073610
_cell_length_c 14.183379
_cell_angle_alpha 90.000000
_cell_angle_beta 90.000000
_cell_angle_gamma 90.000000
_cell_volume 2860.925232
_symmetry_space_group_name_H-M "P M M M"
_symmetry_group_IT_number 47
_symmetry_cell_setting 'orthorhombic'
loop_
_space_group_symop_operation_xyz
x,y,z
-x,-y,z
x,-y,-z
-x,y,-z
-x,-y,-z
x,y,-z
-x,y,z
x,-y,z
loop_
_atom_site_type_symbol
_atom_site_label
_atom_site_fract_x
_atom_site_fract_y
_atom_site_fract_z
Si Si1 0.824341 0.246094 0.607784
Si Si2 0.328185 0.066091 0.885286
Si Si3 0.171854 0.811738 0.113433
Si Si4 0.821806 0.567352 0.110075
Si Si5 0.168606 0.000000 0.615720
Si Si6 0.667785 0.121805 0.615006
Si Si7 0.822052 0.687921 0.788429
O O1 0.781162 0.258250 0.500000
O O2 0.752039 0.183177 0.639760
O O3 0.784675 0.298927 0.680108
O O4 0.000000 0.238260 0.610331
O O5 0.500000 0.068281 0.862623
O O6 0.251163 0.127366 0.852374
O O7 0.269305 0.000000 0.854701
O O8 0.316899 0.066595 0.000000
O O9 0.226296 0.748049 0.155199
O O10 0.000000 0.817113 0.136678
O O11 0.185159 0.808657 0.000000
O O12 0.773666 0.500000 0.140557
O O13 0.768326 0.624716 0.169411
O O14 0.000000 0.567344 0.114235
O O15 0.783553 0.575243 0.000000
O O16 0.251650 0.060759 0.646119
O O17 0.169324 0.000000 0.500000
O O18 0.000000 0.000000 0.645385
O O19 0.667559 0.120150 0.500000
O O20 0.500000 0.122981 0.646325
O O21 0.000000 0.686683 0.796079
#
# Coordination Sequence:
#
# PCOD9389044 Si02
#       7
#     8   8   8   8   4   8   8
#     4   9  17  29  44  60  81 114 154 190 226 271
#     4   8  14  25  40  57  80 112 145 174 208 254
#     4   9  16  25  40  63  87 109 136 174 219 262
#     4   8  13  22  39  65  96 127 153 176 212 267
#     4   9  15  23  39  63  87 111 142 181 232 295
#     4   9  16  26  41  61  84 109 142 189 239 279
#     4   9  16  26  41  61  88 118 148 183 222 263
#
# _framework density 18.175937999999999
#
# number of rings (size 3 to 8) (size 9 to 14) (size 15 to 20)
#    0.000    3.308    0.000    2.077    0.000    4.923 
#    0.000    2.308    1.692    0.462    0.000    3.231 
#    0.000    2.462    0.000   14.769    0.000   14.154 
#
# Total GULP energy -289916.631952 kJ/mol
# GULP energy per Si atom -5575.319845 kJ/mol
# Density = 1.813457 g / cm^3
# Si number density = 18.175938 Si / 1000 Ang^3
#
#
#
# Elastic Constant Matrix: (Units=GPa)
#
#
# Indices 1 2 3 4 5 6 
#
# 1 25.6518 37.9453 17.4809 0.0000 0.0000 0.0000
# 2 37.9453 200.6721 76.4223 0.0000 0.0000 0.0000
# 3 17.4809 76.4223 65.3489 0.0000 0.0000 0.0000
# 4 0.0000 0.0000 0.0000 28.5829 0.0000 0.0000
# 5 0.0000 0.0000 0.0000 0.0000 2.8846 0.0000
# 6 0.0000 0.0000 0.0000 0.0000 0.0000 -9.4118
#
#
#
# Elastic Compliance Matrix: (Units=1/GPa)
#
#
# Indices 1 2 3 4 5 6 
#
# 1 0.054875 -0.008629 -0.004588 0.000000 0.000000 0.000000
# 2 -0.008629 0.010342 -0.009786 0.000000 0.000000 0.000000
# 3 -0.004588 -0.009786 0.027974 0.000000 0.000000 0.000000
# 4 0.000000 0.000000 0.000000 0.034986 0.000000 0.000000
# 5 0.000000 0.000000 0.000000 0.000000 0.346665 0.000000
# 6 0.000000 0.000000 0.000000 0.000000 0.000000 -0.106250
#
#
# Mechanical properties :
#
#
# Convention : Reuss Voigt Hill
#
# Bulk Modulus (GPa) = 21.19328 61.70776 41.45052
# Shear Modulus (GPa) = 11.61914 15.06609 13.34261
#
# Velocity S-wave (km/s) = 2.53110 2.88219 2.71233
# Velocity P-wave (km/s) = 4.49748 6.71565 5.71521
#
# Compressibility (1/GPa) = 0.04718476
#
# Stress axis : x y z
#
# Youngs Moduli (GPa) = 18.22335 96.69609 35.74790
#
# Poissons Ratio (x) = 0.83441 0.16400
# Poissons Ratio (y) = 0.15725 0.34982
# Poissons Ratio (z) = 0.08360 0.94625
#
# Static dielectric constant tensor:
#      x y z
#    x 1.603160 0.000000 0.000000 
#    y 0.000000 1.611430 0.000000 
#    z 0.000000 0.000000 1.680920 
# 
# From -- ./inp_files/21384.got.cif
#   From: 2010.05.17/outbox.cif.g08.bks.cpg/sg47_11_cif.got.tgz:21384.got - 2010.06.03 20:15:42.
