data_PCOD9389012
_publ_section_title
;
Structure prediction by ZEFSAII (Michael W. Deem and Ramdas Pophale) SiO2 
 PCOD9389012
Probable space group: P M M M
;
_chemical_formula_sum "Si O2"
_cell_formula_units_Z 64
_cell_length_a 20.787394
_cell_length_b 7.452949
_cell_length_c 20.834356
_cell_angle_alpha 90.000000
_cell_angle_beta 90.000000
_cell_angle_gamma 90.000000
_cell_volume 3227.812342
_symmetry_space_group_name_H-M "P M M M"
_symmetry_group_IT_number 47
_symmetry_cell_setting 'orthorhombic'
loop_
_space_group_symop_operation_xyz
x,y,z
-x,-y,z
x,-y,-z
-x,y,-z
-x,-y,-z
x,y,-z
-x,y,z
x,-y,z
loop_
_atom_site_type_symbol
_atom_site_label
_atom_site_fract_x
_atom_site_fract_y
_atom_site_fract_z
Si Si1 0.926172 0.719038 0.676625
Si Si2 0.823815 0.285148 0.572742
Si Si3 0.573423 0.218837 0.177341
Si Si4 0.177917 0.214373 0.928234
Si Si5 0.323820 0.785179 0.427239
Si Si6 0.072012 0.285656 0.178632
Si Si7 0.323228 0.218972 0.073464
Si Si8 0.573525 0.218931 0.323562
O O1 0.924441 0.500000 0.676146
O O2 0.875164 0.782942 0.624215
O O3 0.911063 0.778296 0.749475
O O4 0.000000 0.770152 0.662298
O O5 0.833057 0.215938 0.500000
O O6 0.831447 0.500000 0.569969
O O7 0.750004 0.249832 0.591641
O O8 0.500000 0.273222 0.162822
O O9 0.624881 0.280784 0.125201
O O10 0.588676 0.273774 0.250448
O O11 0.574054 0.000000 0.176779
O O12 0.124847 0.250116 0.874925
O O13 0.250110 0.277931 0.911867
O O14 0.182651 0.000000 0.932572
O O15 0.160975 0.280995 0.000000
O O16 0.333057 0.715996 0.500000
O O17 0.375139 0.717383 0.375687
O O18 0.331601 0.000000 0.429970
O O19 0.067632 0.500000 0.183462
O O20 0.000000 0.218920 0.162192
O O21 0.323955 0.000000 0.074830
O O22 0.338045 0.271204 0.000000
O O23 0.500000 0.272333 0.338192
O O24 0.574477 0.000000 0.323936
#
# Coordination Sequence:
#
# PCOD9389012 Si02
#       8
#     8   8   8   8   8   8   8   8
#     4   8  15  29  47  66  88 112 140 176 214 251
#     4   9  17  29  46  67  89 113 141 174 212 254
#     4   8  13  21  34  54  80 107 135 170 209 245
#     4   9  18  31  45  63  89 118 145 176 214 254
#     4   9  17  28  42  61  85 112 141 174 211 249
#     4   9  18  32  48  65  86 112 142 178 217 254
#     4   8  14  24  36  52  78 110 139 166 201 247
#     4   8  14  24  37  55  79 105 136 174 210 243
#
# _framework density 19.827669
#
# number of rings (size 3 to 8) (size 9 to 14) (size 15 to 20)
#    0.000    3.500    0.000    2.250    0.000    2.500 
#    0.000    6.875    0.000    1.500    0.000    3.500 
#    0.000    1.500    0.000    2.750    0.000    2.750 
#
# Total GULP energy -356788.719996 kJ/mol
# GULP energy per Si atom -5574.823750 kJ/mol
# Density = 1.978254 g / cm^3
# Si number density = 19.827669 Si / 1000 Ang^3
#
#
#
# Elastic Constant Matrix: (Units=GPa)
#
#
# Indices 1 2 3 4 5 6 
#
# 1 190.7628 3.8156 171.1813 0.0000 0.0000 0.0000
# 2 3.8156 57.7837 6.0584 0.0000 0.0000 0.0000
# 3 171.1813 6.0584 182.6328 0.0000 0.0000 0.0000
# 4 0.0000 0.0000 0.0000 0.2462 0.0000 0.0000
# 5 0.0000 0.0000 0.0000 0.0000 47.6676 0.0000
# 6 0.0000 0.0000 0.0000 0.0000 0.0000 17.2262
#
#
#
# Elastic Compliance Matrix: (Units=1/GPa)
#
#
# Indices 1 2 3 4 5 6 
#
# 1 0.033053 0.001069 -0.031016 0.000000 0.000000 0.000000
# 2 0.001069 0.017401 -0.001580 0.000000 0.000000 0.000000
# 3 -0.031016 -0.001580 0.034599 0.000000 0.000000 0.000000
# 4 0.000000 0.000000 0.000000 4.061133 0.000000 0.000000
# 5 0.000000 0.000000 0.000000 0.000000 0.020979 0.000000
# 6 0.000000 0.000000 0.000000 0.000000 0.000000 0.058051
#
#
# Mechanical properties :
#
#
# Convention : Reuss Voigt Hill
#
# Bulk Modulus (GPa) = 45.45319 88.14332 66.79826
# Shear Modulus (GPa) = 1.16398 29.70295 15.43347
#
# Velocity S-wave (km/s) = 0.76702 3.87467 2.79297
# Velocity P-wave (km/s) = 4.87425 8.03546 6.64556
#
# Compressibility (1/GPa) = 0.02200066
#
# Stress axis : x y z
#
# Youngs Moduli (GPa) = 30.25479 57.46827 28.90282
#
# Poissons Ratio (x) = -0.06145 0.89644
# Poissons Ratio (y) = -0.03235 0.04565
# Poissons Ratio (z) = 0.93837 0.09077
#
# Static dielectric constant tensor:
#      x y z
#    x 1.669850 0.000000 0.000000 
#    y 0.000000 1.795990 0.000000 
#    z 0.000000 0.000000 1.687750 
# 
# From -- ./inp_files/31376.got.cif
#   From: 2010.05.17/outbox.cif.g08.bks.cpg/sg47_16_cif.got.tgz:31376.got - 2010.06.03 20:15:42.
