data_PCOD9389341
_publ_section_title
;
Structure prediction by ZEFSAII (Michael W. Deem and Ramdas Pophale) SiO2 
 PCOD9389341
Probable space group: P M M M
;
_chemical_formula_sum "Si O2"
_cell_formula_units_Z 44
_cell_length_a 9.000000
_cell_length_b 9.000000
_cell_length_c 30.000000
_cell_angle_alpha 90.000000
_cell_angle_beta 90.000000
_cell_angle_gamma 90.000000
_cell_volume 2430.000000
_symmetry_space_group_name_H-M "P M M M"
_symmetry_group_IT_number 47
_symmetry_cell_setting 'orthorhombic'
loop_
_space_group_symop_operation_xyz
x,y,z
-x,-y,z
x,-y,-z
-x,y,-z
-x,-y,-z
x,y,-z
-x,y,z
x,-y,z
loop_
_atom_site_type_symbol
_atom_site_label
_atom_site_fract_x
_atom_site_fract_y
_atom_site_fract_z
Si Si1 0.825026 0.177989 0.407962
Si Si2 0.174893 0.823422 0.136140
Si Si3 0.324666 0.321291 0.678026
Si Si4 0.322624 0.677492 0.950035
Si Si5 0.327932 0.819050 0.500000
Si Si6 0.678524 0.323891 0.222232
O O1 0.758912 0.250413 0.363538
O O2 0.748803 0.230406 0.454013
O O3 0.000000 0.206928 0.410742
O O4 0.802537 0.000000 0.405061
O O5 0.244505 0.755221 0.091322
O O6 0.248354 0.758098 0.180790
O O7 0.000000 0.790393 0.136950
O O8 0.196351 0.000000 0.135506
O O9 0.500000 0.286114 0.674348
O O10 0.310224 0.500000 0.676389
O O11 0.274101 0.274053 0.727877
O O12 0.500000 0.702381 0.947073
O O13 0.298602 0.500000 0.947074
O O14 0.274344 0.725499 0.000000
O O15 0.500000 0.776226 0.500000
O O16 0.319505 0.000000 0.500000
O O17 0.500000 0.306426 0.220084
O O18 0.709931 0.500000 0.218609
#
# Coordination Sequence:
#
# PCOD9389341 Si02
#       6
#     8   8   8   8   4   8
#     4  10  20  33  51  77 108 139 171 211 259 310
#     4  11  24  37  50  76 113 145 173 211 259 309
#     4   9  19  36  56  78 104 134 171 216 263 309
#     4   9  19  37  60  83 105 133 174 220 261 306
#     4   9  17  31  52  75 100 135 178 218 256 303
#     4   9  19  37  59  79 100 132 176 221 261 306
#
# _framework density 18.106995999999999
#
# number of rings (size 3 to 8) (size 9 to 14) (size 15 to 20)
#    0.000    2.455    0.000    3.545    0.000    9.091 
#    0.000    8.636    0.000    2.727    0.000    0.000 
#    0.000    0.000    0.000    0.000    0.000    0.000 
#
# Total GULP energy -245497.687465 kJ/mol
# GULP energy per Si atom -5579.492897 kJ/mol
# Density = 1.806578 g / cm^3
# Si number density = 18.106996 Si / 1000 Ang^3
#
#
#
# Elastic Constant Matrix: (Units=GPa)
#
#
# Indices 1 2 3 4 5 6 
#
# 1 53.6413 44.0071 86.6758 0.0000 0.0000 0.0000
# 2 44.0071 16.4450 55.1391 0.0000 0.0000 0.0000
# 3 86.6758 55.1391 224.2842 0.0000 0.0000 0.0000
# 4 0.0000 0.0000 0.0000 55.7457 0.0000 0.0000
# 5 0.0000 0.0000 0.0000 0.0000 -20.2165 0.0000
# 6 0.0000 0.0000 0.0000 0.0000 0.0000 28.3423
#
#
#
# Elastic Compliance Matrix: (Units=1/GPa)
#
#
# Indices 1 2 3 4 5 6 
#
# 1 -0.006322 0.049667 -0.009767 0.000000 0.000000 0.000000
# 2 0.049667 -0.044081 -0.008357 0.000000 0.000000 0.000000
# 3 -0.009767 -0.008357 0.010288 0.000000 0.000000 0.000000
# 4 0.000000 0.000000 0.000000 0.017939 0.000000 0.000000
# 5 0.000000 0.000000 0.000000 0.000000 -0.049465 0.000000
# 6 0.000000 0.000000 0.000000 0.000000 0.000000 0.035283
#
#
# Mechanical properties :
#
#
# Convention : Reuss Voigt Hill
#
# Bulk Modulus (GPa) = 43.53333 74.00160 58.76746
# Shear Modulus (GPa) = -54.47371 20.01089 -17.23141
#
# Velocity S-wave (km/s) = -5.49087 3.32798 -3.08822
# Velocity P-wave (km/s) = 4.01311 7.46492 4.45084
#
# Compressibility (1/GPa) = 0.02297091
#
# Stress axis : x y z
#
# Youngs Moduli (GPa) = -158.16723 -22.68575 97.20257
#
# Poissons Ratio (x) = 1.12674 0.94939
# Poissons Ratio (y) = 7.85577 0.81235
# Poissons Ratio (z) = -1.54485 -0.18959
#
# Static dielectric constant tensor:
#      x y z
#    x 1.607640 0.000000 0.000000 
#    y 0.000000 1.610570 0.000000 
#    z 0.000000 0.000000 1.604460 
# 
# From -- ./inp_files/13558.got.cif
#   From: 2010.05.17/outbox.ucp.g08.bks.cvg/sg47_7_cif.got.tgz:13558.got - 2010.06.11 16:36:43.
