data_PCOD9389706
_publ_section_title
;
Structure prediction by ZEFSAII (Michael W. Deem and Ramdas Pophale) SiO2 
 PCOD9389706
Probable space group: P N N N
;
_chemical_formula_sum "Si O2"
_cell_formula_units_Z 56
_cell_length_a 15.115783
_cell_length_b 12.863361
_cell_length_c 14.021931
_cell_angle_alpha 90.000000
_cell_angle_beta 90.000000
_cell_angle_gamma 90.000000
_cell_volume 2726.421088
_symmetry_space_group_name_H-M "P N N N"
_symmetry_group_IT_number 48
_space_group.IT_coordinate_system_code '2'
_symmetry_cell_setting 'orthorhombic'
loop_
_space_group_symop_operation_xyz
x,y,z
1/2-x,1/2-y,z
x,1/2-y,1/2-z
1/2-x,y,1/2-z
-x,-y,-z
1/2+x,1/2+y,-z
-x,1/2+y,1/2+z
1/2+x,-y,1/2+z
loop_
_atom_site_type_symbol
_atom_site_label
_atom_site_fract_x
_atom_site_fract_y
_atom_site_fract_z
Si Si1 0.043503 0.626622 0.257977
Si Si2 0.577068 0.017147 0.365618
Si Si3 0.860481 0.347900 0.187653
Si Si4 0.049378 0.409760 0.940359
Si Si5 0.194972 0.850793 0.117999
Si Si6 0.539879 0.278685 0.027864
Si Si7 0.738083 0.485249 0.453464
O O1 0.038672 0.750000 0.250000
O O2 0.143054 0.601874 0.291928
O O3 0.984296 0.579239 0.342038
O O4 0.002294 0.585909 0.160210
O O5 0.605346 0.067847 0.263877
O O6 0.526017 0.109089 0.422506
O O7 0.664190 0.979878 0.422068
O O8 0.836997 0.250000 0.250000
O O9 0.929000 0.300694 0.111370
O O10 0.783656 0.394705 0.122908
O O11 0.153647 0.439299 0.941787
O O12 0.000000 0.500000 0.000000
O O13 0.033866 0.292043 0.977437
O O14 0.250000 0.750000 0.144617
O O15 0.120824 0.803596 0.044410
O O16 0.251885 0.933119 0.057269
#
# Coordination Sequence:
#
# PCOD9389706 Si02
#       7
#     8   8   8   8   8   8   8
#     4  12  26  44  67  95 140 179 226 285 352 421
#     4  10  23  39  63  96 131 174 228 286 348 412
#     4  10  18  33  61  97 126 164 216 287 342 398
#     4  12  22  43  63  96 136 184 228 284 356 418
#     4  11  22  41  62 100 129 173 225 290 347 411
#     4  10  20  37  64  92 135 172 221 284 350 416
#     4  11  22  36  67  93 136 173 232 282 350 423
#
# _framework density 20.539746999999998
#
# number of rings (size 3 to 8) (size 9 to 14) (size 15 to 20)
#    0.000    1.143    5.714    0.429    0.000    5.429 
#    0.000    1.429    0.000    0.000    0.000    0.000 
#    0.000    0.000    0.000    0.000    0.000    0.000 
#
# Total GULP energy -312531.353643 kJ/mol
# GULP energy per Si atom -5580.917029 kJ/mol
# Density = 2.049300 g / cm^3
# Si number density = 20.539747 Si / 1000 Ang^3
#
#
#
# Elastic Constant Matrix: (Units=GPa)
#
#
# Indices 1 2 3 4 5 6 
#
# 1 94.4630 39.1105 46.1625 0.0000 0.0000 0.0000
# 2 39.1105 62.4739 36.3027 0.0000 0.0000 0.0000
# 3 46.1625 36.3027 111.3330 0.0000 0.0000 0.0000
# 4 0.0000 0.0000 0.0000 27.1239 0.0000 0.0000
# 5 0.0000 0.0000 0.0000 0.0000 27.1280 0.0000
# 6 0.0000 0.0000 0.0000 0.0000 0.0000 40.1514
#
#
#
# Elastic Compliance Matrix: (Units=1/GPa)
#
#
# Indices 1 2 3 4 5 6 
#
# 1 0.015651 -0.007436 -0.004065 0.000000 0.000000 0.000000
# 2 -0.007436 0.023282 -0.004508 0.000000 0.000000 0.000000
# 3 -0.004065 -0.004508 0.012138 0.000000 0.000000 0.000000
# 4 0.000000 0.000000 0.000000 0.036868 0.000000 0.000000
# 5 0.000000 0.000000 0.000000 0.000000 0.036862 0.000000
# 6 0.000000 0.000000 0.000000 0.000000 0.000000 0.024906
#
#
# Mechanical properties :
#
#
# Convention : Reuss Voigt Hill
#
# Bulk Modulus (GPa) = 52.48799 56.82458 54.65629
# Shear Modulus (GPa) = 26.58504 28.66025 27.62265
#
# Velocity S-wave (km/s) = 3.60157 3.73950 3.67118
# Velocity P-wave (km/s) = 6.55018 6.80962 6.68116
#
# Compressibility (1/GPa) = 0.01905198
#
# Stress axis : x y z
#
# Youngs Moduli (GPa) = 63.89214 42.95234 82.38928
#
# Poissons Ratio (x) = 0.31940 0.33490
# Poissons Ratio (y) = 0.47511 0.37143
# Poissons Ratio (z) = 0.25971 0.19364
#
# Static dielectric constant tensor:
#      x y z
#    x 1.774640 0.000000 0.000000 
#    y 0.000000 1.752900 0.000000 
#    z 0.000000 0.000000 1.824890 
# 
# From -- ./inp_files/27306.got.cif
#   From: 2010.05.17/outbox.cif.g08.bks.cpg/sg48_14_cif.got.tgz:27306.got - 2010.06.03 20:39:00.
