data_PCOD9389160
_publ_section_title
;
Structure prediction by ZEFSAII (Michael W. Deem and Ramdas Pophale) SiO2 
 PCOD9389160
Probable space group: P M M M
;
_chemical_formula_sum "Si O2"
_cell_formula_units_Z 40
_cell_length_a 28.821477
_cell_length_b 9.282195
_cell_length_c 7.291555
_cell_angle_alpha 90.000000
_cell_angle_beta 90.000000
_cell_angle_gamma 90.000000
_cell_volume 1950.684697
_symmetry_space_group_name_H-M "P M M M"
_symmetry_group_IT_number 47
_symmetry_cell_setting 'orthorhombic'
loop_
_space_group_symop_operation_xyz
x,y,z
-x,-y,z
x,-y,-z
-x,y,-z
-x,-y,-z
x,y,-z
-x,y,z
x,-y,z
loop_
_atom_site_type_symbol
_atom_site_label
_atom_site_fract_x
_atom_site_fract_y
_atom_site_fract_z
Si Si1 0.000000 0.666152 0.776374
Si Si2 0.815182 0.666024 0.223700
Si Si3 0.276909 0.834230 0.776612
Si Si4 0.447445 0.674893 0.500000
Si Si5 0.092424 0.166113 0.776382
Si Si6 0.629961 0.329435 0.782552
O O1 0.953669 0.749394 0.718600
O O2 0.000000 0.500000 0.718475
O O3 0.000000 0.666088 0.000000
O O4 0.816353 0.500000 0.281381
O O5 0.768264 0.745665 0.282360
O O6 0.860984 0.752067 0.281339
O O7 0.815137 0.666279 0.000000
O O8 0.324743 0.758081 0.721982
O O9 0.274703 0.000000 0.718652
O O10 0.276535 0.832905 0.000000
O O11 0.450213 0.500000 0.500000
O O12 0.500000 0.730059 0.500000
O O13 0.416120 0.715275 0.674505
O O14 0.091964 0.000000 0.718450
O O15 0.092407 0.166067 0.000000
O O16 0.637953 0.500000 0.748883
O O17 0.623923 0.310232 0.000000
#
# Coordination Sequence:
#
# PCOD9389160 Si02
#       6
#     4   8   8   4   8   8
#     4   9  15  21  27  35  51  81 125 176 229 284
#     4   9  15  22  33  50  72  98 132 177 228 282
#     4   9  16  26  41  61  85 113 146 186 233 285
#     4   9  18  32  51  77 105 131 165 208 247 286
#     4   9  15  21  28  39  58  87 126 174 228 284
#     4   9  17  30  49  72  98 129 164 202 245 292
#
# _framework density 20.505618999999999
#
# number of rings (size 3 to 8) (size 9 to 14) (size 15 to 20)
#    0.000    3.000    0.000    2.100    0.000    8.800 
#    0.000    2.500    0.000    1.200    0.000    2.800 
#    0.000    0.000    0.000    0.000    0.000    1.000 
#
# Total GULP energy -223447.491338 kJ/mol
# GULP energy per Si atom -5586.187283 kJ/mol
# Density = 2.045895 g / cm^3
# Si number density = 20.505619 Si / 1000 Ang^3
#
#
#
# Elastic Constant Matrix: (Units=GPa)
#
#
# Indices 1 2 3 4 5 6 
#
# 1 255.8899 133.2272 35.9404 0.0000 0.0000 0.0000
# 2 133.2272 175.8260 27.7606 0.0000 0.0000 0.0000
# 3 35.9404 27.7606 84.4259 0.0000 0.0000 0.0000
# 4 0.0000 0.0000 0.0000 -9.9276 0.0000 0.0000
# 5 0.0000 0.0000 0.0000 0.0000 5999.1626 0.0000
# 6 0.0000 0.0000 0.0000 0.0000 0.0000 -6.6269
#
#
#
# Elastic Compliance Matrix: (Units=1/GPa)
#
#
# Indices 1 2 3 4 5 6 
#
# 1 0.006572 -0.004786 -0.001224 0.000000 0.000000 0.000000
# 2 -0.004786 0.009485 -0.001081 0.000000 0.000000 0.000000
# 3 -0.001224 -0.001081 0.012721 0.000000 0.000000 0.000000
# 4 0.000000 0.000000 0.000000 -0.100729 0.000000 0.000000
# 5 0.000000 0.000000 0.000000 0.000000 0.000167 0.000000
# 6 0.000000 0.000000 0.000000 0.000000 0.000000 -0.150899
#
#
# Mechanical properties :
#
#
# Convention : Reuss Voigt Hill
#
# Bulk Modulus (GPa) = 68.51604 101.11091 84.81348
# Shear Modulus (GPa) = -24.55358 1217.80252 596.62447
#
# Velocity S-wave (km/s) = -3.46411 24.39624 17.07595
# Velocity P-wave (km/s) = 4.18160 29.03420 20.74211
#
# Compressibility (1/GPa) = 0.01459512
#
# Stress axis : x y z
#
# Youngs Moduli (GPa) = 152.16502 105.43071 78.60890
#
# Poissons Ratio (x) = 0.50463 0.09620
# Poissons Ratio (y) = 0.72832 0.08499
# Poissons Ratio (z) = 0.18622 0.11399
#
# Static dielectric constant tensor:
#      x y z
#    x 1.672720 0.000000 0.000000 
#    y 0.000000 1.680510 0.000000 
#    z 0.000000 0.000000 1.940780 
# 
# From -- ./inp_files/12979.got.cif
#   From: 2010.05.17/outbox.cif.g08.bks.cpg/sg47_7_cif.got.tgz:12979.got - 2010.06.03 20:15:42.
