data_PCOD9389193
_publ_section_title
;
Structure prediction by ZEFSAII (Michael W. Deem and Ramdas Pophale) SiO2 
 PCOD9389193
Probable space group: P M M M
;
_chemical_formula_sum "Si O2"
_cell_formula_units_Z 64
_cell_length_a 23.204645
_cell_length_b 17.080193
_cell_length_c 7.354939
_cell_angle_alpha 90.000000
_cell_angle_beta 90.000000
_cell_angle_gamma 90.000000
_cell_volume 2915.055163
_symmetry_space_group_name_H-M "P M M M"
_symmetry_group_IT_number 47
_symmetry_cell_setting 'orthorhombic'
loop_
_space_group_symop_operation_xyz
x,y,z
-x,-y,z
x,-y,-z
-x,y,-z
-x,-y,-z
x,y,-z
-x,y,z
x,-y,z
loop_
_atom_site_type_symbol
_atom_site_label
_atom_site_fract_x
_atom_site_fract_y
_atom_site_fract_z
Si Si1 0.565420 0.735623 0.220209
Si Si2 0.643003 0.412581 0.222143
Si Si3 0.188595 0.783917 0.721026
Si Si4 0.276484 0.086630 0.281629
Si Si5 0.772298 0.612590 0.790886
Si Si6 0.937948 0.244047 0.710180
Si Si7 0.099383 0.416324 0.779436
Si Si8 0.590226 0.911426 0.792411
O O1 0.500000 0.711269 0.260128
O O2 0.608436 0.665779 0.281295
O O3 0.572279 0.826299 0.286213
O O4 0.572264 0.740252 0.000000
O O5 0.620478 0.500000 0.271887
O O6 0.709806 0.408321 0.284586
O O7 0.642927 0.409837 0.000000
O O8 0.186571 0.782193 0.500000
O O9 0.229205 0.853218 0.781737
O O10 0.219743 0.705353 0.782994
O O11 0.122685 0.785971 0.787569
O O12 0.282621 0.094804 0.500000
O O13 0.340501 0.094778 0.206252
O O14 0.255880 0.000000 0.240938
O O15 0.833816 0.584782 0.715209
O O16 0.771351 0.586483 0.000000
O O17 0.939105 0.219097 0.500000
O O18 0.931239 0.338293 0.714008
O O19 0.000000 0.223043 0.791529
O O20 0.073631 0.500000 0.728811
O O21 0.099953 0.411316 0.000000
O O22 0.576918 0.000000 0.716087
O O23 0.568746 0.913185 0.000000
#
# Coordination Sequence:
#
# PCOD9389193 Si02
#       8
#     8   8   8   8   8   8   8   8
#     4   9  17  27  39  59  87 117 149 182 214 251
#     4   9  16  25  39  59  83 113 147 182 219 257
#     4   9  17  29  45  64  86 112 140 171 209 252
#     4   9  17  29  46  68  92 114 135 165 209 258
#     4   9  16  27  44  64  85 109 139 175 216 259
#     4   9  18  31  44  58  79 110 145 175 204 243
#     4   9  17  28  42  61  84 108 136 174 217 257
#     4   9  17  29  46  68  92 116 142 174 213 258
#
# _framework density 21.954986000000002
#
# number of rings (size 3 to 8) (size 9 to 14) (size 15 to 20)
#    0.000    3.000    0.000    1.125    0.000    4.250 
#    0.000    3.750    0.000    1.875    0.000    4.375 
#    0.000    0.000    0.000   14.625    0.000   14.750 
#
# Total GULP energy -356739.448236 kJ/mol
# GULP energy per Si atom -5574.053879 kJ/mol
# Density = 2.190502 g / cm^3
# Si number density = 21.954986 Si / 1000 Ang^3
#
#
#
# Elastic Constant Matrix: (Units=GPa)
#
#
# Indices 1 2 3 4 5 6 
#
# 1 115.7145 65.3007 4.2734 0.0000 0.0000 0.0000
# 2 65.3007 117.4910 7.7781 0.0000 0.0000 0.0000
# 3 4.2734 7.7781 79.9349 0.0000 0.0000 0.0000
# 4 0.0000 0.0000 0.0000 -2.8290 0.0000 0.0000
# 5 0.0000 0.0000 0.0000 0.0000 -1.4456 0.0000
# 6 0.0000 0.0000 0.0000 0.0000 0.0000 532.8361
#
#
#
# Elastic Compliance Matrix: (Units=1/GPa)
#
#
# Indices 1 2 3 4 5 6 
#
# 1 0.012591 -0.006999 0.000008 0.000000 0.000000 0.000000
# 2 -0.006999 0.012457 -0.000838 0.000000 0.000000 0.000000
# 3 0.000008 -0.000838 0.012591 0.000000 0.000000 0.000000
# 4 0.000000 0.000000 0.000000 -0.353486 0.000000 0.000000
# 5 0.000000 0.000000 0.000000 0.000000 -0.691778 0.000000
# 6 0.000000 0.000000 0.000000 0.000000 0.000000 0.001877
#
#
# Mechanical properties :
#
#
# Convention : Reuss Voigt Hill
#
# Bulk Modulus (GPa) = 45.49248 51.98274 48.73761
# Shear Modulus (GPa) = -5.08769 121.43154 58.17192
#
# Velocity S-wave (km/s) = -1.52393 7.44509 5.15301
# Velocity P-wave (km/s) = 4.20349 9.88100 7.59288
#
# Compressibility (1/GPa) = 0.02198165
#
# Stress axis : x y z
#
# Youngs Moduli (GPa) = 79.42078 80.27915 79.41995
#
# Poissons Ratio (x) = 0.56184 -0.00062
# Poissons Ratio (y) = 0.55583 0.06655
# Poissons Ratio (z) = -0.00062 0.06727
#
# Static dielectric constant tensor:
#      x y z
#    x 1.790730 0.000000 0.000000 
#    y 0.000000 1.818560 0.000000 
#    z 0.000000 0.000000 1.852670 
# 
# From -- ./inp_files/12744.got.cif
#   From: 2010.05.17/outbox.cif.g08.bks.cpg/sg47_7_cif.got.tgz:12744.got - 2010.06.03 20:15:42.
