data_PCOD9389330
_publ_section_title
;
Structure prediction by ZEFSAII (Michael W. Deem and Ramdas Pophale) SiO2 
 PCOD9389330
Probable space group: P M M M
;
_chemical_formula_sum "Si O2"
_cell_formula_units_Z 44
_cell_length_a 9.000000
_cell_length_b 9.000000
_cell_length_c 30.000000
_cell_angle_alpha 90.000000
_cell_angle_beta 90.000000
_cell_angle_gamma 90.000000
_cell_volume 2430.000000
_symmetry_space_group_name_H-M "P M M M"
_symmetry_group_IT_number 47
_symmetry_cell_setting 'orthorhombic'
loop_
_space_group_symop_operation_xyz
x,y,z
-x,-y,z
x,-y,-z
-x,y,-z
-x,-y,-z
x,y,-z
-x,y,z
x,-y,z
loop_
_atom_site_type_symbol
_atom_site_label
_atom_site_fract_x
_atom_site_fract_y
_atom_site_fract_z
Si Si1 0.823404 0.322727 0.408534
Si Si2 0.819337 0.174322 0.049026
Si Si3 0.818813 0.671434 0.139500
Si Si4 0.824058 0.176435 0.231072
Si Si5 0.819089 0.827835 0.500000
Si Si6 0.676528 0.675773 0.683525
O O1 0.801922 0.500000 0.412388
O O2 0.768779 0.248539 0.454208
O O3 0.745092 0.270593 0.363301
O O4 0.000000 0.294889 0.404296
O O5 0.765992 0.258853 0.092890
O O6 0.000000 0.183810 0.049015
O O7 0.782519 0.000000 0.052571
O O8 0.769756 0.228687 0.000000
O O9 0.776681 0.500000 0.142390
O O10 0.770528 0.756074 0.184092
O O11 0.000000 0.679928 0.138788
O O12 0.742746 0.243226 0.273697
O O13 0.000000 0.210715 0.235141
O O14 0.806847 0.000000 0.229823
O O15 0.000000 0.815990 0.500000
O O16 0.779292 0.000000 0.500000
O O17 0.500000 0.692570 0.682304
O O18 0.712061 0.500000 0.687286
#
# Coordination Sequence:
#
# PCOD9389330 Si02
#       6
#     8   8   8   8   4   8
#     4   9  17  31  52  75  99 129 163 197 236 284
#     4   8  13  21  33  51  80 118 154 188 232 287
#     4   9  16  25  39  60  86 117 155 199 242 285
#     4  10  20  33  50  71  95 126 164 204 246 293
#     4   9  17  29  48  75 102 126 158 201 240 275
#     4  10  21  36  53  74 100 129 162 202 248 295
#
# _framework density 18.106995999999999
#
# number of rings (size 3 to 8) (size 9 to 14) (size 15 to 20)
#    0.000    2.818    0.000    2.455    0.000    6.545 
#    0.000    4.091    0.000    2.727    0.000    0.000 
#    0.000    0.727    0.000    7.636    0.000   10.545 
#
# Total GULP energy -245264.581091 kJ/mol
# GULP energy per Si atom -5574.195025 kJ/mol
# Density = 1.806578 g / cm^3
# Si number density = 18.106996 Si / 1000 Ang^3
#
#
#
# Elastic Constant Matrix: (Units=GPa)
#
#
# Indices 1 2 3 4 5 6 
#
# 1 0.7307 29.6406 36.1366 0.0000 0.0000 0.0000
# 2 29.6406 41.3774 77.4423 0.0000 0.0000 0.0000
# 3 36.1366 77.4423 218.7946 0.0000 0.0000 0.0000
# 4 0.0000 0.0000 0.0000 47.2204 0.0000 0.0000
# 5 0.0000 0.0000 0.0000 0.0000 -5.2240 0.0000
# 6 0.0000 0.0000 0.0000 0.0000 0.0000 10.5661
#
#
#
# Elastic Compliance Matrix: (Units=1/GPa)
#
#
# Indices 1 2 3 4 5 6 
#
# 1 -0.039114 0.047189 -0.010242 0.000000 0.000000 0.000000
# 2 0.047189 0.014668 -0.012986 0.000000 0.000000 0.000000
# 3 -0.010242 -0.012986 0.010858 0.000000 0.000000 0.000000
# 4 0.000000 0.000000 0.000000 0.021177 0.000000 0.000000
# 5 0.000000 0.000000 0.000000 0.000000 -0.191425 0.000000
# 6 0.000000 0.000000 0.000000 0.000000 0.000000 0.094642
#
#
# Mechanical properties :
#
#
# Convention : Reuss Voigt Hill
#
# Bulk Modulus (GPa) = 29.12538 60.81572 44.97055
# Shear Modulus (GPa) = -39.78689 18.35806 -10.71441
#
# Velocity S-wave (km/s) = -4.69264 3.18758 -2.43518
# Velocity P-wave (km/s) = 3.63884 6.87076 4.12105
#
# Compressibility (1/GPa) = 0.03433432
#
# Stress axis : x y z
#
# Youngs Moduli (GPa) = -25.56628 68.17445 92.09474
#
# Poissons Ratio (x) = -3.21707 0.94326
# Poissons Ratio (y) = 1.20644 1.19591
# Poissons Ratio (z) = -0.26186 0.88529
#
# Static dielectric constant tensor:
#      x y z
#    x 1.599550 0.000000 0.000000 
#    y 0.000000 1.611600 0.000000 
#    z 0.000000 0.000000 1.615960 
# 
# From -- ./inp_files/33913.got.cif
#   From: 2010.05.17/outbox.ucp.g08.bks.cvg/sg47_17_cif.got.tgz:33913.got - 2010.06.11 16:36:43.
