data_PCOD9389055
_publ_section_title
;
Structure prediction by ZEFSAII (Michael W. Deem and Ramdas Pophale) SiO2 
 PCOD9389055
Probable space group: P M M M
;
_chemical_formula_sum "Si O2"
_cell_formula_units_Z 64
_cell_length_a 14.321804
_cell_length_b 7.996031
_cell_length_c 24.311713
_cell_angle_alpha 90.000000
_cell_angle_beta 90.000000
_cell_angle_gamma 90.000000
_cell_volume 2784.118751
_symmetry_space_group_name_H-M "P M M M"
_symmetry_group_IT_number 47
_symmetry_cell_setting 'orthorhombic'
loop_
_space_group_symop_operation_xyz
x,y,z
-x,-y,z
x,-y,-z
-x,y,-z
-x,-y,-z
x,y,-z
-x,y,z
x,-y,z
loop_
_atom_site_type_symbol
_atom_site_label
_atom_site_fract_x
_atom_site_fract_y
_atom_site_fract_z
Si Si1 0.900913 0.194218 0.086954
Si Si2 0.806298 0.193772 0.561881
Si Si3 0.640606 0.687370 0.824408
Si Si4 0.806727 0.797064 0.320163
Si Si5 0.601200 0.691074 0.434314
Si Si6 0.139571 0.310816 0.203434
Si Si7 0.400509 0.192651 0.289439
Si Si8 0.306841 0.202193 0.939512
O O1 0.900502 0.204041 0.153458
O O2 0.801088 0.264020 0.067366
O O3 0.000000 0.269449 0.068210
O O4 0.900715 0.000000 0.070226
O O5 0.823106 0.266718 0.500000
O O6 0.843691 0.263546 0.620147
O O7 0.694685 0.203866 0.573380
O O8 0.834590 0.000000 0.558703
O O9 0.605841 0.500000 0.815792
O O10 0.750722 0.688590 0.811089
O O11 0.601582 0.803159 0.776787
O O12 0.633302 0.737655 0.887747
O O13 0.865898 0.748042 0.266407
O O14 0.699080 0.735351 0.309610
O O15 0.803767 0.000000 0.321452
O O16 0.596537 0.676781 0.500000
O O17 0.500000 0.761119 0.417563
O O18 0.611861 0.500000 0.413279
O O19 0.105194 0.500000 0.198743
O O20 0.500000 0.273585 0.304775
O O21 0.401401 0.000000 0.307742
O O22 0.304103 0.000000 0.936424
O O23 0.340697 0.250980 0.000000
#
# Coordination Sequence:
#
# PCOD9389055 Si02
#       8
#     8   8   8   8   8   8   8   8
#     4   9  17  29  46  69  97 126 152 178 209 244
#     4   9  17  27  39  57  80 106 137 174 215 258
#     4   9  17  29  45  64  86 113 146 185 227 266
#     4   9  17  29  44  61  84 113 144 180 221 267
#     4   8  14  24  35  46  64  94 130 164 200 245
#     4   9  17  29  45  64  86 114 149 185 219 256
#     4   9  17  29  45  63  82 107 142 185 232 277
#     4   9  17  29  46  68  94 125 157 182 205 242
#
# _framework density 22.987524000000001
#
# number of rings (size 3 to 8) (size 9 to 14) (size 15 to 20)
#    0.000    3.125    0.000    1.125    0.000    5.250 
#    0.000    3.750    0.000    0.375    0.000    6.125 
#    0.000    0.500    0.000    5.750    0.000    1.625 
#
# Total GULP energy -356362.488853 kJ/mol
# GULP energy per Si atom -5568.163888 kJ/mol
# Density = 2.293520 g / cm^3
# Si number density = 22.987524 Si / 1000 Ang^3
#
#
#
# Elastic Constant Matrix: (Units=GPa)
#
#
# Indices 1 2 3 4 5 6 
#
# 1 25.5850 -2.2707 -8.1880 0.0000 0.0000 0.0000
# 2 -2.2707 33.7762 7.5059 0.0000 0.0000 0.0000
# 3 -8.1880 7.5059 188.6469 0.0000 0.0000 0.0000
# 4 0.0000 0.0000 0.0000 3.2617 0.0000 0.0000
# 5 0.0000 0.0000 0.0000 0.0000 -10.5859 0.0000
# 6 0.0000 0.0000 0.0000 0.0000 0.0000 -1.9724
#
#
#
# Elastic Compliance Matrix: (Units=1/GPa)
#
#
# Indices 1 2 3 4 5 6 
#
# 1 0.039814 0.002313 0.001636 0.000000 0.000000 0.000000
# 2 0.002313 0.030005 -0.001093 0.000000 0.000000 0.000000
# 3 0.001636 -0.001093 0.005415 0.000000 0.000000 0.000000
# 4 0.000000 0.000000 0.000000 0.306586 0.000000 0.000000
# 5 0.000000 0.000000 0.000000 0.000000 -0.094465 0.000000
# 6 0.000000 0.000000 0.000000 0.000000 0.000000 -0.507006
#
#
# Mechanical properties :
#
#
# Convention : Reuss Voigt Hill
#
# Bulk Modulus (GPa) = 12.35387 26.90027 19.62707
# Shear Modulus (GPa) = -25.20407 14.87142 -5.16633
#
# Velocity S-wave (km/s) = -3.31482 2.54625 -1.50078
# Velocity P-wave (km/s) = 3.04383 4.51354 2.35660
#
# Compressibility (1/GPa) = 0.08094631
#
# Stress axis : x y z
#
# Youngs Moduli (GPa) = 25.11660 33.32759 184.65762
#
# Poissons Ratio (x) = -0.07709 -0.30211
# Poissons Ratio (y) = -0.05810 0.20192
# Poissons Ratio (z) = -0.04109 0.03644
#
# Static dielectric constant tensor:
#      x y z
#    x 1.909460 0.000000 0.000000 
#    y 0.000000 1.851440 0.000000 
#    z 0.000000 0.000000 1.917520 
# 
# From -- ./inp_files/12857.got.cif
#   From: 2010.05.17/outbox.cif.g08.bks.cpg/sg47_7_cif.got.tgz:12857.got - 2010.06.03 20:15:42.
