data_PCOD9389112
_publ_section_title
;
Structure prediction by ZEFSAII (Michael W. Deem and Ramdas Pophale) SiO2 
 PCOD9389112
Probable space group: P M M M
;
_chemical_formula_sum "Si O2"
_cell_formula_units_Z 52
_cell_length_a 36.365581
_cell_length_b 7.526296
_cell_length_c 10.077412
_cell_angle_alpha 90.000000
_cell_angle_beta 90.000000
_cell_angle_gamma 90.000000
_cell_volume 2758.168788
_symmetry_space_group_name_H-M "P M M M"
_symmetry_group_IT_number 47
_symmetry_cell_setting 'orthorhombic'
loop_
_space_group_symop_operation_xyz
x,y,z
-x,-y,z
x,-y,-z
-x,y,-z
-x,-y,-z
x,y,-z
-x,y,z
x,-y,z
loop_
_atom_site_type_symbol
_atom_site_label
_atom_site_fract_x
_atom_site_fract_y
_atom_site_fract_z
Si Si1 0.687744 0.287093 0.349218
Si Si2 0.101167 0.211877 0.657011
Si Si3 0.041623 0.500000 0.660584
Si Si4 0.458469 0.216910 0.847637
Si Si5 0.395246 0.213239 0.348909
Si Si6 0.749606 0.287711 0.849721
Si Si7 0.833020 0.213094 0.151291
O O1 0.691070 0.217606 0.500000
O O2 0.691970 0.500000 0.356100
O O3 0.646187 0.251879 0.302374
O O4 0.718994 0.217445 0.250866
O O5 0.108465 0.242157 0.500000
O O6 0.065598 0.326838 0.695932
O O7 0.135648 0.270840 0.746545
O O8 0.095296 0.000000 0.674276
O O9 0.039356 0.500000 0.500000
O O10 0.000000 0.500000 0.712434
O O11 0.500000 0.270502 0.809999
O O12 0.426947 0.279948 0.748452
O O13 0.458009 0.000000 0.846510
O O14 0.451857 0.271029 0.000000
O O15 0.398812 0.281114 0.500000
O O16 0.398842 0.000000 0.354312
O O17 0.744589 0.500000 0.857028
O O18 0.791537 0.256816 0.805605
O O19 0.745987 0.216814 0.000000
O O20 0.835470 0.000000 0.145835
O O21 0.838050 0.280761 0.000000
#
# Coordination Sequence:
#
# PCOD9389112 Si02
#       7
#     8   8   4   8   8   8   8
#     4   9  18  32  46  61  86 119 150 180 221 271
#     4   9  18  32  50  74 102 131 166 207 249 295
#     4   9  18  32  51  77 105 133 169 211 253 297
#     4   8  14  25  41  62  87 111 136 171 216 263
#     4   9  17  28  43  64  86 108 139 178 217 258
#     4   9  18  31  46  65  88 116 152 190 226 269
#     4   9  18  32  49  70  97 128 159 194 241 290
#
# _framework density 18.853088
#
# number of rings (size 3 to 8) (size 9 to 14) (size 15 to 20)
#    0.000    3.154    0.000    0.462    1.077    2.462 
#    0.000    3.077    0.000    1.385    0.000    5.385 
#    0.000    0.000    0.000    0.000    0.000    0.000 
#
# Total GULP energy -289854.994684 kJ/mol
# GULP energy per Si atom -5574.134513 kJ/mol
# Density = 1.881018 g / cm^3
# Si number density = 18.853088 Si / 1000 Ang^3
#
#
#
# Elastic Constant Matrix: (Units=GPa)
#
#
# Indices 1 2 3 4 5 6 
#
# 1 211.5159 24.8518 111.5792 0.0000 0.0000 0.0000
# 2 24.8518 53.4321 20.1126 0.0000 0.0000 0.0000
# 3 111.5792 20.1126 78.8001 0.0000 0.0000 0.0000
# 4 0.0000 0.0000 0.0000 -0.3570 0.0000 0.0000
# 5 0.0000 0.0000 0.0000 0.0000 85.0860 0.0000
# 6 0.0000 0.0000 0.0000 0.0000 0.0000 21.7345
#
#
#
# Elastic Compliance Matrix: (Units=1/GPa)
#
#
# Indices 1 2 3 4 5 6 
#
# 1 0.018779 0.001410 -0.026951 0.000000 0.000000 0.000000
# 2 0.001410 0.020810 -0.007309 0.000000 0.000000 0.000000
# 3 -0.026951 -0.007309 0.052718 0.000000 0.000000 0.000000
# 4 0.000000 0.000000 0.000000 -2.801318 0.000000 0.000000
# 5 0.000000 0.000000 0.000000 0.000000 0.011753 0.000000
# 6 0.000000 0.000000 0.000000 0.000000 0.000000 0.046010
#
#
# Mechanical properties :
#
#
# Convention : Reuss Voigt Hill
#
# Bulk Modulus (GPa) = 37.58124 72.98172 55.28148
# Shear Modulus (GPa) = -1.94048 33.77301 15.91626
#
# Velocity S-wave (km/s) = -1.01563 4.23706 2.90871
# Velocity P-wave (km/s) = 4.31297 7.92033 6.37704
#
# Compressibility (1/GPa) = 0.02660902
#
# Stress axis : x y z
#
# Youngs Moduli (GPa) = 53.24984 48.05278 18.96885
#
# Poissons Ratio (x) = -0.06777 0.51123
# Poissons Ratio (y) = -0.07510 0.13864
# Poissons Ratio (z) = 1.43515 0.35120
#
# Static dielectric constant tensor:
#      x y z
#    x 1.627660 0.000000 0.000000 
#    y 0.000000 1.701640 0.000000 
#    z 0.000000 0.000000 1.654640 
# 
# From -- ./inp_files/19815.got.cif
#   From: 2010.05.17/outbox.cif.g08.bks.cpg/sg47_10_cif.got.tgz:19815.got - 2010.06.03 20:15:42.
