data_PCOD9389013
_publ_section_title
;
Structure prediction by ZEFSAII (Michael W. Deem and Ramdas Pophale) SiO2 
 PCOD9389013
Probable space group: P M M M
;
_chemical_formula_sum "Si O2"
_cell_formula_units_Z 56
_cell_length_a 14.981231
_cell_length_b 7.386872
_cell_length_c 23.846212
_cell_angle_alpha 90.000000
_cell_angle_beta 90.000000
_cell_angle_gamma 90.000000
_cell_volume 2638.927597
_symmetry_space_group_name_H-M "P M M M"
_symmetry_group_IT_number 47
_symmetry_cell_setting 'orthorhombic'
loop_
_space_group_symop_operation_xyz
x,y,z
-x,-y,z
x,-y,-z
-x,y,-z
-x,-y,-z
x,y,-z
-x,y,z
x,-y,z
loop_
_atom_site_type_symbol
_atom_site_label
_atom_site_fract_x
_atom_site_fract_y
_atom_site_fract_z
Si Si1 0.595395 0.792769 0.910511
Si Si2 0.640357 0.294404 0.211891
Si Si3 0.396969 0.279684 0.562748
Si Si4 0.842499 0.781769 0.179934
Si Si5 0.904725 0.289368 0.298652
Si Si6 0.293987 0.722325 0.327166
Si Si7 0.794467 0.221084 0.938552
O O1 0.500000 0.710660 0.927641
O O2 0.597834 0.795183 0.842522
O O3 0.691173 0.716906 0.929636
O O4 0.595235 0.000000 0.930277
O O5 0.607273 0.500000 0.213449
O O6 0.745181 0.290287 0.196810
O O7 0.642850 0.219193 0.275012
O O8 0.369918 0.222565 0.500000
O O9 0.500000 0.225599 0.571656
O O10 0.395954 0.500000 0.563077
O O11 0.334670 0.221555 0.613689
O O12 0.903191 0.720680 0.230914
O O13 0.853188 0.725164 0.115277
O O14 0.840952 0.000000 0.181378
O O15 0.904155 0.500000 0.315014
O O16 0.808532 0.215513 0.318415
O O17 0.000000 0.211074 0.317965
O O18 0.293358 0.500000 0.324135
O O19 0.792068 0.000000 0.937467
O O20 0.825361 0.277241 0.000000
#
# Coordination Sequence:
#
# PCOD9389013 Si02
#       7
#     8   8   8   8   8   8   8
#     4   9  17  27  38  55  80 107 137 178 222 258
#     4   9  16  26  40  57  79 109 141 171 210 260
#     4   8  13  21  34  54  82 115 147 178 212 247
#     4   9  16  27  44  64  84 104 130 168 210 250
#     4   9  17  29  45  64  87 115 142 168 204 254
#     4   8  14  24  38  57  81 110 143 175 208 250
#     4   8  14  25  41  59  77 101 135 172 211 256
#
# _framework density 21.220741
#
# number of rings (size 3 to 8) (size 9 to 14) (size 15 to 20)
#    0.000    3.429    0.000    3.000    0.000    1.429 
#    0.000    2.857    0.000   11.571    0.000   10.000 
#    0.000   14.286    0.000   46.000    0.000   42.571 
#
# Total GULP energy -311834.786019 kJ/mol
# GULP energy per Si atom -5568.478322 kJ/mol
# Density = 2.117244 g / cm^3
# Si number density = 21.220741 Si / 1000 Ang^3
#
#
#
# Elastic Constant Matrix: (Units=GPa)
#
#
# Indices 1 2 3 4 5 6 
#
# 1 64.0252 -3.9174 37.8676 0.0000 0.0000 0.0000
# 2 -3.9174 74.1239 -6.0775 0.0000 0.0000 0.0000
# 3 37.8676 -6.0775 157.8653 0.0000 0.0000 0.0000
# 4 0.0000 0.0000 0.0000 9.0696 0.0000 0.0000
# 5 0.0000 0.0000 0.0000 0.0000 -13.6203 0.0000
# 6 0.0000 0.0000 0.0000 0.0000 0.0000 -4.2067
#
#
#
# Elastic Compliance Matrix: (Units=1/GPa)
#
#
# Indices 1 2 3 4 5 6 
#
# 1 0.018228 0.000607 -0.004349 0.000000 0.000000 0.000000
# 2 0.000607 0.013554 0.000376 0.000000 0.000000 0.000000
# 3 -0.004349 0.000376 0.007392 0.000000 0.000000 0.000000
# 4 0.000000 0.000000 0.000000 0.110259 0.000000 0.000000
# 5 0.000000 0.000000 0.000000 0.000000 -0.073420 0.000000
# 6 0.000000 0.000000 0.000000 0.000000 0.000000 -0.237715
#
#
# Mechanical properties :
#
#
# Convention : Reuss Voigt Hill
#
# Bulk Modulus (GPa) = 30.82412 39.08442 34.95427
# Shear Modulus (GPa) = -34.68475 16.12463 -9.28006
#
# Velocity S-wave (km/s) = -4.04725 2.75953 -2.09347
# Velocity P-wave (km/s) = 2.69876 5.34896 3.26558
#
# Compressibility (1/GPa) = 0.03244213
#
# Stress axis : x y z
#
# Youngs Moduli (GPa) = 54.85991 73.77984 135.27719
#
# Poissons Ratio (x) = -0.04477 0.58833
# Poissons Ratio (y) = -0.03329 -0.05090
# Poissons Ratio (z) = 0.23859 -0.02776
#
# Static dielectric constant tensor:
#      x y z
#    x 1.982380 0.000000 0.000000 
#    y 0.000000 1.848440 0.000000 
#    z 0.000000 0.000000 1.780210 
# 
# From -- ./inp_files/32870.got.cif
#   From: 2010.05.17/outbox.cif.g08.bks.cpg/sg47_17_cif.got.tgz:32870.got - 2010.06.03 20:15:42.
