data_PCOD9389020
_publ_section_title
;
Structure prediction by ZEFSAII (Michael W. Deem and Ramdas Pophale) SiO2 
 PCOD9389020
Probable space group: P M M M
;
_chemical_formula_sum "Si O2"
_cell_formula_units_Z 52
_cell_length_a 29.368514
_cell_length_b 7.452391
_cell_length_c 14.322113
_cell_angle_alpha 90.000000
_cell_angle_beta 90.000000
_cell_angle_gamma 90.000000
_cell_volume 3134.618563
_symmetry_space_group_name_H-M "P M M M"
_symmetry_group_IT_number 47
_symmetry_cell_setting 'orthorhombic'
loop_
_space_group_symop_operation_xyz
x,y,z
-x,-y,z
x,-y,-z
-x,y,-z
-x,-y,-z
x,y,-z
-x,y,z
x,-y,z
loop_
_atom_site_type_symbol
_atom_site_label
_atom_site_fract_x
_atom_site_fract_y
_atom_site_fract_z
Si Si1 0.551600 0.500000 0.613023
Si Si2 0.767961 0.219202 0.894723
Si Si3 0.810537 0.780883 0.604762
Si Si4 0.373981 0.213284 0.610945
Si Si5 0.857624 0.786773 0.211353
Si Si6 0.050699 0.715040 0.894225
Si Si7 0.718760 0.781921 0.709063
O O1 0.500000 0.500000 0.649092
O O2 0.548848 0.500000 0.500000
O O3 0.581689 0.673400 0.638225
O O4 0.818108 0.278034 0.859272
O O5 0.732691 0.274288 0.813717
O O6 0.767707 0.000000 0.896108
O O7 0.758798 0.279628 0.000000
O O8 0.819340 0.718423 0.500000
O O9 0.845643 0.720449 0.684843
O O10 0.760410 0.728651 0.641520
O O11 0.811198 0.000000 0.602517
O O12 0.365335 0.242176 0.500000
O O13 0.329786 0.273858 0.668961
O O14 0.380649 0.000000 0.624060
O O15 0.907916 0.756172 0.173797
O O16 0.851249 0.000000 0.214967
O O17 0.048481 0.500000 0.898913
O O18 0.000000 0.779009 0.866958
O O19 0.060254 0.780364 0.000000
O O20 0.718378 0.000000 0.708645
#
# Coordination Sequence:
#
# PCOD9389020 Si02
#       7
#     4   8   8   8   8   8   8
#     4   9  18  30  42  60  87 117 147 179 219 260
#     4   8  13  21  35  58  87 112 131 158 200 247
#     4   8  13  22  38  60  85 111 136 163 198 242
#     4   9  16  26  42  62  84 113 147 180 212 251
#     4   9  16  25  41  64  83 102 132 167 201 239
#     4   9  18  31  44  57  75 101 130 160 201 252
#     4   8  13  21  36  59  83 110 143 169 194 238
#
# _framework density 16.588940000000001
#
# number of rings (size 3 to 8) (size 9 to 14) (size 15 to 20)
#    0.000    3.462    0.000    3.231    0.000    3.385 
#    0.000    2.308    6.769    0.923    0.000    3.231 
#    0.000    1.231    0.000    6.000    0.000    0.154 
#
# Total GULP energy -289643.772481 kJ/mol
# GULP energy per Si atom -5570.072548 kJ/mol
# Density = 1.655118 g / cm^3
# Si number density = 16.588940 Si / 1000 Ang^3
#
#
#
# Elastic Constant Matrix: (Units=GPa)
#
#
# Indices 1 2 3 4 5 6 
#
# 1 156.4673 22.7238 84.6888 0.0000 0.0000 0.0000
# 2 22.7238 50.9190 20.0479 0.0000 0.0000 0.0000
# 3 84.6888 20.0479 126.8453 0.0000 0.0000 0.0000
# 4 0.0000 0.0000 0.0000 8.7954 0.0000 0.0000
# 5 0.0000 0.0000 0.0000 0.0000 21.5640 0.0000
# 6 0.0000 0.0000 0.0000 0.0000 0.0000 25.0822
#
#
#
# Elastic Compliance Matrix: (Units=1/GPa)
#
#
# Indices 1 2 3 4 5 6 
#
# 1 0.010194 -0.001994 -0.006491 0.000000 0.000000 0.000000
# 2 -0.001994 0.021332 -0.002040 0.000000 0.000000 0.000000
# 3 -0.006491 -0.002040 0.012540 0.000000 0.000000 0.000000
# 4 0.000000 0.000000 0.000000 0.113696 0.000000 0.000000
# 5 0.000000 0.000000 0.000000 0.000000 0.046374 0.000000
# 6 0.000000 0.000000 0.000000 0.000000 0.000000 0.039869
#
#
# Mechanical properties :
#
#
# Convention : Reuss Voigt Hill
#
# Bulk Modulus (GPa) = 43.44845 65.46140 54.45493
# Shear Modulus (GPa) = 18.33338 24.87305 21.60322
#
# Velocity S-wave (km/s) = 3.32800 3.87638 3.61261
# Velocity P-wave (km/s) = 6.40433 7.71891 7.09215
#
# Compressibility (1/GPa) = 0.02301578
#
# Stress axis : x y z
#
# Youngs Moduli (GPa) = 98.09808 46.87761 79.74622
#
# Poissons Ratio (x) = 0.09346 0.51762
# Poissons Ratio (y) = 0.19557 0.16272
# Poissons Ratio (z) = 0.63674 0.09565
#
# Static dielectric constant tensor:
#      x y z
#    x 1.545730 0.000000 0.000000 
#    y 0.000000 1.624860 0.000000 
#    z 0.000000 0.000000 1.559170 
# 
# From -- ./inp_files/13379.got.cif
#   From: 2010.05.17/outbox.cif.g08.bks.cpg/sg47_7_cif.got.tgz:13379.got - 2010.06.03 20:15:42.
