data_PCOD9389874
_publ_section_title
;
Structure prediction by ZEFSAII (Michael W. Deem and Ramdas Pophale) SiO2 
 PCOD9389874
Probable space group: P N N N
;
_chemical_formula_sum "Si O2"
_cell_formula_units_Z 64
_cell_length_a 8.106495
_cell_length_b 15.122485
_cell_length_c 24.315179
_cell_angle_alpha 90.000000
_cell_angle_beta 90.000000
_cell_angle_gamma 90.000000
_cell_volume 2980.806281
_symmetry_space_group_name_H-M "P N N N"
_symmetry_group_IT_number 48
_space_group.IT_coordinate_system_code '2'
_symmetry_cell_setting 'orthorhombic'
loop_
_space_group_symop_operation_xyz
x,y,z
1/2-x,1/2-y,z
x,1/2-y,1/2-z
1/2-x,y,1/2-z
-x,-y,-z
1/2+x,1/2+y,-z
-x,1/2+y,1/2+z
1/2+x,-y,1/2+z
loop_
_atom_site_type_symbol
_atom_site_label
_atom_site_fract_x
_atom_site_fract_y
_atom_site_fract_z
Si Si1 0.927851 0.395652 0.122718
Si Si2 0.249978 0.106953 0.313801
Si Si3 0.249978 0.890068 0.313711
Si Si4 0.062639 0.395953 0.618234
Si Si5 0.062678 0.395950 0.881766
Si Si6 0.561337 0.644120 0.505833
Si Si7 0.061356 0.144099 0.005834
Si Si8 0.927894 0.104340 0.122723
O O1 0.924443 0.500721 0.132658
O O2 0.749977 0.358649 0.139166
O O3 0.086561 0.360722 0.154885
O O4 0.953926 0.383533 0.057600
O O5 0.250000 0.131535 0.250000
O O6 0.413385 0.139279 0.345120
O O7 0.249974 0.998602 0.316444
O O8 0.250000 0.865345 0.250000
O O9 0.416273 0.858957 0.344289
O O10 0.083663 0.858960 0.344277
O O11 0.249979 0.358584 0.623177
O O12 0.011218 0.389025 0.554285
O O13 0.075516 0.499276 0.632677
O O14 0.011215 0.388998 0.945711
O O15 0.749984 0.613255 0.515658
O O16 0.561560 0.750011 0.503440
O O17 0.953959 0.116439 0.057603
#
# Coordination Sequence:
#
# PCOD9389874 Si02
#       8
#     8   8   8   8   8   8   8   8
#     4  10  19  32  53  78 104 136 171 211 259 308
#     4   9  18  34  53  77 109 137 170 215 256 305
#     4   9  18  32  53  79 105 137 174 213 258 305
#     4   9  19  33  51  77 105 136 172 211 256 308
#     4   9  19  33  51  77 105 136 172 211 256 308
#     4  10  20  34  52  75 106 139 172 213 260 309
#     4  10  20  34  52  75 106 139 172 213 260 309
#     4  10  19  32  53  78 104 136 171 211 259 308
#
# _framework density 21.470700000000001
#
# number of rings (size 3 to 8) (size 9 to 14) (size 15 to 20)
#    0.000    2.500    1.250    0.750    1.750    1.500 
#    0.000    5.000    0.000    3.000    0.000    5.250 
#    0.000    0.000    0.000    0.000    0.000    0.000 
#
# Total GULP energy -357296.404332 kJ/mol
# GULP energy per Si atom -5582.756318 kJ/mol
# Density = 2.142183 g / cm^3
# Si number density = 21.470700 Si / 1000 Ang^3
#
#
#
# Elastic Constant Matrix: (Units=GPa)
#
#
# Indices 1 2 3 4 5 6 
#
# 1 197.6296 8.4443 118.5982 0.0000 0.0000 0.0000
# 2 8.4443 44.2378 -9.3549 0.0000 0.0000 0.0000
# 3 118.5982 -9.3549 134.6550 0.0000 0.0000 0.0000
# 4 0.0000 0.0000 0.0000 -67.2269 0.0000 0.0000
# 5 0.0000 0.0000 0.0000 0.0000 31.6408 0.0000
# 6 0.0000 0.0000 0.0000 0.0000 0.0000 -1.4649
#
#
#
# Elastic Compliance Matrix: (Units=1/GPa)
#
#
# Indices 1 2 3 4 5 6 
#
# 1 0.011522 -0.004410 -0.010455 0.000000 0.000000 0.000000
# 2 -0.004410 0.024630 0.005596 0.000000 0.000000 0.000000
# 3 -0.010455 0.005596 0.017023 0.000000 0.000000 0.000000
# 4 0.000000 0.000000 0.000000 -0.014875 0.000000 0.000000
# 5 0.000000 0.000000 0.000000 0.000000 0.031605 0.000000
# 6 0.000000 0.000000 0.000000 0.000000 0.000000 -0.682655
#
#
# Mechanical properties :
#
#
# Convention : Reuss Voigt Hill
#
# Bulk Modulus (GPa) = 28.87106 67.98861 48.42984
# Shear Modulus (GPa) = -8.58126 9.84546 0.63210
#
# Velocity S-wave (km/s) = -2.00135 2.14371 0.54318
# Velocity P-wave (km/s) = 2.85226 6.15320 4.79569
#
# Compressibility (1/GPa) = 0.03463676
#
# Stress axis : x y z
#
# Youngs Moduli (GPa) = 86.78764 40.60047 58.74317
#
# Poissons Ratio (x) = 0.17906 0.61415
# Poissons Ratio (y) = 0.38276 -0.32870
# Poissons Ratio (z) = 0.90735 -0.22718
#
# Static dielectric constant tensor:
#      x y z
#    x 1.801590 0.000000 0.000000 
#    y 0.000000 1.779720 0.000000 
#    z 0.000000 0.000000 1.720880 
# 
# From -- ./inp_files/33779.got.cif
#   From: 2010.05.17/outbox.cif.g08.bks.cpg/sg48_17_cif.got.tgz:33779.got - 2010.06.03 20:39:00.
