data_PCOD9389919
_publ_section_title
;
Structure prediction by ZEFSAII (Michael W. Deem and Ramdas Pophale) SiO2 
 PCOD9389919
Probable space group: P N N N
;
_chemical_formula_sum "Si O2"
_cell_formula_units_Z 64
_cell_length_a 19.813566
_cell_length_b 9.948331
_cell_length_c 17.463316
_cell_angle_alpha 90.000000
_cell_angle_beta 90.000000
_cell_angle_gamma 90.000000
_cell_volume 3442.227622
_symmetry_space_group_name_H-M "P N N N"
_symmetry_group_IT_number 48
_space_group.IT_coordinate_system_code '2'
_symmetry_cell_setting 'orthorhombic'
loop_
_space_group_symop_operation_xyz
x,y,z
1/2-x,1/2-y,z
x,1/2-y,1/2-z
1/2-x,y,1/2-z
-x,-y,-z
1/2+x,1/2+y,-z
-x,1/2+y,1/2+z
1/2+x,-y,1/2+z
loop_
_atom_site_type_symbol
_atom_site_label
_atom_site_fract_x
_atom_site_fract_y
_atom_site_fract_z
Si Si1 0.132907 0.721184 0.662422
Si Si2 0.588444 0.424518 0.948448
Si Si3 0.816979 0.965062 0.076705
Si Si4 0.939081 0.535802 0.941253
Si Si5 0.557432 0.214566 0.837486
Si Si6 0.161292 0.507070 0.925974
Si Si7 0.100513 0.234183 0.660255
Si Si8 0.994483 0.825503 0.911980
O O1 0.148643 0.750000 0.750000
O O2 0.168183 0.585227 0.635799
O O3 0.156068 0.842214 0.606878
O O4 0.052619 0.699365 0.650287
O O5 0.604675 0.304128 0.891640
O O6 0.551372 0.543480 0.902296
O O7 0.648702 0.488090 0.997468
O O8 0.536959 0.359617 0.010764
O O9 0.856100 0.835924 0.108932
O O10 0.737139 0.952537 0.071380
O O11 0.940173 0.438270 0.867737
O O12 0.950735 0.691400 0.921442
O O13 0.872874 0.507439 0.991337
O O14 0.000000 0.500000 0.000000
O O15 0.572508 0.250000 0.750000
O O16 0.479170 0.259272 0.850343
O O17 0.118336 0.414393 0.868175
O O18 0.116449 0.250000 0.750000
#
# Coordination Sequence:
#
# PCOD9389919 Si02
#       8
#     8   8   8   8   8   8   8   8
#     4  11  22  35  51  77 112 146 182 222 266 324
#     4  10  19  36  55  78 112 141 189 240 284 325
#     4  11  24  36  53  78 112 156 189 219 271 339
#     4  12  19  37  61  80 108 145 190 241 283 327
#     4  11  22  37  60  88 113 143 188 243 301 337
#     4  12  23  36  55  80 108 152 194 220 268 340
#     4  11  22  36  55  85 121 151 184 229 276 337
#     4  10  19  33  57  81 102 145 187 232 279 322
#
# _framework density 18.592611000000002
#
# number of rings (size 3 to 8) (size 9 to 14) (size 15 to 20)
#    0.000    1.000    3.750    5.250    0.000    6.000 
#    0.000    0.000    0.000    1.500    0.000    0.000 
#    0.000    5.000    0.000    0.000    0.000    0.000 
#
# Total GULP energy -357601.262097 kJ/mol
# GULP energy per Si atom -5587.519720 kJ/mol
# Density = 1.855029 g / cm^3
# Si number density = 18.592611 Si / 1000 Ang^3
#
#
#
# Elastic Constant Matrix: (Units=GPa)
#
#
# Indices 1 2 3 4 5 6 
#
# 1 45.0392 -8.9558 17.6993 0.0000 0.0000 0.0000
# 2 -8.9558 81.9117 1.8500 0.0000 0.0000 0.0000
# 3 17.6993 1.8500 44.3029 0.0000 0.0000 0.0000
# 4 0.0000 0.0000 0.0000 25.9661 0.0000 0.0000
# 5 0.0000 0.0000 0.0000 0.0000 7.7303 0.0000
# 6 0.0000 0.0000 0.0000 0.0000 0.0000 11.3605
#
#
#
# Elastic Compliance Matrix: (Units=1/GPa)
#
#
# Indices 1 2 3 4 5 6 
#
# 1 0.027159 0.003218 -0.010985 0.000000 0.000000 0.000000
# 2 0.003218 0.012601 -0.001812 0.000000 0.000000 0.000000
# 3 -0.010985 -0.001812 0.027036 0.000000 0.000000 0.000000
# 4 0.000000 0.000000 0.000000 0.038512 0.000000 0.000000
# 5 0.000000 0.000000 0.000000 0.000000 0.129361 0.000000
# 6 0.000000 0.000000 0.000000 0.000000 0.000000 0.088025
#
#
# Mechanical properties :
#
#
# Convention : Reuss Voigt Hill
#
# Bulk Modulus (GPa) = 20.99126 21.38228 21.18677
# Shear Modulus (GPa) = 13.97699 19.72205 16.84952
#
# Velocity S-wave (km/s) = 2.74478 3.26044 3.01366
# Velocity P-wave (km/s) = 4.62166 5.06946 4.85073
#
# Compressibility (1/GPa) = 0.04763888
#
# Stress axis : x y z
#
# Youngs Moduli (GPa) = 36.81963 79.35890 36.98769
#
# Poissons Ratio (x) = -0.25534 0.40630
# Poissons Ratio (y) = -0.11847 0.06701
# Poissons Ratio (z) = 0.40445 0.14377
#
# Static dielectric constant tensor:
#      x y z
#    x 1.639870 0.000000 0.000000 
#    y 0.000000 1.618950 0.000000 
#    z 0.000000 0.000000 1.644730 
# 
# From -- ./inp_files/30576.got.cif
#   From: 2010.05.17/outbox.cif.g08.bks.cpg/sg48_16_cif.got.tgz:30576.got - 2010.06.03 20:39:00.
