data_PCOD9389961
_publ_section_title
;
Structure prediction by ZEFSAII (Michael W. Deem and Ramdas Pophale) SiO2 
 PCOD9389961
Probable space group: P N N N
;
_chemical_formula_sum "Si O2"
_cell_formula_units_Z 52
_cell_length_a 20.994850
_cell_length_b 8.358668
_cell_length_c 14.770376
_cell_angle_alpha 90.000000
_cell_angle_beta 90.000000
_cell_angle_gamma 90.000000
_cell_volume 2592.038231
_symmetry_space_group_name_H-M "P N N N"
_symmetry_group_IT_number 48
_space_group.IT_coordinate_system_code '2'
_symmetry_cell_setting 'orthorhombic'
loop_
_space_group_symop_operation_xyz
x,y,z
1/2-x,1/2-y,z
x,1/2-y,1/2-z
1/2-x,y,1/2-z
-x,-y,-z
1/2+x,1/2+y,-z
-x,1/2+y,1/2+z
1/2+x,-y,1/2+z
loop_
_atom_site_type_symbol
_atom_site_label
_atom_site_fract_x
_atom_site_fract_y
_atom_site_fract_z
Si Si1 0.042403 0.058148 0.232763
Si Si2 0.602040 0.440771 0.245757
Si Si3 0.334475 0.085166 0.922618
Si Si4 0.750000 0.530173 0.750000
Si Si5 0.811265 0.964526 0.079919
Si Si6 0.360984 0.511996 0.377778
Si Si7 0.850674 0.392806 0.611738
O O1 0.045776 0.250000 0.250000
O O2 0.969548 0.007064 0.220040
O O3 0.072787 0.996114 0.325558
O O4 0.087439 0.981796 0.154760
O O5 0.599568 0.250000 0.250000
O O6 0.623708 0.520761 0.339784
O O7 0.653127 0.478248 0.168989
O O8 0.264362 0.005981 0.916966
O O9 0.323217 0.274612 0.920637
O O10 0.363017 0.048924 0.020681
O O11 0.692384 0.589310 0.681378
O O12 0.792931 0.443175 0.676631
O O13 0.838771 0.045769 0.989513
O O14 0.348385 0.701465 0.382529
#
# Coordination Sequence:
#
# PCOD9389961 Si02
#       7
#     8   8   8   4   8   8   8
#     4  10  23  42  61  90 126 162 207 255 307 364
#     4  11  25  44  65  86 119 168 213 255 302 362
#     4  11  24  41  63  94 126 160 202 256 312 362
#     4  10  19  34  59  92 125 154 193 246 297 356
#     4  11  24  41  63  94 126 160 202 256 312 362
#     4  11  21  37  63  94 126 161 203 250 304 367
#     4  11  21  37  63  94 126 161 203 250 304 367
#
# _framework density 20.061433999999998
#
# number of rings (size 3 to 8) (size 9 to 14) (size 15 to 20)
#    0.000    1.231    1.538    5.538    0.000    7.385 
#    0.000    2.308    0.000    0.000    0.000    0.000 
#    0.000    0.000    0.000    0.000    0.000    0.000 
#
# Total GULP energy -290149.452790 kJ/mol
# GULP energy per Si atom -5579.797169 kJ/mol
# Density = 2.001577 g / cm^3
# Si number density = 20.061434 Si / 1000 Ang^3
#
#
#
# Elastic Constant Matrix: (Units=GPa)
#
#
# Indices 1 2 3 4 5 6 
#
# 1 36.9962 6.4500 1.9441 0.0000 0.0000 0.0000
# 2 6.4500 25.4840 10.4408 0.0000 0.0000 0.0000
# 3 1.9441 10.4408 103.0340 0.0000 0.0000 0.0000
# 4 0.0000 0.0000 0.0000 32.3381 0.0000 0.0000
# 5 0.0000 0.0000 0.0000 0.0000 18.0591 0.0000
# 6 0.0000 0.0000 0.0000 0.0000 0.0000 26.9256
#
#
#
# Elastic Compliance Matrix: (Units=1/GPa)
#
#
# Indices 1 2 3 4 5 6 
#
# 1 0.028282 -0.007240 0.000200 0.000000 0.000000 0.000000
# 2 -0.007240 0.042793 -0.004200 0.000000 0.000000 0.000000
# 3 0.000200 -0.004200 0.010127 0.000000 0.000000 0.000000
# 4 0.000000 0.000000 0.000000 0.030923 0.000000 0.000000
# 5 0.000000 0.000000 0.000000 0.000000 0.055374 0.000000
# 6 0.000000 0.000000 0.000000 0.000000 0.000000 0.037139
#
#
# Mechanical properties :
#
#
# Convention : Reuss Voigt Hill
#
# Bulk Modulus (GPa) = 17.02917 22.57598 19.80258
# Shear Modulus (GPa) = 20.26814 25.24318 22.75566
#
# Velocity S-wave (km/s) = 3.18198 3.55109 3.37159
# Velocity P-wave (km/s) = 4.69115 5.30014 5.00492
#
# Compressibility (1/GPa) = 0.05872276
#
# Stress axis : x y z
#
# Youngs Moduli (GPa) = 35.35877 23.36805 98.74263
#
# Poissons Ratio (x) = 0.16919 -0.01975
# Poissons Ratio (y) = 0.25600 0.41470
# Poissons Ratio (z) = -0.00707 0.09814
#
# Static dielectric constant tensor:
#      x y z
#    x 1.717290 0.000000 0.000000 
#    y 0.000000 1.772300 0.000000 
#    z 0.000000 0.000000 1.668990 
# 
# From -- ./inp_files/28290.got.cif
#   From: 2010.05.17/outbox.cif.g08.bks.cpg/sg48_15_cif.got.tgz:28290.got - 2010.06.03 20:39:00.
