data_PCOD9389530
_publ_section_title
;
Structure prediction by ZEFSAII (Michael W. Deem and Ramdas Pophale) SiO2 
 PCOD9389530
Probable space group: P N N N
;
_chemical_formula_sum "Si O2"
_cell_formula_units_Z 24
_cell_length_a 6.995177
_cell_length_b 5.282063
_cell_length_c 23.982784
_cell_angle_alpha 90.000000
_cell_angle_beta 90.000000
_cell_angle_gamma 90.000000
_cell_volume 886.139061
_symmetry_space_group_name_H-M "P N N N"
_symmetry_group_IT_number 48
_space_group.IT_coordinate_system_code '2'
_symmetry_cell_setting 'orthorhombic'
loop_
_space_group_symop_operation_xyz
x,y,z
1/2-x,1/2-y,z
x,1/2-y,1/2-z
1/2-x,y,1/2-z
-x,-y,-z
1/2+x,1/2+y,-z
-x,1/2+y,1/2+z
1/2+x,-y,1/2+z
loop_
_atom_site_type_symbol
_atom_site_label
_atom_site_fract_x
_atom_site_fract_y
_atom_site_fract_z
Si Si1 0.972713 0.663735 0.056252
Si Si2 0.965551 0.001289 0.225208
Si Si3 0.032957 0.667051 0.599268
O O1 0.750000 0.750000 0.063613
O O2 0.048165 0.454277 0.100939
O O3 0.059478 0.948453 0.060196
O O4 0.000000 0.500000 0.000000
O O5 0.051674 0.750000 0.250000
O O6 0.750000 0.000224 0.250000
O O7 0.055587 0.250000 0.250000
O O8 0.958466 0.033700 0.159112
O O9 0.250000 0.750000 0.582456
#
# Coordination Sequence:
#
# PCOD9389530 Si02
#       3
#     8   8   8
#     4  10  21  34  51  70 100 137 183 226 271 321
#     4  10  17  24  41  66 103 131 163 193 264 335
#     4  10  18  30  46  70 100 140 166 213 267 330
#
# _framework density 27.083784999999999
#
# number of rings (size 3 to 8) (size 9 to 14) (size 15 to 20)
#    0.000    2.000    3.333    3.000    9.333    0.000 
#    0.000    0.000    0.000    0.000    0.000    0.000 
#    0.000   20.000    0.000    0.000    0.000    0.000 
#
# Total GULP energy -133857.664789 kJ/mol
# GULP energy per Si atom -5577.402700 kJ/mol
# Density = 2.702214 g / cm^3
# Si number density = 27.083785 Si / 1000 Ang^3
#
#
#
# Elastic Constant Matrix: (Units=GPa)
#
#
# Indices 1 2 3 4 5 6 
#
# 1 117.8391 35.8502 3.6631 0.0000 0.0000 0.0000
# 2 35.8502 376.5411 85.5329 0.0000 0.0000 0.0000
# 3 3.6631 85.5329 168.0505 0.0000 0.0000 0.0000
# 4 0.0000 0.0000 0.0000 59.1446 0.0000 0.0000
# 5 0.0000 0.0000 0.0000 0.0000 -10.0440 0.0000
# 6 0.0000 0.0000 0.0000 0.0000 0.0000 -19.1892
#
#
#
# Elastic Compliance Matrix: (Units=1/GPa)
#
#
# Indices 1 2 3 4 5 6 
#
# 1 0.008750 -0.000893 0.000264 0.000000 0.000000 0.000000
# 2 -0.000893 0.003094 -0.001555 0.000000 0.000000 0.000000
# 3 0.000264 -0.001555 0.006736 0.000000 0.000000 0.000000
# 4 0.000000 0.000000 0.000000 0.016908 0.000000 0.000000
# 5 0.000000 0.000000 0.000000 0.000000 -0.099562 0.000000
# 6 0.000000 0.000000 0.000000 0.000000 0.000000 -0.052113
#
#
# Mechanical properties :
#
#
# Convention : Reuss Voigt Hill
#
# Bulk Modulus (GPa) = 70.36747 101.39144 85.87946
# Shear Modulus (GPa) = -46.69353 41.80793 -2.44280
#
# Velocity S-wave (km/s) = -4.15666 3.93320 -0.95074
# Velocity P-wave (km/s) = 1.73225 7.62523 5.52924
#
# Compressibility (1/GPa) = 0.01421111
#
# Stress axis : x y z
#
# Youngs Moduli (GPa) = 114.29072 323.19885 148.44589
#
# Poissons Ratio (x) = 0.28860 -0.03916
# Poissons Ratio (y) = 0.10206 0.23088
# Poissons Ratio (z) = -0.03015 0.50268
#
# Static dielectric constant tensor:
#      x y z
#    x 2.232410 0.000000 0.000000 
#    y 0.000000 2.257620 0.000000 
#    z 0.000000 0.000000 2.177520 
# 
# From -- ./inp_files/1697.got.cif
#   From: 2010.05.17/outbox.cif.g08.bks.cpg/sg48_1_cif.got.tgz:1697.got - 2010.06.03 20:39:00.
