data_PCOD9389688
_publ_section_title
;
Structure prediction by ZEFSAII (Michael W. Deem and Ramdas Pophale) SiO2 
 PCOD9389688
Probable space group: P N N N
;
_chemical_formula_sum "Si O2"
_cell_formula_units_Z 58
_cell_length_a 15.935166
_cell_length_b 18.401007
_cell_length_c 7.938837
_cell_angle_alpha 90.000000
_cell_angle_beta 90.000000
_cell_angle_gamma 90.000000
_cell_volume 2327.850404
_symmetry_space_group_name_H-M "P N N N"
_symmetry_group_IT_number 48
_space_group.IT_coordinate_system_code '2'
_symmetry_cell_setting 'orthorhombic'
loop_
_space_group_symop_operation_xyz
x,y,z
1/2-x,1/2-y,z
x,1/2-y,1/2-z
1/2-x,y,1/2-z
-x,-y,-z
1/2+x,1/2+y,-z
-x,1/2+y,1/2+z
1/2+x,-y,1/2+z
loop_
_atom_site_type_symbol
_atom_site_label
_atom_site_fract_x
_atom_site_fract_y
_atom_site_fract_z
Si Si1 0.648827 0.101354 0.224120
Si Si2 0.705801 0.672818 0.995122
Si Si3 0.897073 0.337020 0.587894
Si Si4 0.250000 0.750000 0.250000
Si Si5 0.659345 0.954117 0.325527
Si Si6 0.923718 0.490527 0.634517
Si Si7 0.872952 0.625004 0.844768
Si Si8 0.971072 0.208709 0.430116
O O1 0.750000 0.105575 0.250000
O O2 0.611709 0.131354 0.399355
O O3 0.609219 0.154619 0.085152
O O4 0.617233 0.017165 0.210352
O O5 0.750000 0.750000 0.033310
O O6 0.786754 0.622640 0.947755
O O7 0.651485 0.671349 0.823573
O O8 0.647770 0.631380 0.132492
O O9 0.809729 0.302392 0.643055
O O10 0.923512 0.407518 0.693175
O O11 0.958942 0.269777 0.569144
O O12 0.750000 0.954251 0.250000
O O13 0.654203 0.990934 0.510563
O O14 0.912593 0.550099 0.777900
O O15 0.000000 0.500000 0.500000
O O16 0.944183 0.664622 0.949576
O O17 0.975734 0.250000 0.250000
#
# Coordination Sequence:
#
# PCOD9389688 Si02
#       8
#     8   8   8   2   8   8   8   8
#     4   9  17  32  55  78 102 136 187 238 277 327
#     4  10  20  32  52  80 107 145 190 236 288 340
#     4  10  22  35  56  84 114 153 188 233 301 361
#     4  12  24  40  54  80 128 160 188 234 300 392
#     4   9  19  34  52  76 108 145 183 229 286 345
#     4  10  20  36  59  85 112 148 192 241 294 351
#     4  10  19  34  55  80 110 141 187 241 286 337
#     4  10  18  32  56  84 108 138 186 243 287 331
#
# _framework density 24.915690999999999
#
# number of rings (size 3 to 8) (size 9 to 14) (size 15 to 20)
#    0.000    2.207    0.000    4.966    0.000    6.621 
#    0.000    1.379    0.000    4.966    0.000    0.000 
#    0.000    0.000    0.000    0.000    0.000    0.000 
#
# Total GULP energy -323479.598715 kJ/mol
# GULP energy per Si atom -5577.234461 kJ/mol
# Density = 2.485898 g / cm^3
# Si number density = 24.915691 Si / 1000 Ang^3
#
#
#
# Elastic Constant Matrix: (Units=GPa)
#
#
# Indices 1 2 3 4 5 6 
#
# 1 112.0846 62.8821 19.9205 0.0000 0.0000 0.0000
# 2 62.8821 218.8230 40.4507 0.0000 0.0000 0.0000
# 3 19.9205 40.4507 51.8051 0.0000 0.0000 0.0000
# 4 0.0000 0.0000 0.0000 5.7357 0.0000 0.0000
# 5 0.0000 0.0000 0.0000 0.0000 7.9921 0.0000
# 6 0.0000 0.0000 0.0000 0.0000 0.0000 32.9832
#
#
#
# Elastic Compliance Matrix: (Units=1/GPa)
#
#
# Indices 1 2 3 4 5 6 
#
# 1 0.010815 -0.002734 -0.002024 0.000000 0.000000 0.000000
# 2 -0.002734 0.006032 -0.003659 0.000000 0.000000 0.000000
# 3 -0.002024 -0.003659 0.022938 0.000000 0.000000 0.000000
# 4 0.000000 0.000000 0.000000 0.174345 0.000000 0.000000
# 5 0.000000 0.000000 0.000000 0.000000 0.125124 0.000000
# 6 0.000000 0.000000 0.000000 0.000000 0.000000 0.030318
#
#
# Mechanical properties :
#
#
# Convention : Reuss Voigt Hill
#
# Bulk Modulus (GPa) = 43.56876 69.91325 56.74100
# Shear Modulus (GPa) = 12.68853 26.63949 19.66401
#
# Velocity S-wave (km/s) = 2.25912 3.27339 2.81236
# Velocity P-wave (km/s) = 4.93247 6.51211 5.77654
#
# Compressibility (1/GPa) = 0.02295223
#
# Stress axis : x y z
#
# Youngs Moduli (GPa) = 92.46171 165.78807 43.59545
#
# Poissons Ratio (x) = 0.45322 0.08825
# Poissons Ratio (y) = 0.25277 0.15950
# Poissons Ratio (z) = 0.18716 0.60655
#
# Static dielectric constant tensor:
#      x y z
#    x 2.031250 0.000000 0.000000 
#    y 0.000000 2.124220 0.000000 
#    z 0.000000 0.000000 1.997080 
# 
# From -- ./inp_files/14423.got.cif
#   From: 2010.05.17/outbox.cif.g08.bks.cpg/sg48_8_cif.got.tgz:14423.got - 2010.06.03 20:39:00.
