data_PCOD9389742
_publ_section_title
;
Structure prediction by ZEFSAII (Michael W. Deem and Ramdas Pophale) SiO2 
 PCOD9389742
Probable space group: P N N N
;
_chemical_formula_sum "Si O2"
_cell_formula_units_Z 40
_cell_length_a 17.431953
_cell_length_b 12.349589
_cell_length_c 8.842482
_cell_angle_alpha 90.000000
_cell_angle_beta 90.000000
_cell_angle_gamma 90.000000
_cell_volume 1903.587021
_symmetry_space_group_name_H-M "P N N N"
_symmetry_group_IT_number 48
_space_group.IT_coordinate_system_code '2'
_symmetry_cell_setting 'orthorhombic'
loop_
_space_group_symop_operation_xyz
x,y,z
1/2-x,1/2-y,z
x,1/2-y,1/2-z
1/2-x,y,1/2-z
-x,-y,-z
1/2+x,1/2+y,-z
-x,1/2+y,1/2+z
1/2+x,-y,1/2+z
loop_
_atom_site_type_symbol
_atom_site_label
_atom_site_fract_x
_atom_site_fract_y
_atom_site_fract_z
Si Si1 0.556990 0.863486 0.179663
Si Si2 0.874112 0.402795 0.794676
Si Si3 0.167763 0.776740 0.997879
Si Si4 0.046883 0.560152 0.637851
Si Si5 0.903697 0.859260 0.674741
O O1 0.580920 0.750000 0.250000
O O2 0.466070 0.880780 0.216932
O O3 0.590121 0.967419 0.266318
O O4 0.576068 0.856790 0.002888
O O5 0.858650 0.341706 0.950211
O O6 0.830058 0.345667 0.656210
O O7 0.857454 0.529743 0.797551
O O8 0.250000 0.750000 0.929658
O O9 0.106217 0.847372 0.909766
O O10 0.000000 0.500000 0.500000
O O11 0.982994 0.618396 0.737983
O O12 0.870928 0.750000 0.750000
#
# Coordination Sequence:
#
# PCOD9389742 Si02
#       5
#     8   8   8   8   8
#     4  11  20  34  60  92 125 169 215 283 335 388
#     4  10  18  35  55  86 129 166 219 263 333 391
#     4  11  21  35  62  91 129 174 214 266 335 414
#     4  11  19  36  58  91 131 168 213 273 335 399
#     4  11  22  33  59  93 128 164 221 282 336 394
#
# _framework density 21.01296
#
# number of rings (size 3 to 8) (size 9 to 14) (size 15 to 20)
#    0.000    1.200    6.000    6.000    0.000    0.000 
#    0.000    0.000    0.000   22.200    0.000    1.400 
#    0.000    0.000    0.000    0.000    0.000    0.000 
#
# Total GULP energy -223117.248309 kJ/mol
# GULP energy per Si atom -5577.931208 kJ/mol
# Density = 2.096513 g / cm^3
# Si number density = 21.012960 Si / 1000 Ang^3
#
#
#
# Elastic Constant Matrix: (Units=GPa)
#
#
# Indices 1 2 3 4 5 6 
#
# 1 47.3993 22.2770 19.7514 0.0000 0.0000 0.0000
# 2 22.2770 188.9800 53.5504 0.0000 0.0000 0.0000
# 3 19.7514 53.5504 124.7352 0.0000 0.0000 0.0000
# 4 0.0000 0.0000 0.0000 29.4180 0.0000 0.0000
# 5 0.0000 0.0000 0.0000 0.0000 7.4103 0.0000
# 6 0.0000 0.0000 0.0000 0.0000 0.0000 5.8951
#
#
#
# Elastic Compliance Matrix: (Units=1/GPa)
#
#
# Indices 1 2 3 4 5 6 
#
# 1 0.023188 -0.001927 -0.002844 0.000000 0.000000 0.000000
# 2 -0.001927 0.006185 -0.002350 0.000000 0.000000 0.000000
# 3 -0.002844 -0.002350 0.009476 0.000000 0.000000 0.000000
# 4 0.000000 0.000000 0.000000 0.033993 0.000000 0.000000
# 5 0.000000 0.000000 0.000000 0.000000 0.134948 0.000000
# 6 0.000000 0.000000 0.000000 0.000000 0.000000 0.169634
#
#
# Mechanical properties :
#
#
# Convention : Reuss Voigt Hill
#
# Bulk Modulus (GPa) = 40.64071 61.36355 51.00213
# Shear Modulus (GPa) = 12.50408 26.24704 19.37556
#
# Velocity S-wave (km/s) = 2.44204 3.53808 3.03987
# Velocity P-wave (km/s) = 5.22821 6.77914 6.05355
#
# Compressibility (1/GPa) = 0.02460587
#
# Stress axis : x y z
#
# Youngs Moduli (GPa) = 43.12488 161.69012 105.52713
#
# Poissons Ratio (x) = 0.31165 0.30015
# Poissons Ratio (y) = 0.08312 0.24798
# Poissons Ratio (z) = 0.12266 0.37996
#
# Static dielectric constant tensor:
#      x y z
#    x 1.799310 0.000000 0.000000 
#    y 0.000000 1.825630 0.000000 
#    z 0.000000 0.000000 2.029010 
# 
# From -- ./inp_files/13814.got.cif
#   From: 2010.05.17/outbox.cif.g08.bks.cpg/sg48_7_cif.got.tgz:13814.got - 2010.06.03 20:39:00.
