data_PCOD9389761
_publ_section_title
;
Structure prediction by ZEFSAII (Michael W. Deem and Ramdas Pophale) SiO2 
 PCOD9389761
Probable space group: P N N N
;
_chemical_formula_sum "Si O2"
_cell_formula_units_Z 48
_cell_length_a 29.827831
_cell_length_b 9.801276
_cell_length_c 7.196128
_cell_angle_alpha 90.000000
_cell_angle_beta 90.000000
_cell_angle_gamma 90.000000
_cell_volume 2103.793807
_symmetry_space_group_name_H-M "P N N N"
_symmetry_group_IT_number 48
_space_group.IT_coordinate_system_code '2'
_symmetry_cell_setting 'orthorhombic'
loop_
_space_group_symop_operation_xyz
x,y,z
1/2-x,1/2-y,z
x,1/2-y,1/2-z
1/2-x,y,1/2-z
-x,-y,-z
1/2+x,1/2+y,-z
-x,1/2+y,1/2+z
1/2+x,-y,1/2+z
loop_
_atom_site_type_symbol
_atom_site_label
_atom_site_fract_x
_atom_site_fract_y
_atom_site_fract_z
Si Si1 0.650256 0.511528 0.947059
Si Si2 0.502186 0.832060 0.042611
Si Si3 0.745579 0.089569 0.524818
Si Si4 0.899188 0.721691 0.033307
Si Si5 0.657771 0.456696 0.516358
Si Si6 0.907260 0.226741 0.974969
O O1 0.698670 0.478179 0.034651
O O2 0.657707 0.455630 0.740089
O O3 0.607881 0.425759 0.022092
O O4 0.633497 0.665798 0.945064
O O5 0.502594 0.750000 0.250000
O O6 0.550060 0.786870 0.960095
O O7 0.455893 0.774281 0.959967
O O8 0.500000 0.000000 0.000000
O O9 0.750000 0.250000 0.479132
O O10 0.750000 0.080471 0.750000
O O11 0.791474 0.023214 0.452335
O O12 0.902342 0.750000 0.250000
O O13 0.875428 0.577426 0.026388
O O14 0.633813 0.318823 0.454188
O O15 0.908735 0.250000 0.750000
#
# Coordination Sequence:
#
# PCOD9389761 Si02
#       6
#     8   8   8   8   8   8
#     4  10  20  35  59  91 113 147 198 247 297 362
#     4  10  20  37  62  88 119 162 207 252 314 378
#     4   9  16  30  58  91 115 140 188 248 300 352
#     4  11  24  39  55  78 123 159 196 244 301 358
#     4  10  18  35  61  86 114 150 188 248 302 359
#     4   9  17  32  60  86 112 144 195 244 301 357
#
# _framework density 22.815926000000001
#
# number of rings (size 3 to 8) (size 9 to 14) (size 15 to 20)
#    0.000    2.167    3.333    0.500    0.000    1.333 
#    0.000    5.000    0.000    1.000    0.000    0.000 
#    0.000    0.000    0.000    0.000    0.000    0.000 
#
# Total GULP energy -267343.244886 kJ/mol
# GULP energy per Si atom -5569.650935 kJ/mol
# Density = 2.276400 g / cm^3
# Si number density = 22.815926 Si / 1000 Ang^3
#
#
#
# Elastic Constant Matrix: (Units=GPa)
#
#
# Indices 1 2 3 4 5 6 
#
# 1 185.9079 19.8626 22.1918 0.0000 0.0000 0.0000
# 2 19.8626 61.9090 11.9217 0.0000 0.0000 0.0000
# 3 22.1918 11.9217 82.2385 0.0000 0.0000 0.0000
# 4 0.0000 0.0000 0.0000 6.1904 0.0000 0.0000
# 5 0.0000 0.0000 0.0000 0.0000 -7.5848 0.0000
# 6 0.0000 0.0000 0.0000 0.0000 0.0000 35.3454
#
#
#
# Elastic Compliance Matrix: (Units=1/GPa)
#
#
# Indices 1 2 3 4 5 6 
#
# 1 0.005704 -0.001578 -0.001311 0.000000 0.000000 0.000000
# 2 -0.001578 0.017053 -0.002046 0.000000 0.000000 0.000000
# 3 -0.001311 -0.002046 0.012810 0.000000 0.000000 0.000000
# 4 0.000000 0.000000 0.000000 0.161540 0.000000 0.000000
# 5 0.000000 0.000000 0.000000 0.000000 -0.131843 0.000000
# 6 0.000000 0.000000 0.000000 0.000000 0.000000 0.028292
#
#
# Mechanical properties :
#
#
# Convention : Reuss Voigt Hill
#
# Bulk Modulus (GPa) = 38.91363 48.66752 43.79058
# Shear Modulus (GPa) = 44.64633 25.19549 34.92091
#
# Velocity S-wave (km/s) = 4.42838 3.32670 3.91647
# Velocity P-wave (km/s) = 6.57570 6.01105 6.29971
#
# Compressibility (1/GPa) = 0.02569794
#
# Stress axis : x y z
#
# Youngs Moduli (GPa) = 175.31552 58.64082 78.06372
#
# Poissons Ratio (x) = 0.09252 0.10230
# Poissons Ratio (y) = 0.27659 0.15975
# Poissons Ratio (z) = 0.22975 0.12000
#
# Static dielectric constant tensor:
#      x y z
#    x 1.884960 0.000000 0.000000 
#    y 0.000000 1.747790 0.000000 
#    z 0.000000 0.000000 1.934950 
# 
# From -- ./inp_files/9453.got.cif
#   From: 2010.05.17/outbox.cif.g08.bks.cpg/sg48_5_cif.got.tgz:9453.got - 2010.06.03 20:39:00.
