data_PCOD9389890
_publ_section_title
;
Structure prediction by ZEFSAII (Michael W. Deem and Ramdas Pophale) SiO2 
 PCOD9389890
Probable space group: P N N N
;
_chemical_formula_sum "Si O2"
_cell_formula_units_Z 48
_cell_length_a 33.520041
_cell_length_b 9.115899
_cell_length_c 8.397291
_cell_angle_alpha 90.000000
_cell_angle_beta 90.000000
_cell_angle_gamma 90.000000
_cell_volume 2565.920813
_symmetry_space_group_name_H-M "P N N N"
_symmetry_group_IT_number 48
_space_group.IT_coordinate_system_code '2'
_symmetry_cell_setting 'orthorhombic'
loop_
_space_group_symop_operation_xyz
x,y,z
1/2-x,1/2-y,z
x,1/2-y,1/2-z
1/2-x,y,1/2-z
-x,-y,-z
1/2+x,1/2+y,-z
-x,1/2+y,1/2+z
1/2+x,-y,1/2+z
loop_
_atom_site_type_symbol
_atom_site_label
_atom_site_fract_x
_atom_site_fract_y
_atom_site_fract_z
Si Si1 0.292305 0.920700 0.300896
Si Si2 0.109714 0.421998 0.769897
Si Si3 0.337160 0.843139 0.592799
Si Si4 0.543233 0.090657 0.816329
Si Si5 0.868871 0.065600 0.601313
Si Si6 0.969407 0.086363 0.304427
O O1 0.290542 0.750000 0.250000
O O2 0.250000 0.987882 0.250000
O O3 0.301754 0.912569 0.488196
O O4 0.330670 0.979894 0.205181
O O5 0.114753 0.250000 0.750000
O O6 0.134969 0.525820 0.652834
O O7 0.063971 0.472173 0.747717
O O8 0.123325 0.464573 0.948503
O O9 0.325035 0.750000 0.750000
O O10 0.359973 0.726929 0.476460
O O11 0.532857 0.250000 0.750000
O O12 0.590454 0.065618 0.797193
O O13 0.513064 0.967847 0.751478
O O14 0.535023 0.091051 0.005076
O O15 0.960040 0.250000 0.250000
#
# Coordination Sequence:
#
# PCOD9389890 Si02
#       6
#     8   8   8   8   8   8
#     4   9  17  32  55  83 110 135 170 218 266 313
#     4  10  19  34  54  75 102 138 180 221 261 313
#     4   9  17  32  56  80 104 139 175 214 263 313
#     4  10  19  33  51  73 103 138 174 214 261 317
#     4   9  18  34  53  76 106 137 173 217 267 317
#     4  10  21  35  51  75 105 136 174 220 266 310
#
# _framework density 18.706735999999999
#
# number of rings (size 3 to 8) (size 9 to 14) (size 15 to 20)
#    0.000    2.500    0.000    4.500    0.000    0.667 
#    0.000   25.000    0.000    3.000    0.000    0.000 
#    0.000    0.000    0.000    0.000    0.000    0.000 
#
# Total GULP energy -267552.428064 kJ/mol
# GULP energy per Si atom -5574.008918 kJ/mol
# Density = 1.866416 g / cm^3
# Si number density = 18.706736 Si / 1000 Ang^3
#
#
#
# Elastic Constant Matrix: (Units=GPa)
#
#
# Indices 1 2 3 4 5 6 
#
# 1 138.5701 31.4470 51.6941 0.0000 0.0000 0.0000
# 2 31.4470 91.0891 21.1456 0.0000 0.0000 0.0000
# 3 51.6941 21.1456 56.8691 0.0000 0.0000 0.0000
# 4 0.0000 0.0000 0.0000 12.8804 0.0000 0.0000
# 5 0.0000 0.0000 0.0000 0.0000 7.3215 0.0000
# 6 0.0000 0.0000 0.0000 0.0000 0.0000 10.2775
#
#
#
# Elastic Compliance Matrix: (Units=1/GPa)
#
#
# Indices 1 2 3 4 5 6 
#
# 1 0.011138 -0.001636 -0.009516 0.000000 0.000000 0.000000
# 2 -0.001636 0.012256 -0.003070 0.000000 0.000000 0.000000
# 3 -0.009516 -0.003070 0.027376 0.000000 0.000000 0.000000
# 4 0.000000 0.000000 0.000000 0.077637 0.000000 0.000000
# 5 0.000000 0.000000 0.000000 0.000000 0.136584 0.000000
# 6 0.000000 0.000000 0.000000 0.000000 0.000000 0.097300
#
#
# Mechanical properties :
#
#
# Convention : Reuss Voigt Hill
#
# Bulk Modulus (GPa) = 44.79180 55.01131 49.90156
# Shear Modulus (GPa) = 12.55724 18.24531 15.40128
#
# Velocity S-wave (km/s) = 2.59370 3.12642 2.87244
# Velocity P-wave (km/s) = 5.74159 6.51949 6.14287
#
# Compressibility (1/GPa) = 0.02232551
#
# Stress axis : x y z
#
# Youngs Moduli (GPa) = 89.78413 81.59448 36.52873
#
# Poissons Ratio (x) = 0.13350 0.34761
# Poissons Ratio (y) = 0.14690 0.11214
# Poissons Ratio (z) = 0.85438 0.25048
#
# Static dielectric constant tensor:
#      x y z
#    x 1.703670 0.000000 0.000000 
#    y 0.000000 1.623780 0.000000 
#    z 0.000000 0.000000 1.663840 
# 
# From -- ./inp_files/9455.got.cif
#   From: 2010.05.17/outbox.cif.g08.bks.cpg/sg48_5_cif.got.tgz:9455.got - 2010.06.03 20:39:00.
