data_PCOD9389471
_publ_section_title
;
Structure prediction by ZEFSAII (Michael W. Deem and Ramdas Pophale) SiO2 
 PCOD9389471
Probable space group: P N N N
;
_chemical_formula_sum "Si O2"
_cell_formula_units_Z 56
_cell_length_a 7.195006
_cell_length_b 19.514618
_cell_length_c 18.797522
_cell_angle_alpha 90.000000
_cell_angle_beta 90.000000
_cell_angle_gamma 90.000000
_cell_volume 2639.318589
_symmetry_space_group_name_H-M "P N N N"
_symmetry_group_IT_number 48
_space_group.IT_coordinate_system_code '2'
_symmetry_cell_setting 'orthorhombic'
loop_
_space_group_symop_operation_xyz
x,y,z
1/2-x,1/2-y,z
x,1/2-y,1/2-z
1/2-x,y,1/2-z
-x,-y,-z
1/2+x,1/2+y,-z
-x,1/2+y,1/2+z
1/2+x,-y,1/2+z
loop_
_atom_site_type_symbol
_atom_site_label
_atom_site_fract_x
_atom_site_fract_y
_atom_site_fract_z
Si Si1 0.000374 0.534295 0.888079
Si Si2 0.523777 0.257256 0.481334
Si Si3 0.469074 0.728208 0.825918
Si Si4 0.432506 0.992083 0.611958
Si Si5 0.057337 0.600484 0.034468
Si Si6 0.528456 0.083811 0.262821
Si Si7 0.498978 0.394673 0.988293
O O1 0.223981 0.535823 0.884333
O O2 0.939502 0.573320 0.815575
O O3 0.957699 0.453660 0.901010
O O4 0.957800 0.569342 0.963933
O O5 0.750000 0.250000 0.478731
O O6 0.464349 0.263857 0.398268
O O7 0.488125 0.321083 0.533072
O O8 0.444339 0.183750 0.503337
O O9 0.250000 0.750000 0.824340
O O10 0.546840 0.750000 0.750000
O O11 0.504492 0.647065 0.817465
O O12 0.422409 0.067711 0.580838
O O13 0.512266 0.983169 0.690303
O O14 0.540765 0.945035 0.554826
O O15 0.277417 0.604354 0.019477
O O16 0.750000 0.091447 0.250000
#
# Coordination Sequence:
#
# PCOD9389471 Si02
#       7
#     8   8   8   8   8   8   8
#     4   9  18  29  44  65  96 124 151 183 231 278
#     4   9  16  25  43  67  92 118 150 194 233 267
#     4  10  15  20  37  68 100 119 140 179 240 284
#     4   9  17  28  45  66  93 119 152 189 229 274
#     4   9  17  30  45  65  93 123 154 188 228 274
#     4  10  16  26  41  67  97 125 144 186 232 279
#     4   9  16  29  46  66  90 118 155 193 227 271
#
# _framework density 21.217597999999999
#
# number of rings (size 3 to 8) (size 9 to 14) (size 15 to 20)
#    0.000    2.714    2.857    0.857    4.000    0.000 
#    0.000    1.429    0.000    0.857    0.000    6.000 
#    0.000    0.000    0.000    0.000    0.000    0.000 
#
# Total GULP energy -311769.675804 kJ/mol
# GULP energy per Si atom -5567.315639 kJ/mol
# Density = 2.116931 g / cm^3
# Si number density = 21.217598 Si / 1000 Ang^3
#
#
#
# Elastic Constant Matrix: (Units=GPa)
#
#
# Indices 1 2 3 4 5 6 
#
# 1 59.8013 -26.2100 -19.1780 0.0000 0.0000 0.0000
# 2 -26.2100 102.4755 24.2300 0.0000 0.0000 0.0000
# 3 -19.1780 24.2300 50.1174 0.0000 0.0000 0.0000
# 4 0.0000 0.0000 0.0000 48.2139 0.0000 0.0000
# 5 0.0000 0.0000 0.0000 0.0000 4.9602 0.0000
# 6 0.0000 0.0000 0.0000 0.0000 0.0000 7.8607
#
#
#
# Elastic Compliance Matrix: (Units=1/GPa)
#
#
# Indices 1 2 3 4 5 6 
#
# 1 0.020283 0.003785 0.005932 0.000000 0.000000 0.000000
# 2 0.003785 0.011724 -0.004220 0.000000 0.000000 0.000000
# 3 0.005932 -0.004220 0.024263 0.000000 0.000000 0.000000
# 4 0.000000 0.000000 0.000000 0.020741 0.000000 0.000000
# 5 0.000000 0.000000 0.000000 0.000000 0.201603 0.000000
# 6 0.000000 0.000000 0.000000 0.000000 0.000000 0.127214
#
#
# Mechanical properties :
#
#
# Convention : Reuss Voigt Hill
#
# Bulk Modulus (GPa) = 14.86660 18.89759 16.88209
# Shear Modulus (GPa) = 11.98304 27.77712 19.88008
#
# Velocity S-wave (km/s) = 2.37906 3.62215 3.06430
# Velocity P-wave (km/s) = 3.81688 5.13996 4.52702
#
# Compressibility (1/GPa) = 0.06726487
#
# Stress axis : x y z
#
# Youngs Moduli (GPa) = 49.30162 85.29258 41.21494
#
# Poissons Ratio (x) = -0.32286 -0.24447
# Poissons Ratio (y) = -0.18662 0.17392
# Poissons Ratio (z) = -0.29244 0.35992
#
# Static dielectric constant tensor:
#      x y z
#    x 1.782860 0.000000 0.000000 
#    y 0.000000 1.923420 0.000000 
#    z 0.000000 0.000000 1.654370 
# 
# From -- ./inp_files/31216.got.cif
#   From: 2010.05.17/outbox.cif.g08.bks.cpg/sg48_16_cif.got.tgz:31216.got - 2010.06.03 20:39:00.
