data_PCOD9389692
_publ_section_title
;
Structure prediction by ZEFSAII (Michael W. Deem and Ramdas Pophale) SiO2 
 PCOD9389692
Probable space group: P N N N
;
_chemical_formula_sum "Si O2"
_cell_formula_units_Z 54
_cell_length_a 5.410543
_cell_length_b 16.668047
_cell_length_c 30.586971
_cell_angle_alpha 90.000000
_cell_angle_beta 90.000000
_cell_angle_gamma 90.000000
_cell_volume 2758.430465
_symmetry_space_group_name_H-M "P N N N"
_symmetry_group_IT_number 48
_space_group.IT_coordinate_system_code '2'
_symmetry_cell_setting 'orthorhombic'
loop_
_space_group_symop_operation_xyz
x,y,z
1/2-x,1/2-y,z
x,1/2-y,1/2-z
1/2-x,y,1/2-z
-x,-y,-z
1/2+x,1/2+y,-z
-x,1/2+y,1/2+z
1/2+x,-y,1/2+z
loop_
_atom_site_type_symbol
_atom_site_label
_atom_site_fract_x
_atom_site_fract_y
_atom_site_fract_z
Si Si1 0.479299 0.597129 0.001115
Si Si2 0.750000 0.250000 0.250000
Si Si3 0.250000 0.465413 0.750000
Si Si4 0.024442 0.424110 0.033154
Si Si5 0.618341 0.516876 0.630902
Si Si6 0.883189 0.921136 0.156444
Si Si7 0.494207 0.200961 0.585301
Si Si8 0.554821 0.887421 0.787155
O O1 0.238595 0.618927 0.972864
O O2 0.739729 0.626338 0.982106
O O3 0.500000 0.500000 0.000000
O O4 0.457280 0.630729 0.049926
O O5 0.624818 0.187202 0.216904
O O6 0.364300 0.418021 0.790854
O O7 0.445753 0.527736 0.729611
O O8 0.083973 0.456438 0.081132
O O9 0.000000 0.500000 0.000000
O O10 0.373974 0.462765 0.640938
O O11 0.626835 0.592975 0.663604
O O12 0.875104 0.471713 0.641638
O O13 0.920383 0.837980 0.131554
O O14 0.250000 0.250000 0.571072
O O15 0.750000 0.250000 0.588237
O O16 0.750000 0.866150 0.750000
#
# Coordination Sequence:
#
# PCOD9389692 Si02
#       8
#     8   2   4   8   8   8   8   8
#     4  10  20  37  62  87 120 159 214 256 307 373
#     4  10  22  36  60  82 126 176 200 260 336 420
#     4   9  20  35  61  90 121 154 218 274 315 362
#     4  10  18  32  56  92 119 151 202 260 312 362
#     4  11  21  35  65  96 124 158 219 279 311 376
#     4  11  21  38  61  92 127 164 207 265 320 382
#     4  12  25  42  64  95 132 170 213 267 334 402
#     4  10  19  37  58  90 123 163 213 266 327 378
#
# _framework density 19.576350000000001
#
# number of rings (size 3 to 8) (size 9 to 14) (size 15 to 20)
#    0.000    1.481    1.481    6.444    0.000    0.000 
#    0.000    0.370    4.889    0.889    0.000    0.000 
#    0.000    0.000    0.000    0.000    0.000    0.000 
#
# Total GULP energy -300909.579978 kJ/mol
# GULP energy per Si atom -5572.399629 kJ/mol
# Density = 1.953179 g / cm^3
# Si number density = 19.576350 Si / 1000 Ang^3
#
#
#
# Elastic Constant Matrix: (Units=GPa)
#
#
# Indices 1 2 3 4 5 6 
#
# 1 141.9460 21.2852 30.6447 0.0000 0.0000 0.0000
# 2 21.2852 69.7205 40.0782 0.0000 0.0000 0.0000
# 3 30.6447 40.0782 166.9336 0.0000 0.0000 0.0000
# 4 0.0000 0.0000 0.0000 25.0034 0.0000 0.0000
# 5 0.0000 0.0000 0.0000 0.0000 24.3300 0.0000
# 6 0.0000 0.0000 0.0000 0.0000 0.0000 26.4381
#
#
#
# Elastic Compliance Matrix: (Units=1/GPa)
#
#
# Indices 1 2 3 4 5 6 
#
# 1 0.007514 -0.001741 -0.000961 0.000000 0.000000 0.000000
# 2 -0.001741 0.017043 -0.003772 0.000000 0.000000 0.000000
# 3 -0.000961 -0.003772 0.007072 0.000000 0.000000 0.000000
# 4 0.000000 0.000000 0.000000 0.039995 0.000000 0.000000
# 5 0.000000 0.000000 0.000000 0.000000 0.041101 0.000000
# 6 0.000000 0.000000 0.000000 0.000000 0.000000 0.037824
#
#
# Mechanical properties :
#
#
# Convention : Reuss Voigt Hill
#
# Bulk Modulus (GPa) = 53.53390 62.51293 58.02342
# Shear Modulus (GPa) = 29.45941 34.26044 31.85992
#
# Velocity S-wave (km/s) = 3.88344 4.18795 4.03857
# Velocity P-wave (km/s) = 6.89302 7.44227 7.17291
#
# Compressibility (1/GPa) = 0.01867975
#
# Stress axis : x y z
#
# Youngs Moduli (GPa) = 133.09256 58.67533 141.39296
#
# Poissons Ratio (x) = 0.10217 0.13591
# Poissons Ratio (y) = 0.23175 0.53335
# Poissons Ratio (z) = 0.12793 0.22133
#
# Static dielectric constant tensor:
#      x y z
#    x 1.824000 0.000000 0.000000 
#    y 0.000000 1.674180 0.000000 
#    z 0.000000 0.000000 1.861650 
# 
# From -- ./inp_files/38351.got.cif
#   From: 2010.05.17/outbox.cif.g08.bks.cpg/sg48_20_cif.got.tgz:38351.got - 2010.06.03 20:39:00.
