data_PCOD9389468
_publ_section_title
;
Structure prediction by ZEFSAII (Michael W. Deem and Ramdas Pophale) SiO2 
 PCOD9389468
Probable space group: P M M M
;
_chemical_formula_sum "Si O2"
_cell_formula_units_Z 60
_cell_length_a 24.000000
_cell_length_b 9.000000
_cell_length_c 18.000000
_cell_angle_alpha 90.000000
_cell_angle_beta 90.000000
_cell_angle_gamma 90.000000
_cell_volume 3888.000000
_symmetry_space_group_name_H-M "P M M M"
_symmetry_group_IT_number 47
_symmetry_cell_setting 'orthorhombic'
loop_
_space_group_symop_operation_xyz
x,y,z
-x,-y,z
x,-y,-z
-x,y,-z
-x,-y,-z
x,y,-z
-x,y,z
x,-y,z
loop_
_atom_site_type_symbol
_atom_site_label
_atom_site_fract_x
_atom_site_fract_y
_atom_site_fract_z
Si Si1 0.244915 0.321016 0.584735
Si Si2 0.432514 0.168152 0.500000
Si Si3 0.153119 0.171279 0.679194
Si Si4 0.144274 0.320989 0.915218
Si Si5 0.563853 0.678865 0.345711
Si Si6 0.763704 0.829202 0.821511
Si Si7 0.935356 0.320820 0.220782
Si Si8 0.675929 0.678553 0.722995
O O1 0.257778 0.274966 0.500000
O O2 0.240892 0.500000 0.585877
O O3 0.186849 0.252785 0.613944
O O4 0.291537 0.280254 0.646292
O O5 0.500000 0.161634 0.500000
O O6 0.418295 0.254520 0.425052
O O7 0.410920 0.000000 0.500000
O O8 0.195095 0.175008 0.749945
O O9 0.098176 0.251385 0.710218
O O10 0.142349 0.000000 0.660338
O O11 0.147583 0.500000 0.913430
O O12 0.202371 0.254978 0.885452
O O13 0.096681 0.277135 0.855520
O O14 0.132527 0.275179 0.000000
O O15 0.500000 0.725187 0.329416
O O16 0.564128 0.500000 0.352069
O O17 0.611395 0.720960 0.287074
O O18 0.707900 0.752410 0.791465
O O19 0.754185 0.000000 0.841625
O O20 0.932239 0.500000 0.225902
O O21 0.000000 0.277200 0.219065
O O22 0.679895 0.500000 0.729934
#
# Coordination Sequence:
#
# PCOD9389468 Si02
#       8
#     8   4   8   8   8   8   8   8
#     4   9  17  28  43  62  82 106 139 180 224 266
#     4   9  17  27  37  51  75 109 145 179 216 257
#     4   9  17  29  44  61  83 111 142 177 217 257
#     4   9  17  29  46  68  94 121 146 172 204 243
#     4   9  17  28  42  59  81 112 148 184 221 262
#     4   9  17  29  44  62  86 114 146 179 214 254
#     4   9  17  29  46  67  90 117 147 174 202 242
#     4   9  17  28  44  62  84 112 145 183 219 260
#
# _framework density 15.432098999999999
#
# number of rings (size 3 to 8) (size 9 to 14) (size 15 to 20)
#    0.000    3.000    0.000    1.000    0.933    5.600 
#    0.000    1.333    0.000    0.400    0.000    6.533 
#    0.000    0.533    0.000    6.133    0.000    1.733 
#
# Total GULP energy -334082.622692 kJ/mol
# GULP energy per Si atom -5568.043712 kJ/mol
# Density = 1.539697 g / cm^3
# Si number density = 15.432099 Si / 1000 Ang^3
#
#
#
# Elastic Constant Matrix: (Units=GPa)
#
#
# Indices 1 2 3 4 5 6 
#
# 1 105.2753 26.2068 22.2993 0.0000 0.0000 0.0000
# 2 26.2068 14.6196 9.0393 0.0000 0.0000 0.0000
# 3 22.2993 9.0393 26.4033 0.0000 0.0000 0.0000
# 4 0.0000 0.0000 0.0000 8.6058 0.0000 0.0000
# 5 0.0000 0.0000 0.0000 0.0000 18.7269 0.0000
# 6 0.0000 0.0000 0.0000 0.0000 0.0000 10.1167
#
#
#
# Elastic Compliance Matrix: (Units=1/GPa)
#
#
# Indices 1 2 3 4 5 6 
#
# 1 0.017695 -0.028516 -0.005182 0.000000 0.000000 0.000000
# 2 -0.028516 0.132722 -0.021355 0.000000 0.000000 0.000000
# 3 -0.005182 -0.021355 0.049562 0.000000 0.000000 0.000000
# 4 0.000000 0.000000 0.000000 0.116200 0.000000 0.000000
# 5 0.000000 0.000000 0.000000 0.000000 0.053399 0.000000
# 6 0.000000 0.000000 0.000000 0.000000 0.000000 0.098847
#
#
# Mechanical properties :
#
#
# Convention : Reuss Voigt Hill
#
# Bulk Modulus (GPa) = 11.12676 29.04322 20.08499
# Shear Modulus (GPa) = 8.21708 13.40673 10.81190
#
# Velocity S-wave (km/s) = 2.31003 2.95066 2.64978
# Velocity P-wave (km/s) = 3.78692 5.51991 4.73340
#
# Compressibility (1/GPa) = 0.08987345
#
# Stress axis : x y z
#
# Youngs Moduli (GPa) = 56.51240 7.53455 20.17688
#
# Poissons Ratio (x) = 0.21485 0.10456
# Poissons Ratio (y) = 1.61151 0.43087
# Poissons Ratio (z) = 0.29286 0.16090
#
# Static dielectric constant tensor:
#      x y z
#    x 1.524500 0.000000 0.000000 
#    y 0.000000 1.521040 0.000000 
#    z 0.000000 0.000000 1.493900 
# 
# From -- ./inp_files/28930.got.cif
#   From: 2010.05.17/outbox.ucp.g08.bks.cvg/sg47_15_cif.got.tgz:28930.got - 2010.06.11 16:36:43.
