data_PCOD9389769
_publ_section_title
;
Structure prediction by ZEFSAII (Michael W. Deem and Ramdas Pophale) SiO2 
 PCOD9389769
Probable space group: P N N N
;
_chemical_formula_sum "Si O2"
_cell_formula_units_Z 28
_cell_length_a 12.451048
_cell_length_b 9.541102
_cell_length_c 11.231478
_cell_angle_alpha 90.000000
_cell_angle_beta 90.000000
_cell_angle_gamma 90.000000
_cell_volume 1334.262736
_symmetry_space_group_name_H-M "P N N N"
_symmetry_group_IT_number 48
_space_group.IT_coordinate_system_code '2'
_symmetry_cell_setting 'orthorhombic'
loop_
_space_group_symop_operation_xyz
x,y,z
1/2-x,1/2-y,z
x,1/2-y,1/2-z
1/2-x,y,1/2-z
-x,-y,-z
1/2+x,1/2+y,-z
-x,1/2+y,1/2+z
1/2+x,-y,1/2+z
loop_
_atom_site_type_symbol
_atom_site_label
_atom_site_fract_x
_atom_site_fract_y
_atom_site_fract_z
Si Si1 0.872533 0.909942 0.708552
Si Si2 0.045931 0.037501 0.871481
Si Si3 0.750000 0.490168 0.250000
Si Si4 0.643324 0.825457 0.047393
O O1 0.894720 0.750000 0.750000
O O2 0.750000 0.941456 0.750000
O O3 0.896372 0.909762 0.567194
O O4 0.953463 0.011627 0.776142
O O5 0.149177 0.940518 0.832006
O O6 0.078854 0.199078 0.892238
O O7 0.000000 0.000000 0.000000
O O8 0.816874 0.578143 0.153750
O O9 0.750000 0.750000 0.995203
#
# Coordination Sequence:
#
# PCOD9389769 Si02
#       4
#     8   8   4   8
#     4  11  19  34  58  88 116 155 201 244 303 370
#     4  11  20  34  61  86 113 155 202 244 303 360
#     4  10  23  40  61  88 113 152 208 252 303 372
#     4  10  18  36  59  82 115 151 197 252 291 359
#
# _framework density 20.985371000000001
#
# number of rings (size 3 to 8) (size 9 to 14) (size 15 to 20)
#    0.000    1.429    5.714    5.571    0.000    1.143 
#    0.000    0.714    0.000   10.286    0.000    0.000 
#    0.000    0.000    0.000    0.000    0.000    0.000 
#
# Total GULP energy -155943.054367 kJ/mol
# GULP energy per Si atom -5569.394799 kJ/mol
# Density = 2.093761 g / cm^3
# Si number density = 20.985371 Si / 1000 Ang^3
#
#
#
# Elastic Constant Matrix: (Units=GPa)
#
#
# Indices 1 2 3 4 5 6 
#
# 1 131.7042 36.7107 51.8915 0.0000 0.0000 0.0000
# 2 36.7107 24.2192 28.7807 0.0000 0.0000 0.0000
# 3 51.8915 28.7807 179.3000 0.0000 0.0000 0.0000
# 4 0.0000 0.0000 0.0000 24.9780 0.0000 0.0000
# 5 0.0000 0.0000 0.0000 0.0000 45.1886 0.0000
# 6 0.0000 0.0000 0.0000 0.0000 0.0000 25.0841
#
#
#
# Elastic Compliance Matrix: (Units=1/GPa)
#
#
# Indices 1 2 3 4 5 6 
#
# 1 0.013230 -0.019157 -0.000754 0.000000 0.000000 0.000000
# 2 -0.019157 0.078763 -0.007098 0.000000 0.000000 0.000000
# 3 -0.000754 -0.007098 0.006935 0.000000 0.000000 0.000000
# 4 0.000000 0.000000 0.000000 0.040035 0.000000 0.000000
# 5 0.000000 0.000000 0.000000 0.000000 0.022129 0.000000
# 6 0.000000 0.000000 0.000000 0.000000 0.000000 0.039866
#
#
# Mechanical properties :
#
#
# Convention : Reuss Voigt Hill
#
# Bulk Modulus (GPa) = 22.26756 63.33214 42.79985
# Shear Modulus (GPa) = 18.52221 33.57283 26.04752
#
# Velocity S-wave (km/s) = 2.97412 4.00412 3.52692
# Velocity P-wave (km/s) = 4.73581 7.18484 6.08481
#
# Compressibility (1/GPa) = 0.04490837
#
# Stress axis : x y z
#
# Youngs Moduli (GPa) = 75.58833 12.69634 144.20024
#
# Poissons Ratio (x) = 0.24323 0.10869
# Poissons Ratio (y) = 1.44807 1.02360
# Poissons Ratio (z) = 0.05697 0.09012
#
# Static dielectric constant tensor:
#      x y z
#    x 1.852140 0.000000 0.000000 
#    y 0.000000 1.750640 0.000000 
#    z 0.000000 0.000000 1.814510 
# 
# From -- ./inp_files/19341.got.cif
#   From: 2010.05.17/outbox.cif.g08.bks.cpg/sg48_10_cif.got.tgz:19341.got - 2010.06.03 20:39:00.
