data_PCOD9389403
_publ_section_title
;
Structure prediction by ZEFSAII (Michael W. Deem and Ramdas Pophale) SiO2 
 PCOD9389403
Probable space group: P M M M
;
_chemical_formula_sum "Si O2"
_cell_formula_units_Z 48
_cell_length_a 30.000000
_cell_length_b 9.000000
_cell_length_c 9.000000
_cell_angle_alpha 90.000000
_cell_angle_beta 90.000000
_cell_angle_gamma 90.000000
_cell_volume 2430.000000
_symmetry_space_group_name_H-M "P M M M"
_symmetry_group_IT_number 47
_symmetry_cell_setting 'orthorhombic'
loop_
_space_group_symop_operation_xyz
x,y,z
-x,-y,z
x,-y,-z
-x,y,-z
-x,-y,-z
x,y,-z
-x,y,z
x,-y,z
loop_
_atom_site_type_symbol
_atom_site_label
_atom_site_fract_x
_atom_site_fract_y
_atom_site_fract_z
Si Si1 0.906049 0.677745 0.168290
Si Si2 0.000000 0.328931 0.181773
Si Si3 0.420040 0.832296 0.326111
Si Si4 0.500000 0.329130 0.826018
Si Si5 0.830106 0.837945 0.322589
Si Si6 0.653284 0.670406 0.831357
Si Si7 0.254600 0.333414 0.673412
O O1 0.910387 0.500000 0.162424
O O2 0.865678 0.721905 0.268487
O O3 0.953210 0.740376 0.225418
O O4 0.898414 0.730021 0.000000
O O5 0.000000 0.500000 0.234524
O O6 0.000000 0.333620 0.000000
O O7 0.428313 0.824456 0.500000
O O8 0.456348 0.739801 0.241674
O O9 0.372402 0.769581 0.284876
O O10 0.423761 0.000000 0.275717
O O11 0.500000 0.500000 0.790434
O O12 0.500000 0.306630 0.000000
O O13 0.830179 0.841286 0.500000
O O14 0.781183 0.786374 0.279233
O O15 0.841305 0.000000 0.263349
O O16 0.636925 0.500000 0.821904
O O17 0.704164 0.669978 0.782937
O O18 0.646670 0.721425 0.000000
O O19 0.267974 0.309911 0.500000
O O20 0.234737 0.500000 0.678942
#
# Coordination Sequence:
#
# PCOD9389403 Si02
#       7
#     8   4   8   4   8   8   8
#     4   9  17  31  53  77  99 127 167 214 261 310
#     4   7  12  26  48  73  98 124 160 209 260 307
#     4  11  24  40  59  85 116 150 188 226 266 317
#     4  11  24  41  62  88 116 147 186 231 276 320
#     4  10  21  35  50  72 105 141 174 211 258 312
#     4  10  21  37  58  85 114 142 176 220 269 320
#     4   9  18  34  55  76 101 138 181 221 261 308
#
# _framework density 19.753086
#
# number of rings (size 3 to 8) (size 9 to 14) (size 15 to 20)
#    0.000    2.333    0.000    3.500    0.000    8.667 
#    0.000    4.167    0.000    4.000    0.000    0.000 
#    0.000    0.000    0.000    0.000    0.000    0.000 
#
# Total GULP energy -267319.566728 kJ/mol
# GULP energy per Si atom -5569.157640 kJ/mol
# Density = 1.970813 g / cm^3
# Si number density = 19.753086 Si / 1000 Ang^3
#
#
#
# Elastic Constant Matrix: (Units=GPa)
#
#
# Indices 1 2 3 4 5 6 
#
# 1 58.0581 41.8380 20.6421 0.0000 0.0000 0.0000
# 2 41.8380 41.9758 35.9108 0.0000 0.0000 0.0000
# 3 20.6421 35.9108 -28.8262 0.0000 0.0000 0.0000
# 4 0.0000 0.0000 0.0000 6.9124 0.0000 0.0000
# 5 0.0000 0.0000 0.0000 0.0000 24.0020 0.0000
# 6 0.0000 0.0000 0.0000 0.0000 0.0000 45.9997
#
#
#
# Elastic Compliance Matrix: (Units=1/GPa)
#
#
# Indices 1 2 3 4 5 6 
#
# 1 0.049475 -0.038544 -0.012588 0.000000 0.000000 0.000000
# 2 -0.038544 0.041560 0.024173 0.000000 0.000000 0.000000
# 3 -0.012588 0.024173 -0.013590 0.000000 0.000000 0.000000
# 4 0.000000 0.000000 0.000000 0.144667 0.000000 0.000000
# 5 0.000000 0.000000 0.000000 0.000000 0.041663 0.000000
# 6 0.000000 0.000000 0.000000 0.000000 0.000000 0.021739
#
#
# Mechanical properties :
#
#
# Convention : Reuss Voigt Hill
#
# Bulk Modulus (GPa) = 42.50235 29.77663 36.13949
# Shear Modulus (GPa) = 14.39789 13.57060 13.98425
#
# Velocity S-wave (km/s) = 2.70273 2.62393 2.66362
# Velocity P-wave (km/s) = 5.59493 4.92820 5.27211
#
# Compressibility (1/GPa) = 0.02352811
#
# Stress axis : x y z
#
# Youngs Moduli (GPa) = 20.21220 24.06174 -73.58162
#
# Poissons Ratio (x) = 0.92743 -0.92624
# Poissons Ratio (y) = 0.77905 1.77871
# Poissons Ratio (z) = 0.25443 -0.58165
#
# Static dielectric constant tensor:
#      x y z
#    x 1.703930 0.000000 0.000000 
#    y 0.000000 1.750460 0.000000 
#    z 0.000000 0.000000 1.668320 
# 
# From -- ./inp_files/2584.got.cif
#   From: 2010.05.17/outbox.ucp.g08.bks.cvg/sg47_2_cif.got.tgz:2584.got - 2010.06.11 16:36:43.
