data_PCOD9389781
_publ_section_title
;
Structure prediction by ZEFSAII (Michael W. Deem and Ramdas Pophale) SiO2 
 PCOD9389781
Probable space group: P N N N
;
_chemical_formula_sum "Si O2"
_cell_formula_units_Z 26
_cell_length_a 4.908813
_cell_length_b 12.509570
_cell_length_c 18.353523
_cell_angle_alpha 90.000000
_cell_angle_beta 90.000000
_cell_angle_gamma 90.000000
_cell_volume 1127.037353
_symmetry_space_group_name_H-M "P N N N"
_symmetry_group_IT_number 48
_space_group.IT_coordinate_system_code '2'
_symmetry_cell_setting 'orthorhombic'
loop_
_space_group_symop_operation_xyz
x,y,z
1/2-x,1/2-y,z
x,1/2-y,1/2-z
1/2-x,y,1/2-z
-x,-y,-z
1/2+x,1/2+y,-z
-x,1/2+y,1/2+z
1/2+x,-y,1/2+z
loop_
_atom_site_type_symbol
_atom_site_label
_atom_site_fract_x
_atom_site_fract_y
_atom_site_fract_z
Si Si1 0.250000 0.750000 0.895662
Si Si2 0.555301 0.351771 0.618420
Si Si3 0.250000 0.250000 0.496914
Si Si4 0.250000 0.250000 0.750000
Si Si5 0.999034 0.940784 0.697832
O O1 0.499372 0.714292 0.947025
O O2 0.127324 0.656624 0.846506
O O3 0.750000 0.250000 0.602007
O O4 0.345182 0.344357 0.551682
O O5 0.431707 0.316910 0.695602
O O6 0.623463 0.473124 0.639351
O O7 0.250000 0.978729 0.750000
O O8 0.750000 0.909192 0.750000
#
# Coordination Sequence:
#
# PCOD9389781 Si02
#       5
#     4   8   4   2   8
#     4  12  27  50  70 103 158 200 260 296 362 473
#     4  11  23  43  72 111 149 184 252 310 388 448
#     4  11  26  47  71 108 149 212 236 308 383 452
#     4  10  18  36  68 100 146 178 234 314 370 436
#     4  12  27  47  78 111 143 201 254 322 377 436
#
# _framework density 23.069333
#
# number of rings (size 3 to 8) (size 9 to 14) (size 15 to 20)
#    0.000    0.615    3.077    4.615    4.308    3.692 
#    0.000    0.000    0.000    0.000    0.000    0.000 
#    0.000    0.000    0.000    0.000    0.000    0.000 
#
# Total GULP energy -145130.768767 kJ/mol
# GULP energy per Si atom -5581.952645 kJ/mol
# Density = 2.301683 g / cm^3
# Si number density = 23.069333 Si / 1000 Ang^3
#
#
#
# Elastic Constant Matrix: (Units=GPa)
#
#
# Indices 1 2 3 4 5 6 
#
# 1 141.3805 47.0590 77.8005 0.0000 0.0000 0.0000
# 2 47.0590 137.7727 76.0643 0.0000 0.0000 0.0000
# 3 77.8005 76.0643 146.7177 0.0000 0.0000 0.0000
# 4 0.0000 0.0000 0.0000 11.0792 0.0000 0.0000
# 5 0.0000 0.0000 0.0000 0.0000 77.3527 0.0000
# 6 0.0000 0.0000 0.0000 0.0000 0.0000 24.7866
#
#
#
# Elastic Compliance Matrix: (Units=1/GPa)
#
#
# Indices 1 2 3 4 5 6 
#
# 1 0.010034 -0.000686 -0.004965 0.000000 0.000000 0.000000
# 2 -0.000686 0.010216 -0.004933 0.000000 0.000000 0.000000
# 3 -0.004965 -0.004933 0.012006 0.000000 0.000000 0.000000
# 4 0.000000 0.000000 0.000000 0.090259 0.000000 0.000000
# 5 0.000000 0.000000 0.000000 0.000000 0.012928 0.000000
# 6 0.000000 0.000000 0.000000 0.000000 0.000000 0.040344
#
#
# Mechanical properties :
#
#
# Convention : Reuss Voigt Hill
#
# Bulk Modulus (GPa) = 90.18478 91.96872 91.07675
# Shear Modulus (GPa) = 24.91907 37.64017 31.27962
#
# Velocity S-wave (km/s) = 3.29018 4.04370 3.68624
# Velocity P-wave (km/s) = 7.32199 7.85842 7.59494
#
# Compressibility (1/GPa) = 0.01108834
#
# Stress axis : x y z
#
# Youngs Moduli (GPa) = 99.66522 97.88635 83.29331
#
# Poissons Ratio (x) = 0.06716 0.41354
# Poissons Ratio (y) = 0.06838 0.41085
# Poissons Ratio (z) = 0.49482 0.48283
#
# Static dielectric constant tensor:
#      x y z
#    x 1.935850 0.000000 0.000000 
#    y 0.000000 1.978730 0.000000 
#    z 0.000000 0.000000 1.855570 
# 
# From -- ./inp_files/32598.got.cif
#   From: 2010.05.17/outbox.cif.g08.bks.cpg/sg48_17_cif.got.tgz:32598.got - 2010.06.03 20:39:00.
