data_PCOD9389904
_publ_section_title
;
Structure prediction by ZEFSAII (Michael W. Deem and Ramdas Pophale) SiO2 
 PCOD9389904
Probable space group: P N N N
;
_chemical_formula_sum "Si O2"
_cell_formula_units_Z 48
_cell_length_a 11.842072
_cell_length_b 12.884707
_cell_length_c 15.465721
_cell_angle_alpha 90.000000
_cell_angle_beta 90.000000
_cell_angle_gamma 90.000000
_cell_volume 2359.784888
_symmetry_space_group_name_H-M "P N N N"
_symmetry_group_IT_number 48
_space_group.IT_coordinate_system_code '2'
_symmetry_cell_setting 'orthorhombic'
loop_
_space_group_symop_operation_xyz
x,y,z
1/2-x,1/2-y,z
x,1/2-y,1/2-z
1/2-x,y,1/2-z
-x,-y,-z
1/2+x,1/2+y,-z
-x,1/2+y,1/2+z
1/2+x,-y,1/2+z
loop_
_atom_site_type_symbol
_atom_site_label
_atom_site_fract_x
_atom_site_fract_y
_atom_site_fract_z
Si Si1 0.024273 0.892547 0.385901
Si Si2 0.677225 0.477021 0.469089
Si Si3 0.340673 0.527044 0.826768
Si Si4 0.425221 0.451061 0.247656
Si Si5 0.264476 0.371899 0.383563
Si Si6 0.371063 0.212838 0.650324
O O1 0.118455 0.905597 0.459145
O O2 0.972726 0.778232 0.389131
O O3 0.065823 0.933788 0.291754
O O4 0.921173 0.970922 0.410642
O O5 0.772214 0.428060 0.408035
O O6 0.728766 0.569771 0.526221
O O7 0.250000 0.517197 0.750000
O O8 0.453644 0.579113 0.790853
O O9 0.377052 0.410287 0.853168
O O10 0.380852 0.387001 0.330215
O O11 0.332014 0.428244 0.174247
O O12 0.250000 0.250000 0.391706
O O13 0.250000 0.250000 0.614862
O O14 0.371086 0.250000 0.750000
#
# Coordination Sequence:
#
# PCOD9389904 Si02
#       6
#     8   8   8   8   8   8
#     4  10  19  33  54  87 119 155 186 237 292 349
#     4  10  21  34  55  89 120 149 189 241 300 340
#     4  12  20  33  58  92 120 154 190 242 293 356
#     4  10  19  37  59  84 115 152 195 238 292 347
#     4  10  23  40  63  89 110 148 206 253 285 341
#     4  11  16  28  52  88 118 141 193 237 279 343
#
# _framework density 20.340835999999999
#
# number of rings (size 3 to 8) (size 9 to 14) (size 15 to 20)
#    0.000    1.500    6.667    1.000    2.333    0.667 
#    0.000    0.000    0.000   19.000   13.000    0.000 
#    0.000    0.000    0.000    0.000    0.000    0.000 
#
# Total GULP energy -267768.743076 kJ/mol
# GULP energy per Si atom -5578.515481 kJ/mol
# Density = 2.029454 g / cm^3
# Si number density = 20.340836 Si / 1000 Ang^3
#
#
#
# Elastic Constant Matrix: (Units=GPa)
#
#
# Indices 1 2 3 4 5 6 
#
# 1 122.9189 34.8604 59.4261 0.0000 0.0000 0.0000
# 2 34.8604 29.4502 14.8254 0.0000 0.0000 0.0000
# 3 59.4261 14.8254 104.0645 0.0000 0.0000 0.0000
# 4 0.0000 0.0000 0.0000 11.4529 0.0000 0.0000
# 5 0.0000 0.0000 0.0000 0.0000 40.4825 0.0000
# 6 0.0000 0.0000 0.0000 0.0000 0.0000 19.9966
#
#
#
# Elastic Compliance Matrix: (Units=1/GPa)
#
#
# Indices 1 2 3 4 5 6 
#
# 1 0.015748 -0.015204 -0.006827 0.000000 0.000000 0.000000
# 2 -0.015204 0.051258 0.001380 0.000000 0.000000 0.000000
# 3 -0.006827 0.001380 0.013311 0.000000 0.000000 0.000000
# 4 0.000000 0.000000 0.000000 0.087314 0.000000 0.000000
# 5 0.000000 0.000000 0.000000 0.000000 0.024702 0.000000
# 6 0.000000 0.000000 0.000000 0.000000 0.000000 0.050009
#
#
# Mechanical properties :
#
#
# Convention : Reuss Voigt Hill
#
# Bulk Modulus (GPa) = 25.63101 52.73970 39.18535
# Shear Modulus (GPa) = 16.85494 24.20786 20.53140
#
# Velocity S-wave (km/s) = 2.88171 3.45354 3.18050
# Velocity P-wave (km/s) = 4.86831 6.47201 5.72657
#
# Compressibility (1/GPa) = 0.03901524
#
# Stress axis : x y z
#
# Youngs Moduli (GPa) = 63.50055 19.50907 75.12432
#
# Poissons Ratio (x) = 0.29662 0.51286
# Poissons Ratio (y) = 0.96548 -0.10367
# Poissons Ratio (z) = 0.43350 -0.02692
#
# Static dielectric constant tensor:
#      x y z
#    x 1.756130 0.000000 0.000000 
#    y 0.000000 1.734760 0.000000 
#    z 0.000000 0.000000 1.757680 
# 
# From -- ./inp_files/31029.got.cif
#   From: 2010.05.17/outbox.cif.g08.bks.cpg/sg48_16_cif.got.tgz:31029.got - 2010.06.03 20:39:00.
