data_PCOD9389198
_publ_section_title
;
Structure prediction by ZEFSAII (Michael W. Deem and Ramdas Pophale) SiO2 
 PCOD9389198
Probable space group: P M M M
;
_chemical_formula_sum "Si O2"
_cell_formula_units_Z 52
_cell_length_a 9.345725
_cell_length_b 18.870781
_cell_length_c 18.677415
_cell_angle_alpha 90.000000
_cell_angle_beta 90.000000
_cell_angle_gamma 90.000000
_cell_volume 3293.970010
_symmetry_space_group_name_H-M "P M M M"
_symmetry_group_IT_number 47
_symmetry_cell_setting 'orthorhombic'
loop_
_space_group_symop_operation_xyz
x,y,z
-x,-y,z
x,-y,-z
-x,y,-z
-x,-y,-z
x,y,-z
-x,y,z
x,-y,z
loop_
_atom_site_type_symbol
_atom_site_label
_atom_site_fract_x
_atom_site_fract_y
_atom_site_fract_z
Si Si1 0.336095 0.140873 0.291402
Si Si2 0.829393 0.078495 0.162236
Si Si3 0.171582 0.223438 0.916899
Si Si4 0.825804 0.500000 0.417913
Si Si5 0.828741 0.357104 0.663208
Si Si6 0.170543 0.791082 0.416553
Si Si7 0.664274 0.292638 0.209124
O O1 0.500000 0.118732 0.301444
O O2 0.251564 0.090620 0.236969
O O3 0.255732 0.155192 0.365764
O O4 0.335863 0.217179 0.251040
O O5 0.792818 0.143417 0.109564
O O6 0.000000 0.082870 0.174892
O O7 0.797187 0.000000 0.133508
O O8 0.253208 0.276886 0.864396
O O9 0.000000 0.232006 0.908630
O O10 0.208008 0.232296 0.000000
O O11 0.775896 0.500000 0.500000
O O12 0.783442 0.571274 0.376635
O O13 0.000000 0.500000 0.419876
O O14 0.801636 0.288589 0.612806
O O15 0.747601 0.344838 0.737670
O O16 0.000000 0.359466 0.675597
O O17 0.208282 0.796254 0.500000
O O18 0.000000 0.803027 0.409010
O O19 0.500000 0.313648 0.197651
#
# Coordination Sequence:
#
# PCOD9389198 Si02
#       7
#     8   8   8   4   8   8   8
#     4   9  17  28  42  60  82 110 145 183 218 253
#     4   9  17  29  45  64  87 116 145 171 206 257
#     4   9  17  29  46  69  94 116 141 177 218 258
#     4   9  16  26  43  69  98 125 154 187 221 258
#     4   9  16  27  44  65  90 120 152 183 215 256
#     4   9  16  26  42  63  85 110 142 181 223 262
#     4   9  17  29  44  62  86 117 152 185 216 254
#
# _framework density 15.786422
#
# number of rings (size 3 to 8) (size 9 to 14) (size 15 to 20)
#    0.000    3.000    0.000    1.385    0.000    6.769 
#    0.000    1.923    0.000    2.308    0.000    8.077 
#    0.000    4.308    0.000    0.000    0.000    0.000 
#
# Total GULP energy -289618.960969 kJ/mol
# GULP energy per Si atom -5569.595403 kJ/mol
# Density = 1.575049 g / cm^3
# Si number density = 15.786422 Si / 1000 Ang^3
#
#
#
# Elastic Constant Matrix: (Units=GPa)
#
#
# Indices 1 2 3 4 5 6 
#
# 1 38.6535 18.7647 56.0505 0.0000 0.0000 0.0000
# 2 18.7647 42.5154 36.8305 0.0000 0.0000 0.0000
# 3 56.0505 36.8305 147.1228 0.0000 0.0000 0.0000
# 4 0.0000 0.0000 0.0000 17.0892 0.0000 0.0000
# 5 0.0000 0.0000 0.0000 0.0000 8.8536 0.0000
# 6 0.0000 0.0000 0.0000 0.0000 0.0000 10.6244
#
#
#
# Elastic Compliance Matrix: (Units=1/GPa)
#
#
# Indices 1 2 3 4 5 6 
#
# 1 0.060144 -0.008550 -0.020773 0.000000 0.000000 0.000000
# 2 -0.008550 0.031250 -0.004566 0.000000 0.000000 0.000000
# 3 -0.020773 -0.004566 0.015854 0.000000 0.000000 0.000000
# 4 0.000000 0.000000 0.000000 0.058516 0.000000 0.000000
# 5 0.000000 0.000000 0.000000 0.000000 0.112948 0.000000
# 6 0.000000 0.000000 0.000000 0.000000 0.000000 0.094123
#
#
# Mechanical properties :
#
#
# Convention : Reuss Voigt Hill
#
# Bulk Modulus (GPa) = 25.33530 50.17591 37.75560
# Shear Modulus (GPa) = 11.01880 15.08986 13.05433
#
# Velocity S-wave (km/s) = 2.64482 3.09508 2.87877
# Velocity P-wave (km/s) = 5.04087 6.68026 5.91761
#
# Compressibility (1/GPa) = 0.03947062
#
# Stress axis : x y z
#
# Youngs Moduli (GPa) = 16.62664 32.00039 63.07469
#
# Poissons Ratio (x) = 0.27359 1.31027
# Poissons Ratio (y) = 0.14215 0.28798
# Poissons Ratio (z) = 0.34539 0.14611
#
# Static dielectric constant tensor:
#      x y z
#    x 1.527740 0.000000 0.000000 
#    y 0.000000 1.521100 0.000000 
#    z 0.000000 0.000000 1.507870 
# 
# From -- ./inp_files/9513.got.cif
#   From: 2010.05.17/outbox.cif.g08.bks.cpg/sg47_5_cif.got.tgz:9513.got - 2010.06.03 20:15:42.
