data_PCOD9389253
_publ_section_title
;
Structure prediction by ZEFSAII (Michael W. Deem and Ramdas Pophale) SiO2 
 PCOD9389253
Probable space group: P M M M
;
_chemical_formula_sum "Si O2"
_cell_formula_units_Z 36
_cell_length_a 9.000000
_cell_length_b 15.000000
_cell_length_c 15.000000
_cell_angle_alpha 90.000000
_cell_angle_beta 90.000000
_cell_angle_gamma 90.000000
_cell_volume 2025.000000
_symmetry_space_group_name_H-M "P M M M"
_symmetry_group_IT_number 47
_symmetry_cell_setting 'orthorhombic'
loop_
_space_group_symop_operation_xyz
x,y,z
-x,-y,z
x,-y,-z
-x,y,-z
-x,-y,-z
x,y,-z
-x,y,z
x,-y,z
loop_
_atom_site_type_symbol
_atom_site_label
_atom_site_fract_x
_atom_site_fract_y
_atom_site_fract_z
Si Si1 0.178900 0.399303 0.682931
Si Si2 0.326371 0.903000 0.106264
Si Si3 0.819101 0.896838 0.599790
Si Si4 0.331216 0.608426 0.500000
Si Si5 0.821741 0.224099 0.764018
O O1 0.229323 0.500000 0.700759
O O2 0.243189 0.367435 0.588635
O O3 0.224557 0.326361 0.754552
O O4 0.000000 0.400290 0.676212
O O5 0.500000 0.897288 0.129983
O O6 0.238310 0.824111 0.150081
O O7 0.269203 0.000000 0.137179
O O8 0.316393 0.900889 0.000000
O O9 0.770814 0.870442 0.500000
O O10 0.768066 0.832356 0.678162
O O11 0.000000 0.894865 0.599792
O O12 0.775884 0.000000 0.614962
O O13 0.335193 0.500000 0.500000
O O14 0.500000 0.640979 0.500000
O O15 0.000000 0.221147 0.763480
#
# Coordination Sequence:
#
# PCOD9389253 Si02
#       5
#     8   8   8   4   8
#     4   9  18  31  46  67  98 133 166 205 253 296
#     4   9  19  36  55  74  99 129 156 190 246 307
#     4   8  14  24  38  60  92 124 152 187 231 277
#     4   9  17  29  45  65  90 125 172 217 249 280
#     4  10  19  29  49  75  96 125 167 208 241 285
#
# _framework density 17.777778000000001
#
# number of rings (size 3 to 8) (size 9 to 14) (size 15 to 20)
#    0.000    3.000    0.000    2.333    1.556    4.000 
#    0.000    1.111    0.000    0.667    0.000    7.778 
#    0.000    0.000    0.000    0.000    0.000    0.000 
#
# Total GULP energy -200497.465367 kJ/mol
# GULP energy per Si atom -5569.374038 kJ/mol
# Density = 1.773731 g / cm^3
# Si number density = 17.777778 Si / 1000 Ang^3
#
#
#
# Elastic Constant Matrix: (Units=GPa)
#
#
# Indices 1 2 3 4 5 6 
#
# 1 -8.1442 28.4967 13.2339 0.0000 0.0000 0.0000
# 2 28.4967 98.7122 38.5119 0.0000 0.0000 0.0000
# 3 13.2339 38.5119 23.8063 0.0000 0.0000 0.0000
# 4 0.0000 0.0000 0.0000 10.2542 0.0000 0.0000
# 5 0.0000 0.0000 0.0000 0.0000 40.6514 0.0000
# 6 0.0000 0.0000 0.0000 0.0000 0.0000 9.5723
#
#
#
# Elastic Compliance Matrix: (Units=1/GPa)
#
#
# Indices 1 2 3 4 5 6 
#
# 1 -0.059239 0.011532 0.014276 0.000000 0.000000 0.000000
# 2 0.011532 0.025220 -0.047209 0.000000 0.000000 0.000000
# 3 0.014276 -0.047209 0.110440 0.000000 0.000000 0.000000
# 4 0.000000 0.000000 0.000000 0.097521 0.000000 0.000000
# 5 0.000000 0.000000 0.000000 0.000000 0.024599 0.000000
# 6 0.000000 0.000000 0.000000 0.000000 0.000000 0.104468
#
#
# Mechanical properties :
#
#
# Convention : Reuss Voigt Hill
#
# Bulk Modulus (GPa) = 29.74578 30.53993 30.14285
# Shear Modulus (GPa) = 14.00492 14.37102 14.18797
#
# Velocity S-wave (km/s) = 2.80978 2.84627 2.82808
# Velocity P-wave (km/s) = 5.22444 5.29317 5.25892
#
# Compressibility (1/GPa) = 0.03361821
#
# Stress axis : x y z
#
# Youngs Moduli (GPa) = -16.88070 39.65175 9.05468
#
# Poissons Ratio (x) = -0.45726 -0.12926
# Poissons Ratio (y) = 0.19467 0.42746
# Poissons Ratio (z) = 0.24098 1.87191
#
# Static dielectric constant tensor:
#      x y z
#    x 1.595350 0.000000 0.000000 
#    y 0.000000 1.644560 0.000000 
#    z 0.000000 0.000000 1.597320 
# 
# From -- ./inp_files/5477.got.cif
#   From: 2010.05.17/outbox.ucp.g08.bks.cvg/sg47_3_cif.got.tgz:5477.got - 2010.06.11 16:36:43.
