data_PCOD9389651
_publ_section_title
;
Structure prediction by ZEFSAII (Michael W. Deem and Ramdas Pophale) SiO2 
 PCOD9389651
Probable space group: P N N N
;
_chemical_formula_sum "Si O2"
_cell_formula_units_Z 60
_cell_length_a 20.034350
_cell_length_b 9.761179
_cell_length_c 15.493201
_cell_angle_alpha 90.000000
_cell_angle_beta 90.000000
_cell_angle_gamma 90.000000
_cell_volume 3029.832981
_symmetry_space_group_name_H-M "P N N N"
_symmetry_group_IT_number 48
_space_group.IT_coordinate_system_code '2'
_symmetry_cell_setting 'orthorhombic'
loop_
_space_group_symop_operation_xyz
x,y,z
1/2-x,1/2-y,z
x,1/2-y,1/2-z
1/2-x,y,1/2-z
-x,-y,-z
1/2+x,1/2+y,-z
-x,1/2+y,1/2+z
1/2+x,-y,1/2+z
loop_
_atom_site_type_symbol
_atom_site_label
_atom_site_fract_x
_atom_site_fract_y
_atom_site_fract_z
Si Si1 0.547548 0.045027 0.757668
Si Si2 0.673840 0.582713 0.422799
Si Si3 0.933430 0.969822 0.554902
Si Si4 0.508639 0.300573 0.071676
Si Si5 0.079498 0.567579 0.425825
Si Si6 0.004501 0.750000 0.750000
Si Si7 0.390080 0.407532 0.754806
Si Si8 0.830739 0.585627 0.436268
O O1 0.570362 0.054551 0.856529
O O2 0.587985 0.103363 0.675647
O O3 0.542270 0.881355 0.747442
O O4 0.470053 0.090330 0.753022
O O5 0.631355 0.512151 0.497450
O O6 0.643992 0.533883 0.330986
O O7 0.752273 0.557254 0.428921
O O8 0.662453 0.747893 0.436012
O O9 0.947642 0.806870 0.569537
O O10 0.000000 0.000000 0.500000
O O11 0.479477 0.453455 0.079612
O O12 0.544744 0.256837 0.160646
O O13 0.552413 0.308735 0.985424
O O14 0.136631 0.490493 0.481350
O O15 0.367426 0.250000 0.750000
O O16 0.367405 0.461653 0.847882
#
# Coordination Sequence:
#
# PCOD9389651 Si02
#       8
#     8   8   8   8   8   4   8   8
#     4  10  20  30  50  76 105 136 170 221 265 307
#     4  10  20  33  50  76 108 143 170 209 266 323
#     4  11  20  34  50  75 107 138 171 217 271 318
#     4   9  17  29  49  73 101 130 172 217 260 298
#     4  10  18  31  51  74 101 134 177 222 253 304
#     4   8  16  28  42  70 100 130 160 202 260 300
#     4  10  19  31  51  80 107 132 170 217 268 316
#     4  10  19  33  52  75 108 139 174 211 259 322
#
# _framework density 19.803072
#
# number of rings (size 3 to 8) (size 9 to 14) (size 15 to 20)
#    0.000    2.133    2.667    2.800    1.867    1.600 
#    0.000    0.667    0.000    2.400    0.000    0.933 
#    0.000    3.200    0.000    0.000    0.000    0.000 
#
# Total GULP energy -334054.945636 kJ/mol
# GULP energy per Si atom -5567.582427 kJ/mol
# Density = 1.975800 g / cm^3
# Si number density = 19.803072 Si / 1000 Ang^3
#
#
#
# Elastic Constant Matrix: (Units=GPa)
#
#
# Indices 1 2 3 4 5 6 
#
# 1 92.5819 4.6788 79.7951 0.0000 0.0000 0.0000
# 2 4.6788 27.7149 19.9295 0.0000 0.0000 0.0000
# 3 79.7951 19.9295 219.0212 0.0000 0.0000 0.0000
# 4 0.0000 0.0000 0.0000 22.7672 0.0000 0.0000
# 5 0.0000 0.0000 0.0000 0.0000 23.9026 0.0000
# 6 0.0000 0.0000 0.0000 0.0000 0.0000 21.8075
#
#
#
# Elastic Compliance Matrix: (Units=1/GPa)
#
#
# Indices 1 2 3 4 5 6 
#
# 1 0.015810 0.001576 -0.005903 0.000000 0.000000 0.000000
# 2 0.001576 0.038765 -0.004102 0.000000 0.000000 0.000000
# 3 -0.005903 -0.004102 0.007090 0.000000 0.000000 0.000000
# 4 0.000000 0.000000 0.000000 0.043923 0.000000 0.000000
# 5 0.000000 0.000000 0.000000 0.000000 0.041836 0.000000
# 6 0.000000 0.000000 0.000000 0.000000 0.000000 0.045856
#
#
# Mechanical properties :
#
#
# Convention : Reuss Voigt Hill
#
# Bulk Modulus (GPa) = 22.31812 60.90274 41.61043
# Shear Modulus (GPa) = 22.21508 29.35642 25.78575
#
# Velocity S-wave (km/s) = 3.35296 3.85439 3.61239
# Velocity P-wave (km/s) = 5.12682 7.11544 6.20136
#
# Compressibility (1/GPa) = 0.04480663
#
# Stress axis : x y z
#
# Youngs Moduli (GPa) = 63.25310 25.79651 141.05018
#
# Poissons Ratio (x) = -0.04066 0.83265
# Poissons Ratio (y) = -0.09969 0.57852
# Poissons Ratio (z) = 0.37340 0.10581
#
# Static dielectric constant tensor:
#      x y z
#    x 1.643310 0.000000 0.000000 
#    y 0.000000 1.785880 0.000000 
#    z 0.000000 0.000000 1.856160 
# 
# From -- ./inp_files/21670.got.cif
#   From: 2010.05.17/outbox.cif.g08.bks.cpg/sg48_11_cif.got.tgz:21670.got - 2010.06.03 20:39:00.
