data_PCOD9389967
_publ_section_title
;
Structure prediction by ZEFSAII (Michael W. Deem and Ramdas Pophale) SiO2 
 PCOD9389967
Probable space group: P N N N
;
_chemical_formula_sum "Si O2"
_cell_formula_units_Z 40
_cell_length_a 16.162097
_cell_length_b 13.884428
_cell_length_c 7.375128
_cell_angle_alpha 90.000000
_cell_angle_beta 90.000000
_cell_angle_gamma 90.000000
_cell_volume 1654.989580
_symmetry_space_group_name_H-M "P N N N"
_symmetry_group_IT_number 48
_space_group.IT_coordinate_system_code '2'
_symmetry_cell_setting 'orthorhombic'
loop_
_space_group_symop_operation_xyz
x,y,z
1/2-x,1/2-y,z
x,1/2-y,1/2-z
1/2-x,y,1/2-z
-x,-y,-z
1/2+x,1/2+y,-z
-x,1/2+y,1/2+z
1/2+x,-y,1/2+z
loop_
_atom_site_type_symbol
_atom_site_label
_atom_site_fract_x
_atom_site_fract_y
_atom_site_fract_z
Si Si1 0.058245 0.372760 0.554898
Si Si2 0.909322 0.643089 0.036808
Si Si3 0.955417 0.134446 0.270846
Si Si4 0.716505 0.148417 0.045365
Si Si5 0.262647 0.054614 0.530038
O O1 0.062363 0.399339 0.768202
O O2 0.069956 0.256648 0.547330
O O3 0.146344 0.410296 0.482760
O O4 0.976530 0.398692 0.436269
O O5 0.814039 0.624099 0.986625
O O6 0.964937 0.601357 0.879355
O O7 0.952225 0.250000 0.250000
O O8 0.878489 0.121310 0.407576
O O9 0.750000 0.250000 0.965169
O O10 0.750000 0.153332 0.250000
O O11 0.752985 0.053220 0.957052
O O12 0.250000 0.049268 0.750000
#
# Coordination Sequence:
#
# PCOD9389967 Si02
#       5
#     8   8   8   8   8
#     4   9  18  34  58  89 121 147 186 243 298 352
#     4   9  18  33  57  90 124 147 185 244 298 353
#     4  10  19  34  61  88 111 154 198 238 298 336
#     4  10  19  36  60  80 113 162 204 236 280 351
#     4   9  18  33  54  85 117 159 191 228 302 348
#
# _framework density 24.169336000000001
#
# number of rings (size 3 to 8) (size 9 to 14) (size 15 to 20)
#    0.000    2.600    2.000    0.600    0.000    4.000 
#    0.000   12.000    0.000    9.600    0.000    0.000 
#    0.000    0.000    0.000    0.000    0.000    0.000 
#
# Total GULP energy -222795.417634 kJ/mol
# GULP energy per Si atom -5569.885441 kJ/mol
# Density = 2.411433 g / cm^3
# Si number density = 24.169336 Si / 1000 Ang^3
#
#
#
# Elastic Constant Matrix: (Units=GPa)
#
#
# Indices 1 2 3 4 5 6 
#
# 1 100.4128 14.9293 14.9813 0.0000 0.0000 0.0000
# 2 14.9293 51.7154 12.9738 0.0000 0.0000 0.0000
# 3 14.9813 12.9738 64.5238 0.0000 0.0000 0.0000
# 4 0.0000 0.0000 0.0000 7.3887 0.0000 0.0000
# 5 0.0000 0.0000 0.0000 0.0000 4.8374 0.0000
# 6 0.0000 0.0000 0.0000 0.0000 0.0000 27.2954
#
#
#
# Elastic Compliance Matrix: (Units=1/GPa)
#
#
# Indices 1 2 3 4 5 6 
#
# 1 0.010634 -0.002580 -0.001950 0.000000 0.000000 0.000000
# 2 -0.002580 0.020990 -0.003621 0.000000 0.000000 0.000000
# 3 -0.001950 -0.003621 0.016679 0.000000 0.000000 0.000000
# 4 0.000000 0.000000 0.000000 0.135341 0.000000 0.000000
# 5 0.000000 0.000000 0.000000 0.000000 0.206722 0.000000
# 6 0.000000 0.000000 0.000000 0.000000 0.000000 0.036636
#
#
# Mechanical properties :
#
#
# Convention : Reuss Voigt Hill
#
# Bulk Modulus (GPa) = 31.25111 33.60231 32.42671
# Shear Modulus (GPa) = 11.01389 19.48881 15.25135
#
# Velocity S-wave (km/s) = 2.13702 2.84270 2.51474
# Velocity P-wave (km/s) = 4.36432 4.97068 4.67734
#
# Compressibility (1/GPa) = 0.03199886
#
# Stress axis : x y z
#
# Youngs Moduli (GPa) = 94.04241 47.64169 59.95541
#
# Poissons Ratio (x) = 0.12294 0.11692
# Poissons Ratio (y) = 0.24268 0.21712
# Poissons Ratio (z) = 0.18339 0.17253
#
# Static dielectric constant tensor:
#      x y z
#    x 1.402140 0.000000 0.000000 
#    y 0.000000 2.002810 0.000000 
#    z 0.000000 0.000000 1.992640 
# 
# From -- ./inp_files/12314.got.cif
#   From: 2010.05.17/outbox.cif.g08.bks.cpg/sg48_7_cif.got.tgz:12314.got - 2010.06.03 20:39:00.
