data_PCOD9389445
_publ_section_title
;
Structure prediction by ZEFSAII (Michael W. Deem and Ramdas Pophale) SiO2 
 PCOD9389445
Probable space group: P M M M
;
_chemical_formula_sum "Si O2"
_cell_formula_units_Z 40
_cell_length_a 9.000000
_cell_length_b 15.000000
_cell_length_c 15.000000
_cell_angle_alpha 90.000000
_cell_angle_beta 90.000000
_cell_angle_gamma 90.000000
_cell_volume 2025.000000
_symmetry_space_group_name_H-M "P M M M"
_symmetry_group_IT_number 47
_symmetry_cell_setting 'orthorhombic'
loop_
_space_group_symop_operation_xyz
x,y,z
-x,-y,z
x,-y,-z
-x,y,-z
-x,-y,-z
x,y,-z
-x,y,z
x,-y,z
loop_
_atom_site_type_symbol
_atom_site_label
_atom_site_fract_x
_atom_site_fract_y
_atom_site_fract_z
Si Si1 0.834576 0.000000 0.895691
Si Si2 0.323716 0.105927 0.500000
Si Si3 0.821099 0.785081 0.656881
Si Si4 0.179478 0.642566 0.096190
Si Si5 0.820027 0.594424 0.296571
Si Si6 0.676886 0.819669 0.153157
O O1 0.738723 0.914219 0.874514
O O2 0.000000 0.000000 0.852396
O O3 0.856491 0.000000 0.000000
O O4 0.500000 0.124195 0.500000
O O5 0.244251 0.150912 0.583417
O O6 0.303599 0.000000 0.500000
O O7 0.782769 0.680478 0.645370
O O8 0.739402 0.807466 0.747997
O O9 0.000000 0.793628 0.664181
O O10 0.227281 0.603259 0.192175
O O11 0.245952 0.741310 0.097901
O O12 0.000000 0.645042 0.099065
O O13 0.220403 0.601379 0.000000
O O14 0.766177 0.500000 0.331781
O O15 0.000000 0.593321 0.293744
O O16 0.500000 0.813551 0.148081
#
# Coordination Sequence:
#
# PCOD9389445 Si02
#       6
#     4   4   8   8   8   8
#     4  11  23  37  53  74 103 142 191 241 283 331
#     4  11  25  43  64  89 118 146 181 229 281 340
#     4  10  21  39  62  87 115 148 186 229 279 337
#     4   9  17  30  49  75 109 149 194 241 285 330
#     4   8  15  30  54  84 115 148 190 239 285 329
#     4  11  22  35  53  76 108 147 187 232 285 340
#
# _framework density 19.753086
#
# number of rings (size 3 to 8) (size 9 to 14) (size 15 to 20)
#    0.000    2.200    0.000    4.800    1.400    4.800 
#    0.000    2.500    0.000   18.000    0.000    5.600 
#    0.000    0.000    0.000    0.000    0.000    0.000 
#
# Total GULP energy -222800.339147 kJ/mol
# GULP energy per Si atom -5570.008479 kJ/mol
# Density = 1.970813 g / cm^3
# Si number density = 19.753086 Si / 1000 Ang^3
#
#
#
# Elastic Constant Matrix: (Units=GPa)
#
#
# Indices 1 2 3 4 5 6 
#
# 1 -79.3444 -49.9867 -44.9500 0.0000 0.0000 0.0000
# 2 -49.9867 78.0121 -20.5912 0.0000 0.0000 0.0000
# 3 -44.9500 -20.5912 20.6499 0.0000 0.0000 0.0000
# 4 0.0000 0.0000 0.0000 -143.5008 0.0000 0.0000
# 5 0.0000 0.0000 0.0000 0.0000 22.3793 0.0000
# 6 0.0000 0.0000 0.0000 0.0000 0.0000 123.9092
#
#
#
# Elastic Compliance Matrix: (Units=1/GPa)
#
#
# Indices 1 2 3 4 5 6 
#
# 1 -0.002998 -0.004945 -0.011456 0.000000 0.000000 0.000000
# 2 -0.004945 0.009241 -0.001549 0.000000 0.000000 0.000000
# 3 -0.011456 -0.001549 0.021944 0.000000 0.000000 0.000000
# 4 0.000000 0.000000 0.000000 -0.006969 0.000000 0.000000
# 5 0.000000 0.000000 0.000000 0.000000 0.044684 0.000000
# 6 0.000000 0.000000 0.000000 0.000000 0.000000 0.008070
#
#
# Mechanical properties :
#
#
# Convention : Reuss Voigt Hill
#
# Bulk Modulus (GPa) = -129.67949 -23.52645 -76.60297
# Shear Modulus (GPa) = 46.59710 9.54724 28.07217
#
# Velocity S-wave (km/s) = 4.86220 2.20086 3.77391
# Velocity P-wave (km/s) = 5.85418 2.34046 4.45809
#
# Compressibility (1/GPa) = -0.00771132
#
# Stress axis : x y z
#
# Youngs Moduli (GPa) = -333.57086 108.20875 45.56959
#
# Poissons Ratio (x) = 0.53507 0.52206
# Poissons Ratio (y) = -1.64943 0.07057
# Poissons Ratio (z) = -3.82151 0.16756
#
# Static dielectric constant tensor:
#      x y z
#    x 1.652920 0.000000 0.000000 
#    y 0.000000 1.586360 0.000000 
#    z 0.000000 0.000000 1.701610 
# 
# From -- ./inp_files/5720.got.cif
#   From: 2010.05.17/outbox.ucp.g08.bks.cvg/sg47_3_cif.got.tgz:5720.got - 2010.06.11 16:36:43.
