data_PCOD9389050
_publ_section_title
;
Structure prediction by ZEFSAII (Michael W. Deem and Ramdas Pophale) SiO2 
 PCOD9389050
Probable space group: P M M M
;
_chemical_formula_sum "Si O2"
_cell_formula_units_Z 44
_cell_length_a 7.562866
_cell_length_b 32.066717
_cell_length_c 9.438854
_cell_angle_alpha 90.000000
_cell_angle_beta 90.000000
_cell_angle_gamma 90.000000
_cell_volume 2289.075795
_symmetry_space_group_name_H-M "P M M M"
_symmetry_group_IT_number 47
_symmetry_cell_setting 'orthorhombic'
loop_
_space_group_symop_operation_xyz
x,y,z
-x,-y,z
x,-y,-z
-x,y,-z
-x,-y,-z
x,y,-z
-x,y,z
x,-y,z
loop_
_atom_site_type_symbol
_atom_site_label
_atom_site_fract_x
_atom_site_fract_y
_atom_site_fract_z
Si Si1 0.715807 0.204188 0.836943
Si Si2 0.000000 0.952248 0.826986
Si Si3 0.787465 0.544829 0.834979
Si Si4 0.297502 0.888250 0.827297
Si Si5 0.283271 0.284866 0.337573
Si Si6 0.710127 0.635816 0.838726
O O1 0.500000 0.203639 0.838130
O O2 0.767988 0.157997 0.785936
O O3 0.772917 0.242778 0.741879
O O4 0.772325 0.210027 0.000000
O O5 0.170409 0.925479 0.782572
O O6 0.000000 0.000000 0.778838
O O7 0.000000 0.952969 0.000000
O O8 0.727023 0.500000 0.774434
O O9 0.736228 0.589649 0.774423
O O10 0.000000 0.544041 0.835457
O O11 0.727838 0.545613 0.000000
O O12 0.500000 0.893996 0.780998
O O13 0.298518 0.887428 0.000000
O O14 0.227190 0.285460 0.500000
O O15 0.500000 0.284997 0.336238
O O16 0.222054 0.326006 0.254218
O O17 0.500000 0.641728 0.849915
O O18 0.782627 0.636465 0.000000
#
# Coordination Sequence:
#
# PCOD9389050 Si02
#       6
#     8   4   8   8   8   8
#     4   8  13  23  40  59  80 110 146 179 211 251
#     4   9  16  24  36  58  89 121 149 181 224 271
#     4   8  14  25  41  60  81 105 134 170 209 246
#     4   8  14  24  38  57  82 114 150 185 221 263
#     4   9  16  25  39  61  87 112 139 172 211 256
#     4   9  16  25  40  63  87 109 135 169 208 251
#
# _framework density 19.221730999999998
#
# number of rings (size 3 to 8) (size 9 to 14) (size 15 to 20)
#    0.000    3.545    0.000    2.182    0.000    2.909 
#    0.000    3.636    2.000    1.091    0.000    3.818 
#    0.000    1.455    0.000    7.091    0.000    7.273 
#
# Total GULP energy -245039.137727 kJ/mol
# GULP energy per Si atom -5569.071312 kJ/mol
# Density = 1.917798 g / cm^3
# Si number density = 19.221731 Si / 1000 Ang^3
#
#
#
# Elastic Constant Matrix: (Units=GPa)
#
#
# Indices 1 2 3 4 5 6 
#
# 1 56.4567 43.4311 13.0715 0.0000 0.0000 0.0000
# 2 43.4311 243.9621 67.7792 0.0000 0.0000 0.0000
# 3 13.0715 67.7792 47.7873 0.0000 0.0000 0.0000
# 4 0.0000 0.0000 0.0000 -3.9088 0.0000 0.0000
# 5 0.0000 0.0000 0.0000 0.0000 0.3161 0.0000
# 6 0.0000 0.0000 0.0000 0.0000 0.0000 36.8557
#
#
#
# Elastic Compliance Matrix: (Units=1/GPa)
#
#
# Indices 1 2 3 4 5 6 
#
# 1 0.020538 -0.003458 -0.000713 0.000000 0.000000 0.000000
# 2 -0.003458 0.007347 -0.009475 0.000000 0.000000 0.000000
# 3 -0.000713 -0.009475 0.034559 0.000000 0.000000 0.000000
# 4 0.000000 0.000000 0.000000 -0.255830 0.000000 0.000000
# 5 0.000000 0.000000 0.000000 0.000000 3.163181 0.000000
# 6 0.000000 0.000000 0.000000 0.000000 0.000000 0.027133
#
#
# Mechanical properties :
#
#
# Convention : Reuss Voigt Hill
#
# Bulk Modulus (GPa) = 28.44714 66.30775 47.37744
# Shear Modulus (GPa) = 1.64694 21.58087 11.61391
#
# Velocity S-wave (km/s) = 0.92664 3.35436 2.46073
# Velocity P-wave (km/s) = 3.99706 7.04084 5.72494
#
# Compressibility (1/GPa) = 0.03515292
#
# Stress axis : x y z
#
# Youngs Moduli (GPa) = 48.68999 136.11115 28.93571
#
# Poissons Ratio (x) = 0.47070 0.02063
# Poissons Ratio (y) = 0.16838 0.27415
# Poissons Ratio (z) = 0.03471 1.28960
#
# Static dielectric constant tensor:
#      x y z
#    x 1.720110 0.000000 0.000000 
#    y 0.000000 1.692040 0.000000 
#    z 0.000000 0.000000 1.626990 
# 
# From -- ./inp_files/1991.got.cif
#   From: 2010.05.17/outbox.cif.g08.bks.cpg/sg47_1_cif.got.tgz:1991.got - 2010.06.03 20:15:42.
