data_PCOD9389576
_publ_section_title
;
Structure prediction by ZEFSAII (Michael W. Deem and Ramdas Pophale) SiO2 
 PCOD9389576
Probable space group: P N N N
;
_chemical_formula_sum "Si O2"
_cell_formula_units_Z 40
_cell_length_a 15.693275
_cell_length_b 15.194007
_cell_length_c 8.664630
_cell_angle_alpha 90.000000
_cell_angle_beta 90.000000
_cell_angle_gamma 90.000000
_cell_volume 2066.026698
_symmetry_space_group_name_H-M "P N N N"
_symmetry_group_IT_number 48
_space_group.IT_coordinate_system_code '2'
_symmetry_cell_setting 'orthorhombic'
loop_
_space_group_symop_operation_xyz
x,y,z
1/2-x,1/2-y,z
x,1/2-y,1/2-z
1/2-x,y,1/2-z
-x,-y,-z
1/2+x,1/2+y,-z
-x,1/2+y,1/2+z
1/2+x,-y,1/2+z
loop_
_atom_site_type_symbol
_atom_site_label
_atom_site_fract_x
_atom_site_fract_y
_atom_site_fract_z
Si Si1 0.330658 0.789607 0.424571
Si Si2 0.018898 0.254031 0.938389
Si Si3 0.925344 0.562757 0.432019
Si Si4 0.080446 0.053336 0.562407
Si Si5 0.740843 0.011506 0.574008
O O1 0.250000 0.750000 0.511946
O O2 0.333057 0.750000 0.250000
O O3 0.420532 0.757887 0.490502
O O4 0.303753 0.891469 0.415851
O O5 0.018460 0.250000 0.750000
O O6 0.060185 0.162487 0.986043
O O7 0.065625 0.344003 0.986046
O O8 0.926691 0.554343 0.247407
O O9 0.831016 0.539978 0.483848
O O10 0.000000 0.500000 0.500000
O O11 0.167268 0.005869 0.504979
O O12 0.000000 0.000000 0.500000
O O13 0.750000 0.981685 0.750000
#
# Coordination Sequence:
#
# PCOD9389576 Si02
#       5
#     8   8   8   8   8
#     4  10  17  32  63  92 115 160 228 252 298 381
#     4   9  20  38  63  88 122 176 216 253 309 403
#     4  11  22  42  66  92 128 169 217 266 322 383
#     4  11  24  41  64  97 130 166 219 265 322 384
#     4  12  23  39  65  97 128 168 212 270 320 381
#
# _framework density 19.360834000000001
#
# number of rings (size 3 to 8) (size 9 to 14) (size 15 to 20)
#    0.000    1.400    4.000    3.000    2.800    0.800 
#    0.000    8.000    0.000    1.200    0.000    0.000 
#    0.000    0.000    0.000    0.000    0.000    0.000 
#
# Total GULP energy -222767.277116 kJ/mol
# GULP energy per Si atom -5569.181928 kJ/mol
# Density = 1.931677 g / cm^3
# Si number density = 19.360834 Si / 1000 Ang^3
#
#
#
# Elastic Constant Matrix: (Units=GPa)
#
#
# Indices 1 2 3 4 5 6 
#
# 1 143.6533 47.9393 28.0557 0.0000 0.0000 0.0000
# 2 47.9393 131.1170 24.3019 0.0000 0.0000 0.0000
# 3 28.0557 24.3019 56.3651 0.0000 0.0000 0.0000
# 4 0.0000 0.0000 0.0000 22.2356 0.0000 0.0000
# 5 0.0000 0.0000 0.0000 0.0000 1088.0652 0.0000
# 6 0.0000 0.0000 0.0000 0.0000 0.0000 24.2910
#
#
#
# Elastic Compliance Matrix: (Units=1/GPa)
#
#
# Indices 1 2 3 4 5 6 
#
# 1 0.008401 -0.002496 -0.003105 0.000000 0.000000 0.000000
# 2 -0.002496 0.009031 -0.002651 0.000000 0.000000 0.000000
# 3 -0.003105 -0.002651 0.020430 0.000000 0.000000 0.000000
# 4 0.000000 0.000000 0.000000 0.044973 0.000000 0.000000
# 5 0.000000 0.000000 0.000000 0.000000 0.000919 0.000000
# 6 0.000000 0.000000 0.000000 0.000000 0.000000 0.041167
#
#
# Mechanical properties :
#
#
# Convention : Reuss Voigt Hill
#
# Bulk Modulus (GPa) = 46.82387 59.08102 52.95245
# Shear Modulus (GPa) = 33.65988 242.30760 137.98374
#
# Velocity S-wave (km/s) = 4.17412 11.19934 8.45129
# Velocity P-wave (km/s) = 6.88973 14.06469 11.07438
#
# Compressibility (1/GPa) = 0.02135663
#
# Stress axis : x y z
#
# Youngs Moduli (GPa) = 119.03929 110.73298 48.94712
#
# Poissons Ratio (x) = 0.27638 0.15199
# Poissons Ratio (y) = 0.29711 0.12977
# Poissons Ratio (z) = 0.36965 0.29358
#
# Static dielectric constant tensor:
#      x y z
#    x 1.703820 0.000000 0.000000 
#    y 0.000000 1.634840 0.000000 
#    z 0.000000 0.000000 2.304080 
# 
# From -- ./inp_files/12300.got.cif
#   From: 2010.05.17/outbox.cif.g08.bks.cpg/sg48_7_cif.got.tgz:12300.got - 2010.06.03 20:39:00.
