data_PCOD9389547
_publ_section_title
;
Structure prediction by ZEFSAII (Michael W. Deem and Ramdas Pophale) SiO2 
 PCOD9389547
Probable space group: P N N N
;
_chemical_formula_sum "Si O2"
_cell_formula_units_Z 64
_cell_length_a 9.052064
_cell_length_b 10.682027
_cell_length_c 31.776344
_cell_angle_alpha 90.000000
_cell_angle_beta 90.000000
_cell_angle_gamma 90.000000
_cell_volume 3072.594265
_symmetry_space_group_name_H-M "P N N N"
_symmetry_group_IT_number 48
_space_group.IT_coordinate_system_code '2'
_symmetry_cell_setting 'orthorhombic'
loop_
_space_group_symop_operation_xyz
x,y,z
1/2-x,1/2-y,z
x,1/2-y,1/2-z
1/2-x,y,1/2-z
-x,-y,-z
1/2+x,1/2+y,-z
-x,1/2+y,1/2+z
1/2+x,-y,1/2+z
loop_
_atom_site_type_symbol
_atom_site_label
_atom_site_fract_x
_atom_site_fract_y
_atom_site_fract_z
Si Si1 0.330044 0.925980 0.355066
Si Si2 0.080453 0.726141 0.436607
Si Si3 0.038372 0.082873 0.789511
Si Si4 0.700536 0.613207 0.579869
Si Si5 0.709171 0.895212 0.150510
Si Si6 0.101574 0.011642 0.568847
Si Si7 0.826112 0.887007 0.009111
Si Si8 0.059627 0.627290 0.200326
O O1 0.400215 0.828760 0.388804
O O2 0.459411 0.987537 0.327940
O O3 0.223205 0.879955 0.317435
O O4 0.238454 0.017757 0.383688
O O5 0.250000 0.750000 0.450973
O O6 0.992925 0.857921 0.433336
O O7 0.982082 0.636261 0.467084
O O8 0.206083 0.077331 0.805482
O O9 0.994035 0.229709 0.793861
O O10 0.979803 0.053791 0.743145
O O11 0.750000 0.750000 0.593821
O O12 0.526798 0.593509 0.568571
O O13 0.808475 0.586730 0.540241
O O14 0.750000 0.750000 0.140024
O O15 0.715079 0.976637 0.108420
O O16 0.541078 0.917952 0.162674
O O17 0.215745 0.013653 0.530430
O O18 0.750000 0.750000 0.013788
#
# Coordination Sequence:
#
# PCOD9389547 Si02
#       8
#     8   8   8   8   8   8   8   8
#     4  12  21  34  55  80 117 145 187 232 287 344
#     4  11  19  34  58  93 116 142 182 242 306 360
#     4  10  20  30  52  84 122 143 174 222 288 358
#     4  11  24  40  56  75 109 157 207 246 285 340
#     4  10  17  30  52  85 119 148 176 214 282 368
#     4  11  19  36  60  84 111 154 192 238 293 359
#     4   9  21  37  59  83 114 147 194 241 299 359
#     4  10  19  32  50  84 120 152 169 215 290 365
#
# _framework density 20.829304
#
# number of rings (size 3 to 8) (size 9 to 14) (size 15 to 20)
#    0.000    1.500    2.500    5.625    0.000    3.000 
#    0.000    0.000    0.000    1.500    0.000    0.000 
#    3.750    0.000    0.000    0.000    0.000    0.000 
#
# Total GULP energy -356382.922393 kJ/mol
# GULP energy per Si atom -5568.483162 kJ/mol
# Density = 2.078190 g / cm^3
# Si number density = 20.829304 Si / 1000 Ang^3
#
#
#
# Elastic Constant Matrix: (Units=GPa)
#
#
# Indices 1 2 3 4 5 6 
#
# 1 107.5488 22.3366 28.1365 0.0000 0.0000 0.0000
# 2 22.3366 25.7476 -0.3437 0.0000 0.0000 0.0000
# 3 28.1365 -0.3437 80.4590 0.0000 0.0000 0.0000
# 4 0.0000 0.0000 0.0000 11.6889 0.0000 0.0000
# 5 0.0000 0.0000 0.0000 0.0000 22.1767 0.0000
# 6 0.0000 0.0000 0.0000 0.0000 0.0000 23.1937
#
#
#
# Elastic Compliance Matrix: (Units=1/GPa)
#
#
# Indices 1 2 3 4 5 6 
#
# 1 0.012801 -0.011165 -0.004524 0.000000 0.000000 0.000000
# 2 -0.011165 0.048579 0.004112 0.000000 0.000000 0.000000
# 3 -0.004524 0.004112 0.014028 0.000000 0.000000 0.000000
# 4 0.000000 0.000000 0.000000 0.085551 0.000000 0.000000
# 5 0.000000 0.000000 0.000000 0.000000 0.045092 0.000000
# 6 0.000000 0.000000 0.000000 0.000000 0.000000 0.043115
#
#
# Mechanical properties :
#
#
# Convention : Reuss Voigt Hill
#
# Bulk Modulus (GPa) = 19.13732 34.89046 27.01389
# Shear Modulus (GPa) = 17.25689 22.32027 19.78858
#
# Velocity S-wave (km/s) = 2.88147 3.27705 3.08561
# Velocity P-wave (km/s) = 4.50313 5.57726 5.06872
#
# Compressibility (1/GPa) = 0.05225391
#
# Stress axis : x y z
#
# Youngs Moduli (GPa) = 78.12172 20.58482 71.28439
#
# Poissons Ratio (x) = 0.22983 0.32249
# Poissons Ratio (y) = 0.87224 -0.29312
# Poissons Ratio (z) = 0.35343 -0.08464
#
# Static dielectric constant tensor:
#      x y z
#    x 1.817890 0.000000 0.000000 
#    y 0.000000 1.783290 0.000000 
#    z 0.000000 0.000000 1.822700 
# 
# From -- ./inp_files/38828.got.cif
#   From: 2010.05.17/outbox.cif.g08.bks.cpg/sg48_20_cif.got.tgz:38828.got - 2010.06.03 20:39:00.
