data_PCOD9389792
_publ_section_title
;
Structure prediction by ZEFSAII (Michael W. Deem and Ramdas Pophale) SiO2 
 PCOD9389792
Probable space group: P N N N
;
_chemical_formula_sum "Si O2"
_cell_formula_units_Z 40
_cell_length_a 11.640133
_cell_length_b 14.407258
_cell_length_c 10.243436
_cell_angle_alpha 90.000000
_cell_angle_beta 90.000000
_cell_angle_gamma 90.000000
_cell_volume 1717.848794
_symmetry_space_group_name_H-M "P N N N"
_symmetry_group_IT_number 48
_space_group.IT_coordinate_system_code '2'
_symmetry_cell_setting 'orthorhombic'
loop_
_space_group_symop_operation_xyz
x,y,z
1/2-x,1/2-y,z
x,1/2-y,1/2-z
1/2-x,y,1/2-z
-x,-y,-z
1/2+x,1/2+y,-z
-x,1/2+y,1/2+z
1/2+x,-y,1/2+z
loop_
_atom_site_type_symbol
_atom_site_label
_atom_site_fract_x
_atom_site_fract_y
_atom_site_fract_z
Si Si1 0.453450 0.396248 0.990356
Si Si2 0.117504 0.773585 0.490207
Si Si3 0.941274 0.873351 0.299511
Si Si4 0.787215 0.853137 0.552729
Si Si5 0.986824 0.065357 0.370990
O O1 0.546677 0.318359 0.035411
O O2 0.422674 0.346905 0.849752
O O3 0.330641 0.407023 0.058886
O O4 0.500000 0.500000 0.000000
O O5 0.250000 0.750000 0.463907
O O6 0.053148 0.824526 0.366362
O O7 0.102623 0.853365 0.600345
O O8 0.842138 0.858442 0.406431
O O9 0.954338 0.984481 0.274687
O O10 0.750000 0.750000 0.583088
O O11 0.889459 0.888314 0.644022
O O12 0.000000 0.000000 0.500000
#
# Coordination Sequence:
#
# PCOD9389792 Si02
#       5
#     8   8   8   8   8
#     4  12  25  35  56  92 118 145 194 248 274 326
#     4  10  21  38  60  84 117 147 190 238 290 339
#     4  10  22  39  61  82 114 160 189 224 294 346
#     4  10  18  38  63  85 109 143 197 246 281 327
#     4   8  18  37  61  79 111 156 182 224 292 347
#
# _framework density 23.284935000000001
#
# number of rings (size 3 to 8) (size 9 to 14) (size 15 to 20)
#    0.000    2.400    4.000    1.200    8.400    2.400 
#    0.000    1.000    0.000    2.400    0.000    0.000 
#    0.000    0.000    0.000    0.000    0.000    0.000 
#
# Total GULP energy -222818.477443 kJ/mol
# GULP energy per Si atom -5570.461936 kJ/mol
# Density = 2.323194 g / cm^3
# Si number density = 23.284935 Si / 1000 Ang^3
#
#
#
# Elastic Constant Matrix: (Units=GPa)
#
#
# Indices 1 2 3 4 5 6 
#
# 1 158.6617 64.6638 8.6175 0.0000 0.0000 0.0000
# 2 64.6638 168.0496 -4.4369 0.0000 0.0000 0.0000
# 3 8.6175 -4.4369 69.2485 0.0000 0.0000 0.0000
# 4 0.0000 0.0000 0.0000 23.9695 0.0000 0.0000
# 5 0.0000 0.0000 0.0000 0.0000 -10.7779 0.0000
# 6 0.0000 0.0000 0.0000 0.0000 0.0000 50.8958
#
#
#
# Elastic Compliance Matrix: (Units=1/GPa)
#
#
# Indices 1 2 3 4 5 6 
#
# 1 0.007562 -0.002940 -0.001129 0.000000 0.000000 0.000000
# 2 -0.002940 0.007103 0.000821 0.000000 0.000000 0.000000
# 3 -0.001129 0.000821 0.014634 0.000000 0.000000 0.000000
# 4 0.000000 0.000000 0.000000 0.041720 0.000000 0.000000
# 5 0.000000 0.000000 0.000000 0.000000 -0.092783 0.000000
# 6 0.000000 0.000000 0.000000 0.000000 0.000000 0.019648
#
#
# Mechanical properties :
#
#
# Convention : Reuss Voigt Hill
#
# Bulk Modulus (GPa) = 43.85339 59.29430 51.57384
# Shear Modulus (GPa) = 417.30415 34.62517 225.96466
#
# Velocity S-wave (km/s) = 13.40170 3.86037 9.86174
# Velocity P-wave (km/s) = 16.07321 6.73720 12.32352
#
# Compressibility (1/GPa) = 0.02280326
#
# Stress axis : x y z
#
# Youngs Moduli (GPa) = 132.23773 140.77666 68.33457
#
# Poissons Ratio (x) = 0.41383 0.07718
# Poissons Ratio (y) = 0.38873 -0.05610
# Poissons Ratio (z) = 0.14935 -0.11557
#
# Static dielectric constant tensor:
#      x y z
#    x 1.575680 0.000000 0.000000 
#    y 0.000000 2.117060 0.000000 
#    z 0.000000 0.000000 2.100170 
# 
# From -- ./inp_files/26271.got.cif
#   From: 2010.05.17/outbox.cif.g08.bks.cpg/sg48_14_cif.got.tgz:26271.got - 2010.06.03 20:39:00.
