data_PCOD9389122
_publ_section_title
;
Structure prediction by ZEFSAII (Michael W. Deem and Ramdas Pophale) SiO2 
 PCOD9389122
Probable space group: P M M M
;
_chemical_formula_sum "Si O2"
_cell_formula_units_Z 52
_cell_length_a 10.181256
_cell_length_b 7.637325
_cell_length_c 34.412940
_cell_angle_alpha 90.000000
_cell_angle_beta 90.000000
_cell_angle_gamma 90.000000
_cell_volume 2675.866281
_symmetry_space_group_name_H-M "P M M M"
_symmetry_group_IT_number 47
_symmetry_cell_setting 'orthorhombic'
loop_
_space_group_symop_operation_xyz
x,y,z
-x,-y,z
x,-y,-z
-x,y,-z
-x,-y,-z
x,y,-z
-x,y,z
x,-y,z
loop_
_atom_site_type_symbol
_atom_site_label
_atom_site_fract_x
_atom_site_fract_y
_atom_site_fract_z
Si Si1 0.649434 0.210348 0.350519
Si Si2 0.850641 0.710285 0.802532
Si Si3 0.149903 0.291429 0.500000
Si Si4 0.850509 0.210499 0.109518
Si Si5 0.349531 0.786146 0.955937
Si Si6 0.350753 0.710668 0.262119
Si Si7 0.849898 0.791616 0.584942
O O1 0.500000 0.277146 0.355846
O O2 0.689799 0.248339 0.306235
O O3 0.753027 0.278695 0.382018
O O4 0.644091 0.000000 0.354746
O O5 0.856158 0.500000 0.798596
O O6 0.807449 0.748797 0.846560
O O7 0.750524 0.777535 0.770076
O O8 0.000000 0.777590 0.797908
O O9 0.145051 0.500000 0.500000
O O10 0.206178 0.236299 0.541511
O O11 0.000000 0.219936 0.500000
O O12 0.751384 0.276059 0.076667
O O13 0.000000 0.276713 0.104781
O O14 0.855121 0.000000 0.106019
O O15 0.500000 0.732598 0.948246
O O16 0.348416 0.000000 0.955437
O O17 0.314634 0.733356 0.000000
O O18 0.500000 0.776732 0.256667
O O19 0.355283 0.500000 0.258635
O O20 0.000000 0.720609 0.586570
O O21 0.859681 0.000000 0.590674
#
# Coordination Sequence:
#
# PCOD9389122 Si02
#       7
#     8   8   4   8   8   8   8
#     4   9  18  32  48  67  92 119 146 179 220 263
#     4   9  18  32  47  63  87 118 147 176 215 262
#     4   9  17  29  46  69  94 118 148 187 224 256
#     4   9  17  28  43  65  89 111 140 179 218 254
#     4   8  14  25  41  62  88 115 142 175 216 259
#     4   9  18  32  48  65  86 114 147 180 215 257
#     4   9  17  30  48  68  90 118 150 181 216 260
#
# _framework density 19.432957999999999
#
# number of rings (size 3 to 8) (size 9 to 14) (size 15 to 20)
#    0.000    3.154    0.000    0.692    0.000    3.692 
#    0.000    1.923    0.000    2.769    0.000    3.231 
#    0.000    0.000    0.000    0.000    0.000    0.000 
#
# Total GULP energy -289844.364865 kJ/mol
# GULP energy per Si atom -5573.930094 kJ/mol
# Density = 1.938873 g / cm^3
# Si number density = 19.432958 Si / 1000 Ang^3
#
#
#
# Elastic Constant Matrix: (Units=GPa)
#
#
# Indices 1 2 3 4 5 6 
#
# 1 102.4984 5.0361 130.1359 0.0000 0.0000 0.0000
# 2 5.0361 37.2070 -1.8481 0.0000 0.0000 0.0000
# 3 130.1359 -1.8481 210.6092 0.0000 0.0000 0.0000
# 4 0.0000 0.0000 0.0000 29.6673 0.0000 0.0000
# 5 0.0000 0.0000 0.0000 0.0000 37.5169 0.0000
# 6 0.0000 0.0000 0.0000 0.0000 0.0000 2.9149
#
#
#
# Elastic Compliance Matrix: (Units=1/GPa)
#
#
# Indices 1 2 3 4 5 6 
#
# 1 0.047482 -0.007888 -0.029408 0.000000 0.000000 0.000000
# 2 -0.007888 0.028199 0.005121 0.000000 0.000000 0.000000
# 3 -0.029408 0.005121 0.022964 0.000000 0.000000 0.000000
# 4 0.000000 0.000000 0.000000 0.033707 0.000000 0.000000
# 5 0.000000 0.000000 0.000000 0.000000 0.026655 0.000000
# 6 0.000000 0.000000 0.000000 0.000000 0.000000 0.343060
#
#
# Mechanical properties :
#
#
# Convention : Reuss Voigt Hill
#
# Bulk Modulus (GPa) = 29.15827 68.55137 48.85482
# Shear Modulus (GPa) = 8.65280 28.48587 18.56933
#
# Velocity S-wave (km/s) = 2.11242 3.83280 3.09456
# Velocity P-wave (km/s) = 4.58114 7.41212 6.16143
#
# Compressibility (1/GPa) = 0.03429558
#
# Stress axis : x y z
#
# Youngs Moduli (GPa) = 21.06081 35.46270 43.54555
#
# Poissons Ratio (x) = 0.27971 1.28060
# Poissons Ratio (y) = 0.16612 -0.22300
# Poissons Ratio (z) = 0.61936 -0.18161
#
# Static dielectric constant tensor:
#      x y z
#    x 1.687080 0.000000 0.000000 
#    y 0.000000 1.714130 0.000000 
#    z 0.000000 0.000000 1.659780 
# 
# From -- ./inp_files/33224.got.cif
#   From: 2010.05.17/outbox.cif.g08.bks.cpg/sg47_17_cif.got.tgz:33224.got - 2010.06.03 20:15:42.
