data_PCOD9389045
_publ_section_title
;
Structure prediction by ZEFSAII (Michael W. Deem and Ramdas Pophale) SiO2 
 PCOD9389045
Probable space group: P M M M
;
_chemical_formula_sum "Si O2"
_cell_formula_units_Z 52
_cell_length_a 7.590293
_cell_length_b 19.453360
_cell_length_c 19.499711
_cell_angle_alpha 90.000000
_cell_angle_beta 90.000000
_cell_angle_gamma 90.000000
_cell_volume 2879.263021
_symmetry_space_group_name_H-M "P M M M"
_symmetry_group_IT_number 47
_symmetry_cell_setting 'orthorhombic'
loop_
_space_group_symop_operation_xyz
x,y,z
-x,-y,z
x,-y,-z
-x,y,-z
-x,-y,-z
x,y,-z
-x,y,z
x,-y,z
loop_
_atom_site_type_symbol
_atom_site_label
_atom_site_fract_x
_atom_site_fract_y
_atom_site_fract_z
Si Si1 0.715024 0.420452 0.077093
Si Si2 0.787125 0.213372 0.290137
Si Si3 0.289867 0.079579 0.500000
Si Si4 0.286656 0.421670 0.346963
Si Si5 0.208335 0.709464 0.425357
Si Si6 0.208265 0.077542 0.651318
Si Si7 0.709767 0.343070 0.789554
O O1 0.500000 0.418624 0.076424
O O2 0.763771 0.500000 0.090491
O O3 0.777924 0.371839 0.138421
O O4 0.773026 0.402107 0.000000
O O5 0.718720 0.251107 0.359159
O O6 0.723469 0.134923 0.296190
O O7 0.740630 0.263213 0.227655
O O8 0.000000 0.212099 0.292800
O O9 0.500000 0.080707 0.500000
O O10 0.228891 0.106613 0.573553
O O11 0.226948 0.000000 0.500000
O O12 0.500000 0.421963 0.345454
O O13 0.226787 0.500000 0.353494
O O14 0.231106 0.370841 0.407655
O O15 0.222770 0.387183 0.275569
O O16 0.283293 0.726923 0.500000
O O17 0.000000 0.724205 0.427444
O O18 0.000000 0.071250 0.662829
O O19 0.284246 0.000000 0.654257
O O20 0.500000 0.353626 0.790497
#
# Coordination Sequence:
#
# PCOD9389045 Si02
#       7
#     8   8   4   8   8   8   8
#     4   8  13  22  40  67  93 115 141 172 203 236
#     4   9  18  30  44  59  79 107 137 169 207 249
#     4   9  17  27  39  59  85 107 128 163 214 261
#     4   9  17  28  41  56  74  98 129 165 203 237
#     4   9  18  30  41  53  71  97 129 165 204 243
#     4   9  17  29  45  62  79 104 140 176 209 251
#     4   9  16  27  43  62  85 109 136 166 199 242
#
# _framework density 18.060175999999998
#
# number of rings (size 3 to 8) (size 9 to 14) (size 15 to 20)
#    0.000    3.154    0.000    1.154    1.077    4.308 
#    0.000    1.538    0.000    1.846    0.000    1.077 
#    0.000    0.615    0.000    7.692    0.000    0.000 
#
# Total GULP energy -289768.050006 kJ/mol
# GULP energy per Si atom -5572.462500 kJ/mol
# Density = 1.801907 g / cm^3
# Si number density = 18.060176 Si / 1000 Ang^3
#
#
#
# Elastic Constant Matrix: (Units=GPa)
#
#
# Indices 1 2 3 4 5 6 
#
# 1 39.6703 -2.7610 2.3954 0.0000 0.0000 0.0000
# 2 -2.7610 90.0223 46.8863 0.0000 0.0000 0.0000
# 3 2.3954 46.8863 104.6161 0.0000 0.0000 0.0000
# 4 0.0000 0.0000 0.0000 27.7696 0.0000 0.0000
# 5 0.0000 0.0000 0.0000 0.0000 11.1416 0.0000
# 6 0.0000 0.0000 0.0000 0.0000 0.0000 17.3434
#
#
#
# Elastic Compliance Matrix: (Units=1/GPa)
#
#
# Indices 1 2 3 4 5 6 
#
# 1 0.025379 0.001410 -0.001213 0.000000 0.000000 0.000000
# 2 0.001410 0.014569 -0.006562 0.000000 0.000000 0.000000
# 3 -0.001213 -0.006562 0.012527 0.000000 0.000000 0.000000
# 4 0.000000 0.000000 0.000000 0.036011 0.000000 0.000000
# 5 0.000000 0.000000 0.000000 0.000000 0.089754 0.000000
# 6 0.000000 0.000000 0.000000 0.000000 0.000000 0.057659
#
#
# Mechanical properties :
#
#
# Convention : Reuss Voigt Hill
#
# Bulk Modulus (GPa) = 25.15959 36.37224 30.76592
# Shear Modulus (GPa) = 19.09292 23.77012 21.43152
#
# Velocity S-wave (km/s) = 3.25496 3.63183 3.44855
# Velocity P-wave (km/s) = 5.29977 6.14574 5.73837
#
# Compressibility (1/GPa) = 0.03974628
#
# Stress axis : x y z
#
# Youngs Moduli (GPa) = 39.40235 68.63787 79.82505
#
# Poissons Ratio (x) = -0.09680 0.09684
# Poissons Ratio (y) = -0.05557 0.52380
# Poissons Ratio (z) = 0.04780 0.45039
#
# Static dielectric constant tensor:
#      x y z
#    x 1.686030 0.000000 0.000000 
#    y 0.000000 1.664440 0.000000 
#    z 0.000000 0.000000 1.616380 
# 
# From -- ./inp_files/26940.got.cif
#   From: 2010.05.17/outbox.cif.g08.bks.cpg/sg47_14_cif.got.tgz:26940.got - 2010.06.03 20:15:42.
