data_PCOD9389652
_publ_section_title
;
Structure prediction by ZEFSAII (Michael W. Deem and Ramdas Pophale) SiO2 
 PCOD9389652
Probable space group: P N N N
;
_chemical_formula_sum "Si O2"
_cell_formula_units_Z 64
_cell_length_a 22.545337
_cell_length_b 7.990608
_cell_length_c 17.235494
_cell_angle_alpha 90.000000
_cell_angle_beta 90.000000
_cell_angle_gamma 90.000000
_cell_volume 3104.990621
_symmetry_space_group_name_H-M "P N N N"
_symmetry_group_IT_number 48
_space_group.IT_coordinate_system_code '2'
_symmetry_cell_setting 'orthorhombic'
loop_
_space_group_symop_operation_xyz
x,y,z
1/2-x,1/2-y,z
x,1/2-y,1/2-z
1/2-x,y,1/2-z
-x,-y,-z
1/2+x,1/2+y,-z
-x,1/2+y,1/2+z
1/2+x,-y,1/2+z
loop_
_atom_site_type_symbol
_atom_site_label
_atom_site_fract_x
_atom_site_fract_y
_atom_site_fract_z
Si Si1 0.034710 0.875532 0.175594
Si Si2 0.661875 0.556143 0.663404
Si Si3 0.042688 0.952242 0.395408
Si Si4 0.656396 0.949141 0.671289
Si Si5 0.574039 0.433802 0.432954
Si Si6 0.693904 0.966560 0.008793
Si Si7 0.450451 0.543059 0.934667
Si Si8 0.676601 0.936182 0.497932
O O1 0.031118 0.750000 0.250000
O O2 0.055708 0.743475 0.110114
O O3 0.975026 0.959667 0.144435
O O4 0.086112 0.014107 0.177337
O O5 0.590430 0.543021 0.657154
O O6 0.674031 0.753692 0.668015
O O7 0.680150 0.480739 0.746548
O O8 0.685441 0.481330 0.582409
O O9 0.057694 0.009912 0.482204
O O10 0.973394 0.976280 0.377265
O O11 0.674932 0.006744 0.586109
O O12 0.644363 0.457333 0.434290
O O13 0.555563 0.241726 0.427362
O O14 0.682597 0.766055 0.004224
O O15 0.760903 0.000587 0.035218
O O16 0.500000 0.500000 0.000000
O O17 0.385638 0.478047 0.958469
#
# Coordination Sequence:
#
# PCOD9389652 Si02
#       8
#     8   8   8   8   8   8   8   8
#     4  12  22  34  51  81 115 146 188 238 295 341
#     4   9  18  30  49  78 113 152 192 226 274 332
#     4  10  18  31  52  77 107 142 180 233 281 337
#     4  10  18  31  51  76 113 154 188 231 271 337
#     4  10  20  33  55  80 107 142 188 233 287 339
#     4   9  20  35  54  82 114 151 191 235 279 347
#     4  12  22  35  55  82 108 148 193 243 292 344
#     4  10  20  36  56  80 114 151 194 236 284 340
#
# _framework density 20.611978000000001
#
# number of rings (size 3 to 8) (size 9 to 14) (size 15 to 20)
#    0.000    1.750    3.750    1.500    3.500    1.000 
#    0.000    2.500    0.000    0.000    0.000    7.000 
#    0.000    6.000    0.000    0.000    0.000    0.000 
#
# Total GULP energy -356395.850545 kJ/mol
# GULP energy per Si atom -5568.685165 kJ/mol
# Density = 2.056506 g / cm^3
# Si number density = 20.611978 Si / 1000 Ang^3
#
#
#
# Elastic Constant Matrix: (Units=GPa)
#
#
# Indices 1 2 3 4 5 6 
#
# 1 160.8126 18.0926 24.8227 0.0000 0.0000 0.0000
# 2 18.0926 45.2467 2.6795 0.0000 0.0000 0.0000
# 3 24.8227 2.6795 26.8299 0.0000 0.0000 0.0000
# 4 0.0000 0.0000 0.0000 20.7452 0.0000 0.0000
# 5 0.0000 0.0000 0.0000 0.0000 7.7249 0.0000
# 6 0.0000 0.0000 0.0000 0.0000 0.0000 16.9554
#
#
#
# Elastic Compliance Matrix: (Units=1/GPa)
#
#
# Indices 1 2 3 4 5 6 
#
# 1 0.007551 -0.002621 -0.006725 0.000000 0.000000 0.000000
# 2 -0.002621 0.023142 0.000114 0.000000 0.000000 0.000000
# 3 -0.006725 0.000114 0.043482 0.000000 0.000000 0.000000
# 4 0.000000 0.000000 0.000000 0.048204 0.000000 0.000000
# 5 0.000000 0.000000 0.000000 0.000000 0.129451 0.000000
# 6 0.000000 0.000000 0.000000 0.000000 0.000000 0.058978
#
#
# Mechanical properties :
#
#
# Convention : Reuss Voigt Hill
#
# Bulk Modulus (GPa) = 17.94950 36.00875 26.97913
# Shear Modulus (GPa) = 14.37427 21.57141 17.97284
#
# Velocity S-wave (km/s) = 2.64365 3.23855 2.95610
# Velocity P-wave (km/s) = 4.24802 5.61177 4.97683
#
# Compressibility (1/GPa) = 0.05571186
#
# Stress axis : x y z
#
# Youngs Moduli (GPa) = 132.42714 43.21056 22.99801
#
# Poissons Ratio (x) = 0.11327 0.15465
# Poissons Ratio (y) = 0.34713 -0.00262
# Poissons Ratio (z) = 0.89052 -0.00492
#
# Static dielectric constant tensor:
#      x y z
#    x 1.806000 0.000000 0.000000 
#    y 0.000000 1.780790 0.000000 
#    z 0.000000 0.000000 1.776320 
# 
# From -- ./inp_files/34882.got.cif
#   From: 2010.05.17/outbox.cif.g08.bks.cpg/sg48_18_cif.got.tgz:34882.got - 2010.06.03 20:39:00.
