data_PCOD9389675
_publ_section_title
;
Structure prediction by ZEFSAII (Michael W. Deem and Ramdas Pophale) SiO2 
 PCOD9389675
Probable space group: P N N N
;
_chemical_formula_sum "Si O2"
_cell_formula_units_Z 44
_cell_length_a 33.244666
_cell_length_b 5.247480
_cell_length_c 13.326205
_cell_angle_alpha 90.000000
_cell_angle_beta 90.000000
_cell_angle_gamma 90.000000
_cell_volume 2324.766056
_symmetry_space_group_name_H-M "P N N N"
_symmetry_group_IT_number 48
_space_group.IT_coordinate_system_code '2'
_symmetry_cell_setting 'orthorhombic'
loop_
_space_group_symop_operation_xyz
x,y,z
1/2-x,1/2-y,z
x,1/2-y,1/2-z
1/2-x,y,1/2-z
-x,-y,-z
1/2+x,1/2+y,-z
-x,1/2+y,1/2+z
1/2+x,-y,1/2+z
loop_
_atom_site_type_symbol
_atom_site_label
_atom_site_fract_x
_atom_site_fract_y
_atom_site_fract_z
Si Si1 0.895696 0.375593 0.989785
Si Si2 0.860815 0.902453 0.896558
Si Si3 0.920567 0.750000 0.750000
Si Si4 0.232093 0.494161 0.363403
Si Si5 0.058880 0.496545 0.817779
Si Si6 0.470751 0.892154 0.141689
O O1 0.873441 0.618012 0.935489
O O2 0.939069 0.295784 0.939724
O O3 0.869966 0.120577 0.977215
O O4 0.906446 0.450691 0.102435
O O5 0.889903 0.947751 0.800434
O O6 0.815386 0.949119 0.861679
O O7 0.950788 0.664732 0.836029
O O8 0.250000 0.250000 0.417841
O O9 0.250000 0.496104 0.250000
O O10 0.250000 0.750000 0.409863
O O11 0.051706 0.750000 0.750000
O O12 0.017700 0.424030 0.877889
O O13 0.067592 0.250000 0.750000
O O14 0.468092 0.750000 0.250000
#
# Coordination Sequence:
#
# PCOD9389675 Si02
#       6
#     8   8   4   8   8   8
#     4  11  23  37  56  82 114 152 200 243 289 337
#     4  11  22  35  56  82 119 153 192 224 273 345
#     4  10  18  32  49  78 114 152 194 230 267 336
#     4  10  20  34  53  81 116 156 185 207 261 337
#     4  11  23  39  58  77 109 150 204 259 301 329
#     4  10  19  34  51  80 111 151 196 241 292 342
#
# _framework density 18.926635999999998
#
# number of rings (size 3 to 8) (size 9 to 14) (size 15 to 20)
#    0.000    1.455    2.727    3.818    0.000    4.364 
#    0.000    5.455    0.000    0.000    0.000    0.000 
#    0.000   50.909    0.000    0.000    0.000    0.000 
#
# Total GULP energy -244974.170526 kJ/mol
# GULP energy per Si atom -5567.594785 kJ/mol
# Density = 1.888356 g / cm^3
# Si number density = 18.926636 Si / 1000 Ang^3
#
#
#
# Elastic Constant Matrix: (Units=GPa)
#
#
# Indices 1 2 3 4 5 6 
#
# 1 100.6517 23.5821 28.6096 0.0000 0.0000 0.0000
# 2 23.5821 116.0271 14.5495 0.0000 0.0000 0.0000
# 3 28.6096 14.5495 40.7364 0.0000 0.0000 0.0000
# 4 0.0000 0.0000 0.0000 20.4620 0.0000 0.0000
# 5 0.0000 0.0000 0.0000 0.0000 19.5921 0.0000
# 6 0.0000 0.0000 0.0000 0.0000 0.0000 24.3719
#
#
#
# Elastic Compliance Matrix: (Units=1/GPa)
#
#
# Indices 1 2 3 4 5 6 
#
# 1 0.012667 -0.001527 -0.008350 0.000000 0.000000 0.000000
# 2 -0.001527 0.009207 -0.002216 0.000000 0.000000 0.000000
# 3 -0.008350 -0.002216 0.031204 0.000000 0.000000 0.000000
# 4 0.000000 0.000000 0.000000 0.048871 0.000000 0.000000
# 5 0.000000 0.000000 0.000000 0.000000 0.051041 0.000000
# 6 0.000000 0.000000 0.000000 0.000000 0.000000 0.041031
#
#
# Mechanical properties :
#
#
# Convention : Reuss Voigt Hill
#
# Bulk Modulus (GPa) = 34.61319 43.43304 39.02312
# Shear Modulus (GPa) = 21.94546 25.59681 23.77114
#
# Velocity S-wave (km/s) = 3.40884 3.68152 3.54780
# Velocity P-wave (km/s) = 5.81561 6.40854 6.11926
#
# Compressibility (1/GPa) = 0.02889072
#
# Stress axis : x y z
#
# Youngs Moduli (GPa) = 78.94751 108.61363 32.04715
#
# Poissons Ratio (x) = 0.16589 0.26761
# Poissons Ratio (y) = 0.12058 0.07101
# Poissons Ratio (z) = 0.65924 0.24066
#
# Static dielectric constant tensor:
#      x y z
#    x 1.689810 0.000000 0.000000 
#    y 0.000000 1.748930 0.000000 
#    z 0.000000 0.000000 1.683320 
# 
# From -- ./inp_files/3643.got.cif
#   From: 2010.05.17/outbox.cif.g08.bks.cpg/sg48_2_cif.got.tgz:3643.got - 2010.06.03 20:39:00.
