data_PCOD9389194
_publ_section_title
;
Structure prediction by ZEFSAII (Michael W. Deem and Ramdas Pophale) SiO2 
 PCOD9389194
Probable space group: P M M M
;
_chemical_formula_sum "Si O2"
_cell_formula_units_Z 48
_cell_length_a 8.281021
_cell_length_b 7.510150
_cell_length_c 36.171798
_cell_angle_alpha 90.000000
_cell_angle_beta 90.000000
_cell_angle_gamma 90.000000
_cell_volume 2249.585966
_symmetry_space_group_name_H-M "P M M M"
_symmetry_group_IT_number 47
_symmetry_cell_setting 'orthorhombic'
loop_
_space_group_symop_operation_xyz
x,y,z
-x,-y,z
x,-y,-z
-x,y,-z
-x,-y,-z
x,y,-z
-x,y,z
x,-y,z
loop_
_atom_site_type_symbol
_atom_site_label
_atom_site_fract_x
_atom_site_fract_y
_atom_site_fract_z
Si Si1 0.180051 0.282301 0.587118
Si Si2 0.314415 0.712337 0.664738
Si Si3 0.301643 0.500000 0.957546
Si Si4 0.814482 0.783790 0.176431
Si Si5 0.683793 0.213747 0.254712
Si Si6 0.500000 0.717343 0.457334
Si Si7 0.307547 0.799106 0.098077
O O1 0.179460 0.500000 0.586176
O O2 0.215089 0.224889 0.629358
O O3 0.334993 0.225584 0.563065
O O4 0.000000 0.225404 0.575337
O O5 0.500000 0.782563 0.663562
O O6 0.325618 0.500000 0.660879
O O7 0.241684 0.746297 0.705292
O O8 0.500000 0.500000 0.957560
O O9 0.246799 0.329330 0.934015
O O10 0.249791 0.500000 0.000000
O O11 0.758981 0.718686 0.216614
O O12 0.723534 0.726871 0.139409
O O13 0.000000 0.738805 0.171396
O O14 0.797846 0.000000 0.177535
O O15 0.500000 0.280583 0.256410
O O16 0.680395 0.000000 0.252132
O O17 0.500000 0.500000 0.456110
O O18 0.500000 0.771491 0.500000
O O19 0.500000 0.810077 0.093817
O O20 0.240494 0.000000 0.095601
#
# Coordination Sequence:
#
# PCOD9389194 Si02
#       7
#     8   8   4   8   8   4   8
#     4   9  16  26  41  60  85 120 156 194 243 297
#     4   9  16  28  44  61  87 123 158 190 232 288
#     4   9  18  32  51  79 107 127 159 211 259 301
#     4   9  17  30  48  68  93 126 161 198 241 286
#     4   9  17  29  46  68  94 124 159 201 243 284
#     4   9  16  26  40  60  87 119 157 201 247 299
#     4   9  17  31  52  74  97 130 166 200 247 307
#
# _framework density 21.337259
#
# number of rings (size 3 to 8) (size 9 to 14) (size 15 to 20)
#    0.000    3.000    0.833    0.500    0.000    3.333 
#    1.500    3.750    0.000    1.000    0.000    2.333 
#    0.000    1.333    0.000    1.500    0.000    1.667 
#
# Total GULP energy -267656.982670 kJ/mol
# GULP energy per Si atom -5576.187139 kJ/mol
# Density = 2.128869 g / cm^3
# Si number density = 21.337259 Si / 1000 Ang^3
#
#
#
# Elastic Constant Matrix: (Units=GPa)
#
#
# Indices 1 2 3 4 5 6 
#
# 1 76.6129 15.3404 63.3144 0.0000 0.0000 0.0000
# 2 15.3404 63.1144 35.6816 0.0000 0.0000 0.0000
# 3 63.3144 35.6816 194.4151 0.0000 0.0000 0.0000
# 4 0.0000 0.0000 0.0000 22.5450 0.0000 0.0000
# 5 0.0000 0.0000 0.0000 0.0000 -10.6276 0.0000
# 6 0.0000 0.0000 0.0000 0.0000 0.0000 -4.9713
#
#
#
# Elastic Compliance Matrix: (Units=1/GPa)
#
#
# Indices 1 2 3 4 5 6 
#
# 1 0.017938 -0.001180 -0.005625 0.000000 0.000000 0.000000
# 2 -0.001180 0.017756 -0.002875 0.000000 0.000000 0.000000
# 3 -0.005625 -0.002875 0.007503 0.000000 0.000000 0.000000
# 4 0.000000 0.000000 0.000000 0.044356 0.000000 0.000000
# 5 0.000000 0.000000 0.000000 0.000000 -0.094095 0.000000
# 6 0.000000 0.000000 0.000000 0.000000 0.000000 -0.201156
#
#
# Mechanical properties :
#
#
# Convention : Reuss Voigt Hill
#
# Bulk Modulus (GPa) = 41.95004 62.53502 52.24253
# Shear Modulus (GPa) = -27.71715 16.04298 -5.83709
#
# Velocity S-wave (km/s) = -3.60808 2.74501 -1.65577
# Velocity P-wave (km/s) = 1.53151 6.27840 4.56967
#
# Compressibility (1/GPa) = 0.02383788
#
# Stress axis : x y z
#
# Youngs Moduli (GPa) = 55.74891 56.31851 133.27744
#
# Poissons Ratio (x) = 0.06644 0.74970
# Poissons Ratio (y) = 0.06577 0.38313
# Poissons Ratio (z) = 0.31360 0.16190
#
# Static dielectric constant tensor:
#      x y z
#    x 1.759080 0.000000 0.000000 
#    y 0.000000 1.818740 0.000000 
#    z 0.000000 0.000000 1.766430 
# 
# From -- ./inp_files/34119.got.cif
#   From: 2010.05.17/outbox.cif.g08.bks.cpg/sg47_18_cif.got.tgz:34119.got - 2010.06.03 20:15:42.
