data_PCOD9389754
_publ_section_title
;
Structure prediction by ZEFSAII (Michael W. Deem and Ramdas Pophale) SiO2 
 PCOD9389754
Probable space group: P N N N
;
_chemical_formula_sum "Si O2"
_cell_formula_units_Z 42
_cell_length_a 9.558663
_cell_length_b 9.818403
_cell_length_c 17.860115
_cell_angle_alpha 90.000000
_cell_angle_beta 90.000000
_cell_angle_gamma 90.000000
_cell_volume 1676.186179
_symmetry_space_group_name_H-M "P N N N"
_symmetry_group_IT_number 48
_space_group.IT_coordinate_system_code '2'
_symmetry_cell_setting 'orthorhombic'
loop_
_space_group_symop_operation_xyz
x,y,z
1/2-x,1/2-y,z
x,1/2-y,1/2-z
1/2-x,y,1/2-z
-x,-y,-z
1/2+x,1/2+y,-z
-x,1/2+y,1/2+z
1/2+x,-y,1/2+z
loop_
_atom_site_type_symbol
_atom_site_label
_atom_site_fract_x
_atom_site_fract_y
_atom_site_fract_z
Si Si1 0.921572 0.563535 0.390089
Si Si2 0.615390 0.663809 0.946943
Si Si3 0.632548 0.002965 0.166708
Si Si4 0.868414 0.138478 0.484162
Si Si5 0.890522 0.321857 0.851385
Si Si6 0.750000 0.250000 0.250000
O O1 0.864468 0.576725 0.476045
O O2 0.790923 0.556923 0.332816
O O3 0.027929 0.434947 0.391303
O O4 0.008330 0.697288 0.372092
O O5 0.750000 0.750000 0.920619
O O6 0.510006 0.779016 0.974458
O O7 0.616560 0.023115 0.077435
O O8 0.651463 0.151244 0.201958
O O9 0.494732 0.922528 0.193046
O O10 0.750000 0.250000 0.463170
O O11 0.843042 0.104820 0.570986
O O12 0.750000 0.250000 0.823142
#
# Coordination Sequence:
#
# PCOD9389754 Si02
#       6
#     8   8   8   8   8   2
#     4  10  20  36  54  87 132 173 222 279 346 421
#     4  10  19  29  52  88 130 176 215 264 350 428
#     4  12  22  43  64  91 137 173 242 283 331 427
#     4  10  18  35  58  95 135 178 209 275 349 418
#     4  10  23  36  63 103 136 171 214 282 374 430
#     4  12  28  44  74  94 116 196 248 296 338 400
#
# _framework density 25.056882000000002
#
# number of rings (size 3 to 8) (size 9 to 14) (size 15 to 20)
#    0.000    1.524    2.857    3.429    5.333    0.000 
#    0.000    1.905    0.000    3.429    0.000    0.000 
#    0.000    0.000    0.000    0.000    0.000    0.381 
#
# Total GULP energy -234621.374471 kJ/mol
# GULP energy per Si atom -5586.223202 kJ/mol
# Density = 2.499985 g / cm^3
# Si number density = 25.056882 Si / 1000 Ang^3
#
#
#
# Elastic Constant Matrix: (Units=GPa)
#
#
# Indices 1 2 3 4 5 6 
#
# 1 181.6733 68.5003 26.7566 0.0000 0.0000 0.0000
# 2 68.5003 101.8011 19.1343 0.0000 0.0000 0.0000
# 3 26.7566 19.1343 65.0444 0.0000 0.0000 0.0000
# 4 0.0000 0.0000 0.0000 26.3344 0.0000 0.0000
# 5 0.0000 0.0000 0.0000 0.0000 21.4589 0.0000
# 6 0.0000 0.0000 0.0000 0.0000 0.0000 64.5449
#
#
#
# Elastic Compliance Matrix: (Units=1/GPa)
#
#
# Indices 1 2 3 4 5 6 
#
# 1 0.007550 -0.004760 -0.001706 0.000000 0.000000 0.000000
# 2 -0.004760 0.013399 -0.001984 0.000000 0.000000 0.000000
# 3 -0.001706 -0.001984 0.016659 0.000000 0.000000 0.000000
# 4 0.000000 0.000000 0.000000 0.037973 0.000000 0.000000
# 5 0.000000 0.000000 0.000000 0.000000 0.046601 0.000000
# 6 0.000000 0.000000 0.000000 0.000000 0.000000 0.015493
#
#
# Mechanical properties :
#
#
# Convention : Reuss Voigt Hill
#
# Bulk Modulus (GPa) = 48.28548 64.14458 56.21503
# Shear Modulus (GPa) = 30.96419 38.07614 34.52017
#
# Velocity S-wave (km/s) = 3.51915 3.90242 3.71573
# Velocity P-wave (km/s) = 5.98537 6.77940 6.39473
#
# Compressibility (1/GPa) = 0.02071016
#
# Stress axis : x y z
#
# Youngs Moduli (GPa) = 132.44470 74.63384 60.02671
#
# Poissons Ratio (x) = 0.35525 0.10239
# Poissons Ratio (y) = 0.63042 0.11906
# Poissons Ratio (z) = 0.22591 0.14804
#
# Static dielectric constant tensor:
#      x y z
#    x 2.171950 0.000000 0.000000 
#    y 0.000000 2.010300 0.000000 
#    z 0.000000 0.000000 2.052070 
# 
# From -- ./inp_files/33417.got.cif
#   From: 2010.05.17/outbox.cif.g08.bks.cpg/sg48_17_cif.got.tgz:33417.got - 2010.06.03 20:39:00.
