data_PCOD9389743
_publ_section_title
;
Structure prediction by ZEFSAII (Michael W. Deem and Ramdas Pophale) SiO2 
 PCOD9389743
Probable space group: P N N N
;
_chemical_formula_sum "Si O2"
_cell_formula_units_Z 64
_cell_length_a 18.436710
_cell_length_b 10.562903
_cell_length_c 18.999822
_cell_angle_alpha 90.000000
_cell_angle_beta 90.000000
_cell_angle_gamma 90.000000
_cell_volume 3700.123743
_symmetry_space_group_name_H-M "P N N N"
_symmetry_group_IT_number 48
_space_group.IT_coordinate_system_code '2'
_symmetry_cell_setting 'orthorhombic'
loop_
_space_group_symop_operation_xyz
x,y,z
1/2-x,1/2-y,z
x,1/2-y,1/2-z
1/2-x,y,1/2-z
-x,-y,-z
1/2+x,1/2+y,-z
-x,1/2+y,1/2+z
1/2+x,-y,1/2+z
loop_
_atom_site_type_symbol
_atom_site_label
_atom_site_fract_x
_atom_site_fract_y
_atom_site_fract_z
Si Si1 0.520468 0.593287 0.604768
Si Si2 0.759092 0.389494 0.077413
Si Si3 0.611163 0.505852 0.022157
Si Si4 0.048926 0.598648 0.746130
Si Si5 0.319485 0.435287 0.704451
Si Si6 0.112209 0.981853 0.503829
Si Si7 0.025647 0.390540 0.401331
Si Si8 0.162369 0.266948 0.917088
O O1 0.495969 0.567903 0.683702
O O2 0.451697 0.568434 0.554076
O O3 0.582312 0.502806 0.573922
O O4 0.540865 0.740734 0.598649
O O5 0.750000 0.250000 0.106779
O O6 0.685694 0.438133 0.042307
O O7 0.788666 0.476861 0.140627
O O8 0.820085 0.392099 0.017057
O O9 0.545381 0.422800 0.052294
O O10 0.619766 0.640836 0.061994
O O11 0.591004 0.537438 0.941125
O O12 0.066954 0.750000 0.750000
O O13 0.121613 0.514382 0.751319
O O14 0.000227 0.575105 0.677333
O O15 0.250000 0.401229 0.750000
O O16 0.351403 0.315236 0.662445
O O17 0.136070 0.120160 0.532226
O O18 0.250000 0.250000 0.924509
#
# Coordination Sequence:
#
# PCOD9389743 Si02
#       8
#     8   8   8   8   8   8   8   8
#     4  10  18  35  56  79 109 135 190 227 273 331
#     4  11  22  36  55  82 109 143 187 230 271 325
#     4  11  21  37  55  77 108 144 193 225 273 325
#     4  10  21  35  52  81 112 143 179 224 280 326
#     4  11  23  34  51  80 116 154 177 217 276 339
#     4  10  19  32  56  82 101 147 179 229 274 317
#     4  10  22  35  55  77 106 149 178 234 273 321
#     4  11  20  37  51  77 111 143 184 223 271 330
#
# _framework density 17.296717000000001
#
# number of rings (size 3 to 8) (size 9 to 14) (size 15 to 20)
#    0.000    1.500    6.250    1.500    3.500    0.250 
#    0.000    0.000    0.000    0.750    0.000    4.375 
#    0.000    0.000    0.000    0.000    0.000    0.000 
#
# Total GULP energy -356963.111766 kJ/mol
# GULP energy per Si atom -5577.548621 kJ/mol
# Density = 1.725735 g / cm^3
# Si number density = 17.296717 Si / 1000 Ang^3
#
#
#
# Elastic Constant Matrix: (Units=GPa)
#
#
# Indices 1 2 3 4 5 6 
#
# 1 32.7990 -0.8796 21.5316 0.0000 0.0000 0.0000
# 2 -0.8796 33.0035 17.8502 0.0000 0.0000 0.0000
# 3 21.5316 17.8502 100.5470 0.0000 0.0000 0.0000
# 4 0.0000 0.0000 0.0000 18.6970 0.0000 0.0000
# 5 0.0000 0.0000 0.0000 0.0000 27.0813 0.0000
# 6 0.0000 0.0000 0.0000 0.0000 0.0000 22.7530
#
#
#
# Elastic Compliance Matrix: (Units=1/GPa)
#
#
# Indices 1 2 3 4 5 6 
#
# 1 0.036434 0.005742 -0.008822 0.000000 0.000000 0.000000
# 2 0.005742 0.034423 -0.007341 0.000000 0.000000 0.000000
# 3 -0.008822 -0.007341 0.013138 0.000000 0.000000 0.000000
# 4 0.000000 0.000000 0.000000 0.053484 0.000000 0.000000
# 5 0.000000 0.000000 0.000000 0.000000 0.036926 0.000000
# 6 0.000000 0.000000 0.000000 0.000000 0.000000 0.043950
#
#
# Mechanical properties :
#
#
# Convention : Reuss Voigt Hill
#
# Bulk Modulus (GPa) = 15.83411 27.03931 21.43671
# Shear Modulus (GPa) = 19.21249 22.22942 20.72095
#
# Velocity S-wave (km/s) = 3.33642 3.58883 3.46493
# Velocity P-wave (km/s) = 4.90067 5.73058 5.33179
#
# Compressibility (1/GPa) = 0.06315479
#
# Stress axis : x y z
#
# Youngs Moduli (GPa) = 27.44701 29.05010 76.11562
#
# Poissons Ratio (x) = -0.16681 0.67146
# Poissons Ratio (y) = -0.15761 0.55875
# Poissons Ratio (z) = 0.24212 0.21325
#
# Static dielectric constant tensor:
#      x y z
#    x 1.593480 0.000000 0.000000 
#    y 0.000000 1.611420 0.000000 
#    z 0.000000 0.000000 1.602380 
# 
# From -- ./inp_files/31252.got.cif
#   From: 2010.05.17/outbox.cif.g08.bks.cpg/sg48_16_cif.got.tgz:31252.got - 2010.06.03 20:39:00.
