data_PCOD9389674
_publ_section_title
;
Structure prediction by ZEFSAII (Michael W. Deem and Ramdas Pophale) SiO2 
 PCOD9389674
Probable space group: P N N N
;
_chemical_formula_sum "Si O2"
_cell_formula_units_Z 56
_cell_length_a 7.916272
_cell_length_b 26.490120
_cell_length_c 13.414076
_cell_angle_alpha 90.000000
_cell_angle_beta 90.000000
_cell_angle_gamma 90.000000
_cell_volume 2812.971915
_symmetry_space_group_name_H-M "P N N N"
_symmetry_group_IT_number 48
_space_group.IT_coordinate_system_code '2'
_symmetry_cell_setting 'orthorhombic'
loop_
_space_group_symop_operation_xyz
x,y,z
1/2-x,1/2-y,z
x,1/2-y,1/2-z
1/2-x,y,1/2-z
-x,-y,-z
1/2+x,1/2+y,-z
-x,1/2+y,1/2+z
1/2+x,-y,1/2+z
loop_
_atom_site_type_symbol
_atom_site_label
_atom_site_fract_x
_atom_site_fract_y
_atom_site_fract_z
Si Si1 0.520276 0.347321 0.954864
Si Si2 0.408832 0.864200 0.055014
Si Si3 0.851481 0.934904 0.936333
Si Si4 0.955554 0.243937 0.634094
Si Si5 0.055431 0.403829 0.744646
Si Si6 0.502817 0.455517 0.416931
Si Si7 0.348012 0.503029 0.861081
O O1 0.717992 0.352962 0.981001
O O2 0.475957 0.289511 0.932964
O O3 0.521523 0.374345 0.847228
O O4 0.394116 0.378400 0.025759
O O5 0.489945 0.810326 0.084905
O O6 0.443527 0.895087 0.157893
O O7 0.479919 0.901771 0.972581
O O8 0.685016 0.949437 0.874445
O O9 0.014725 0.954687 0.880435
O O10 0.836823 0.967863 0.038789
O O11 0.750000 0.250000 0.636675
O O12 0.011058 0.250000 0.750000
O O13 0.250000 0.384874 0.750000
O O14 0.079201 0.462208 0.716582
O O15 0.500000 0.500000 0.500000
O O16 0.667843 0.468742 0.352920
#
# Coordination Sequence:
#
# PCOD9389674 Si02
#       7
#     8   8   8   8   8   8   8
#     4  10  18  32  49  66  95 131 174 211 244 294
#     4  11  19  32  50  69  96 135 170 213 256 292
#     4   9  17  31  49  66  85 120 168 203 250 293
#     4   9  17  30  45  67  96 133 170 206 245 290
#     4  11  21  31  43  68  96 126 168 209 249 302
#     4  10  19  32  50  67  90 124 167 212 250 299
#     4   9  18  33  46  64  92 121 160 209 253 293
#
# _framework density 19.907769999999999
#
# number of rings (size 3 to 8) (size 9 to 14) (size 15 to 20)
#    0.000    2.143    2.857    3.000    2.000    0.000 
#    2.571    3.571    0.000    0.000    0.000    0.000 
#    0.000    0.000    0.000    9.000    0.000   28.143 
#
# Total GULP energy -312048.687161 kJ/mol
# GULP energy per Si atom -5572.297985 kJ/mol
# Density = 1.986246 g / cm^3
# Si number density = 19.907770 Si / 1000 Ang^3
#
#
#
# Elastic Constant Matrix: (Units=GPa)
#
#
# Indices 1 2 3 4 5 6 
#
# 1 93.6542 41.7217 13.7980 0.0000 0.0000 0.0000
# 2 41.7217 135.4102 36.1348 0.0000 0.0000 0.0000
# 3 13.7980 36.1348 20.9350 0.0000 0.0000 0.0000
# 4 0.0000 0.0000 0.0000 23.6534 0.0000 0.0000
# 5 0.0000 0.0000 0.0000 0.0000 20.3965 0.0000
# 6 0.0000 0.0000 0.0000 0.0000 0.0000 17.6397
#
#
#
# Elastic Compliance Matrix: (Units=1/GPa)
#
#
# Indices 1 2 3 4 5 6 
#
# 1 0.012473 -0.003058 -0.002943 0.000000 0.000000 0.000000
# 2 -0.003058 0.014441 -0.022910 0.000000 0.000000 0.000000
# 3 -0.002943 -0.022910 0.089250 0.000000 0.000000 0.000000
# 4 0.000000 0.000000 0.000000 0.042277 0.000000 0.000000
# 5 0.000000 0.000000 0.000000 0.000000 0.049028 0.000000
# 6 0.000000 0.000000 0.000000 0.000000 0.000000 0.056690
#
#
# Mechanical properties :
#
#
# Convention : Reuss Voigt Hill
#
# Bulk Modulus (GPa) = 17.14016 48.14537 32.64277
# Shear Modulus (GPa) = 14.64433 22.89426 18.76930
#
# Velocity S-wave (km/s) = 2.71515 3.39487 3.07386
# Velocity P-wave (km/s) = 4.29626 6.29314 5.38802
#
# Compressibility (1/GPa) = 0.05834252
#
# Stress axis : x y z
#
# Youngs Moduli (GPa) = 80.17051 69.24845 11.20447
#
# Poissons Ratio (x) = 0.21175 0.03298
# Poissons Ratio (y) = 0.24515 0.25669
# Poissons Ratio (z) = 0.23594 1.58648
#
# Static dielectric constant tensor:
#      x y z
#    x 1.854890 0.000000 0.000000 
#    y 0.000000 1.708090 0.000000 
#    z 0.000000 0.000000 1.737280 
# 
# From -- ./inp_files/30552.got.cif
#   From: 2010.05.17/outbox.cif.g08.bks.cpg/sg48_16_cif.got.tgz:30552.got - 2010.06.03 20:39:00.
