data_PCOD9389516
_publ_section_title
;
Structure prediction by ZEFSAII (Michael W. Deem and Ramdas Pophale) SiO2 
 PCOD9389516
Probable space group: P N N N
;
_chemical_formula_sum "Si O2"
_cell_formula_units_Z 40
_cell_length_a 8.758779
_cell_length_b 14.455232
_cell_length_c 18.024129
_cell_angle_alpha 90.000000
_cell_angle_beta 90.000000
_cell_angle_gamma 90.000000
_cell_volume 2282.038262
_symmetry_space_group_name_H-M "P N N N"
_symmetry_group_IT_number 48
_space_group.IT_coordinate_system_code '2'
_symmetry_cell_setting 'orthorhombic'
loop_
_space_group_symop_operation_xyz
x,y,z
1/2-x,1/2-y,z
x,1/2-y,1/2-z
1/2-x,y,1/2-z
-x,-y,-z
1/2+x,1/2+y,-z
-x,1/2+y,1/2+z
1/2+x,-y,1/2+z
loop_
_atom_site_type_symbol
_atom_site_label
_atom_site_fract_x
_atom_site_fract_y
_atom_site_fract_z
Si Si1 0.414223 0.774652 0.996519
Si Si2 0.875576 0.569715 0.033111
Si Si3 0.846877 0.844380 0.918290
Si Si4 0.830922 0.412880 0.138266
Si Si5 0.977116 0.143403 0.223244
O O1 0.250000 0.750000 0.030405
O O2 0.502270 0.686152 0.963914
O O3 0.377085 0.839816 0.925283
O O4 0.532963 0.834300 0.045615
O O5 0.808824 0.513686 0.102487
O O6 0.750606 0.588668 0.969967
O O7 0.000000 0.500000 0.000000
O O8 0.750000 0.750000 0.909621
O O9 0.892001 0.877215 0.836391
O O10 0.679513 0.375067 0.178116
O O11 0.962204 0.413922 0.200994
O O12 0.985910 0.250000 0.250000
#
# Coordination Sequence:
#
# PCOD9389516 Si02
#       5
#     8   8   8   8   8
#     4  10  16  33  54  74 103 141 180 218 269 334
#     4   9  21  35  46  74 117 144 178 229 271 324
#     4  10  20  33  52  79 109 147 186 225 269 336
#     4  10  18  32  51  78 119 141 171 223 282 345
#     4  11  19  31  55  82 111 149 177 212 283 356
#
# _framework density 17.528189999999999
#
# number of rings (size 3 to 8) (size 9 to 14) (size 15 to 20)
#    0.000    2.000    4.000    1.200    0.000    1.200 
#    0.000    0.000    0.000    0.000    0.000   25.200 
#   12.000    0.000    0.000    0.000    0.000    0.000 
#
# Total GULP energy -222901.287490 kJ/mol
# GULP energy per Si atom -5572.532187 kJ/mol
# Density = 1.748830 g / cm^3
# Si number density = 17.528190 Si / 1000 Ang^3
#
#
#
# Elastic Constant Matrix: (Units=GPa)
#
#
# Indices 1 2 3 4 5 6 
#
# 1 74.6420 22.0270 30.6163 0.0000 0.0000 0.0000
# 2 22.0270 53.3631 48.9967 0.0000 0.0000 0.0000
# 3 30.6163 48.9967 83.7365 0.0000 0.0000 0.0000
# 4 0.0000 0.0000 0.0000 36.2895 0.0000 0.0000
# 5 0.0000 0.0000 0.0000 0.0000 33.7941 0.0000
# 6 0.0000 0.0000 0.0000 0.0000 0.0000 13.1036
#
#
#
# Elastic Compliance Matrix: (Units=1/GPa)
#
#
# Indices 1 2 3 4 5 6 
#
# 1 0.015933 -0.002654 -0.004273 0.000000 0.000000 0.000000
# 2 -0.002654 0.040938 -0.022984 0.000000 0.000000 0.000000
# 3 -0.004273 -0.022984 0.026953 0.000000 0.000000 0.000000
# 4 0.000000 0.000000 0.000000 0.027556 0.000000 0.000000
# 5 0.000000 0.000000 0.000000 0.000000 0.029591 0.000000
# 6 0.000000 0.000000 0.000000 0.000000 0.000000 0.076315
#
#
# Mechanical properties :
#
#
# Convention : Reuss Voigt Hill
#
# Bulk Modulus (GPa) = 41.66045 46.11352 43.88699
# Shear Modulus (GPa) = 17.53719 23.97752 20.75735
#
# Velocity S-wave (km/s) = 3.16652 3.70258 3.44499
# Velocity P-wave (km/s) = 6.09823 6.68163 6.39658
#
# Compressibility (1/GPa) = 0.02400358
#
# Stress axis : x y z
#
# Youngs Moduli (GPa) = 62.76295 24.42707 37.10151
#
# Poissons Ratio (x) = 0.06482 0.15853
# Poissons Ratio (y) = 0.16654 0.85274
# Poissons Ratio (z) = 0.26818 0.56143
#
# Static dielectric constant tensor:
#      x y z
#    x 1.695510 0.000000 0.000000 
#    y 0.000000 1.615900 0.000000 
#    z 0.000000 0.000000 1.620400 
# 
# From -- ./inp_files/12516.got.cif
#   From: 2010.05.17/outbox.cif.g08.bks.cpg/sg48_7_cif.got.tgz:12516.got - 2010.06.03 20:39:00.
