data_PCOD9389997
_publ_section_title
;
Structure prediction by ZEFSAII (Michael W. Deem and Ramdas Pophale) SiO2 
 PCOD9389997
Probable space group: P N N N
;
_chemical_formula_sum "Si O2"
_cell_formula_units_Z 38
_cell_length_a 11.696893
_cell_length_b 18.817305
_cell_length_c 8.518727
_cell_angle_alpha 90.000000
_cell_angle_beta 90.000000
_cell_angle_gamma 90.000000
_cell_volume 1875.005914
_symmetry_space_group_name_H-M "P N N N"
_symmetry_group_IT_number 48
_space_group.IT_coordinate_system_code '2'
_symmetry_cell_setting 'orthorhombic'
loop_
_space_group_symop_operation_xyz
x,y,z
1/2-x,1/2-y,z
x,1/2-y,1/2-z
1/2-x,y,1/2-z
-x,-y,-z
1/2+x,1/2+y,-z
-x,1/2+y,1/2+z
1/2+x,-y,1/2+z
loop_
_atom_site_type_symbol
_atom_site_label
_atom_site_fract_x
_atom_site_fract_y
_atom_site_fract_z
Si Si1 0.059790 0.000661 0.332736
Si Si2 0.250000 0.250000 0.250000
Si Si3 0.750000 0.116175 0.750000
Si Si4 0.912330 0.869346 0.853329
Si Si5 0.339983 0.027320 0.627091
Si Si6 0.682443 0.363878 0.089658
O O1 0.147579 0.937485 0.298653
O O2 0.959588 0.988388 0.208432
O O3 0.102954 0.080794 0.300732
O O4 0.000000 0.000000 0.500000
O O5 0.164865 0.199766 0.153855
O O6 0.718567 0.158767 0.588132
O O7 0.046825 0.852653 0.881140
O O8 0.864591 0.920480 0.987378
O O9 0.250000 0.057888 0.750000
O O10 0.295871 0.949334 0.579493
O O11 0.750000 0.340329 0.250000
#
# Coordination Sequence:
#
# PCOD9389997 Si02
#       6
#     8   2   4   8   8   8
#     4  11  21  32  63  98 126 162 207 276 344 383
#     4  12  30  40  72  80 128 206 210 252 312 408
#     4  12  17  32  58  95 125 163 188 268 360 366
#     4  11  22  44  55  92 132 170 229 251 314 407
#     4  10  19  35  59  92 136 165 199 283 332 368
#     4  10  20  36  62  98 129 156 210 280 340 380
#
# _framework density 20.266601999999999
#
# number of rings (size 3 to 8) (size 9 to 14) (size 15 to 20)
#    0.000    1.263    4.211    5.684    2.947    0.000 
#    0.000    1.053    0.000    0.000    0.000    1.474 
#    0.000    0.000    0.000    0.000    0.000    0.000 
#
# Total GULP energy -212079.058777 kJ/mol
# GULP energy per Si atom -5581.027863 kJ/mol
# Density = 2.022047 g / cm^3
# Si number density = 20.266602 Si / 1000 Ang^3
#
#
#
# Elastic Constant Matrix: (Units=GPa)
#
#
# Indices 1 2 3 4 5 6 
#
# 1 108.1409 21.8503 47.2969 0.0000 0.0000 0.0000
# 2 21.8503 61.7077 33.3275 0.0000 0.0000 0.0000
# 3 47.2969 33.3275 142.5881 0.0000 0.0000 0.0000
# 4 0.0000 0.0000 0.0000 0.4620 0.0000 0.0000
# 5 0.0000 0.0000 0.0000 0.0000 39.7971 0.0000
# 6 0.0000 0.0000 0.0000 0.0000 0.0000 28.2728
#
#
#
# Elastic Compliance Matrix: (Units=1/GPa)
#
#
# Indices 1 2 3 4 5 6 
#
# 1 0.011075 -0.002217 -0.003155 0.000000 0.000000 0.000000
# 2 -0.002217 0.018991 -0.003703 0.000000 0.000000 0.000000
# 3 -0.003155 -0.003703 0.008925 0.000000 0.000000 0.000000
# 4 0.000000 0.000000 0.000000 2.164342 0.000000 0.000000
# 5 0.000000 0.000000 0.000000 0.000000 0.025127 0.000000
# 6 0.000000 0.000000 0.000000 0.000000 0.000000 0.035370
#
#
# Mechanical properties :
#
#
# Convention : Reuss Voigt Hill
#
# Bulk Modulus (GPa) = 47.98647 57.48734 52.73690
# Shear Modulus (GPa) = 2.18443 27.70385 14.94414
#
# Velocity S-wave (km/s) = 1.03932 3.70127 2.71842
# Velocity P-wave (km/s) = 5.01690 6.83323 5.99426
#
# Compressibility (1/GPa) = 0.02083921
#
# Stress axis : x y z
#
# Youngs Moduli (GPa) = 90.29086 52.65748 112.03945
#
# Poissons Ratio (x) = 0.11677 0.35353
# Poissons Ratio (y) = 0.20022 0.41490
# Poissons Ratio (z) = 0.28491 0.19500
#
# Static dielectric constant tensor:
#      x y z
#    x 1.732640 0.000000 0.000000 
#    y 0.000000 1.703260 0.000000 
#    z 0.000000 0.000000 1.808490 
# 
# From -- ./inp_files/10729.got.cif
#   From: 2010.05.17/outbox.cif.g08.bks.cpg/sg48_6_cif.got.tgz:10729.got - 2010.06.03 20:39:00.
