data_PCOD9389515
_publ_section_title
;
Structure prediction by ZEFSAII (Michael W. Deem and Ramdas Pophale) SiO2 
 PCOD9389515
Probable space group: P N N N
;
_chemical_formula_sum "Si O2"
_cell_formula_units_Z 50
_cell_length_a 15.347721
_cell_length_b 16.397147
_cell_length_c 9.086013
_cell_angle_alpha 90.000000
_cell_angle_beta 90.000000
_cell_angle_gamma 90.000000
_cell_volume 2286.575468
_symmetry_space_group_name_H-M "P N N N"
_symmetry_group_IT_number 48
_space_group.IT_coordinate_system_code '2'
_symmetry_cell_setting 'orthorhombic'
loop_
_space_group_symop_operation_xyz
x,y,z
1/2-x,1/2-y,z
x,1/2-y,1/2-z
1/2-x,y,1/2-z
-x,-y,-z
1/2+x,1/2+y,-z
-x,1/2+y,1/2+z
1/2+x,-y,1/2+z
loop_
_atom_site_type_symbol
_atom_site_label
_atom_site_fract_x
_atom_site_fract_y
_atom_site_fract_z
Si Si1 0.125003 0.121757 0.605394
Si Si2 0.750000 0.053695 0.750000
Si Si3 0.339505 0.796696 0.099195
Si Si4 0.750000 0.012000 0.250000
Si Si5 0.012187 0.217446 0.416500
Si Si6 0.750000 0.750000 0.250000
Si Si7 0.024614 0.374389 0.604315
Si Si8 0.134661 0.528668 0.497258
O O1 0.183369 0.042742 0.649092
O O2 0.077066 0.141244 0.451482
O O3 0.191708 0.192998 0.647970
O O4 0.046327 0.128900 0.724041
O O5 0.690266 0.114047 0.847596
O O6 0.694383 0.002657 0.637434
O O7 0.250000 0.750000 0.054284
O O8 0.369829 0.750000 0.250000
O O9 0.414678 0.799546 0.977649
O O10 0.690616 0.059295 0.364889
O O11 0.011935 0.250000 0.250000
O O12 0.045316 0.291638 0.520143
O O13 0.082882 0.449449 0.547909
O O14 0.927777 0.400940 0.561375
#
# Coordination Sequence:
#
# PCOD9389515 Si02
#       8
#     8   4   8   4   8   2   8   8
#     4  10  19  37  61  81 110 150 197 233 282 346
#     4  10  19  34  58  84 111 148 192 236 282 332
#     4   9  19  37  60  83 110 152 198 234 279 346
#     4   9  22  37  58  84 111 156 201 234 286 347
#     4  12  23  34  56  90 119 145 179 246 303 331
#     4  10  16  32  66  80  98 148 188 232 262 342
#     4  10  20  39  58  80 111 155 195 227 278 354
#     4  10  21  36  59  81 112 152 193 236 279 339
#
# _framework density 21.866759999999999
#
# number of rings (size 3 to 8) (size 9 to 14) (size 15 to 20)
#    0.000    2.080    1.600    3.840    0.000    2.880 
#    0.000    0.400    0.000    7.680    0.000    0.000 
#    0.000    0.000    0.000    0.000    0.000    0.000 
#
# Total GULP energy -279170.269734 kJ/mol
# GULP energy per Si atom -5583.405395 kJ/mol
# Density = 2.181699 g / cm^3
# Si number density = 21.866760 Si / 1000 Ang^3
#
#
#
# Elastic Constant Matrix: (Units=GPa)
#
#
# Indices 1 2 3 4 5 6 
#
# 1 109.2344 6.3824 61.0559 0.0000 0.0000 0.0000
# 2 6.3824 23.4858 9.0830 0.0000 0.0000 0.0000
# 3 61.0559 9.0830 110.1040 0.0000 0.0000 0.0000
# 4 0.0000 0.0000 0.0000 5.2158 0.0000 0.0000
# 5 0.0000 0.0000 0.0000 0.0000 24.8172 0.0000
# 6 0.0000 0.0000 0.0000 0.0000 0.0000 2.4899
#
#
#
# Elastic Compliance Matrix: (Units=1/GPa)
#
#
# Indices 1 2 3 4 5 6 
#
# 1 0.013281 -0.000786 -0.007300 0.000000 0.000000 0.000000
# 2 -0.000786 0.044029 -0.003196 0.000000 0.000000 0.000000
# 3 -0.007300 -0.003196 0.013394 0.000000 0.000000 0.000000
# 4 0.000000 0.000000 0.000000 0.191727 0.000000 0.000000
# 5 0.000000 0.000000 0.000000 0.000000 0.040295 0.000000
# 6 0.000000 0.000000 0.000000 0.000000 0.000000 0.401629
#
#
# Mechanical properties :
#
#
# Convention : Reuss Voigt Hill
#
# Bulk Modulus (GPa) = 20.77307 43.98523 32.37915
# Shear Modulus (GPa) = 6.72980 17.59142 12.16061
#
# Velocity S-wave (km/s) = 1.75622 2.83942 2.36078
# Velocity P-wave (km/s) = 3.69227 5.55954 4.71918
#
# Compressibility (1/GPa) = 0.04813926
#
# Stress axis : x y z
#
# Youngs Moduli (GPa) = 75.29750 22.71249 74.66093
#
# Poissons Ratio (x) = 0.01785 0.54500
# Poissons Ratio (y) = 0.05918 0.23864
# Poissons Ratio (z) = 0.54965 0.07260
#
# Static dielectric constant tensor:
#      x y z
#    x 1.889450 0.000000 0.000000 
#    y 0.000000 1.827050 0.000000 
#    z 0.000000 0.000000 1.786260 
# 
# From -- ./inp_files/12867.got.cif
#   From: 2010.05.17/outbox.cif.g08.bks.cpg/sg48_7_cif.got.tgz:12867.got - 2010.06.03 20:39:00.
