data_PCOD9389023
_publ_section_title
;
Structure prediction by ZEFSAII (Michael W. Deem and Ramdas Pophale) SiO2 
 PCOD9389023
Probable space group: P M M M
;
_chemical_formula_sum "Si O2"
_cell_formula_units_Z 56
_cell_length_a 19.382749
_cell_length_b 7.530496
_cell_length_c 19.806957
_cell_angle_alpha 90.000000
_cell_angle_beta 90.000000
_cell_angle_gamma 90.000000
_cell_volume 2891.057389
_symmetry_space_group_name_H-M "P M M M"
_symmetry_group_IT_number 47
_symmetry_cell_setting 'orthorhombic'
loop_
_space_group_symop_operation_xyz
x,y,z
-x,-y,z
x,-y,-z
-x,y,-z
-x,-y,-z
x,y,-z
-x,y,z
x,-y,z
loop_
_atom_site_type_symbol
_atom_site_label
_atom_site_fract_x
_atom_site_fract_y
_atom_site_fract_z
Si Si1 0.573953 0.297043 0.918988
Si Si2 0.720067 0.787659 0.217862
Si Si3 0.923903 0.783585 0.578590
Si Si4 0.639458 0.289760 0.425671
Si Si5 0.272419 0.798275 0.924812
Si Si6 0.422883 0.285922 0.284820
Si Si7 0.781749 0.784890 0.641517
O O1 0.500000 0.226738 0.894099
O O2 0.581760 0.500000 0.893327
O O3 0.644977 0.195109 0.912139
O O4 0.567957 0.309318 0.000000
O O5 0.748501 0.713868 0.146684
O O6 0.638835 0.759193 0.233716
O O7 0.759086 0.720650 0.284427
O O8 0.729816 0.000000 0.214639
O O9 0.917136 0.733263 0.500000
O O10 0.856870 0.722395 0.618795
O O11 0.000000 0.726575 0.602523
O O12 0.923440 0.000000 0.580457
O O13 0.622866 0.216527 0.500000
O O14 0.624802 0.500000 0.427730
O O15 0.599739 0.219485 0.359536
O O16 0.720567 0.266805 0.409524
O O17 0.246073 0.000000 0.928189
O O18 0.261486 0.718302 0.000000
O O19 0.500000 0.224232 0.268106
O O20 0.424508 0.500000 0.287414
O O21 0.782453 0.000000 0.642884
#
# Coordination Sequence:
#
# PCOD9389023 Si02
#       7
#     8   8   8   8   8   8   8
#     4   8  14  24  36  50  68  88 111 143 185 231
#     4   9  18  30  42  57  76  99 128 161 197 236
#     4   8  13  21  36  61  88 108 127 153 183 214
#     4   9  17  28  42  60  80 102 130 164 198 229
#     4   9  17  28  40  53  70  92 119 153 191 230
#     4   9  18  31  44  57  74  99 131 164 199 238
#     4   9  16  27  43  60  80 106 133 159 188 226
#
# _framework density 19.370076000000001
#
# number of rings (size 3 to 8) (size 9 to 14) (size 15 to 20)
#    0.000    3.286    0.000    1.286    0.000    2.857 
#    0.000    5.714    0.000    0.429    0.000    6.000 
#    0.000    0.571    0.000    8.000    0.000    0.000 
#
# Total GULP energy -311857.530698 kJ/mol
# GULP energy per Si atom -5568.884477 kJ/mol
# Density = 1.932599 g / cm^3
# Si number density = 19.370076 Si / 1000 Ang^3
#
#
#
# Elastic Constant Matrix: (Units=GPa)
#
#
# Indices 1 2 3 4 5 6 
#
# 1 74.4238 -6.4040 28.6593 0.0000 0.0000 0.0000
# 2 -6.4040 49.3630 1.6620 0.0000 0.0000 0.0000
# 3 28.6593 1.6620 151.8522 0.0000 0.0000 0.0000
# 4 0.0000 0.0000 0.0000 5.9347 0.0000 0.0000
# 5 0.0000 0.0000 0.0000 0.0000 5.9404 0.0000
# 6 0.0000 0.0000 0.0000 0.0000 0.0000 14.0323
#
#
#
# Elastic Compliance Matrix: (Units=1/GPa)
#
#
# Indices 1 2 3 4 5 6 
#
# 1 0.014684 0.001999 -0.002793 0.000000 0.000000 0.000000
# 2 0.001999 0.020538 -0.000602 0.000000 0.000000 0.000000
# 3 -0.002793 -0.000602 0.007119 0.000000 0.000000 0.000000
# 4 0.000000 0.000000 0.000000 0.168501 0.000000 0.000000
# 5 0.000000 0.000000 0.000000 0.000000 0.168338 0.000000
# 6 0.000000 0.000000 0.000000 0.000000 0.000000 0.071264
#
#
# Mechanical properties :
#
#
# Convention : Reuss Voigt Hill
#
# Bulk Modulus (GPa) = 25.28538 35.94151 30.61344
# Shear Modulus (GPa) = 10.71996 21.96293 16.34144
#
# Velocity S-wave (km/s) = 2.35506 3.37093 2.90771
# Velocity P-wave (km/s) = 4.52518 5.80916 5.20690
#
# Compressibility (1/GPa) = 0.03954854
#
# Stress axis : x y z
#
# Youngs Moduli (GPa) = 68.10034 48.69092 140.46691
#
# Poissons Ratio (x) = -0.09734 0.39236
# Poissons Ratio (y) = -0.13614 0.08457
# Poissons Ratio (z) = 0.19022 0.02932
#
# Static dielectric constant tensor:
#      x y z
#    x 1.660850 0.000000 0.000000 
#    y 0.000000 1.742170 0.000000 
#    z 0.000000 0.000000 1.751570 
# 
# From -- ./inp_files/11502.got.cif
#   From: 2010.05.17/outbox.cif.g08.bks.cpg/sg47_6_cif.got.tgz:11502.got - 2010.06.03 20:15:42.
