data_PCOD9389278
_publ_section_title
;
Structure prediction by ZEFSAII (Michael W. Deem and Ramdas Pophale) SiO2 
 PCOD9389278
Probable space group: P M M M
;
_chemical_formula_sum "Si O2"
_cell_formula_units_Z 52
_cell_length_a 27.000000
_cell_length_b 9.000000
_cell_length_c 12.000000
_cell_angle_alpha 90.000000
_cell_angle_beta 90.000000
_cell_angle_gamma 90.000000
_cell_volume 2916.000000
_symmetry_space_group_name_H-M "P M M M"
_symmetry_group_IT_number 47
_symmetry_cell_setting 'orthorhombic'
loop_
_space_group_symop_operation_xyz
x,y,z
-x,-y,z
x,-y,-z
-x,y,-z
-x,-y,-z
x,y,-z
-x,y,z
x,-y,z
loop_
_atom_site_type_symbol
_atom_site_label
_atom_site_fract_x
_atom_site_fract_y
_atom_site_fract_z
Si Si1 0.397582 0.824733 0.634403
Si Si2 0.942840 0.821334 0.709585
Si Si3 0.228915 0.170230 0.866164
Si Si4 0.702562 0.323602 0.296981
Si Si5 0.122917 0.819795 0.500000
Si Si6 0.237520 0.820644 0.500000
Si Si7 0.500000 0.328932 0.635372
Si Si8 0.871803 0.670706 0.866389
O O1 0.392553 0.806584 0.500000
O O2 0.352681 0.738372 0.690820
O O3 0.450280 0.756634 0.668586
O O4 0.395231 0.000000 0.657878
O O5 0.907566 0.772778 0.608432
O O6 0.921098 0.742357 0.817586
O O7 0.000000 0.785597 0.687751
O O8 0.939111 0.000000 0.721135
O O9 0.271726 0.271935 0.816651
O O10 0.175745 0.233906 0.828913
O O11 0.234510 0.000000 0.827902
O O12 0.229761 0.172144 0.000000
O O13 0.703412 0.500000 0.310310
O O14 0.734917 0.245269 0.393082
O O15 0.179989 0.774756 0.500000
O O16 0.122634 0.000000 0.500000
O O17 0.240956 0.000000 0.500000
O O18 0.500000 0.500000 0.672603
O O19 0.500000 0.330133 0.500000
O O20 0.866162 0.500000 0.830705
O O21 0.872754 0.674197 0.000000
#
# Coordination Sequence:
#
# PCOD9389278 Si02
#       8
#     8   8   8   8   4   4   4   8
#     4  10  19  32  50  73 106 147 190 228 266 318
#     4  10  20  35  56  79 102 132 172 214 256 309
#     4  10  21  38  59  80 104 137 178 221 266 321
#     4  12  23  34  52  79 113 146 179 223 272 320
#     4   9  19  35  54  74  99 133 171 211 254 301
#     4  11  21  34  53  77 107 144 183 220 264 321
#     4   9  17  29  47  71 104 143 184 229 276 323
#     4  10  21  37  56  78 105 134 166 210 265 319
#
# _framework density 17.832647000000001
#
# number of rings (size 3 to 8) (size 9 to 14) (size 15 to 20)
#    0.000    1.769    0.769    4.385    0.000    6.154 
#    0.000    2.692    0.000    0.923    0.000    0.538 
#    0.000    4.308    0.000    0.000    0.000    0.000 
#
# Total GULP energy -290382.758669 kJ/mol
# GULP energy per Si atom -5584.283821 kJ/mol
# Density = 1.779206 g / cm^3
# Si number density = 17.832647 Si / 1000 Ang^3
#
#
#
# Elastic Constant Matrix: (Units=GPa)
#
#
# Indices 1 2 3 4 5 6 
#
# 1 147.0820 61.5650 27.2125 0.0000 0.0000 0.0000
# 2 61.5650 102.5470 24.5841 0.0000 0.0000 0.0000
# 3 27.2125 24.5841 21.3133 0.0000 0.0000 0.0000
# 4 0.0000 0.0000 0.0000 19.9563 0.0000 0.0000
# 5 0.0000 0.0000 0.0000 0.0000 4.5825 0.0000
# 6 0.0000 0.0000 0.0000 0.0000 0.0000 6.8751
#
#
#
# Elastic Compliance Matrix: (Units=1/GPa)
#
#
# Indices 1 2 3 4 5 6 
#
# 1 0.009994 -0.004065 -0.008071 0.000000 0.000000 0.000000
# 2 -0.004065 0.015132 -0.012265 0.000000 0.000000 0.000000
# 3 -0.008071 -0.012265 0.071371 0.000000 0.000000 0.000000
# 4 0.000000 0.000000 0.000000 0.050109 0.000000 0.000000
# 5 0.000000 0.000000 0.000000 0.000000 0.218220 0.000000
# 6 0.000000 0.000000 0.000000 0.000000 0.000000 0.145452
#
#
# Mechanical properties :
#
#
# Convention : Reuss Voigt Hill
#
# Bulk Modulus (GPa) = 20.96618 55.29617 38.13117
# Shear Modulus (GPa) = 8.69597 16.78817 12.74207
#
# Velocity S-wave (km/s) = 2.21066 3.07160 2.67598
# Velocity P-wave (km/s) = 4.27770 6.60722 5.56570
#
# Compressibility (1/GPa) = 0.04769585
#
# Stress axis : x y z
#
# Youngs Moduli (GPa) = 100.06350 66.08407 14.01129
#
# Poissons Ratio (x) = 0.26862 0.11309
# Poissons Ratio (y) = 0.40674 0.17184
# Poissons Ratio (z) = 0.80762 0.81049
#
# Static dielectric constant tensor:
#      x y z
#    x 1.588830 0.000000 0.000000 
#    y 0.000000 1.595760 0.000000 
#    z 0.000000 0.000000 1.624660 
# 
# From -- ./inp_files/19847.got.cif
#   From: 2010.05.17/outbox.ucp.g08.bks.cvg/sg47_10_cif.got.tgz:19847.got - 2010.06.11 16:36:43.
