data_PCOD9389227
_publ_section_title
;
Structure prediction by ZEFSAII (Michael W. Deem and Ramdas Pophale) SiO2 
 PCOD9389227
Probable space group: P M M M
;
_chemical_formula_sum "Si O2"
_cell_formula_units_Z 40
_cell_length_a 9.000000
_cell_length_b 21.000000
_cell_length_c 15.000000
_cell_angle_alpha 90.000000
_cell_angle_beta 90.000000
_cell_angle_gamma 90.000000
_cell_volume 2835.000000
_symmetry_space_group_name_H-M "P M M M"
_symmetry_group_IT_number 47
_symmetry_cell_setting 'orthorhombic'
loop_
_space_group_symop_operation_xyz
x,y,z
-x,-y,z
x,-y,-z
-x,y,-z
-x,-y,-z
x,y,-z
-x,y,z
x,-y,z
loop_
_atom_site_type_symbol
_atom_site_label
_atom_site_fract_x
_atom_site_fract_y
_atom_site_fract_z
Si Si1 0.821429 0.424866 0.399271
Si Si2 0.678823 0.259748 0.897010
Si Si3 0.670695 0.000000 0.108811
Si Si4 0.680876 0.500000 0.897423
Si Si5 0.830674 0.871755 0.108339
Si Si6 0.679560 0.621011 0.221053
O O1 0.777280 0.405741 0.500000
O O2 0.784330 0.500000 0.389094
O O3 0.746332 0.387428 0.318896
O O4 0.000000 0.419526 0.393374
O O5 0.500000 0.256853 0.897083
O O6 0.743372 0.192023 0.868563
O O7 0.725438 0.315253 0.830371
O O8 0.724572 0.272868 0.000000
O O9 0.752028 0.936118 0.139032
O O10 0.500000 0.000000 0.135973
O O11 0.673709 0.000000 0.000000
O O12 0.500000 0.500000 0.900536
O O13 0.726037 0.438089 0.841627
O O14 0.732350 0.500000 0.000000
O O15 0.000000 0.868983 0.138669
O O16 0.831378 0.874134 0.000000
O O17 0.500000 0.619924 0.226920
#
# Coordination Sequence:
#
# PCOD9389227 Si02
#       6
#     8   8   4   4   8   8
#     4   9  18  32  47  61  79 103 129 163 213 266
#     4   9  17  28  40  56  81 112 142 170 204 247
#     4   9  15  23  37  55  75 101 134 173 212 245
#     4   9  16  26  40  59  82 106 135 171 208 243
#     4   9  16  25  37  54  76 104 139 175 206 238
#     4  10  18  28  44  64  81 103 137 175 210 245
#
# _framework density 14.109347
#
# number of rings (size 3 to 8) (size 9 to 14) (size 15 to 20)
#    0.000    2.800    1.000    2.100    0.000    7.200 
#    0.000    1.000    0.000    2.400    0.000    0.000 
#    0.000    0.000    0.000    0.900    0.000   16.900 
#
# Total GULP energy -222771.991981 kJ/mol
# GULP energy per Si atom -5569.299800 kJ/mol
# Density = 1.407723 g / cm^3
# Si number density = 14.109347 Si / 1000 Ang^3
#
#
#
# Elastic Constant Matrix: (Units=GPa)
#
#
# Indices 1 2 3 4 5 6 
#
# 1 21.5502 37.9047 28.5162 0.0000 0.0000 0.0000
# 2 37.9047 128.3856 62.3790 0.0000 0.0000 0.0000
# 3 28.5162 62.3790 91.0418 0.0000 0.0000 0.0000
# 4 0.0000 0.0000 0.0000 -0.9849 0.0000 0.0000
# 5 0.0000 0.0000 0.0000 0.0000 14.4610 0.0000
# 6 0.0000 0.0000 0.0000 0.0000 0.0000 11.5749
#
#
#
# Elastic Compliance Matrix: (Units=1/GPa)
#
#
# Indices 1 2 3 4 5 6 
#
# 1 0.115210 -0.024706 -0.019158 0.000000 0.000000 0.000000
# 2 -0.024706 0.016974 -0.003892 0.000000 0.000000 0.000000
# 3 -0.019158 -0.003892 0.019651 0.000000 0.000000 0.000000
# 4 0.000000 0.000000 0.000000 -1.015337 0.000000 0.000000
# 5 0.000000 0.000000 0.000000 0.000000 0.069151 0.000000
# 6 0.000000 0.000000 0.000000 0.000000 0.000000 0.086394
#
#
# Mechanical properties :
#
#
# Convention : Reuss Voigt Hill
#
# Bulk Modulus (GPa) = 17.75471 55.39749 36.57610
# Shear Modulus (GPa) = -8.42219 12.48873 2.03327
#
# Velocity S-wave (km/s) = -2.44585 2.97836 1.20175
# Velocity P-wave (km/s) = 2.15284 7.15372 5.28254
#
# Compressibility (1/GPa) = 0.05632310
#
# Stress axis : x y z
#
# Youngs Moduli (GPa) = 8.67980 58.91305 50.88754
#
# Poissons Ratio (x) = 1.45552 0.97492
# Poissons Ratio (y) = 0.21445 0.19804
# Poissons Ratio (z) = 0.16629 0.22927
#
# Static dielectric constant tensor:
#      x y z
#    x 1.474910 0.000000 0.000000 
#    y 0.000000 1.460150 0.000000 
#    z 0.000000 0.000000 1.436140 
# 
# From -- ./inp_files/6625.got.cif
#   From: 2010.05.17/outbox.ucp.g08.bks.cvg/sg47_4_cif.got.tgz:6625.got - 2010.06.11 16:36:43.
