data_PCOD9389835
_publ_section_title
;
Structure prediction by ZEFSAII (Michael W. Deem and Ramdas Pophale) SiO2 
 PCOD9389835
Probable space group: P N N N
;
_chemical_formula_sum "Si O2"
_cell_formula_units_Z 32
_cell_length_a 35.305668
_cell_length_b 5.126533
_cell_length_c 7.122747
_cell_angle_alpha 90.000000
_cell_angle_beta 90.000000
_cell_angle_gamma 90.000000
_cell_volume 1289.186380
_symmetry_space_group_name_H-M "P N N N"
_symmetry_group_IT_number 48
_space_group.IT_coordinate_system_code '2'
_symmetry_cell_setting 'orthorhombic'
loop_
_space_group_symop_operation_xyz
x,y,z
1/2-x,1/2-y,z
x,1/2-y,1/2-z
1/2-x,y,1/2-z
-x,-y,-z
1/2+x,1/2+y,-z
-x,1/2+y,1/2+z
1/2+x,-y,1/2+z
loop_
_atom_site_type_symbol
_atom_site_label
_atom_site_fract_x
_atom_site_fract_y
_atom_site_fract_z
Si Si1 0.706395 0.242118 0.978462
Si Si2 0.075021 0.220237 0.479006
Si Si3 0.339669 0.250238 0.022052
Si Si4 0.965244 0.295496 0.528279
O O1 0.750000 0.250000 0.037784
O O2 0.706828 0.250000 0.750000
O O3 0.677670 0.472450 0.034767
O O4 0.689406 0.968679 0.038286
O O5 0.072270 0.250000 0.250000
O O6 0.117983 0.163820 0.532658
O O7 0.044118 0.999817 0.541701
O O8 0.067665 0.515209 0.544029
O O9 0.340946 0.250000 0.250000
O O10 0.963869 0.250000 0.750000
O O11 0.000000 0.500000 0.500000
#
# Coordination Sequence:
#
# PCOD9389835 Si02
#       4
#     8   8   8   8
#     4   9  15  21  30  46  69  98 133 171 207 243
#     4   9  17  28  42  59  79 106 141 179 217 261
#     4   9  15  23  34  48  69  98 133 171 207 245
#     4  10  19  31  46  64  85 109 141 181 224 270
#
# _framework density 24.821857999999999
#
# number of rings (size 3 to 8) (size 9 to 14) (size 15 to 20)
#    0.000    2.750    0.000    3.000    0.000    9.000 
#    0.000    0.000    0.000    0.000    0.000    0.000 
#    0.000    0.000    0.000    0.000    0.000   35.000 
#
# Total GULP energy -178431.880436 kJ/mol
# GULP energy per Si atom -5575.996264 kJ/mol
# Density = 2.476536 g / cm^3
# Si number density = 24.821858 Si / 1000 Ang^3
#
#
#
# Elastic Constant Matrix: (Units=GPa)
#
#
# Indices 1 2 3 4 5 6 
#
# 1 145.5269 51.3678 -13.0976 0.0000 0.0000 0.0000
# 2 51.3678 182.7147 -8.9458 0.0000 0.0000 0.0000
# 3 -13.0976 -8.9458 110.2779 0.0000 0.0000 0.0000
# 4 0.0000 0.0000 0.0000 -16.1810 0.0000 0.0000
# 5 0.0000 0.0000 0.0000 0.0000 -16.8962 0.0000
# 6 0.0000 0.0000 0.0000 0.0000 0.0000 38.4148
#
#
#
# Elastic Compliance Matrix: (Units=1/GPa)
#
#
# Indices 1 2 3 4 5 6 
#
# 1 0.007688 -0.002125 0.000741 0.000000 0.000000 0.000000
# 2 -0.002125 0.006082 0.000241 0.000000 0.000000 0.000000
# 3 0.000741 0.000241 0.009176 0.000000 0.000000 0.000000
# 4 0.000000 0.000000 0.000000 -0.061801 0.000000 0.000000
# 5 0.000000 0.000000 0.000000 0.000000 -0.059185 0.000000
# 6 0.000000 0.000000 0.000000 0.000000 0.000000 0.026032
#
#
# Mechanical properties :
#
#
# Convention : Reuss Voigt Hill
#
# Bulk Modulus (GPa) = 48.40449 55.24093 51.82271
# Shear Modulus (GPa) = -79.57430 28.34717 -25.61357
#
# Velocity S-wave (km/s) = -5.66813 3.38305 -3.21580
# Velocity P-wave (km/s) = 4.82638 6.12889 2.67109
#
# Compressibility (1/GPa) = 0.02065924
#
# Stress axis : x y z
#
# Youngs Moduli (GPa) = 130.06590 164.41166 108.98554
#
# Poissons Ratio (x) = 0.34941 -0.08073
# Poissons Ratio (y) = 0.27642 -0.02626
# Poissons Ratio (z) = -0.09635 -0.03962
#
# Static dielectric constant tensor:
#      x y z
#    x 2.034820 0.000000 0.000000 
#    y 0.000000 1.904080 0.000000 
#    z 0.000000 0.000000 2.092270 
# 
# From -- ./inp_files/23721.got.cif
#   From: 2010.05.17/outbox.cif.g08.bks.cpg/sg48_12_cif.got.tgz:23721.got - 2010.06.03 20:39:00.
