data_PCOD9389850
_publ_section_title
;
Structure prediction by ZEFSAII (Michael W. Deem and Ramdas Pophale) SiO2 
 PCOD9389850
Probable space group: P N N N
;
_chemical_formula_sum "Si O2"
_cell_formula_units_Z 40
_cell_length_a 8.817045
_cell_length_b 11.563696
_cell_length_c 17.470032
_cell_angle_alpha 90.000000
_cell_angle_beta 90.000000
_cell_angle_gamma 90.000000
_cell_volume 1781.203024
_symmetry_space_group_name_H-M "P N N N"
_symmetry_group_IT_number 48
_space_group.IT_coordinate_system_code '2'
_symmetry_cell_setting 'orthorhombic'
loop_
_space_group_symop_operation_xyz
x,y,z
1/2-x,1/2-y,z
x,1/2-y,1/2-z
1/2-x,y,1/2-z
-x,-y,-z
1/2+x,1/2+y,-z
-x,1/2+y,1/2+z
1/2+x,-y,1/2+z
loop_
_atom_site_type_symbol
_atom_site_label
_atom_site_fract_x
_atom_site_fract_y
_atom_site_fract_z
Si Si1 0.687817 0.875777 0.606920
Si Si2 0.069361 0.755322 0.837532
Si Si3 0.309776 0.629207 0.096273
Si Si4 0.374707 0.936313 0.949042
Si Si5 0.328275 0.132346 0.577324
O O1 0.750000 0.750000 0.635894
O O2 0.510386 0.866845 0.628189
O O3 0.693632 0.872674 0.515041
O O4 0.738944 0.004419 0.631970
O O5 0.250000 0.750000 0.838210
O O6 0.019777 0.750000 0.750000
O O7 0.033734 0.650623 0.895038
O O8 0.250000 0.750000 0.130944
O O9 0.492594 0.631567 0.092650
O O10 0.236770 0.624102 0.010551
O O11 0.275356 0.024154 0.898380
O O12 0.500000 0.000000 0.000000
O O13 0.250000 0.250000 0.605138
#
# Coordination Sequence:
#
# PCOD9389850 Si02
#       5
#     8   8   8   8   8
#     4  10  20  35  53  80 115 153 197 243 297 359
#     4  11  22  36  56  85 123 163 200 249 318 389
#     4  11  20  32  54  83 118 152 190 251 310 356
#     4  11  20  34  56  85 120 156 202 257 311 369
#     4  10  19  31  53  84 117 151 192 249 306 356
#
# _framework density 22.456733
#
# number of rings (size 3 to 8) (size 9 to 14) (size 15 to 20)
#    0.000    1.400    0.000   11.400    0.000    0.400 
#    0.000    0.000    0.000    0.000    0.000   46.200 
#    0.000    1.600    0.000    0.000    0.000    0.000 
#
# Total GULP energy -223120.907856 kJ/mol
# GULP energy per Si atom -5578.022696 kJ/mol
# Density = 2.240562 g / cm^3
# Si number density = 22.456733 Si / 1000 Ang^3
#
#
#
# Elastic Constant Matrix: (Units=GPa)
#
#
# Indices 1 2 3 4 5 6 
#
# 1 117.8989 62.3531 1.7258 0.0000 0.0000 0.0000
# 2 62.3531 197.1968 18.6575 0.0000 0.0000 0.0000
# 3 1.7258 18.6575 38.0009 0.0000 0.0000 0.0000
# 4 0.0000 0.0000 0.0000 -1.4128 0.0000 0.0000
# 5 0.0000 0.0000 0.0000 0.0000 21.5848 0.0000
# 6 0.0000 0.0000 0.0000 0.0000 0.0000 53.8897
#
#
#
# Elastic Compliance Matrix: (Units=1/GPa)
#
#
# Indices 1 2 3 4 5 6 
#
# 1 0.010235 -0.003348 0.001179 0.000000 0.000000 0.000000
# 2 -0.003348 0.006413 -0.002997 0.000000 0.000000 0.000000
# 3 0.001179 -0.002997 0.027733 0.000000 0.000000 0.000000
# 4 0.000000 0.000000 0.000000 -0.707819 0.000000 0.000000
# 5 0.000000 0.000000 0.000000 0.000000 0.046329 0.000000
# 6 0.000000 0.000000 0.000000 0.000000 0.000000 0.018556
#
#
# Mechanical properties :
#
#
# Convention : Reuss Voigt Hill
#
# Bulk Modulus (GPa) = 29.36862 57.61886 43.49374
# Shear Modulus (GPa) = -8.66745 32.83635 12.08445
#
# Velocity S-wave (km/s) = -1.96672 3.82803 2.32226
# Velocity P-wave (km/s) = 2.81938 6.72695 5.15755
#
# Compressibility (1/GPa) = 0.03404995
#
# Stress axis : x y z
#
# Youngs Moduli (GPa) = 97.70230 155.92860 36.05824
#
# Poissons Ratio (x) = 0.52203 -0.04251
# Poissons Ratio (y) = 0.32710 0.10805
# Poissons Ratio (z) = -0.11518 0.46727
#
# Static dielectric constant tensor:
#      x y z
#    x 1.949690 0.000000 0.000000 
#    y 0.000000 2.007930 0.000000 
#    z 0.000000 0.000000 1.811970 
# 
# From -- ./inp_files/10726.got.cif
#   From: 2010.05.17/outbox.cif.g08.bks.cpg/sg48_6_cif.got.tgz:10726.got - 2010.06.03 20:39:00.
