data_PCOD9389329
_publ_section_title
;
Structure prediction by ZEFSAII (Michael W. Deem and Ramdas Pophale) SiO2 
 PCOD9389329
Probable space group: P M M M
;
_chemical_formula_sum "Si O2"
_cell_formula_units_Z 64
_cell_length_a 9.000000
_cell_length_b 24.000000
_cell_length_c 15.000000
_cell_angle_alpha 90.000000
_cell_angle_beta 90.000000
_cell_angle_gamma 90.000000
_cell_volume 3240.000000
_symmetry_space_group_name_H-M "P M M M"
_symmetry_group_IT_number 47
_symmetry_cell_setting 'orthorhombic'
loop_
_space_group_symop_operation_xyz
x,y,z
-x,-y,z
x,-y,-z
-x,y,-z
-x,-y,-z
x,y,-z
-x,y,z
x,-y,z
loop_
_atom_site_type_symbol
_atom_site_label
_atom_site_fract_x
_atom_site_fract_y
_atom_site_fract_z
Si Si1 0.170757 0.633191 0.729942
Si Si2 0.176939 0.730391 0.600558
Si Si3 0.327642 0.854674 0.785558
Si Si4 0.321521 0.850985 0.405223
Si Si5 0.161228 0.063865 0.893762
Si Si6 0.825187 0.235829 0.099637
Si Si7 0.339310 0.566230 0.397824
Si Si8 0.323547 0.643259 0.903780
O O1 0.224151 0.689305 0.679592
O O2 0.200072 0.587538 0.655713
O O3 0.258516 0.615230 0.816957
O O4 0.000000 0.640905 0.752595
O O5 0.195633 0.706527 0.500000
O O6 0.268181 0.787218 0.602059
O O7 0.000000 0.741389 0.610944
O O8 0.500000 0.839028 0.781526
O O9 0.275311 0.875980 0.688925
O O10 0.297080 0.903260 0.854450
O O11 0.234931 0.803184 0.823136
O O12 0.264259 0.873383 0.500000
O O13 0.500000 0.853341 0.408322
O O14 0.000000 0.088860 0.866501
O O15 0.164022 0.000000 0.865324
O O16 0.164858 0.065054 0.000000
O O17 0.740586 0.294194 0.100886
O O18 0.000000 0.245476 0.109548
O O19 0.801096 0.210638 0.000000
O O20 0.331462 0.583858 0.500000
O O21 0.500000 0.586799 0.361320
O O22 0.342831 0.500000 0.395868
O O23 0.500000 0.644921 0.900154
O O24 0.277999 0.619516 0.000000
#
# Coordination Sequence:
#
# PCOD9389329 Si02
#       8
#     8   8   8   8   8   8   8   8
#     4  11  21  32  51  77 104 135 169 207 254 307
#     4   9  18  31  46  69 101 132 163 199 239 286
#     4  11  21  31  49  75  99 127 165 206 245 288
#     4   9  19  34  48  65  94 131 167 201 238 281
#     4   9  19  36  55  74  98 127 156 190 240 300
#     4  10  20  33  49  71 102 137 168 200 244 298
#     4   9  19  36  56  78 105 136 169 206 250 301
#     4  10  21  36  52  71  99 135 174 215 254 293
#
# _framework density 19.753086
#
# number of rings (size 3 to 8) (size 9 to 14) (size 15 to 20)
#    0.000    2.250    0.000    3.750    0.000    8.500 
#    0.000    2.500    0.000    0.750    0.000    5.250 
#    0.000    0.000    0.000    0.000    0.000    0.000 
#
# Total GULP energy -356451.817192 kJ/mol
# GULP energy per Si atom -5569.559644 kJ/mol
# Density = 1.970813 g / cm^3
# Si number density = 19.753086 Si / 1000 Ang^3
#
#
#
# Elastic Constant Matrix: (Units=GPa)
#
#
# Indices 1 2 3 4 5 6 
#
# 1 9.6636 -4.1429 25.9187 0.0000 0.0000 0.0000
# 2 -4.1429 12.3769 -0.7717 0.0000 0.0000 0.0000
# 3 25.9187 -0.7717 88.1459 0.0000 0.0000 0.0000
# 4 0.0000 0.0000 0.0000 28.6680 0.0000 0.0000
# 5 0.0000 0.0000 0.0000 0.0000 13.3679 0.0000
# 6 0.0000 0.0000 0.0000 0.0000 0.0000 17.4418
#
#
#
# Elastic Compliance Matrix: (Units=1/GPa)
#
#
# Indices 1 2 3 4 5 6 
#
# 1 1.245736 0.394357 -0.362848 0.000000 0.000000 0.000000
# 2 0.394357 0.205680 -0.114157 0.000000 0.000000 0.000000
# 3 -0.362848 -0.114157 0.117039 0.000000 0.000000 0.000000
# 4 0.000000 0.000000 0.000000 0.034882 0.000000 0.000000
# 5 0.000000 0.000000 0.000000 0.000000 0.074806 0.000000
# 6 0.000000 0.000000 0.000000 0.000000 0.000000 0.057333
#
#
# Mechanical properties :
#
#
# Convention : Reuss Voigt Hill
#
# Bulk Modulus (GPa) = 0.71268 16.91053 8.81161
# Shear Modulus (GPa) = 2.11105 17.84104 9.97604
#
# Velocity S-wave (km/s) = 1.03491 3.00859 2.24974
# Velocity P-wave (km/s) = 1.33777 4.54405 3.34948
#
# Compressibility (1/GPa) = 1.40315714
#
# Stress axis : x y z
#
# Youngs Moduli (GPa) = 0.80274 4.86193 8.54420
#
# Poissons Ratio (x) = -1.91733 3.10025
# Poissons Ratio (y) = -0.31657 0.97538
# Poissons Ratio (z) = 0.29127 0.55502
#
# Static dielectric constant tensor:
#      x y z
#    x 1.624590 0.000000 0.000000 
#    y 0.000000 1.681940 0.000000 
#    z 0.000000 0.000000 1.794870 
# 
# From -- ./inp_files/12751.got.cif
#   From: 2010.05.17/outbox.ucp.g08.bks.cvg/sg47_7_cif.got.tgz:12751.got - 2010.06.11 16:36:43.
