data_PCOD9389453
_publ_section_title
;
Structure prediction by ZEFSAII (Michael W. Deem and Ramdas Pophale) SiO2 
 PCOD9389453
Probable space group: P M M M
;
_chemical_formula_sum "Si O2"
_cell_formula_units_Z 40
_cell_length_a 9.000000
_cell_length_b 15.000000
_cell_length_c 21.000000
_cell_angle_alpha 90.000000
_cell_angle_beta 90.000000
_cell_angle_gamma 90.000000
_cell_volume 2835.000000
_symmetry_space_group_name_H-M "P M M M"
_symmetry_group_IT_number 47
_symmetry_cell_setting 'orthorhombic'
loop_
_space_group_symop_operation_xyz
x,y,z
-x,-y,z
x,-y,-z
-x,y,-z
-x,-y,-z
x,y,-z
-x,y,z
x,-y,z
loop_
_atom_site_type_symbol
_atom_site_label
_atom_site_fract_x
_atom_site_fract_y
_atom_site_fract_z
Si Si1 0.330554 0.108227 0.126599
Si Si2 0.180318 0.102322 0.500000
Si Si3 0.321957 0.398622 0.424296
Si Si4 0.169735 0.891279 0.000000
Si Si5 0.178486 0.219778 0.621957
Si Si6 0.319780 0.104093 0.268154
O O1 0.500000 0.138850 0.122525
O O2 0.244750 0.140122 0.064892
O O3 0.270845 0.129071 0.196521
O O4 0.332902 0.000000 0.124511
O O5 0.224903 0.158504 0.561730
O O6 0.000000 0.098740 0.500000
O O7 0.234197 0.000000 0.500000
O O8 0.290884 0.389730 0.500000
O O9 0.500000 0.390042 0.416245
O O10 0.280191 0.500000 0.405609
O O11 0.239900 0.319110 0.388447
O O12 0.000000 0.865985 0.000000
O O13 0.178862 0.000000 0.000000
O O14 0.246801 0.170420 0.682417
O O15 0.000000 0.221275 0.624833
O O16 0.500000 0.108752 0.270178
O O17 0.280110 0.000000 0.280585
#
# Coordination Sequence:
#
# PCOD9389453 Si02
#       6
#     8   4   8   4   8   8
#     4   8  14  25  39  53  73 105 142 176 209 245
#     4   9  18  30  40  55  82 112 141 171 206 249
#     4   9  18  33  51  67  83 104 132 171 217 263
#     4   9  15  21  33  55  79 101 132 175 214 247
#     4  11  20  30  45  64  86 112 139 175 219 260
#     4   9  18  31  44  59  82 114 151 184 212 249
#
# _framework density 14.109347
#
# number of rings (size 3 to 8) (size 9 to 14) (size 15 to 20)
#    0.000    2.800    1.000    3.300    0.000    3.600 
#    0.000    3.000    0.000    2.400    0.000    0.000 
#    0.000    0.000    0.000    0.900    0.000   17.500 
#
# Total GULP energy -222720.303547 kJ/mol
# GULP energy per Si atom -5568.007589 kJ/mol
# Density = 1.407723 g / cm^3
# Si number density = 14.109347 Si / 1000 Ang^3
#
#
#
# Elastic Constant Matrix: (Units=GPa)
#
#
# Indices 1 2 3 4 5 6 
#
# 1 35.2453 37.6704 52.2362 0.0000 0.0000 0.0000
# 2 37.6704 93.6351 61.6386 0.0000 0.0000 0.0000
# 3 52.2362 61.6386 129.9670 0.0000 0.0000 0.0000
# 4 0.0000 0.0000 0.0000 -2.6652 0.0000 0.0000
# 5 0.0000 0.0000 0.0000 0.0000 9.1575 0.0000
# 6 0.0000 0.0000 0.0000 0.0000 0.0000 17.3203
#
#
#
# Elastic Compliance Matrix: (Units=1/GPa)
#
#
# Indices 1 2 3 4 5 6 
#
# 1 0.085705 -0.017163 -0.026307 0.000000 0.000000 0.000000
# 2 -0.017163 0.018964 -0.002096 0.000000 0.000000 0.000000
# 3 -0.026307 -0.002096 0.019262 0.000000 0.000000 0.000000
# 4 0.000000 0.000000 0.000000 -0.375213 0.000000 0.000000
# 5 0.000000 0.000000 0.000000 0.000000 0.109200 0.000000
# 6 0.000000 0.000000 0.000000 0.000000 0.000000 0.057736
#
#
# Mechanical properties :
#
#
# Convention : Reuss Voigt Hill
#
# Bulk Modulus (GPa) = 30.48811 62.43752 46.46281
# Shear Modulus (GPa) = 282.19697 11.91600 147.05648
#
# Velocity S-wave (km/s) = 14.15773 2.90926 10.22020
# Velocity P-wave (km/s) = 16.99737 7.45880 13.12525
#
# Compressibility (1/GPa) = 0.03279967
#
# Stress axis : x y z
#
# Youngs Moduli (GPa) = 11.66797 52.73071 51.91684
#
# Poissons Ratio (x) = 0.90499 1.36577
# Poissons Ratio (y) = 0.20025 0.10882
# Poissons Ratio (z) = 0.30695 0.11053
#
# Static dielectric constant tensor:
#      x y z
#    x 1.471960 0.000000 0.000000 
#    y 0.000000 1.432760 0.000000 
#    z 0.000000 0.000000 1.478500 
# 
# From -- ./inp_files/21264.got.cif
#   From: 2010.05.17/outbox.ucp.g08.bks.cvg/sg47_11_cif.got.tgz:21264.got - 2010.06.11 16:36:43.
