data_PCOD9389818
_publ_section_title
;
Structure prediction by ZEFSAII (Michael W. Deem and Ramdas Pophale) SiO2 
 PCOD9389818
Probable space group: P N N N
;
_chemical_formula_sum "Si O2"
_cell_formula_units_Z 64
_cell_length_a 29.892780
_cell_length_b 13.413900
_cell_length_c 8.754649
_cell_angle_alpha 90.000000
_cell_angle_beta 90.000000
_cell_angle_gamma 90.000000
_cell_volume 3510.428315
_symmetry_space_group_name_H-M "P N N N"
_symmetry_group_IT_number 48
_space_group.IT_coordinate_system_code '2'
_symmetry_cell_setting 'orthorhombic'
loop_
_space_group_symop_operation_xyz
x,y,z
1/2-x,1/2-y,z
x,1/2-y,1/2-z
1/2-x,y,1/2-z
-x,-y,-z
1/2+x,1/2+y,-z
-x,1/2+y,1/2+z
1/2+x,-y,1/2+z
loop_
_atom_site_type_symbol
_atom_site_label
_atom_site_fract_x
_atom_site_fract_y
_atom_site_fract_z
Si Si1 0.559308 0.811747 0.905433
Si Si2 0.043274 0.999992 0.215580
Si Si3 0.293532 0.881298 0.452263
Si Si4 0.697052 0.343111 0.474314
Si Si5 0.621631 0.647077 0.319902
Si Si6 0.537843 0.624865 0.094711
Si Si7 0.873190 0.137483 0.712995
Si Si8 0.798406 0.991093 0.230480
O O1 0.570369 0.750000 0.750000
O O2 0.535932 0.912670 0.842242
O O3 0.602110 0.840436 0.009344
O O4 0.532548 0.735203 0.018117
O O5 0.088181 0.941241 0.257812
O O6 0.003762 0.920446 0.187555
O O7 0.047550 0.054817 0.051506
O O8 0.301107 0.775628 0.538213
O O9 0.240157 0.876145 0.422941
O O10 0.329799 0.878889 0.319511
O O11 0.304003 0.976538 0.556073
O O12 0.649036 0.367882 0.546629
O O13 0.704176 0.405578 0.323191
O O14 0.639727 0.750000 0.250000
O O15 0.579557 0.624048 0.209455
O O16 0.660630 0.568307 0.299885
O O17 0.889258 0.250000 0.750000
O O18 0.750000 0.940341 0.250000
#
# Coordination Sequence:
#
# PCOD9389818 Si02
#       8
#     8   8   8   8   8   8   8   8
#     4   9  19  36  57  78 100 134 174 210 257 315
#     4  10  19  35  55  76 105 134 168 216 258 299
#     4   9  17  30  47  69 102 136 166 202 247 300
#     4   9  17  30  47  70 100 135 169 201 246 303
#     4  10  20  35  53  74 101 133 170 209 253 309
#     4   9  20  36  55  77 101 134 171 207 258 316
#     4  10  19  29  47  74 102 133 168 208 250 295
#     4  10  19  31  50  74  97 128 169 210 250 293
#
# _framework density 18.231394000000002
#
# number of rings (size 3 to 8) (size 9 to 14) (size 15 to 20)
#    0.000    2.500    0.000    2.250    0.000    5.250 
#    0.000    2.500    0.000    4.500    0.000    7.000 
#    0.000    0.000    0.000    0.000    0.000    0.000 
#
# Total GULP energy -356356.163520 kJ/mol
# GULP energy per Si atom -5568.065055 kJ/mol
# Density = 1.818990 g / cm^3
# Si number density = 18.231394 Si / 1000 Ang^3
#
#
#
# Elastic Constant Matrix: (Units=GPa)
#
#
# Indices 1 2 3 4 5 6 
#
# 1 88.4699 59.9703 33.8333 0.0000 0.0000 0.0000
# 2 59.9703 84.0710 34.4547 0.0000 0.0000 0.0000
# 3 33.8333 34.4547 62.2733 0.0000 0.0000 0.0000
# 4 0.0000 0.0000 0.0000 13.1120 0.0000 0.0000
# 5 0.0000 0.0000 0.0000 0.0000 15.7126 0.0000
# 6 0.0000 0.0000 0.0000 0.0000 0.0000 20.0641
#
#
#
# Elastic Compliance Matrix: (Units=1/GPa)
#
#
# Indices 1 2 3 4 5 6 
#
# 1 0.022773 -0.014451 -0.004377 0.000000 0.000000 0.000000
# 2 -0.014451 0.024552 -0.005733 0.000000 0.000000 0.000000
# 3 -0.004377 -0.005733 0.021609 0.000000 0.000000 0.000000
# 4 0.000000 0.000000 0.000000 0.076266 0.000000 0.000000
# 5 0.000000 0.000000 0.000000 0.000000 0.063643 0.000000
# 6 0.000000 0.000000 0.000000 0.000000 0.000000 0.049840
#
#
# Mechanical properties :
#
#
# Convention : Reuss Voigt Hill
#
# Bulk Modulus (GPa) = 50.47609 54.59233 52.53421
# Shear Modulus (GPa) = 15.90284 16.88147 16.39216
#
# Velocity S-wave (km/s) = 2.95664 3.04625 3.00178
# Velocity P-wave (km/s) = 6.27711 6.51015 6.39469
#
# Compressibility (1/GPa) = 0.01981136
#
# Stress axis : x y z
#
# Youngs Moduli (GPa) = 43.91220 40.72920 46.27779
#
# Poissons Ratio (x) = 0.58856 0.20257
# Poissons Ratio (y) = 0.63455 0.26533
# Poissons Ratio (z) = 0.19222 0.23352
#
# Static dielectric constant tensor:
#      x y z
#    x 1.603840 0.000000 0.000000 
#    y 0.000000 1.648670 0.000000 
#    z 0.000000 0.000000 1.650300 
# 
# From -- ./inp_files/16951.got.cif
#   From: 2010.05.17/outbox.cif.g08.bks.cpg/sg48_9_cif.got.tgz:16951.got - 2010.06.03 20:39:00.
