data_PCOD9389559
_publ_section_title
;
Structure prediction by ZEFSAII (Michael W. Deem and Ramdas Pophale) SiO2 
 PCOD9389559
Probable space group: P N N N
;
_chemical_formula_sum "Si O2"
_cell_formula_units_Z 48
_cell_length_a 9.966995
_cell_length_b 15.423560
_cell_length_c 17.651895
_cell_angle_alpha 90.000000
_cell_angle_beta 90.000000
_cell_angle_gamma 90.000000
_cell_volume 2713.564838
_symmetry_space_group_name_H-M "P N N N"
_symmetry_group_IT_number 48
_space_group.IT_coordinate_system_code '2'
_symmetry_cell_setting 'orthorhombic'
loop_
_space_group_symop_operation_xyz
x,y,z
1/2-x,1/2-y,z
x,1/2-y,1/2-z
1/2-x,y,1/2-z
-x,-y,-z
1/2+x,1/2+y,-z
-x,1/2+y,1/2+z
1/2+x,-y,1/2+z
loop_
_atom_site_type_symbol
_atom_site_label
_atom_site_fract_x
_atom_site_fract_y
_atom_site_fract_z
Si Si1 0.098045 0.159964 0.718239
Si Si2 0.526235 0.694135 0.819703
Si Si3 0.883235 0.612597 0.044414
Si Si4 0.750000 0.750000 0.564368
Si Si5 0.367969 0.577054 0.562567
Si Si6 0.750000 0.250000 0.391745
Si Si7 0.911880 0.035518 0.265533
O O1 0.036714 0.250000 0.750000
O O2 0.250000 0.159562 0.750000
O O3 0.100755 0.155115 0.627047
O O4 0.044315 0.064849 0.741966
O O5 0.579484 0.750000 0.750000
O O6 0.632371 0.707387 0.885857
O O7 0.383374 0.735353 0.843188
O O8 0.491663 0.598035 0.790782
O O9 0.809537 0.519477 0.052077
O O10 0.808495 0.676207 0.988893
O O11 0.024657 0.593245 0.003487
O O12 0.271912 0.660177 0.563715
O O13 0.431703 0.567607 0.647423
O O14 0.750000 0.042254 0.250000
#
# Coordination Sequence:
#
# PCOD9389559 Si02
#       7
#     8   8   8   4   8   4   8
#     4   9  18  33  56  79 106 149 198 235 289 333
#     4  12  21  33  55  86 121 150 187 241 289 349
#     4  10  21  38  54  79 120 152 188 235 290 360
#     4  12  23  36  53  86 124 158 182 232 311 350
#     4  10  20  35  59  80 110 158 191 229 294 342
#     4  12  19  36  58  86 105 152 200 226 279 346
#     4  10  17  31  55  83 109 144 196 241 271 336
#
# _framework density 17.688908999999999
#
# number of rings (size 3 to 8) (size 9 to 14) (size 15 to 20)
#    0.000    1.500    5.000    1.500    0.000    0.000 
#    0.000    2.500    0.000    0.000    0.000    2.917 
#    0.000    0.000    0.000    0.000    0.000    0.000 
#
# Total GULP energy -267459.870924 kJ/mol
# GULP energy per Si atom -5572.080644 kJ/mol
# Density = 1.764865 g / cm^3
# Si number density = 17.688909 Si / 1000 Ang^3
#
#
#
# Elastic Constant Matrix: (Units=GPa)
#
#
# Indices 1 2 3 4 5 6 
#
# 1 38.6249 30.3694 39.1727 0.0000 0.0000 0.0000
# 2 30.3694 193.6938 69.6980 0.0000 0.0000 0.0000
# 3 39.1727 69.6980 124.3284 0.0000 0.0000 0.0000
# 4 0.0000 0.0000 0.0000 43.0386 0.0000 0.0000
# 5 0.0000 0.0000 0.0000 0.0000 17.5362 0.0000
# 6 0.0000 0.0000 0.0000 0.0000 0.0000 7.3745
#
#
#
# Elastic Compliance Matrix: (Units=1/GPa)
#
#
# Indices 1 2 3 4 5 6 
#
# 1 0.038722 -0.002106 -0.011020 0.000000 0.000000 0.000000
# 2 -0.002106 0.006582 -0.003026 0.000000 0.000000 0.000000
# 3 -0.011020 -0.003026 0.013212 0.000000 0.000000 0.000000
# 4 0.000000 0.000000 0.000000 0.023235 0.000000 0.000000
# 5 0.000000 0.000000 0.000000 0.000000 0.057025 0.000000
# 6 0.000000 0.000000 0.000000 0.000000 0.000000 0.135602
#
#
# Mechanical properties :
#
#
# Convention : Reuss Voigt Hill
#
# Bulk Modulus (GPa) = 38.15088 70.56970 54.36029
# Shear Modulus (GPa) = 15.85193 28.08364 21.96779
#
# Velocity S-wave (km/s) = 2.99683 3.98884 3.52788
# Velocity P-wave (km/s) = 5.79561 7.82279 6.88423
#
# Compressibility (1/GPa) = 0.02621171
#
# Stress axis : x y z
#
# Youngs Moduli (GPa) = 25.82523 151.93076 75.69012
#
# Poissons Ratio (x) = 0.31996 0.83408
# Poissons Ratio (y) = 0.05439 0.22906
# Poissons Ratio (z) = 0.28459 0.45979
#
# Static dielectric constant tensor:
#      x y z
#    x 1.632850 0.000000 0.000000 
#    y 0.000000 1.666790 0.000000 
#    z 0.000000 0.000000 1.610930 
# 
# From -- ./inp_files/27983.got.cif
#   From: 2010.05.17/outbox.cif.g08.bks.cpg/sg48_14_cif.got.tgz:27983.got - 2010.06.03 20:39:00.
