data_PCOD9389154
_publ_section_title
;
Structure prediction by ZEFSAII (Michael W. Deem and Ramdas Pophale) SiO2 
 PCOD9389154
Probable space group: P M M M
;
_chemical_formula_sum "Si O2"
_cell_formula_units_Z 44
_cell_length_a 7.864210
_cell_length_b 30.168613
_cell_length_c 10.563481
_cell_angle_alpha 90.000000
_cell_angle_beta 90.000000
_cell_angle_gamma 90.000000
_cell_volume 2506.210248
_symmetry_space_group_name_H-M "P M M M"
_symmetry_group_IT_number 47
_symmetry_cell_setting 'orthorhombic'
loop_
_space_group_symop_operation_xyz
x,y,z
-x,-y,z
x,-y,-z
-x,y,-z
-x,-y,-z
x,y,-z
-x,y,z
x,-y,z
loop_
_atom_site_type_symbol
_atom_site_label
_atom_site_fract_x
_atom_site_fract_y
_atom_site_fract_z
Si Si1 0.688333 0.611937 0.345737
Si Si2 0.291701 0.948526 0.000000
Si Si3 0.707798 0.050681 0.500000
Si Si4 0.000000 0.550944 0.345404
Si Si5 0.705053 0.196463 0.647137
Si Si6 0.292071 0.103533 0.250321
Si Si7 0.798116 0.707083 0.353363
O O1 0.699409 0.614035 0.500000
O O2 0.500000 0.596642 0.312395
O O3 0.834766 0.578531 0.304428
O O4 0.717086 0.662364 0.299534
O O5 0.236404 0.921758 0.124448
O O6 0.500000 0.949127 0.000000
O O7 0.237756 0.000000 0.000000
O O8 0.500000 0.050701 0.500000
O O9 0.761098 0.076228 0.625839
O O10 0.764109 0.000000 0.500000
O O11 0.000000 0.500000 0.303922
O O12 0.000000 0.550528 0.500000
O O13 0.764524 0.191815 0.500000
O O14 0.500000 0.195633 0.643099
O O15 0.762603 0.154292 0.728463
O O16 0.758650 0.244386 0.699731
O O17 0.500000 0.103714 0.248171
O O18 0.738547 0.710209 0.500000
O O19 0.000000 0.700137 0.353819
#
# Coordination Sequence:
#
# PCOD9389154 Si02
#       7
#     8   4   4   4   8   8   8
#     4   9  15  23  34  47  66  95 131 172 221 271
#     4   9  16  24  34  50  75 107 137 165 205 256
#     4   9  14  20  32  48  69  99 129 161 205 252
#     4   9  16  24  32  44  66  96 136 185 224 259
#     4   9  15  23  35  52  74  98 123 155 204 259
#     4   9  15  23  33  49  74 101 130 166 204 254
#     4   9  15  23  35  51  71  93 120 158 208 262
#
# _framework density 17.556388999999999
#
# number of rings (size 3 to 8) (size 9 to 14) (size 15 to 20)
#    0.000    3.000    1.818    1.091    0.000    4.727 
#    0.000    1.818    0.000    0.000    0.000    0.636 
#    0.000    4.364    0.000    0.000    0.000    0.000 
#
# Total GULP energy -245079.276663 kJ/mol
# GULP energy per Si atom -5569.983561 kJ/mol
# Density = 1.751643 g / cm^3
# Si number density = 17.556389 Si / 1000 Ang^3
#
#
#
# Elastic Constant Matrix: (Units=GPa)
#
#
# Indices 1 2 3 4 5 6 
#
# 1 57.8740 54.9037 12.9874 0.0000 0.0000 0.0000
# 2 54.9037 180.2134 42.0491 0.0000 0.0000 0.0000
# 3 12.9874 42.0491 61.5811 0.0000 0.0000 0.0000
# 4 0.0000 0.0000 0.0000 8.5903 0.0000 0.0000
# 5 0.0000 0.0000 0.0000 0.0000 -0.2120 0.0000
# 6 0.0000 0.0000 0.0000 0.0000 0.0000 23.7660
#
#
#
# Elastic Compliance Matrix: (Units=1/GPa)
#
#
# Indices 1 2 3 4 5 6 
#
# 1 0.024303 -0.007385 -0.000083 0.000000 0.000000 0.000000
# 2 -0.007385 0.008845 -0.004482 0.000000 0.000000 0.000000
# 3 -0.000083 -0.004482 0.019317 0.000000 0.000000 0.000000
# 4 0.000000 0.000000 0.000000 0.116411 0.000000 0.000000
# 5 0.000000 0.000000 0.000000 0.000000 -4.716392 0.000000
# 6 0.000000 0.000000 0.000000 0.000000 0.000000 0.042077
#
#
# Mechanical properties :
#
#
# Convention : Reuss Voigt Hill
#
# Bulk Modulus (GPa) = 35.00771 57.72767 46.36769
# Shear Modulus (GPa) = -1.11806 19.07741 8.97967
#
# Velocity S-wave (km/s) = -0.79889 3.29999 2.26404
# Velocity P-wave (km/s) = 4.37407 6.89004 5.77084
#
# Compressibility (1/GPa) = 0.02856514
#
# Stress axis : x y z
#
# Youngs Moduli (GPa) = 41.14646 113.06325 51.76902
#
# Poissons Ratio (x) = 0.83496 0.00430
# Poissons Ratio (y) = 0.30386 0.23202
# Poissons Ratio (z) = 0.00341 0.50673
#
# Static dielectric constant tensor:
#      x y z
#    x 1.638040 0.000000 0.000000 
#    y 0.000000 1.617490 0.000000 
#    z 0.000000 0.000000 1.571740 
# 
# From -- ./inp_files/2393.got.cif
#   From: 2010.05.17/outbox.cif.g08.bks.cpg/sg47_2_cif.got.tgz:2393.got - 2010.06.03 20:15:42.
