data_PCOD9389579
_publ_section_title
;
Structure prediction by ZEFSAII (Michael W. Deem and Ramdas Pophale) SiO2 
 PCOD9389579
Probable space group: P N N N
;
_chemical_formula_sum "Si O2"
_cell_formula_units_Z 64
_cell_length_a 14.663057
_cell_length_b 22.944442
_cell_length_c 9.359202
_cell_angle_alpha 90.000000
_cell_angle_beta 90.000000
_cell_angle_gamma 90.000000
_cell_volume 3148.769310
_symmetry_space_group_name_H-M "P N N N"
_symmetry_group_IT_number 48
_space_group.IT_coordinate_system_code '2'
_symmetry_cell_setting 'orthorhombic'
loop_
_space_group_symop_operation_xyz
x,y,z
1/2-x,1/2-y,z
x,1/2-y,1/2-z
1/2-x,y,1/2-z
-x,-y,-z
1/2+x,1/2+y,-z
-x,1/2+y,1/2+z
1/2+x,-y,1/2+z
loop_
_atom_site_type_symbol
_atom_site_label
_atom_site_fract_x
_atom_site_fract_y
_atom_site_fract_z
Si Si1 0.971988 0.763020 0.917154
Si Si2 0.154181 0.135035 0.182123
Si Si3 0.278621 0.013578 0.411569
Si Si4 0.590044 0.522137 0.416090
Si Si5 0.551643 0.863232 0.973266
Si Si6 0.820790 0.104700 0.028851
Si Si7 0.622948 0.401815 0.323817
Si Si8 0.156758 0.778188 0.094223
O O1 0.991793 0.750000 0.750000
O O2 0.902475 0.817309 0.906266
O O3 0.926556 0.704739 0.985041
O O4 0.065520 0.769728 0.003141
O O5 0.250000 0.157644 0.250000
O O6 0.174766 0.076796 0.092816
O O7 0.099299 0.116703 0.325011
O O8 0.250000 0.999641 0.250000
O O9 0.184417 0.017188 0.498011
O O10 0.337013 0.960098 0.471719
O O11 0.500000 0.500000 0.500000
O O12 0.575841 0.591574 0.401006
O O13 0.602167 0.470908 0.301383
O O14 0.446160 0.871775 0.932715
O O15 0.882201 0.123269 0.164543
O O16 0.720829 0.104244 0.101743
O O17 0.827000 0.152482 0.906104
O O18 0.250000 0.750000 0.031148
O O19 0.145404 0.750000 0.250000
#
# Coordination Sequence:
#
# PCOD9389579 Si02
#       8
#     8   8   8   8   8   8   8   8
#     4  10  22  37  61  89 122 164 219 268 319 382
#     4  10  19  35  56  88 125 156 210 272 315 370
#     4  10  19  34  57  82 115 157 198 251 321 379
#     4   9  17  32  54  82 117 150 192 257 308 373
#     4  10  17  33  54  83 113 153 201 253 314 366
#     4  10  20  37  59  82 116 158 202 251 318 382
#     4   9  19  34  58  87 114 149 206 261 309 375
#     4  11  25  43  60  89 129 168 210 262 325 401
#
# _framework density 20.325402
#
# number of rings (size 3 to 8) (size 9 to 14) (size 15 to 20)
#    0.000    2.125    2.500    2.250    1.750    3.500 
#    0.000    3.750    0.000    0.000    0.000    3.500 
#    0.000    0.000    0.000    0.000    0.000    0.000 
#
# Total GULP energy -356441.677877 kJ/mol
# GULP energy per Si atom -5569.401217 kJ/mol
# Density = 2.027914 g / cm^3
# Si number density = 20.325402 Si / 1000 Ang^3
#
#
#
# Elastic Constant Matrix: (Units=GPa)
#
#
# Indices 1 2 3 4 5 6 
#
# 1 65.1388 34.1990 12.6809 0.0000 0.0000 0.0000
# 2 34.1990 155.6184 38.1266 0.0000 0.0000 0.0000
# 3 12.6809 38.1266 46.1087 0.0000 0.0000 0.0000
# 4 0.0000 0.0000 0.0000 30.3095 0.0000 0.0000
# 5 0.0000 0.0000 0.0000 0.0000 22.4397 0.0000
# 6 0.0000 0.0000 0.0000 0.0000 0.0000 38.9815
#
#
#
# Elastic Compliance Matrix: (Units=1/GPa)
#
#
# Indices 1 2 3 4 5 6 
#
# 1 0.017507 -0.003346 -0.002048 0.000000 0.000000 0.000000
# 2 -0.003346 0.008698 -0.006272 0.000000 0.000000 0.000000
# 3 -0.002048 -0.006272 0.027437 0.000000 0.000000 0.000000
# 4 0.000000 0.000000 0.000000 0.032993 0.000000 0.000000
# 5 0.000000 0.000000 0.000000 0.000000 0.044564 0.000000
# 6 0.000000 0.000000 0.000000 0.000000 0.000000 0.025653
#
#
# Mechanical properties :
#
#
# Convention : Reuss Voigt Hill
#
# Bulk Modulus (GPa) = 32.99199 48.54210 40.76705
# Shear Modulus (GPa) = 26.27597 30.47010 28.37304
#
# Velocity S-wave (km/s) = 3.59940 3.87604 3.74028
# Velocity P-wave (km/s) = 5.79150 6.63068 6.22524
#
# Compressibility (1/GPa) = 0.03031039
#
# Stress axis : x y z
#
# Youngs Moduli (GPa) = 57.11973 114.97100 36.44648
#
# Poissons Ratio (x) = 0.38464 0.07466
# Poissons Ratio (y) = 0.19110 0.22859
# Poissons Ratio (z) = 0.11701 0.72110
#
# Static dielectric constant tensor:
#      x y z
#    x 1.780670 0.000000 0.000000 
#    y 0.000000 1.797230 0.000000 
#    z 0.000000 0.000000 1.709540 
# 
# From -- ./inp_files/13291.got.cif
#   From: 2010.05.17/outbox.cif.g08.bks.cpg/sg48_7_cif.got.tgz:13291.got - 2010.06.03 20:39:00.
