data_PCOD9389858
_publ_section_title
;
Structure prediction by ZEFSAII (Michael W. Deem and Ramdas Pophale) SiO2 
 PCOD9389858
Probable space group: P N N N
;
_chemical_formula_sum "Si O2"
_cell_formula_units_Z 48
_cell_length_a 11.762635
_cell_length_b 22.488084
_cell_length_c 7.027132
_cell_angle_alpha 90.000000
_cell_angle_beta 90.000000
_cell_angle_gamma 90.000000
_cell_volume 1858.810800
_symmetry_space_group_name_H-M "P N N N"
_symmetry_group_IT_number 48
_space_group.IT_coordinate_system_code '2'
_symmetry_cell_setting 'orthorhombic'
loop_
_space_group_symop_operation_xyz
x,y,z
1/2-x,1/2-y,z
x,1/2-y,1/2-z
1/2-x,y,1/2-z
-x,-y,-z
1/2+x,1/2+y,-z
-x,1/2+y,1/2+z
1/2+x,-y,1/2+z
loop_
_atom_site_type_symbol
_atom_site_label
_atom_site_fract_x
_atom_site_fract_y
_atom_site_fract_z
Si Si1 0.752434 0.840382 0.963676
Si Si2 0.917788 0.453665 0.393185
Si Si3 0.194576 0.475613 0.995712
Si Si4 0.045506 0.570860 0.063291
Si Si5 0.991920 0.174864 0.041838
Si Si6 0.503469 0.696162 0.498958
O O1 0.750000 0.816845 0.750000
O O2 0.745218 0.912097 0.949986
O O3 0.878888 0.829440 0.034339
O O4 0.638087 0.812343 0.050420
O O5 0.795735 0.484294 0.416510
O O6 0.942794 0.438511 0.168860
O O7 0.000000 0.500000 0.500000
O O8 0.929833 0.388015 0.486989
O O9 0.082775 0.448539 0.885601
O O10 0.133280 0.521945 0.139665
O O11 0.059966 0.640340 0.095883
O O12 0.997774 0.184218 0.272210
O O13 0.952941 0.238828 0.964810
#
# Coordination Sequence:
#
# PCOD9389858 Si02
#       6
#     8   8   8   8   8   8
#     4   9  15  25  45  72  99 122 157 203 250 305
#     4  11  20  30  49  75 107 130 164 213 255 309
#     4  10  19  32  49  69 102 136 166 207 259 300
#     4   9  20  34  48  71 101 138 170 204 252 315
#     4   9  15  26  41  71  98 127 156 196 255 301
#     4   8  15  26  45  64  99 131 156 195 247 307
#
# _framework density 25.822963000000001
#
# number of rings (size 3 to 8) (size 9 to 14) (size 15 to 20)
#    0.000    2.667    1.667    2.000    0.000    2.000 
#    0.000    0.833    0.000    4.000    0.000   10.500 
#    5.000    0.000    0.000    0.000    0.000    0.000 
#
# Total GULP energy -267590.207383 kJ/mol
# GULP energy per Si atom -5574.795987 kJ/mol
# Density = 2.576419 g / cm^3
# Si number density = 25.822963 Si / 1000 Ang^3
#
#
#
# Elastic Constant Matrix: (Units=GPa)
#
#
# Indices 1 2 3 4 5 6 
#
# 1 87.1163 48.7786 23.9435 0.0000 0.0000 0.0000
# 2 48.7786 301.8510 9.1659 0.0000 0.0000 0.0000
# 3 23.9435 9.1659 119.2132 0.0000 0.0000 0.0000
# 4 0.0000 0.0000 0.0000 20.0046 0.0000 0.0000
# 5 0.0000 0.0000 0.0000 0.0000 14.5625 0.0000
# 6 0.0000 0.0000 0.0000 0.0000 0.0000 39.5439
#
#
#
# Elastic Compliance Matrix: (Units=1/GPa)
#
#
# Indices 1 2 3 4 5 6 
#
# 1 0.013335 -0.002078 -0.002518 0.000000 0.000000 0.000000
# 2 -0.002078 0.003645 0.000137 0.000000 0.000000 0.000000
# 3 -0.002518 0.000137 0.008884 0.000000 0.000000 0.000000
# 4 0.000000 0.000000 0.000000 0.049988 0.000000 0.000000
# 5 0.000000 0.000000 0.000000 0.000000 0.068670 0.000000
# 6 0.000000 0.000000 0.000000 0.000000 0.000000 0.025288
#
#
# Mechanical properties :
#
#
# Convention : Reuss Voigt Hill
#
# Bulk Modulus (GPa) = 59.01878 74.66183 66.84030
# Shear Modulus (GPa) = 27.11839 43.24170 35.18005
#
# Velocity S-wave (km/s) = 3.24414 4.09656 3.69501
# Velocity P-wave (km/s) = 6.07761 7.16599 6.64413
#
# Compressibility (1/GPa) = 0.01694376
#
# Stress axis : x y z
#
# Youngs Moduli (GPa) = 74.99146 274.37897 112.56697
#
# Poissons Ratio (x) = 0.57027 0.28349
# Poissons Ratio (y) = 0.15586 -0.01545
# Poissons Ratio (z) = 0.18886 -0.03765
#
# Static dielectric constant tensor:
#      x y z
#    x 2.175710 0.000000 0.000000 
#    y 0.000000 2.073160 0.000000 
#    z 0.000000 0.000000 2.147720 
# 
# From -- ./inp_files/20182.got.cif
#   From: 2010.05.17/outbox.cif.g08.bks.cpg/sg48_11_cif.got.tgz:20182.got - 2010.06.03 20:39:00.
