data_PCOD9389432
_publ_section_title
;
Structure prediction by ZEFSAII (Michael W. Deem and Ramdas Pophale) SiO2 
 PCOD9389432
Probable space group: P M M M
;
_chemical_formula_sum "Si O2"
_cell_formula_units_Z 64
_cell_length_a 9.000000
_cell_length_b 24.000000
_cell_length_c 15.000000
_cell_angle_alpha 90.000000
_cell_angle_beta 90.000000
_cell_angle_gamma 90.000000
_cell_volume 3240.000000
_symmetry_space_group_name_H-M "P M M M"
_symmetry_group_IT_number 47
_symmetry_cell_setting 'orthorhombic'
loop_
_space_group_symop_operation_xyz
x,y,z
-x,-y,z
x,-y,-z
-x,y,-z
-x,-y,-z
x,y,-z
-x,y,z
x,-y,z
loop_
_atom_site_type_symbol
_atom_site_label
_atom_site_fract_x
_atom_site_fract_y
_atom_site_fract_z
Si Si1 0.825457 0.791130 0.104145
Si Si2 0.827287 0.763414 0.395553
Si Si3 0.344433 0.314203 0.106402
Si Si4 0.331554 0.350510 0.602362
Si Si5 0.680812 0.935645 0.402140
Si Si6 0.159061 0.563202 0.296264
Si Si7 0.250663 0.438676 0.899299
Si Si8 0.323858 0.152884 0.264051
O O1 0.782705 0.728067 0.135582
O O2 0.745578 0.833990 0.168879
O O3 0.000000 0.797497 0.111248
O O4 0.783891 0.798222 0.000000
O O5 0.802251 0.776733 0.500000
O O6 0.782854 0.699296 0.384303
O O7 0.723189 0.798259 0.331231
O O8 0.000000 0.773083 0.374412
O O9 0.500000 0.294448 0.146647
O O10 0.333662 0.380433 0.115096
O O11 0.348499 0.306869 0.000000
O O12 0.318204 0.370288 0.500000
O O13 0.500000 0.330453 0.614833
O O14 0.290936 0.399037 0.669733
O O15 0.729280 0.914071 0.500000
O O16 0.500000 0.933158 0.402269
O O17 0.732832 0.901260 0.317266
O O18 0.723210 0.000000 0.396335
O O19 0.178714 0.500000 0.327333
O O20 0.153406 0.561139 0.189205
O O21 0.000000 0.584489 0.330001
O O22 0.326806 0.500000 0.897964
O O23 0.184971 0.434778 0.000000
O O24 0.500000 0.149815 0.255052
#
# Coordination Sequence:
#
# PCOD9389432 Si02
#       8
#     8   8   8   8   8   8   8   8
#     4  10  22  39  56  76 108 152 199 244 291 342
#     4  10  21  37  57  82 114 149 183 223 273 333
#     4   9  18  33  53  76 102 134 177 229 284 342
#     4  10  22  40  60  80 104 136 176 226 282 336
#     4   8  15  30  54  87 126 161 191 227 274 330
#     4  10  22  38  56  79 105 136 176 222 274 336
#     4   9  19  35  54  78 109 142 176 221 279 342
#     4  11  21  33  57  89 118 152 192 236 283 331
#
# _framework density 19.753086
#
# number of rings (size 3 to 8) (size 9 to 14) (size 15 to 20)
#    0.000    2.375    0.000    2.250    1.750    4.750 
#    0.000    6.250    0.000    1.875    0.000    7.000 
#    0.000    0.000    0.000    0.000    0.000    0.000 
#
# Total GULP energy -356283.622880 kJ/mol
# GULP energy per Si atom -5566.931608 kJ/mol
# Density = 1.970813 g / cm^3
# Si number density = 19.753086 Si / 1000 Ang^3
#
#
#
# Elastic Constant Matrix: (Units=GPa)
#
#
# Indices 1 2 3 4 5 6 
#
# 1 33.2665 32.8428 33.8110 0.0000 0.0000 0.0000
# 2 32.8428 82.7398 59.1465 0.0000 0.0000 0.0000
# 3 33.8110 59.1465 74.4961 0.0000 0.0000 0.0000
# 4 0.0000 0.0000 0.0000 34.0626 0.0000 0.0000
# 5 0.0000 0.0000 0.0000 0.0000 8.3479 0.0000
# 6 0.0000 0.0000 0.0000 0.0000 0.0000 2.5835
#
#
#
# Elastic Compliance Matrix: (Units=1/GPa)
#
#
# Indices 1 2 3 4 5 6 
#
# 1 0.059118 -0.009911 -0.018963 0.000000 0.000000 0.000000
# 2 -0.009911 0.029610 -0.019011 0.000000 0.000000 0.000000
# 3 -0.018963 -0.019011 0.037124 0.000000 0.000000 0.000000
# 4 0.000000 0.000000 0.000000 0.029358 0.000000 0.000000
# 5 0.000000 0.000000 0.000000 0.000000 0.119790 0.000000
# 6 0.000000 0.000000 0.000000 0.000000 0.000000 0.387071
#
#
# Mechanical properties :
#
#
# Convention : Reuss Voigt Hill
#
# Bulk Modulus (GPa) = 33.24141 49.12256 41.18199
# Shear Modulus (GPa) = 6.51155 13.31227 9.91191
#
# Velocity S-wave (km/s) = 1.81759 2.59884 2.24250
# Velocity P-wave (km/s) = 4.61192 5.82474 5.25345
#
# Compressibility (1/GPa) = 0.03008296
#
# Stress axis : x y z
#
# Youngs Moduli (GPa) = 16.91532 33.77240 26.93698
#
# Poissons Ratio (x) = 0.33472 0.51080
# Poissons Ratio (y) = 0.16765 0.51209
# Poissons Ratio (z) = 0.32076 0.64204
#
# Static dielectric constant tensor:
#      x y z
#    x 1.719750 0.000000 0.000000 
#    y 0.000000 1.698900 0.000000 
#    z 0.000000 0.000000 1.713200 
# 
# From -- ./inp_files/12704.got.cif
#   From: 2010.05.17/outbox.ucp.g08.bks.cvg/sg47_7_cif.got.tgz:12704.got - 2010.06.11 16:36:43.
