data_PCOD9389042
_publ_section_title
;
Structure prediction by ZEFSAII (Michael W. Deem and Ramdas Pophale) SiO2 
 PCOD9389042
Probable space group: P M M M
;
_chemical_formula_sum "Si O2"
_cell_formula_units_Z 64
_cell_length_a 29.790448
_cell_length_b 7.542956
_cell_length_c 14.407552
_cell_angle_alpha 90.000000
_cell_angle_beta 90.000000
_cell_angle_gamma 90.000000
_cell_volume 3237.492749
_symmetry_space_group_name_H-M "P M M M"
_symmetry_group_IT_number 47
_symmetry_cell_setting 'orthorhombic'
loop_
_space_group_symop_operation_xyz
x,y,z
-x,-y,z
x,-y,-z
-x,y,-z
-x,-y,-z
x,y,-z
-x,y,z
x,-y,z
loop_
_atom_site_type_symbol
_atom_site_label
_atom_site_fract_x
_atom_site_fract_y
_atom_site_fract_z
Si Si1 0.636978 0.712638 0.784142
Si Si2 0.275500 0.712427 0.895406
Si Si3 0.449321 0.283702 0.893015
Si Si4 0.860747 0.782854 0.604608
Si Si5 0.224129 0.787536 0.716857
Si Si6 0.949279 0.207162 0.304427
Si Si7 0.311501 0.787495 0.395053
Si Si8 0.053047 0.713206 0.900517
O O1 0.636640 0.500000 0.793840
O O2 0.678860 0.780172 0.846219
O O3 0.589899 0.778181 0.824838
O O4 0.648626 0.750861 0.677393
O O5 0.279748 0.500000 0.901006
O O6 0.235510 0.748575 0.823475
O O7 0.269791 0.779978 0.000000
O O8 0.500000 0.226179 0.869827
O O9 0.449557 0.500000 0.891278
O O10 0.439695 0.233356 0.000000
O O11 0.848336 0.733688 0.500000
O O12 0.822863 0.722218 0.676510
O O13 0.910408 0.717923 0.630901
O O14 0.861921 0.000000 0.608099
O O15 0.265912 0.719958 0.654482
O O16 0.223880 0.000000 0.707309
O O17 0.931215 0.218489 0.198518
O O18 0.000000 0.283687 0.308874
O O19 0.953585 0.000000 0.327370
O O20 0.317089 0.720569 0.500000
O O21 0.307333 0.000000 0.400566
O O22 0.056359 0.500000 0.898283
O O23 0.000000 0.758834 0.902176
O O24 0.072284 0.774001 0.000000
#
# Coordination Sequence:
#
# PCOD9389042 Si02
#       8
#     8   8   8   8   8   8   8   8
#     4   9  16  26  43  67  91 115 146 182 217 255
#     4   9  17  29  45  66  94 123 144 168 211 263
#     4   8  13  22  39  64  91 117 146 180 216 255
#     4   9  17  30  48  67  87 112 141 174 213 256
#     4   9  17  30  48  67  85 110 146 181 211 248
#     4   9  17  28  44  68  92 111 136 172 211 250
#     4   9  17  29  45  64  85 110 143 183 223 261
#     4   8  14  26  44  63  83 110 141 169 200 240
#
# _framework density 19.768384999999999
#
# number of rings (size 3 to 8) (size 9 to 14) (size 15 to 20)
#    0.000    3.250    0.000    1.500    0.000    4.000 
#    0.000    3.750    0.000    7.875    0.000    5.250 
#    0.000    0.000    0.000    0.000    0.000    0.000 
#
# Total GULP energy -356616.855953 kJ/mol
# GULP energy per Si atom -5572.138374 kJ/mol
# Density = 1.972339 g / cm^3
# Si number density = 19.768385 Si / 1000 Ang^3
#
#
#
# Elastic Constant Matrix: (Units=GPa)
#
#
# Indices 1 2 3 4 5 6 
#
# 1 108.1622 4.5725 79.9884 0.0000 0.0000 0.0000
# 2 4.5725 45.5927 0.3634 0.0000 0.0000 0.0000
# 3 79.9884 0.3634 152.5190 0.0000 0.0000 0.0000
# 4 0.0000 0.0000 0.0000 -3.6217 0.0000 0.0000
# 5 0.0000 0.0000 0.0000 0.0000 26.4724 0.0000
# 6 0.0000 0.0000 0.0000 0.0000 0.0000 10.6297
#
#
#
# Elastic Compliance Matrix: (Units=1/GPa)
#
#
# Indices 1 2 3 4 5 6 
#
# 1 0.015200 -0.001461 -0.007968 0.000000 0.000000 0.000000
# 2 -0.001461 0.022074 0.000714 0.000000 0.000000 0.000000
# 3 -0.007968 0.000714 0.010734 0.000000 0.000000 0.000000
# 4 0.000000 0.000000 0.000000 -0.276114 0.000000 0.000000
# 5 0.000000 0.000000 0.000000 0.000000 0.037775 0.000000
# 6 0.000000 0.000000 0.000000 0.000000 0.000000 0.094076
#
#
# Mechanical properties :
#
#
# Convention : Reuss Voigt Hill
#
# Bulk Modulus (GPa) = 32.70445 52.90252 42.80348
# Shear Modulus (GPa) = -72.85125 21.45272 -25.69926
#
# Velocity S-wave (km/s) = -6.07720 3.29782 -3.60949
# Velocity P-wave (km/s) = 5.71520 6.42807 2.08045
#
# Compressibility (1/GPa) = 0.03057688
#
# Stress axis : x y z
#
# Youngs Moduli (GPa) = 65.79125 45.30187 93.16516
#
# Poissons Ratio (x) = 0.06618 0.74233
# Poissons Ratio (y) = 0.09611 -0.06648
# Poissons Ratio (z) = 0.52422 -0.03233
#
# Static dielectric constant tensor:
#      x y z
#    x 1.694480 0.000000 0.000000 
#    y 0.000000 1.759980 0.000000 
#    z 0.000000 0.000000 1.700940 
# 
# From -- ./inp_files/16878.got.cif
#   From: 2010.05.17/outbox.cif.g08.bks.cpg/sg47_9_cif.got.tgz:16878.got - 2010.06.03 20:15:42.
