data_PCOD9389048
_publ_section_title
;
Structure prediction by ZEFSAII (Michael W. Deem and Ramdas Pophale) SiO2 
 PCOD9389048
Probable space group: P M M M
;
_chemical_formula_sum "Si O2"
_cell_formula_units_Z 52
_cell_length_a 35.716412
_cell_length_b 7.517563
_cell_length_c 9.476688
_cell_angle_alpha 90.000000
_cell_angle_beta 90.000000
_cell_angle_gamma 90.000000
_cell_volume 2544.494304
_symmetry_space_group_name_H-M "P M M M"
_symmetry_group_IT_number 47
_symmetry_cell_setting 'orthorhombic'
loop_
_space_group_symop_operation_xyz
x,y,z
-x,-y,z
x,-y,-z
-x,y,-z
-x,-y,-z
x,y,-z
-x,y,z
x,-y,z
loop_
_atom_site_type_symbol
_atom_site_label
_atom_site_fract_x
_atom_site_fract_y
_atom_site_fract_z
Si Si1 0.265513 0.283031 0.664622
Si Si2 0.040233 0.786233 0.664291
Si Si3 0.500000 0.218351 0.162006
Si Si4 0.877881 0.711013 0.660737
Si Si5 0.193059 0.718104 0.837865
Si Si6 0.428947 0.211087 0.660874
Si Si7 0.652793 0.286441 0.336721
O O1 0.261683 0.230998 0.500000
O O2 0.265089 0.500000 0.665811
O O3 0.230455 0.223806 0.756474
O O4 0.306712 0.226520 0.719119
O O5 0.040942 0.726202 0.500000
O O6 0.080547 0.735421 0.724202
O O7 0.000000 0.725417 0.724709
O O8 0.039477 0.000000 0.663743
O O9 0.537126 0.278810 0.244530
O O10 0.500000 0.000000 0.161860
O O11 0.500000 0.274883 0.000000
O O12 0.877203 0.784133 0.500000
O O13 0.872217 0.500000 0.649066
O O14 0.844001 0.779390 0.755309
O O15 0.193000 0.500000 0.836966
O O16 0.192933 0.774082 0.000000
O O17 0.429726 0.284075 0.500000
O O18 0.387438 0.236693 0.724711
O O19 0.434434 0.000000 0.649308
O O20 0.651724 0.224249 0.500000
O O21 0.653785 0.500000 0.337905
#
# Coordination Sequence:
#
# PCOD9389048 Si02
#       7
#     8   8   4   8   8   8   8
#     4   8  13  23  40  59  79 106 139 170 199 238
#     4   8  14  25  41  61  84 108 134 166 204 244
#     4   9  17  29  44  61  82 110 142 171 202 244
#     4   9  16  25  40  63  86 106 132 168 206 241
#     4   9  16  25  38  58  84 111 138 169 204 240
#     4   9  16  27  45  66  84 104 135 173 206 238
#     4   8  14  25  42  64  87 109 134 166 205 246
#
# _framework density 20.436281000000001
#
# number of rings (size 3 to 8) (size 9 to 14) (size 15 to 20)
#    0.000    3.462    0.000    2.077    0.000    3.077 
#    0.000    2.692    0.000    5.538    0.000    7.538 
#    0.000    0.000    0.000    0.000    0.000    0.000 
#
# Total GULP energy -289605.245795 kJ/mol
# GULP energy per Si atom -5569.331650 kJ/mol
# Density = 2.038977 g / cm^3
# Si number density = 20.436281 Si / 1000 Ang^3
#
#
#
# Elastic Constant Matrix: (Units=GPa)
#
#
# Indices 1 2 3 4 5 6 
#
# 1 266.5979 3.6750 98.1452 0.0000 0.0000 0.0000
# 2 3.6750 48.9353 4.6319 0.0000 0.0000 0.0000
# 3 98.1452 4.6319 79.5798 0.0000 0.0000 0.0000
# 4 0.0000 0.0000 0.0000 -0.8471 0.0000 0.0000
# 5 0.0000 0.0000 0.0000 0.0000 -5.5146 0.0000
# 6 0.0000 0.0000 0.0000 0.0000 0.0000 22.7271
#
#
#
# Elastic Compliance Matrix: (Units=1/GPa)
#
#
# Indices 1 2 3 4 5 6 
#
# 1 0.006874 0.000288 -0.008495 0.000000 0.000000 0.000000
# 2 0.000288 0.020560 -0.001552 0.000000 0.000000 0.000000
# 3 -0.008495 -0.001552 0.023133 0.000000 0.000000 0.000000
# 4 0.000000 0.000000 0.000000 -1.180510 0.000000 0.000000
# 5 0.000000 0.000000 0.000000 0.000000 -0.181337 0.000000
# 6 0.000000 0.000000 0.000000 0.000000 0.000000 0.044000
#
#
# Mechanical properties :
#
#
# Convention : Reuss Voigt Hill
#
# Bulk Modulus (GPa) = 32.20581 67.55746 49.88163
# Shear Modulus (GPa) = -4.04069 22.51715 9.23823
#
# Velocity S-wave (km/s) = -1.40766 3.32297 2.12845
# Velocity P-wave (km/s) = 3.62648 6.91753 5.52284
#
# Compressibility (1/GPa) = 0.03105030
#
# Stress axis : x y z
#
# Youngs Moduli (GPa) = 145.47080 48.63720 43.22871
#
# Poissons Ratio (x) = -0.01400 0.36721
# Poissons Ratio (y) = -0.04187 0.06708
# Poissons Ratio (z) = 1.23573 0.07547
#
# Static dielectric constant tensor:
#      x y z
#    x 1.768630 0.000000 0.000000 
#    y 0.000000 1.777780 0.000000 
#    z 0.000000 0.000000 1.679510 
# 
# From -- ./inp_files/14094.got.cif
#   From: 2010.05.17/outbox.cif.g08.bks.cpg/sg47_8_cif.got.tgz:14094.got - 2010.06.03 20:15:42.
