data_PCOD9389532
_publ_section_title
;
Structure prediction by ZEFSAII (Michael W. Deem and Ramdas Pophale) SiO2 
 PCOD9389532
Probable space group: P N N N
;
_chemical_formula_sum "Si O2"
_cell_formula_units_Z 64
_cell_length_a 5.338205
_cell_length_b 31.691666
_cell_length_c 22.809461
_cell_angle_alpha 90.000000
_cell_angle_beta 90.000000
_cell_angle_gamma 90.000000
_cell_volume 3858.827286
_symmetry_space_group_name_H-M "P N N N"
_symmetry_group_IT_number 48
_space_group.IT_coordinate_system_code '2'
_symmetry_cell_setting 'orthorhombic'
loop_
_space_group_symop_operation_xyz
x,y,z
1/2-x,1/2-y,z
x,1/2-y,1/2-z
1/2-x,y,1/2-z
-x,-y,-z
1/2+x,1/2+y,-z
-x,1/2+y,1/2+z
1/2+x,-y,1/2+z
loop_
_atom_site_type_symbol
_atom_site_label
_atom_site_fract_x
_atom_site_fract_y
_atom_site_fract_z
Si Si1 0.282928 0.474221 0.376838
Si Si2 0.267046 0.299240 0.342498
Si Si3 0.765533 0.155966 0.150904
Si Si4 0.119521 0.079933 0.493747
Si Si5 0.224325 0.941899 0.819493
Si Si6 0.225162 0.796509 0.970727
Si Si7 0.215928 0.178566 0.481135
Si Si8 0.403734 0.540369 0.038408
O O1 0.315740 0.444042 0.433457
O O2 0.549583 0.470314 0.344871
O O3 0.204460 0.519655 0.402505
O O4 0.049040 0.457648 0.339149
O O5 0.250000 0.250000 0.327550
O O6 0.523410 0.320966 0.322583
O O7 0.271559 0.303906 0.413852
O O8 0.022820 0.325301 0.323552
O O9 0.745843 0.106054 0.157261
O O10 0.770150 0.169430 0.082102
O O11 0.165535 0.129082 0.482303
O O12 0.338533 0.066783 0.539858
O O13 0.835661 0.065402 0.510635
O O14 0.250000 0.940725 0.750000
O O15 0.250000 0.750000 0.943086
O O16 0.472310 0.800962 0.008791
O O17 0.977082 0.806255 0.006095
O O18 0.500000 0.500000 0.000000
#
# Coordination Sequence:
#
# PCOD9389532 Si02
#       8
#     8   8   8   8   8   8   8   8
#     4  11  20  36  52  66  92 120 141 180 236 281
#     4  10  18  29  46  65  83 112 151 183 227 281
#     4  10  18  30  45  61  81 104 136 190 235 266
#     4  11  19  31  49  74  95 113 146 180 233 297
#     4  12  24  36  51  70  89 116 157 196 238 292
#     4  10  17  27  42  61  83 115 155 186 228 278
#     4  10  17  25  39  61  87 111 136 182 225 258
#     4  10  20  32  49  72  94 116 142 175 223 298
#
# _framework density 16.585349000000001
#
# number of rings (size 3 to 8) (size 9 to 14) (size 15 to 20)
#    0.000    1.500    0.000   12.375    0.000    0.000 
#    0.000    0.000    0.000    4.125    0.000    0.000 
#    0.000    0.000    0.000    0.000    0.000    0.000 
#
# Total GULP energy -356720.296112 kJ/mol
# GULP energy per Si atom -5573.754627 kJ/mol
# Density = 1.654760 g / cm^3
# Si number density = 16.585349 Si / 1000 Ang^3
#
#
#
# Elastic Constant Matrix: (Units=GPa)
#
#
# Indices 1 2 3 4 5 6 
#
# 1 155.7762 14.2228 5.4995 0.0000 0.0000 0.0000
# 2 14.2228 51.1369 15.7728 0.0000 0.0000 0.0000
# 3 5.4995 15.7728 16.0023 0.0000 0.0000 0.0000
# 4 0.0000 0.0000 0.0000 -9.1260 0.0000 0.0000
# 5 0.0000 0.0000 0.0000 0.0000 -10.7010 0.0000
# 6 0.0000 0.0000 0.0000 0.0000 0.0000 22.6873
#
#
#
# Elastic Compliance Matrix: (Units=1/GPa)
#
#
# Indices 1 2 3 4 5 6 
#
# 1 0.006592 -0.001630 -0.000658 0.000000 0.000000 0.000000
# 2 -0.001630 0.028501 -0.027532 0.000000 0.000000 0.000000
# 3 -0.000658 -0.027532 0.089854 0.000000 0.000000 0.000000
# 4 0.000000 0.000000 0.000000 -0.109577 0.000000 0.000000
# 5 0.000000 0.000000 0.000000 0.000000 -0.093450 0.000000
# 6 0.000000 0.000000 0.000000 0.000000 0.000000 0.044077
#
#
# Mechanical properties :
#
#
# Convention : Reuss Voigt Hill
#
# Bulk Modulus (GPa) = 15.31266 32.65620 23.98443
# Shear Modulus (GPa) = 105.47144 13.06677 59.26910
#
# Velocity S-wave (km/s) = 7.98318 2.80991 5.98443
# Velocity P-wave (km/s) = 9.70709 5.50091 7.88947
#
# Compressibility (1/GPa) = 0.06530545
#
# Stress axis : x y z
#
# Youngs Moduli (GPa) = 151.70924 35.08684 11.12917
#
# Poissons Ratio (x) = 0.05720 0.00733
# Poissons Ratio (y) = 0.24732 0.30640
# Poissons Ratio (z) = 0.09990 0.96600
#
# Static dielectric constant tensor:
#      x y z
#    x 1.699980 0.000000 0.000000 
#    y 0.000000 1.579480 0.000000 
#    z 0.000000 0.000000 1.554260 
# 
# From -- ./inp_files/29681.got.cif
#   From: 2010.05.17/outbox.cif.g08.bks.cpg/sg48_15_cif.got.tgz:29681.got - 2010.06.03 20:39:00.
