data_PCOD9389534
_publ_section_title
;
Structure prediction by ZEFSAII (Michael W. Deem and Ramdas Pophale) SiO2 
 PCOD9389534
Probable space group: P N N N
;
_chemical_formula_sum "Si O2"
_cell_formula_units_Z 54
_cell_length_a 27.306122
_cell_length_b 13.679129
_cell_length_c 5.530364
_cell_angle_alpha 90.000000
_cell_angle_beta 90.000000
_cell_angle_gamma 90.000000
_cell_volume 2065.723491
_symmetry_space_group_name_H-M "P N N N"
_symmetry_group_IT_number 48
_space_group.IT_coordinate_system_code '2'
_symmetry_cell_setting 'orthorhombic'
loop_
_space_group_symop_operation_xyz
x,y,z
1/2-x,1/2-y,z
x,1/2-y,1/2-z
1/2-x,y,1/2-z
-x,-y,-z
1/2+x,1/2+y,-z
-x,1/2+y,1/2+z
1/2+x,-y,1/2+z
loop_
_atom_site_type_symbol
_atom_site_label
_atom_site_fract_x
_atom_site_fract_y
_atom_site_fract_z
Si Si1 0.404353 0.103548 0.295718
Si Si2 0.810580 0.920800 0.455631
Si Si3 0.550743 0.113643 0.654377
Si Si4 0.750000 0.750000 0.250000
Si Si5 0.408415 0.875891 0.846009
Si Si6 0.937854 0.605542 0.202670
Si Si7 0.250000 0.926366 0.250000
Si Si8 0.695691 0.401730 0.162308
O O1 0.405887 0.146680 0.569845
O O2 0.427835 0.997102 0.348207
O O3 0.352610 0.093178 0.155420
O O4 0.434945 0.149624 0.069983
O O5 0.784609 0.819759 0.405365
O O6 0.773595 0.999635 0.562440
O O7 0.818031 0.981892 0.203486
O O8 0.562764 0.156753 0.392740
O O9 0.493263 0.110678 0.706757
O O10 0.575925 0.158092 0.890864
O O11 0.421163 0.993203 0.846358
O O12 0.351120 0.857765 0.794157
O O13 0.296166 0.876794 0.380148
O O14 0.750000 0.368728 0.250000
#
# Coordination Sequence:
#
# PCOD9389534 Si02
#       8
#     8   8   8   2   8   8   4   8
#     4  10  18  28  44  57  83  99 121 150 210 260
#     4  11  21  34  43  58  73 101 133 189 227 257
#     4  10  17  26  43  64  83  99 118 146 199 273
#     4  12  24  38  44  60  78 100 164 202 228 266
#     4  10  17  26  39  58  81 103 119 156 189 249
#     4  10  17  27  44  65  81  99 118 147 197 280
#     4  10  18  31  48  52  68  94 138 174 222 260
#     4  10  19  30  43  56  74 101 140 168 214 255
#
# _framework density 26.140964
#
# number of rings (size 3 to 8) (size 9 to 14) (size 15 to 20)
#    0.000    1.778    5.185    6.222    2.074    0.296 
#    0.000    0.000    0.000    0.000    0.000    0.000 
#    0.000    0.000    0.000    0.000    0.000    0.000 
#
# Total GULP energy -301027.922432 kJ/mol
# GULP energy per Si atom -5574.591156 kJ/mol
# Density = 2.608147 g / cm^3
# Si number density = 26.140964 Si / 1000 Ang^3
#
#
#
# Elastic Constant Matrix: (Units=GPa)
#
#
# Indices 1 2 3 4 5 6 
#
# 1 154.1653 -8.3447 44.1424 0.0000 0.0000 0.0000
# 2 -8.3447 72.0719 15.1527 0.0000 0.0000 0.0000
# 3 44.1424 15.1527 219.0647 0.0000 0.0000 0.0000
# 4 0.0000 0.0000 0.0000 13.7066 0.0000 0.0000
# 5 0.0000 0.0000 0.0000 0.0000 52.5395 0.0000
# 6 0.0000 0.0000 0.0000 0.0000 0.0000 276.3611
#
#
#
# Elastic Compliance Matrix: (Units=1/GPa)
#
#
# Indices 1 2 3 4 5 6 
#
# 1 0.006971 0.001119 -0.001482 0.000000 0.000000 0.000000
# 2 0.001119 0.014259 -0.001212 0.000000 0.000000 0.000000
# 3 -0.001482 -0.001212 0.004947 0.000000 0.000000 0.000000
# 4 0.000000 0.000000 0.000000 0.072958 0.000000 0.000000
# 5 0.000000 0.000000 0.000000 0.000000 0.019033 0.000000
# 6 0.000000 0.000000 0.000000 0.000000 0.000000 0.003618
#
#
# Mechanical properties :
#
#
# Convention : Reuss Voigt Hill
#
# Bulk Modulus (GPa) = 43.42558 60.80031 52.11295
# Shear Modulus (GPa) = 37.70344 94.81153 66.25749
#
# Velocity S-wave (km/s) = 3.80190 6.02894 5.03997
# Velocity P-wave (km/s) = 5.99339 8.47191 7.33805
#
# Compressibility (1/GPa) = 0.02302790
#
# Stress axis : x y z
#
# Youngs Moduli (GPa) = 143.44128 70.12949 202.12877
#
# Poissons Ratio (x) = -0.07846 0.29959
# Poissons Ratio (y) = -0.16048 0.24493
# Poissons Ratio (z) = 0.21260 0.08498
#
# Static dielectric constant tensor:
#      x y z
#    x 1.965310 0.000000 0.000000 
#    y 0.000000 2.169910 0.000000 
#    z 0.000000 0.000000 1.392330 
# 
# From -- ./inp_files/6650.got.cif
#   From: 2010.05.17/outbox.cif.g08.bks.cpg/sg48_4_cif.got.tgz:6650.got - 2010.06.03 20:39:00.
