data_PCOD9389644
_publ_section_title
;
Structure prediction by ZEFSAII (Michael W. Deem and Ramdas Pophale) SiO2 
 PCOD9389644
Probable space group: P N N N
;
_chemical_formula_sum "Si O2"
_cell_formula_units_Z 44
_cell_length_a 8.205753
_cell_length_b 10.666180
_cell_length_c 26.953835
_cell_angle_alpha 90.000000
_cell_angle_beta 90.000000
_cell_angle_gamma 90.000000
_cell_volume 2359.108493
_symmetry_space_group_name_H-M "P N N N"
_symmetry_group_IT_number 48
_space_group.IT_coordinate_system_code '2'
_symmetry_cell_setting 'orthorhombic'
loop_
_space_group_symop_operation_xyz
x,y,z
1/2-x,1/2-y,z
x,1/2-y,1/2-z
1/2-x,y,1/2-z
-x,-y,-z
1/2+x,1/2+y,-z
-x,1/2+y,1/2+z
1/2+x,-y,1/2+z
loop_
_atom_site_type_symbol
_atom_site_label
_atom_site_fract_x
_atom_site_fract_y
_atom_site_fract_z
Si Si1 0.750000 0.750000 0.993472
Si Si2 0.543112 0.104761 0.960220
Si Si3 0.949816 0.900424 0.143532
Si Si4 0.444698 0.895467 0.250017
Si Si5 0.561524 0.893133 0.144952
Si Si6 0.875826 0.005147 0.954343
O O1 0.791762 0.868989 0.959410
O O2 0.591331 0.786723 0.027642
O O3 0.512479 0.052487 0.904995
O O4 0.738725 0.111898 0.963018
O O5 0.500000 0.000000 0.000000
O O6 0.755216 0.901346 0.139777
O O7 0.997064 0.752662 0.143259
O O8 0.996778 0.951623 0.197949
O O9 0.035173 0.968518 0.097604
O O10 0.504615 0.750000 0.250000
O O11 0.250000 0.895095 0.250000
O O12 0.507992 0.948286 0.197816
O O13 0.000000 0.000000 0.000000
#
# Coordination Sequence:
#
# PCOD9389644 Si02
#       6
#     4   8   8   8   8   8
#     4  10  22  38  52  76 110 140 180 224 266 322
#     4  10  20  35  53  75 103 137 174 214 263 314
#     4  10  19  31  49  75 105 140 175 209 262 320
#     4   9  17  28  45  72 104 138 171 207 258 316
#     4  10  18  31  49  73 108 139 170 216 260 314
#     4  11  22  35  54  78 106 142 181 220 268 325
#
# _framework density 18.651112999999999
#
# number of rings (size 3 to 8) (size 9 to 14) (size 15 to 20)
#    0.000    2.000    0.000    6.000    0.000    6.545 
#    0.000    0.000    0.000    0.000    0.000   15.909 
#    0.000   17.455    0.000    0.000    0.000    0.000 
#
# Total GULP energy -245176.469091 kJ/mol
# GULP energy per Si atom -5572.192479 kJ/mol
# Density = 1.860866 g / cm^3
# Si number density = 18.651113 Si / 1000 Ang^3
#
#
#
# Elastic Constant Matrix: (Units=GPa)
#
#
# Indices 1 2 3 4 5 6 
#
# 1 103.1522 26.8738 64.2849 0.0000 0.0000 0.0000
# 2 26.8738 57.5396 35.8540 0.0000 0.0000 0.0000
# 3 64.2849 35.8540 201.3518 0.0000 0.0000 0.0000
# 4 0.0000 0.0000 0.0000 23.8876 0.0000 0.0000
# 5 0.0000 0.0000 0.0000 0.0000 42.8727 0.0000
# 6 0.0000 0.0000 0.0000 0.0000 0.0000 25.2709
#
#
#
# Elastic Compliance Matrix: (Units=1/GPa)
#
#
# Indices 1 2 3 4 5 6 
#
# 1 0.012824 -0.003867 -0.003406 0.000000 0.000000 0.000000
# 2 -0.003867 0.020715 -0.002454 0.000000 0.000000 0.000000
# 3 -0.003406 -0.002454 0.006491 0.000000 0.000000 0.000000
# 4 0.000000 0.000000 0.000000 0.041863 0.000000 0.000000
# 5 0.000000 0.000000 0.000000 0.000000 0.023325 0.000000
# 6 0.000000 0.000000 0.000000 0.000000 0.000000 0.039571
#
#
# Mechanical properties :
#
#
# Convention : Reuss Voigt Hill
#
# Bulk Modulus (GPa) = 48.60089 68.45209 58.52649
# Shear Modulus (GPa) = 29.22243 34.07496 31.64870
#
# Velocity S-wave (km/s) = 3.96257 4.27894 4.12379
# Velocity P-wave (km/s) = 6.85933 7.82262 7.35676
#
# Compressibility (1/GPa) = 0.02057575
#
# Stress axis : x y z
#
# Youngs Moduli (GPa) = 77.97591 48.27496 154.06611
#
# Poissons Ratio (x) = 0.18670 0.52471
# Poissons Ratio (y) = 0.30157 0.37805
# Poissons Ratio (z) = 0.26557 0.11846
#
# Static dielectric constant tensor:
#      x y z
#    x 1.697750 0.000000 0.000000 
#    y 0.000000 1.659890 0.000000 
#    z 0.000000 0.000000 1.667140 
# 
# From -- ./inp_files/35789.got.cif
#   From: 2010.05.17/outbox.cif.g08.bks.cpg/sg48_18_cif.got.tgz:35789.got - 2010.06.03 20:39:00.
