data_PCOD9389632
_publ_section_title
;
Structure prediction by ZEFSAII (Michael W. Deem and Ramdas Pophale) SiO2 
 PCOD9389632
Probable space group: P N N N
;
_chemical_formula_sum "Si O2"
_cell_formula_units_Z 58
_cell_length_a 7.333738
_cell_length_b 26.962269
_cell_length_c 16.125713
_cell_angle_alpha 90.000000
_cell_angle_beta 90.000000
_cell_angle_gamma 90.000000
_cell_volume 3188.605229
_symmetry_space_group_name_H-M "P N N N"
_symmetry_group_IT_number 48
_space_group.IT_coordinate_system_code '2'
_symmetry_cell_setting 'orthorhombic'
loop_
_space_group_symop_operation_xyz
x,y,z
1/2-x,1/2-y,z
x,1/2-y,1/2-z
1/2-x,y,1/2-z
-x,-y,-z
1/2+x,1/2+y,-z
-x,1/2+y,1/2+z
1/2+x,-y,1/2+z
loop_
_atom_site_type_symbol
_atom_site_label
_atom_site_fract_x
_atom_site_fract_y
_atom_site_fract_z
Si Si1 0.342153 0.799835 0.502537
Si Si2 0.031350 0.069490 0.729305
Si Si3 0.968155 0.570157 0.407344
Si Si4 0.728649 0.097692 0.036566
Si Si5 0.750000 0.750000 0.250000
Si Si6 0.444415 0.848616 0.103110
Si Si7 0.617514 0.998978 0.084052
Si Si8 0.159260 0.315532 0.604630
O O1 0.250000 0.750000 0.533889
O O2 0.308552 0.848178 0.559803
O O3 0.266272 0.683716 0.417436
O O4 0.547606 0.793719 0.472343
O O5 0.250000 0.074820 0.750000
O O6 0.946213 0.057100 0.818000
O O7 0.957825 0.119570 0.686586
O O8 0.017711 0.026520 0.661280
O O9 0.801062 0.533851 0.427009
O O10 0.897270 0.626644 0.394293
O O11 0.117424 0.572513 0.478722
O O12 0.669936 0.056306 0.100892
O O13 0.564551 0.112320 0.973588
O O14 0.868141 0.714507 0.310160
O O15 0.623628 0.816059 0.094758
O O16 0.500000 0.000000 0.000000
#
# Coordination Sequence:
#
# PCOD9389632 Si02
#       8
#     8   8   8   8   2   8   8   8
#     4   9  20  34  46  66  91 125 166 206 241 281
#     4  10  18  30  50  69  95 125 159 199 242 287
#     4  10  20  33  49  68  99 124 163 205 250 282
#     4   9  20  32  50  68  90 126 165 202 239 300
#     4  12  24  28  50  60  96 130 184 184 254 260
#     4  10  18  34  50  64  92 128 167 196 252 278
#     4  11  17  32  49  70  89 125 163 199 247 300
#     4  11  19  35  44  64  93 129 164 211 232 277
#
# _framework density 18.189772000000001
#
# number of rings (size 3 to 8) (size 9 to 14) (size 15 to 20)
#    0.828    1.103    4.138    2.069    0.000    0.552 
#    2.483    2.414    0.000    0.000    0.000    0.000 
#    0.000    4.966    0.000    0.000    0.000   22.345 
#
# Total GULP energy -322951.614398 kJ/mol
# GULP energy per Si atom -5568.131283 kJ/mol
# Density = 1.814837 g / cm^3
# Si number density = 18.189772 Si / 1000 Ang^3
#
#
#
# Elastic Constant Matrix: (Units=GPa)
#
#
# Indices 1 2 3 4 5 6 
#
# 1 49.9969 13.7060 2.9439 0.0000 0.0000 0.0000
# 2 13.7060 107.8951 14.6732 0.0000 0.0000 0.0000
# 3 2.9439 14.6732 18.7862 0.0000 0.0000 0.0000
# 4 0.0000 0.0000 0.0000 31.1580 0.0000 0.0000
# 5 0.0000 0.0000 0.0000 0.0000 13.3209 0.0000
# 6 0.0000 0.0000 0.0000 0.0000 0.0000 27.6290
#
#
#
# Elastic Compliance Matrix: (Units=1/GPa)
#
#
# Indices 1 2 3 4 5 6 
#
# 1 0.020753 -0.002455 -0.001335 0.000000 0.000000 0.000000
# 2 -0.002455 0.010660 -0.007942 0.000000 0.000000 0.000000
# 3 -0.001335 -0.007942 0.059643 0.000000 0.000000 0.000000
# 4 0.000000 0.000000 0.000000 0.032094 0.000000 0.000000
# 5 0.000000 0.000000 0.000000 0.000000 0.075070 0.000000
# 6 0.000000 0.000000 0.000000 0.000000 0.000000 0.036194
#
#
# Mechanical properties :
#
#
# Convention : Reuss Voigt Hill
#
# Bulk Modulus (GPa) = 14.79434 26.59161 20.69298
# Shear Modulus (GPa) = 17.83121 24.11192 20.97157
#
# Velocity S-wave (km/s) = 3.13435 3.64480 3.39917
# Velocity P-wave (km/s) = 4.60976 5.68889 5.17751
#
# Compressibility (1/GPa) = 0.06759340
#
# Stress axis : x y z
#
# Youngs Moduli (GPa) = 48.18636 93.80784 16.76651
#
# Poissons Ratio (x) = 0.23027 0.02238
# Poissons Ratio (y) = 0.11828 0.13315
# Poissons Ratio (z) = 0.06432 0.74498
#
# Static dielectric constant tensor:
#      x y z
#    x 1.693130 0.000000 0.000000 
#    y 0.000000 1.710580 0.000000 
#    z 0.000000 0.000000 1.619150 
# 
# From -- ./inp_files/25803.got.cif
#   From: 2010.05.17/outbox.cif.g08.bks.cpg/sg48_13_cif.got.tgz:25803.got - 2010.06.03 20:39:00.
