data_PCOD9389047
_publ_section_title
;
Structure prediction by ZEFSAII (Michael W. Deem and Ramdas Pophale) SiO2 
 PCOD9389047
Probable space group: P M M M
;
_chemical_formula_sum "Si O2"
_cell_formula_units_Z 52
_cell_length_a 25.120672
_cell_length_b 13.948166
_cell_length_c 7.588973
_cell_angle_alpha 90.000000
_cell_angle_beta 90.000000
_cell_angle_gamma 90.000000
_cell_volume 2659.079783
_symmetry_space_group_name_H-M "P M M M"
_symmetry_group_IT_number 47
_symmetry_cell_setting 'orthorhombic'
loop_
_space_group_symop_operation_xyz
x,y,z
-x,-y,z
x,-y,-z
-x,y,-z
-x,-y,-z
x,y,-z
-x,y,z
x,-y,z
loop_
_atom_site_type_symbol
_atom_site_label
_atom_site_fract_x
_atom_site_fract_y
_atom_site_fract_z
Si Si1 0.064495 0.500000 0.302160
Si Si2 0.333076 0.702530 0.290184
Si Si3 0.440705 0.611735 0.714983
Si Si4 0.164572 0.201937 0.203665
Si Si5 0.225259 0.392902 0.714309
Si Si6 0.729335 0.893384 0.212743
Si Si7 0.059942 0.715087 0.791848
O O1 0.085943 0.500000 0.500000
O O2 0.077484 0.396529 0.223560
O O3 0.000000 0.500000 0.304066
O O4 0.335641 0.689689 0.500000
O O5 0.391034 0.674360 0.220683
O O6 0.285740 0.631959 0.229763
O O7 0.312159 0.809883 0.258071
O O8 0.441353 0.615330 0.500000
O O9 0.500000 0.640810 0.773945
O O10 0.432526 0.500000 0.761874
O O11 0.189630 0.308405 0.209904
O O12 0.211755 0.136697 0.280586
O O13 0.105899 0.216205 0.283303
O O14 0.157905 0.172067 0.000000
O O15 0.222598 0.387066 0.500000
O O16 0.209841 0.500000 0.766633
O O17 0.714989 0.000000 0.272603
O O18 0.732537 0.893909 0.000000
O O19 0.000000 0.724401 0.717845
O O20 0.056721 0.734547 0.000000
#
# Coordination Sequence:
#
# PCOD9389047 Si02
#       7
#     4   8   8   8   8   8   8
#     4   9  17  27  39  57  81 111 145 173 196 231
#     4   9  16  27  45  68  91 114 145 182 216 253
#     4   8  13  22  40  68  99 128 154 178 207 247
#     4   9  18  30  44  62  81 106 141 176 212 258
#     4   9  17  27  39  59  88 117 140 169 211 252
#     4   9  18  33  50  65  83 109 142 182 228 272
#     4   9  17  29  43  58  80 110 141 172 208 252
#
# _framework density 19.555637999999998
#
# number of rings (size 3 to 8) (size 9 to 14) (size 15 to 20)
#    0.000    3.154    0.000    1.154    1.077    4.000 
#    0.000    0.000    0.000    2.769    0.000    7.538 
#    0.000    0.000    0.000   11.538    0.000   12.000 
#
# Total GULP energy -289716.104837 kJ/mol
# GULP energy per Si atom -5571.463555 kJ/mol
# Density = 1.951113 g / cm^3
# Si number density = 19.555638 Si / 1000 Ang^3
#
#
#
# Elastic Constant Matrix: (Units=GPa)
#
#
# Indices 1 2 3 4 5 6 
#
# 1 134.3564 23.3744 1.7641 0.0000 0.0000 0.0000
# 2 23.3744 43.0219 -10.7001 0.0000 0.0000 0.0000
# 3 1.7641 -10.7001 39.5981 0.0000 0.0000 0.0000
# 4 0.0000 0.0000 0.0000 7.4880 0.0000 0.0000
# 5 0.0000 0.0000 0.0000 0.0000 6.2877 0.0000
# 6 0.0000 0.0000 0.0000 0.0000 0.0000 14.9906
#
#
#
# Elastic Compliance Matrix: (Units=1/GPa)
#
#
# Indices 1 2 3 4 5 6 
#
# 1 0.008326 -0.004949 -0.001708 0.000000 0.000000 0.000000
# 2 -0.004949 0.027860 0.007749 0.000000 0.000000 0.000000
# 3 -0.001708 0.007749 0.027424 0.000000 0.000000 0.000000
# 4 0.000000 0.000000 0.000000 0.133548 0.000000 0.000000
# 5 0.000000 0.000000 0.000000 0.000000 0.159041 0.000000
# 6 0.000000 0.000000 0.000000 0.000000 0.000000 0.066708
#
#
# Mechanical properties :
#
#
# Convention : Reuss Voigt Hill
#
# Bulk Modulus (GPa) = 15.19903 27.31700 21.25801
# Shear Modulus (GPa) = 11.29550 19.25579 15.27564
#
# Velocity S-wave (km/s) = 2.40596 3.14134 2.79792
# Velocity P-wave (km/s) = 3.93792 5.21120 4.61865
#
# Compressibility (1/GPa) = 0.06579368
#
# Stress axis : x y z
#
# Youngs Moduli (GPa) = 120.10219 35.89399 36.46482
#
# Poissons Ratio (x) = 0.17762 0.06229
# Poissons Ratio (y) = 0.59434 -0.28255
# Poissons Ratio (z) = 0.20515 -0.27813
#
# Static dielectric constant tensor:
#      x y z
#    x 1.744080 0.000000 0.000000 
#    y 0.000000 1.658710 0.000000 
#    z 0.000000 0.000000 1.756500 
# 
# From -- ./inp_files/12510.got.cif
#   From: 2010.05.17/outbox.cif.g08.bks.cpg/sg47_7_cif.got.tgz:12510.got - 2010.06.03 20:15:42.
