data_PCOD9389417
_publ_section_title
;
Structure prediction by ZEFSAII (Michael W. Deem and Ramdas Pophale) SiO2 
 PCOD9389417
Probable space group: P M M M
;
_chemical_formula_sum "Si O2"
_cell_formula_units_Z 48
_cell_length_a 30.000000
_cell_length_b 9.000000
_cell_length_c 9.000000
_cell_angle_alpha 90.000000
_cell_angle_beta 90.000000
_cell_angle_gamma 90.000000
_cell_volume 2430.000000
_symmetry_space_group_name_H-M "P M M M"
_symmetry_group_IT_number 47
_symmetry_cell_setting 'orthorhombic'
loop_
_space_group_symop_operation_xyz
x,y,z
-x,-y,z
x,-y,-z
-x,y,-z
-x,-y,-z
x,y,-z
-x,y,z
x,-y,z
loop_
_atom_site_type_symbol
_atom_site_label
_atom_site_fract_x
_atom_site_fract_y
_atom_site_fract_z
Si Si1 0.578240 0.666829 0.824055
Si Si2 0.500000 0.825162 0.664349
Si Si3 0.745376 0.827862 0.832438
Si Si4 0.000000 0.831128 0.819069
Si Si5 0.821853 0.321878 0.334590
Si Si6 0.654551 0.829041 0.325952
Si Si7 0.090485 0.678641 0.827175
O O1 0.567446 0.500000 0.777102
O O2 0.543225 0.774974 0.750804
O O3 0.626206 0.715074 0.768201
O O4 0.575525 0.675392 0.000000
O O5 0.500000 0.758358 0.500000
O O6 0.500000 0.000000 0.652710
O O7 0.785669 0.726881 0.783934
O O8 0.705692 0.809408 0.716257
O O9 0.759476 0.000000 0.827668
O O10 0.729568 0.796765 0.000000
O O11 0.955682 0.746405 0.774489
O O12 0.000000 0.000000 0.768256
O O13 0.000000 0.830608 0.000000
O O14 0.811470 0.265405 0.500000
O O15 0.822841 0.500000 0.340202
O O16 0.869520 0.270069 0.276336
O O17 0.646442 0.808604 0.500000
O O18 0.642466 0.000000 0.287237
O O19 0.087916 0.500000 0.823509
O O20 0.098533 0.720991 0.000000
#
# Coordination Sequence:
#
# PCOD9389417 Si02
#       7
#     8   4   8   4   8   8   8
#     4  11  24  40  59  86 118 151 189 232 277 326
#     4  11  24  41  62  88 116 149 190 233 280 334
#     4  10  21  37  58  83 110 143 183 226 273 324
#     4   9  17  29  48  75 102 128 166 217 266 313
#     4  10  21  36  54  78 108 142 180 222 270 323
#     4  10  21  38  60  85 113 147 187 228 273 328
#     4   9  17  31  51  73  99 134 174 215 262 317
#
# _framework density 19.753086
#
# number of rings (size 3 to 8) (size 9 to 14) (size 15 to 20)
#    0.000    2.000    0.000    3.250    0.000   10.333 
#    0.000    2.083    0.000    2.500    0.000    0.000 
#    0.000    0.000    0.000    0.000    0.000    0.000 
#
# Total GULP energy -267785.532545 kJ/mol
# GULP energy per Si atom -5578.865261 kJ/mol
# Density = 1.970813 g / cm^3
# Si number density = 19.753086 Si / 1000 Ang^3
#
#
#
# Elastic Constant Matrix: (Units=GPa)
#
#
# Indices 1 2 3 4 5 6 
#
# 1 37.8971 36.5909 16.2341 0.0000 0.0000 0.0000
# 2 36.5909 24.7917 27.9857 0.0000 0.0000 0.0000
# 3 16.2341 27.9857 18.6840 0.0000 0.0000 0.0000
# 4 0.0000 0.0000 0.0000 18.6713 0.0000 0.0000
# 5 0.0000 0.0000 0.0000 0.0000 47.7742 0.0000
# 6 0.0000 0.0000 0.0000 0.0000 0.0000 -0.1624
#
#
#
# Elastic Compliance Matrix: (Units=1/GPa)
#
#
# Indices 1 2 3 4 5 6 
#
# 1 0.030685 0.021993 -0.059603 0.000000 0.000000 0.000000
# 2 0.021993 -0.042627 0.044740 0.000000 0.000000 0.000000
# 3 -0.059603 0.044740 0.038296 0.000000 0.000000 0.000000
# 4 0.000000 0.000000 0.000000 0.053558 0.000000 0.000000
# 5 0.000000 0.000000 0.000000 0.000000 0.020932 0.000000
# 6 0.000000 0.000000 0.000000 0.000000 0.000000 -6.156181
#
#
# Mechanical properties :
#
#
# Convention : Reuss Voigt Hill
#
# Bulk Modulus (GPa) = 24.62261 26.99935 25.81098
# Shear Modulus (GPa) = -0.82562 13.29410 6.23424
#
# Velocity S-wave (km/s) = -0.64721 2.59707 1.77846
# Velocity P-wave (km/s) = 3.45453 4.76352 4.16082
#
# Compressibility (1/GPa) = 0.04061307
#
# Stress axis : x y z
#
# Youngs Moduli (GPa) = 32.58935 -23.45929 26.11232
#
# Poissons Ratio (x) = 0.51593 1.55636
# Poissons Ratio (y) = -0.71672 -1.16826
# Poissons Ratio (z) = 1.94241 1.04956
#
# Static dielectric constant tensor:
#      x y z
#    x 1.693050 0.000000 0.000000 
#    y 0.000000 1.678530 0.000000 
#    z 0.000000 0.000000 1.689130 
# 
# From -- ./inp_files/2745.got.cif
#   From: 2010.05.17/outbox.ucp.g08.bks.cvg/sg47_2_cif.got.tgz:2745.got - 2010.06.11 16:36:43.
