data_PCOD9389669
_publ_section_title
;
Structure prediction by ZEFSAII (Michael W. Deem and Ramdas Pophale) SiO2 
 PCOD9389669
Probable space group: P N N N
;
_chemical_formula_sum "Si O2"
_cell_formula_units_Z 36
_cell_length_a 7.954716
_cell_length_b 14.012380
_cell_length_c 15.291268
_cell_angle_alpha 90.000000
_cell_angle_beta 90.000000
_cell_angle_gamma 90.000000
_cell_volume 1704.433594
_symmetry_space_group_name_H-M "P N N N"
_symmetry_group_IT_number 48
_space_group.IT_coordinate_system_code '2'
_symmetry_cell_setting 'orthorhombic'
loop_
_space_group_symop_operation_xyz
x,y,z
1/2-x,1/2-y,z
x,1/2-y,1/2-z
1/2-x,y,1/2-z
-x,-y,-z
1/2+x,1/2+y,-z
-x,1/2+y,1/2+z
1/2+x,-y,1/2+z
loop_
_atom_site_type_symbol
_atom_site_label
_atom_site_fract_x
_atom_site_fract_y
_atom_site_fract_z
Si Si1 0.250000 0.425676 0.750000
Si Si2 0.440394 0.067873 0.250658
Si Si3 0.428427 0.627939 0.938690
Si Si4 0.421244 0.313910 0.424080
Si Si5 0.233697 0.434047 0.557852
O O1 0.418328 0.488532 0.740413
O O2 0.238769 0.383401 0.652710
O O3 0.250000 0.029820 0.250000
O O4 0.482578 0.113668 0.344118
O O5 0.449641 0.141980 0.171193
O O6 0.428779 0.742090 0.948319
O O7 0.277566 0.550242 0.936267
O O8 0.556597 0.594229 0.013946
O O9 0.250000 0.250000 0.423464
O O10 0.379077 0.395243 0.494972
#
# Coordination Sequence:
#
# PCOD9389669 Si02
#       5
#     4   8   8   8   8
#     4  10  24  36  52  86 116 146 194 234 287 348
#     4  11  19  35  58  83 111 147 182 244 301 353
#     4   9  18  32  55  82 113 146 188 243 295 349
#     4  10  18  31  59  81 110 153 193 234 307 355
#     4   9  18  34  51  80 116 146 191 239 282 357
#
# _framework density 21.121386000000001
#
# number of rings (size 3 to 8) (size 9 to 14) (size 15 to 20)
#    0.000    2.222    4.444    0.667    0.000    0.889 
#    0.000   13.889    0.000    0.000    0.000    0.000 
#    0.000    0.000    0.000    0.000    0.000    0.000 
#
# Total GULP energy -200592.025038 kJ/mol
# GULP energy per Si atom -5572.000696 kJ/mol
# Density = 2.107331 g / cm^3
# Si number density = 21.121386 Si / 1000 Ang^3
#
#
#
# Elastic Constant Matrix: (Units=GPa)
#
#
# Indices 1 2 3 4 5 6 
#
# 1 99.5708 37.4885 18.5247 0.0000 0.0000 0.0000
# 2 37.4885 59.1986 37.0938 0.0000 0.0000 0.0000
# 3 18.5247 37.0938 163.0495 0.0000 0.0000 0.0000
# 4 0.0000 0.0000 0.0000 1.4998 0.0000 0.0000
# 5 0.0000 0.0000 0.0000 0.0000 12.9471 0.0000
# 6 0.0000 0.0000 0.0000 0.0000 0.0000 19.3540
#
#
#
# Elastic Compliance Matrix: (Units=1/GPa)
#
#
# Indices 1 2 3 4 5 6 
#
# 1 0.013218 -0.008665 0.000469 0.000000 0.000000 0.000000
# 2 -0.008665 0.025381 -0.004790 0.000000 0.000000 0.000000
# 3 0.000469 -0.004790 0.007169 0.000000 0.000000 0.000000
# 4 0.000000 0.000000 0.000000 0.666735 0.000000 0.000000
# 5 0.000000 0.000000 0.000000 0.000000 0.077238 0.000000
# 6 0.000000 0.000000 0.000000 0.000000 0.000000 0.051669
#
#
# Mechanical properties :
#
#
# Convention : Reuss Voigt Hill
#
# Bulk Modulus (GPa) = 50.50958 56.44809 53.47883
# Shear Modulus (GPa) = 5.72096 22.00765 13.86431
#
# Velocity S-wave (km/s) = 1.64757 3.23144 2.56483
# Velocity P-wave (km/s) = 5.25216 6.38017 5.84345
#
# Compressibility (1/GPa) = 0.01979822
#
# Stress axis : x y z
#
# Youngs Moduli (GPa) = 75.65432 39.40031 139.48145
#
# Poissons Ratio (x) = 0.34139 -0.06548
# Poissons Ratio (y) = 0.65552 0.66807
# Poissons Ratio (z) = -0.03552 0.18871
#
# Static dielectric constant tensor:
#      x y z
#    x 1.771100 0.000000 0.000000 
#    y 0.000000 1.837690 0.000000 
#    z 0.000000 0.000000 1.781670 
# 
# From -- ./inp_files/12205.got.cif
#   From: 2010.05.17/outbox.cif.g08.bks.cpg/sg48_7_cif.got.tgz:12205.got - 2010.06.03 20:39:00.
