data_PCOD9389069
_publ_section_title
;
Structure prediction by ZEFSAII (Michael W. Deem and Ramdas Pophale) SiO2 
 PCOD9389069
Probable space group: P M M M
;
_chemical_formula_sum "Si O2"
_cell_formula_units_Z 48
_cell_length_a 36.908009
_cell_length_b 7.583560
_cell_length_c 7.757704
_cell_angle_alpha 90.000000
_cell_angle_beta 90.000000
_cell_angle_gamma 90.000000
_cell_volume 2171.335585
_symmetry_space_group_name_H-M "P M M M"
_symmetry_group_IT_number 47
_symmetry_cell_setting 'orthorhombic'
loop_
_space_group_symop_operation_xyz
x,y,z
-x,-y,z
x,-y,-z
-x,y,-z
-x,-y,-z
x,y,-z
-x,y,z
x,-y,z
loop_
_atom_site_type_symbol
_atom_site_label
_atom_site_fract_x
_atom_site_fract_y
_atom_site_fract_z
Si Si1 0.538895 0.794215 0.293206
Si Si2 0.746817 0.283163 0.500000
Si Si3 0.169596 0.283351 0.500000
Si Si4 0.038894 0.787957 0.203399
Si Si5 0.303566 0.707550 0.194608
Si Si6 0.616478 0.200510 0.206430
Si Si7 0.118619 0.291684 0.804017
O O1 0.537702 0.795356 0.500000
O O2 0.500000 0.719957 0.232621
O O3 0.577744 0.713648 0.247739
O O4 0.539704 0.000000 0.233787
O O5 0.745947 0.500000 0.500000
O O6 0.788607 0.230479 0.500000
O O7 0.724925 0.221222 0.331660
O O8 0.168703 0.500000 0.500000
O O9 0.147901 0.222068 0.669432
O O10 0.077819 0.728702 0.269475
O O11 0.000000 0.726172 0.275811
O O12 0.038790 0.000000 0.213516
O O13 0.038932 0.738737 0.000000
O O14 0.296295 0.500000 0.180049
O O15 0.344935 0.723762 0.261553
O O16 0.301260 0.782699 0.000000
O O17 0.615217 0.000000 0.273944
O O18 0.618065 0.197293 0.000000
O O19 0.125136 0.500000 0.818823
O O20 0.120006 0.217766 0.000000
#
# Coordination Sequence:
#
# PCOD9389069 Si02
#       7
#     8   4   4   8   8   8   8
#     4   8  14  24  38  59  87 117 149 183 217 256
#     4   9  18  32  51  72  91 118 152 185 227 275
#     4   9  18  32  48  70  97 117 147 194 231 271
#     4   8  14  26  45  68  94 126 162 195 227 266
#     4   9  18  32  49  70  94 118 148 186 226 271
#     4   9  17  28  44  67  91 116 147 183 224 267
#     4   9  17  29  47  70  94 122 153 188 233 274
#
# _framework density 22.106210999999998
#
# number of rings (size 3 to 8) (size 9 to 14) (size 15 to 20)
#    0.000    3.333    0.000    1.000    1.167    1.333 
#    0.000    7.500    0.000    5.000    0.000    8.167 
#    0.000    0.000    0.000    0.000    0.000    0.000 
#
# Total GULP energy -267424.320588 kJ/mol
# GULP energy per Si atom -5571.340012 kJ/mol
# Density = 2.205590 g / cm^3
# Si number density = 22.106211 Si / 1000 Ang^3
#
#
#
# Elastic Constant Matrix: (Units=GPa)
#
#
# Indices 1 2 3 4 5 6 
#
# 1 250.0759 4.0348 96.8841 0.0000 0.0000 0.0000
# 2 4.0348 43.7186 7.3190 0.0000 0.0000 0.0000
# 3 96.8841 7.3190 89.4765 0.0000 0.0000 0.0000
# 4 0.0000 0.0000 0.0000 -1.7289 0.0000 0.0000
# 5 0.0000 0.0000 0.0000 0.0000 54.2956 0.0000
# 6 0.0000 0.0000 0.0000 0.0000 0.0000 16.0642
#
#
#
# Elastic Compliance Matrix: (Units=1/GPa)
#
#
# Indices 1 2 3 4 5 6 
#
# 1 0.006905 0.000623 -0.007528 0.000000 0.000000 0.000000
# 2 0.000623 0.023247 -0.002576 0.000000 0.000000 0.000000
# 3 -0.007528 -0.002576 0.019538 0.000000 0.000000 0.000000
# 4 0.000000 0.000000 0.000000 -0.578394 0.000000 0.000000
# 5 0.000000 0.000000 0.000000 0.000000 0.018418 0.000000
# 6 0.000000 0.000000 0.000000 0.000000 0.000000 0.062250
#
#
# Mechanical properties :
#
#
# Convention : Reuss Voigt Hill
#
# Bulk Modulus (GPa) = 32.54316 66.63854 49.59085
# Shear Modulus (GPa) = -11.93797 32.06172 10.06187
#
# Velocity S-wave (km/s) = -2.32637 3.81248 2.13576
# Velocity P-wave (km/s) = 2.74540 7.04203 5.34450
#
# Compressibility (1/GPa) = 0.03072842
#
# Stress axis : x y z
#
# Youngs Moduli (GPa) = 144.82001 43.01570 51.18285
#
# Poissons Ratio (x) = -0.02680 0.38529
# Poissons Ratio (y) = -0.09022 0.13185
# Poissons Ratio (z) = 1.09017 0.11081
#
# Static dielectric constant tensor:
#      x y z
#    x 1.825370 0.000000 0.000000 
#    y 0.000000 1.855740 0.000000 
#    z 0.000000 0.000000 1.823260 
# 
# From -- ./inp_files/13915.got.cif
#   From: 2010.05.17/outbox.cif.g08.bks.cpg/sg47_7_cif.got.tgz:13915.got - 2010.06.03 20:15:42.
