data_PCOD9389221
_publ_section_title
;
Structure prediction by ZEFSAII (Michael W. Deem and Ramdas Pophale) SiO2 
 PCOD9389221
Probable space group: P M M M
;
_chemical_formula_sum "Si O2"
_cell_formula_units_Z 64
_cell_length_a 9.000000
_cell_length_b 21.000000
_cell_length_c 21.000000
_cell_angle_alpha 90.000000
_cell_angle_beta 90.000000
_cell_angle_gamma 90.000000
_cell_volume 3969.000000
_symmetry_space_group_name_H-M "P M M M"
_symmetry_group_IT_number 47
_symmetry_cell_setting 'orthorhombic'
loop_
_space_group_symop_operation_xyz
x,y,z
-x,-y,z
x,-y,-z
-x,y,-z
-x,-y,-z
x,y,-z
-x,y,z
x,-y,z
loop_
_atom_site_type_symbol
_atom_site_label
_atom_site_fract_x
_atom_site_fract_y
_atom_site_fract_z
Si Si1 0.824512 0.292609 0.250526
Si Si2 0.180595 0.926642 0.573514
Si Si3 0.822359 0.885129 0.928450
Si Si4 0.323245 0.926764 0.201526
Si Si5 0.826750 0.261789 0.102203
Si Si6 0.180757 0.162511 0.308653
Si Si7 0.820193 0.428631 0.203446
Si Si8 0.677047 0.609177 0.070660
O O1 0.809752 0.264761 0.178805
O O2 0.768665 0.236284 0.297440
O O3 0.767718 0.366007 0.243667
O O4 0.000000 0.298769 0.264448
O O5 0.226225 0.913250 0.500000
O O6 0.226725 0.874446 0.626336
O O7 0.000000 0.926595 0.573912
O O8 0.226352 0.000000 0.589086
O O9 0.737094 0.916850 0.870035
O O10 0.797358 0.808987 0.922241
O O11 0.000000 0.895516 0.920915
O O12 0.780348 0.905804 0.000000
O O13 0.500000 0.915243 0.203042
O O14 0.241461 0.879175 0.249831
O O15 0.295100 0.000000 0.220703
O O16 0.723116 0.316441 0.074103
O O17 0.000000 0.277324 0.088134
O O18 0.000000 0.162479 0.306281
O O19 0.781425 0.500000 0.227136
O O20 0.757524 0.421218 0.131704
O O21 0.000000 0.424616 0.200219
O O22 0.500000 0.601915 0.077562
O O23 0.719324 0.585020 0.000000
#
# Coordination Sequence:
#
# PCOD9389221 Si02
#       8
#     8   8   8   8   8   8   8   8
#     4   8  14  26  46  69  87 105 141 189 228 265
#     4   8  14  24  41  71 106 132 155 187 230 277
#     4  10  20  34  52  69  84 109 151 201 246 289
#     4  11  24  37  47  64  93 124 154 193 240 290
#     4   9  16  30  48  65  85 108 140 186 232 276
#     4  10  17  30  53  74  93 121 158 198 233 270
#     4   9  18  32  47  61  82 113 146 185 233 280
#     4  10  20  30  41  61  87 112 140 177 224 282
#
# _framework density 16.124969
#
# number of rings (size 3 to 8) (size 9 to 14) (size 15 to 20)
#    0.000    2.625    1.250    2.625    0.000    4.500 
#    0.000    2.500    0.000    0.375    0.000    1.750 
#    0.000    0.500    0.000    7.000    0.000    0.000 
#
# Total GULP energy -356586.554450 kJ/mol
# GULP energy per Si atom -5571.664913 kJ/mol
# Density = 1.608827 g / cm^3
# Si number density = 16.124969 Si / 1000 Ang^3
#
#
#
# Elastic Constant Matrix: (Units=GPa)
#
#
# Indices 1 2 3 4 5 6 
#
# 1 11.7083 15.5261 9.3067 0.0000 0.0000 0.0000
# 2 15.5261 115.9411 51.6433 0.0000 0.0000 0.0000
# 3 9.3067 51.6433 79.4658 0.0000 0.0000 0.0000
# 4 0.0000 0.0000 0.0000 17.2977 0.0000 0.0000
# 5 0.0000 0.0000 0.0000 0.0000 7.0047 0.0000
# 6 0.0000 0.0000 0.0000 0.0000 0.0000 11.4711
#
#
#
# Elastic Compliance Matrix: (Units=1/GPa)
#
#
# Indices 1 2 3 4 5 6 
#
# 1 0.104955 -0.012075 -0.004444 0.000000 0.000000 0.000000
# 2 -0.012075 0.013528 -0.007378 0.000000 0.000000 0.000000
# 3 -0.004444 -0.007378 0.017899 0.000000 0.000000 0.000000
# 4 0.000000 0.000000 0.000000 0.057811 0.000000 0.000000
# 5 0.000000 0.000000 0.000000 0.000000 0.142762 0.000000
# 6 0.000000 0.000000 0.000000 0.000000 0.000000 0.087175
#
#
# Mechanical properties :
#
#
# Convention : Reuss Voigt Hill
#
# Bulk Modulus (GPa) = 11.28823 40.00749 25.64786
# Shear Modulus (GPa) = 9.97101 15.86399 12.91750
#
# Velocity S-wave (km/s) = 2.48938 3.13999 2.83342
# Velocity P-wave (km/s) = 3.90875 6.16529 5.16184
#
# Compressibility (1/GPa) = 0.08858786
#
# Stress axis : x y z
#
# Youngs Moduli (GPa) = 9.52790 73.91918 55.86882
#
# Poissons Ratio (x) = 0.89260 0.24830
# Poissons Ratio (y) = 0.11505 0.41218
# Poissons Ratio (z) = 0.04234 0.54534
#
# Static dielectric constant tensor:
#      x y z
#    x 1.530270 0.000000 0.000000 
#    y 0.000000 1.581440 0.000000 
#    z 0.000000 0.000000 1.535440 
# 
# From -- ./inp_files/30128.got.cif
#   From: 2010.05.17/outbox.ucp.g08.bks.cvg/sg47_16_cif.got.tgz:30128.got - 2010.06.11 16:36:43.
