data_PCOD9389357
_publ_section_title
;
Structure prediction by ZEFSAII (Michael W. Deem and Ramdas Pophale) SiO2 
 PCOD9389357
Probable space group: P M M M
;
_chemical_formula_sum "Si O2"
_cell_formula_units_Z 64
_cell_length_a 15.000000
_cell_length_b 9.000000
_cell_length_c 30.000000
_cell_angle_alpha 90.000000
_cell_angle_beta 90.000000
_cell_angle_gamma 90.000000
_cell_volume 4050.000000
_symmetry_space_group_name_H-M "P M M M"
_symmetry_group_IT_number 47
_symmetry_cell_setting 'orthorhombic'
loop_
_space_group_symop_operation_xyz
x,y,z
-x,-y,z
x,-y,-z
-x,y,-z
-x,-y,-z
x,y,-z
-x,y,z
x,-y,z
loop_
_atom_site_type_symbol
_atom_site_label
_atom_site_fract_x
_atom_site_fract_y
_atom_site_fract_z
Si Si1 0.708370 0.322038 0.725144
Si Si2 0.605251 0.821614 0.807953
Si Si3 0.600578 0.831403 0.946811
Si Si4 0.605506 0.819878 0.355528
Si Si5 0.277258 0.674043 0.114652
Si Si6 0.900293 0.677397 0.239572
Si Si7 0.392265 0.824021 0.452918
Si Si8 0.899047 0.822999 0.857627
O O1 0.698947 0.500000 0.727123
O O2 0.651553 0.247881 0.764646
O O3 0.666568 0.256815 0.680593
O O4 0.813392 0.286273 0.731387
O O5 0.500000 0.784542 0.810231
O O6 0.661279 0.755225 0.848686
O O7 0.612859 0.000000 0.807121
O O8 0.500000 0.797940 0.930656
O O9 0.671737 0.714094 0.930399
O O10 0.622616 0.000000 0.931414
O O11 0.597967 0.834443 0.000000
O O12 0.500000 0.786080 0.348838
O O13 0.634741 0.766664 0.404796
O O14 0.612583 0.000000 0.353327
O O15 0.273567 0.500000 0.123913
O O16 0.178989 0.742573 0.115838
O O17 0.896398 0.500000 0.230268
O O18 0.891968 0.764341 0.193082
O O19 0.000000 0.708464 0.257996
O O20 0.360015 0.758944 0.500000
O O21 0.500000 0.814710 0.452934
O O22 0.371402 0.000000 0.453252
O O23 0.000000 0.789566 0.872924
O O24 0.886419 0.000000 0.858499
#
# Coordination Sequence:
#
# PCOD9389357 Si02
#       8
#     8   8   8   8   8   8   8   8
#     4  11  21  31  45  66  92 124 156 191 236 284
#     4  11  23  36  49  66  93 130 167 201 233 270
#     4   9  19  37  59  80 103 133 167 202 240 281
#     4   9  17  28  42  61  88 124 159 190 229 277
#     4  12  23  34  52  78 105 132 160 196 242 287
#     4   9  18  33  50  67  89 118 154 197 244 287
#     4   7  10  19  37  59  80 106 148 197 234 267
#     4  10  20  34  54  77  98 124 161 202 241 283
#
# _framework density 15.802469
#
# number of rings (size 3 to 8) (size 9 to 14) (size 15 to 20)
#    0.000    2.250    1.250    4.500    0.000    6.000 
#    0.000    0.625    0.000    0.750    0.000    4.375 
#    0.000    0.500    0.000    6.250    0.000    0.250 
#
# Total GULP energy -356611.787653 kJ/mol
# GULP energy per Si atom -5572.059182 kJ/mol
# Density = 1.576650 g / cm^3
# Si number density = 15.802469 Si / 1000 Ang^3
#
#
#
# Elastic Constant Matrix: (Units=GPa)
#
#
# Indices 1 2 3 4 5 6 
#
# 1 109.4008 50.4918 36.3370 0.0000 0.0000 0.0000
# 2 50.4918 47.8586 20.9301 0.0000 0.0000 0.0000
# 3 36.3370 20.9301 63.0029 0.0000 0.0000 0.0000
# 4 0.0000 0.0000 0.0000 -215.6325 0.0000 0.0000
# 5 0.0000 0.0000 0.0000 0.0000 -20.1229 0.0000
# 6 0.0000 0.0000 0.0000 0.0000 0.0000 22.3842
#
#
#
# Elastic Compliance Matrix: (Units=1/GPa)
#
#
# Indices 1 2 3 4 5 6 
#
# 1 0.019100 -0.017939 -0.005056 0.000000 0.000000 0.000000
# 2 -0.017939 0.041296 -0.003372 0.000000 0.000000 0.000000
# 3 -0.005056 -0.003372 0.019909 0.000000 0.000000 0.000000
# 4 0.000000 0.000000 0.000000 -0.004638 0.000000 0.000000
# 5 0.000000 0.000000 0.000000 0.000000 -0.049695 0.000000
# 6 0.000000 0.000000 0.000000 0.000000 0.000000 0.044674
#
#
# Mechanical properties :
#
#
# Convention : Reuss Voigt Hill
#
# Bulk Modulus (GPa) = 36.27291 48.42001 42.34646
# Shear Modulus (GPa) = 37.71538 -35.17403 1.27068
#
# Velocity S-wave (km/s) = 4.89066 -4.72302 0.89769
# Velocity P-wave (km/s) = 7.40913 0.98224 5.28488
#
# Compressibility (1/GPa) = 0.02756878
#
# Stress axis : x y z
#
# Youngs Moduli (GPa) = 52.35715 24.21539 50.22913
#
# Poissons Ratio (x) = 0.43441 0.25396
# Poissons Ratio (y) = 0.93925 0.16939
# Poissons Ratio (z) = 0.26472 0.08166
#
# Static dielectric constant tensor:
#      x y z
#    x 1.524600 0.000000 0.000000 
#    y 0.000000 1.533220 0.000000 
#    z 0.000000 0.000000 1.557090 
# 
# From -- ./inp_files/34656.got.cif
#   From: 2010.05.17/outbox.ucp.g08.bks.cvg/sg47_18_cif.got.tgz:34656.got - 2010.06.11 16:36:43.
