data_PCOD9389784
_publ_section_title
;
Structure prediction by ZEFSAII (Michael W. Deem and Ramdas Pophale) SiO2 
 PCOD9389784
Probable space group: P N N N
;
_chemical_formula_sum "Si O2"
_cell_formula_units_Z 64
_cell_length_a 14.321026
_cell_length_b 11.360047
_cell_length_c 18.309109
_cell_angle_alpha 90.000000
_cell_angle_beta 90.000000
_cell_angle_gamma 90.000000
_cell_volume 2978.663691
_symmetry_space_group_name_H-M "P N N N"
_symmetry_group_IT_number 48
_space_group.IT_coordinate_system_code '2'
_symmetry_cell_setting 'orthorhombic'
loop_
_space_group_symop_operation_xyz
x,y,z
1/2-x,1/2-y,z
x,1/2-y,1/2-z
1/2-x,y,1/2-z
-x,-y,-z
1/2+x,1/2+y,-z
-x,1/2+y,1/2+z
1/2+x,-y,1/2+z
loop_
_atom_site_type_symbol
_atom_site_label
_atom_site_fract_x
_atom_site_fract_y
_atom_site_fract_z
Si Si1 0.758864 0.452544 0.915086
Si Si2 0.447861 0.429983 0.910156
Si Si3 0.902055 0.915051 0.828984
Si Si4 0.016792 0.305336 0.083648
Si Si5 0.563139 0.026137 0.824722
Si Si6 0.391998 0.301127 0.675199
Si Si7 0.386437 0.641919 0.985990
Si Si8 0.676540 0.856276 0.028545
O O1 0.692009 0.538090 0.867098
O O2 0.847163 0.417909 0.865714
O O3 0.691418 0.355811 0.951854
O O4 0.796109 0.530457 0.981866
O O5 0.514556 0.503013 0.857553
O O6 0.411026 0.316489 0.870753
O O7 0.372408 0.523692 0.938309
O O8 0.515190 0.387551 0.974953
O O9 0.930707 0.786894 0.861004
O O10 0.900644 0.947257 0.743523
O O11 0.015119 0.431762 0.121501
O O12 0.914998 0.253628 0.062324
O O13 0.079693 0.319688 0.011131
O O14 0.486531 0.125717 0.807024
O O15 0.351830 0.250000 0.750000
O O16 0.333693 0.374728 0.615470
O O17 0.750000 0.750000 0.016259
#
# Coordination Sequence:
#
# PCOD9389784 Si02
#       8
#     8   8   8   8   8   8   8   8
#     4  10  21  35  62  90 126 163 200 261 305 369
#     4   9  17  33  63  80 109 155 209 247 285 363
#     4  10  18  37  59  91 119 158 208 246 312 371
#     4  10  20  35  65  90 120 164 203 259 305 364
#     4  11  24  36  57  93 134 161 198 254 319 370
#     4  12  24  41  60  83 127 168 203 253 305 374
#     4   9  17  36  63  91 109 158 213 250 298 366
#     4  11  21  39  63  91 118 154 210 265 311 348
#
# _framework density 21.486145
#
# number of rings (size 3 to 8) (size 9 to 14) (size 15 to 20)
#    0.000    1.750    3.750    2.250    0.000    2.250 
#    0.000    3.750    0.000    0.000    0.000    0.000 
#    0.000    0.000    0.000    0.000    0.000    0.000 
#
# Total GULP energy -356994.409998 kJ/mol
# GULP energy per Si atom -5578.037656 kJ/mol
# Density = 2.143724 g / cm^3
# Si number density = 21.486145 Si / 1000 Ang^3
#
#
#
# Elastic Constant Matrix: (Units=GPa)
#
#
# Indices 1 2 3 4 5 6 
#
# 1 64.9571 26.0002 20.8344 0.0000 0.0000 0.0000
# 2 26.0002 55.8546 16.0362 0.0000 0.0000 0.0000
# 3 20.8344 16.0362 123.1497 0.0000 0.0000 0.0000
# 4 0.0000 0.0000 0.0000 14.9712 0.0000 0.0000
# 5 0.0000 0.0000 0.0000 0.0000 32.1696 0.0000
# 6 0.0000 0.0000 0.0000 0.0000 0.0000 14.2607
#
#
#
# Elastic Compliance Matrix: (Units=1/GPa)
#
#
# Indices 1 2 3 4 5 6 
#
# 1 0.019476 -0.008435 -0.002196 0.000000 0.000000 0.000000
# 2 -0.008435 0.022252 -0.001471 0.000000 0.000000 0.000000
# 3 -0.002196 -0.001471 0.008683 0.000000 0.000000 0.000000
# 4 0.000000 0.000000 0.000000 0.066795 0.000000 0.000000
# 5 0.000000 0.000000 0.000000 0.000000 0.031085 0.000000
# 6 0.000000 0.000000 0.000000 0.000000 0.000000 0.070123
#
#
# Mechanical properties :
#
#
# Convention : Reuss Voigt Hill
#
# Bulk Modulus (GPa) = 38.15806 41.07810 39.61808
# Shear Modulus (GPa) = 19.89224 24.35302 22.12263
#
# Velocity S-wave (km/s) = 3.04603 3.37030 3.21226
# Velocity P-wave (km/s) = 5.49263 5.85706 5.67777
#
# Compressibility (1/GPa) = 0.02620678
#
# Stress axis : x y z
#
# Youngs Moduli (GPa) = 51.34629 44.93894 115.16374
#
# Poissons Ratio (x) = 0.37907 0.25295
# Poissons Ratio (y) = 0.43312 0.16936
# Poissons Ratio (z) = 0.11278 0.06609
#
# Static dielectric constant tensor:
#      x y z
#    x 1.815200 0.000000 0.000000 
#    y 0.000000 1.815540 0.000000 
#    z 0.000000 0.000000 1.867060 
# 
# From -- ./inp_files/31710.got.cif
#   From: 2010.05.17/outbox.cif.g08.bks.cpg/sg48_16_cif.got.tgz:31710.got - 2010.06.03 20:39:00.
