data_PCOD9389617
_publ_section_title
;
Structure prediction by ZEFSAII (Michael W. Deem and Ramdas Pophale) SiO2 
 PCOD9389617
Probable space group: P N N N
;
_chemical_formula_sum "Si O2"
_cell_formula_units_Z 48
_cell_length_a 21.396666
_cell_length_b 19.347064
_cell_length_c 5.031226
_cell_angle_alpha 90.000000
_cell_angle_beta 90.000000
_cell_angle_gamma 90.000000
_cell_volume 2082.739731
_symmetry_space_group_name_H-M "P N N N"
_symmetry_group_IT_number 48
_space_group.IT_coordinate_system_code '2'
_symmetry_cell_setting 'orthorhombic'
loop_
_space_group_symop_operation_xyz
x,y,z
1/2-x,1/2-y,z
x,1/2-y,1/2-z
1/2-x,y,1/2-z
-x,-y,-z
1/2+x,1/2+y,-z
-x,1/2+y,1/2+z
1/2+x,-y,1/2+z
loop_
_atom_site_type_symbol
_atom_site_label
_atom_site_fract_x
_atom_site_fract_y
_atom_site_fract_z
Si Si1 0.321636 0.334369 0.264443
Si Si2 0.686920 0.080230 0.344793
Si Si3 0.838264 0.176364 0.649979
Si Si4 0.099089 0.333546 0.742310
Si Si5 0.057530 0.949211 0.992623
Si Si6 0.964778 0.130700 0.519050
O O1 0.319483 0.250000 0.250000
O O2 0.250000 0.358545 0.250000
O O3 0.349447 0.355209 0.544870
O O4 0.372531 0.355102 0.041123
O O5 0.750000 0.042850 0.250000
O O6 0.682023 0.122008 0.621675
O O7 0.624838 0.032813 0.367010
O O8 0.682346 0.140933 0.123772
O O9 0.815400 0.250000 0.750000
O O10 0.912669 0.186820 0.589965
O O11 0.095161 0.250000 0.750000
O O12 0.032226 0.358064 0.852100
O O13 0.036216 0.886794 0.792817
O O14 0.064273 0.931119 0.303018
O O15 0.000000 0.000000 0.000000
#
# Coordination Sequence:
#
# PCOD9389617 Si02
#       6
#     8   8   8   8   8   8
#     4   9  17  28  43  66  96 135 177 207 243 301
#     4  10  21  35  54  81 109 143 187 226 268 331
#     4  10  20  33  51  79 118 153 177 212 263 326
#     4  10  18  29  48  72 102 136 167 210 262 317
#     4  10  21  38  58  76 100 136 178 231 280 317
#     4  10  20  34  53  79 104 133 179 222 265 324
#
# _framework density 23.046569000000002
#
# number of rings (size 3 to 8) (size 9 to 14) (size 15 to 20)
#    0.000    2.167    0.000    3.500    0.000    4.000 
#    0.000    5.000    0.000    4.000    0.000    0.000 
#    0.000    0.000    0.000    0.000    0.000    0.000 
#
# Total GULP energy -267354.366563 kJ/mol
# GULP energy per Si atom -5569.882637 kJ/mol
# Density = 2.299411 g / cm^3
# Si number density = 23.046569 Si / 1000 Ang^3
#
#
#
# Elastic Constant Matrix: (Units=GPa)
#
#
# Indices 1 2 3 4 5 6 
#
# 1 180.8609 9.2304 -1.8653 0.0000 0.0000 0.0000
# 2 9.2304 17.5120 0.5559 0.0000 0.0000 0.0000
# 3 -1.8653 0.5559 98.6904 0.0000 0.0000 0.0000
# 4 0.0000 0.0000 0.0000 6.7161 0.0000 0.0000
# 5 0.0000 0.0000 0.0000 0.0000 2.1685 0.0000
# 6 0.0000 0.0000 0.0000 0.0000 0.0000 5.6954
#
#
#
# Elastic Compliance Matrix: (Units=1/GPa)
#
#
# Indices 1 2 3 4 5 6 
#
# 1 0.005683 -0.003000 0.000124 0.000000 0.000000 0.000000
# 2 -0.003000 0.058697 -0.000387 0.000000 0.000000 0.000000
# 3 0.000124 -0.000387 0.010137 0.000000 0.000000 0.000000
# 4 0.000000 0.000000 0.000000 0.148897 0.000000 0.000000
# 5 0.000000 0.000000 0.000000 0.000000 0.461149 0.000000
# 6 0.000000 0.000000 0.000000 0.000000 0.000000 0.175581
#
#
# Mechanical properties :
#
#
# Convention : Reuss Voigt Hill
#
# Bulk Modulus (GPa) = 14.70755 34.76727 24.73741
# Shear Modulus (GPa) = 5.62218 22.19214 13.90716
#
# Velocity S-wave (km/s) = 1.56358 3.10647 2.45916
# Velocity P-wave (km/s) = 3.10729 5.29011 4.33823
#
# Compressibility (1/GPa) = 0.06799231
#
# Stress axis : x y z
#
# Youngs Moduli (GPa) = 175.94847 17.03667 98.64627
#
# Poissons Ratio (x) = 0.05110 -0.01226
# Poissons Ratio (y) = 0.52778 0.03821
# Poissons Ratio (z) = -0.02187 0.00660
#
# Static dielectric constant tensor:
#      x y z
#    x 2.083640 0.000000 0.000000 
#    y 0.000000 1.950840 0.000000 
#    z 0.000000 0.000000 1.780290 
# 
# From -- ./inp_files/5218.got.cif
#   From: 2010.05.17/outbox.cif.g08.bks.cpg/sg48_3_cif.got.tgz:5218.got - 2010.06.03 20:39:00.
