data_PCOD9389955
_publ_section_title
;
Structure prediction by ZEFSAII (Michael W. Deem and Ramdas Pophale) SiO2 
 PCOD9389955
Probable space group: P N N N
;
_chemical_formula_sum "Si O2"
_cell_formula_units_Z 58
_cell_length_a 9.348554
_cell_length_b 11.625133
_cell_length_c 27.353066
_cell_angle_alpha 90.000000
_cell_angle_beta 90.000000
_cell_angle_gamma 90.000000
_cell_volume 2972.681529
_symmetry_space_group_name_H-M "P N N N"
_symmetry_group_IT_number 48
_space_group.IT_coordinate_system_code '2'
_symmetry_cell_setting 'orthorhombic'
loop_
_space_group_symop_operation_xyz
x,y,z
1/2-x,1/2-y,z
x,1/2-y,1/2-z
1/2-x,y,1/2-z
-x,-y,-z
1/2+x,1/2+y,-z
-x,1/2+y,1/2+z
1/2+x,-y,1/2+z
loop_
_atom_site_type_symbol
_atom_site_label
_atom_site_fract_x
_atom_site_fract_y
_atom_site_fract_z
Si Si1 0.630079 0.468046 0.466985
Si Si2 0.584172 0.220940 0.610021
Si Si3 0.413269 0.697603 0.799537
Si Si4 0.829242 0.870737 0.389871
Si Si5 0.396213 0.066289 0.680346
Si Si6 0.250000 0.250000 0.750000
Si Si7 0.576106 0.376685 0.998783
Si Si8 0.421501 0.766581 0.905526
O O1 0.500000 0.500000 0.500000
O O2 0.696482 0.581265 0.443568
O O3 0.753297 0.397331 0.493864
O O4 0.564505 0.398106 0.421357
O O5 0.750000 0.250000 0.617108
O O6 0.492014 0.336655 0.619435
O O7 0.519719 0.120578 0.645384
O O8 0.555777 0.184074 0.553505
O O9 0.250000 0.750000 0.800576
O O10 0.478342 0.750000 0.750000
O O11 0.422634 0.558889 0.797142
O O12 0.478146 0.732647 0.852407
O O13 0.750000 0.750000 0.384470
O O14 0.745941 0.952348 0.352833
O O15 0.349820 0.165176 0.718321
O O16 0.500000 0.500000 0.000000
O O17 0.527737 0.306516 0.047203
O O18 0.250000 0.750000 0.903359
#
# Coordination Sequence:
#
# PCOD9389955 Si02
#       8
#     8   8   8   8   8   2   8   8
#     4  11  21  32  51  80 116 157 198 243 290 358
#     4  11  21  37  57  87 126 167 205 254 322 386
#     4  10  19  34  57  91 117 152 200 259 314 373
#     4  10  19  36  54  81 115 159 194 255 311 362
#     4  11  22  38  63  90 125 151 203 266 320 381
#     4  12  20  40  60  96 116 148 194 274 326 364
#     4  11  20  33  55  80 118 160 200 243 293 362
#     4   9  18  33  50  77 112 150 190 229 290 355
#
# _framework density 19.511004
#
# number of rings (size 3 to 8) (size 9 to 14) (size 15 to 20)
#    0.000    1.517    2.069    8.690    0.000    0.000 
#    0.000    0.345    0.000    0.000    0.000    3.862 
#    0.000    0.000    0.000    0.000    0.000    0.000 
#
# Total GULP energy -323314.644216 kJ/mol
# GULP energy per Si atom -5574.390418 kJ/mol
# Density = 1.946660 g / cm^3
# Si number density = 19.511004 Si / 1000 Ang^3
#
#
#
# Elastic Constant Matrix: (Units=GPa)
#
#
# Indices 1 2 3 4 5 6 
#
# 1 70.0803 23.0061 34.0843 0.0000 0.0000 0.0000
# 2 23.0061 95.3258 58.4920 0.0000 0.0000 0.0000
# 3 34.0843 58.4920 145.7360 0.0000 0.0000 0.0000
# 4 0.0000 0.0000 0.0000 39.3601 0.0000 0.0000
# 5 0.0000 0.0000 0.0000 0.0000 22.6198 0.0000
# 6 0.0000 0.0000 0.0000 0.0000 0.0000 17.7895
#
#
#
# Elastic Compliance Matrix: (Units=1/GPa)
#
#
# Indices 1 2 3 4 5 6 
#
# 1 0.016421 -0.002131 -0.002985 0.000000 0.000000 0.000000
# 2 -0.002131 0.014195 -0.005199 0.000000 0.000000 0.000000
# 3 -0.002985 -0.005199 0.009646 0.000000 0.000000 0.000000
# 4 0.000000 0.000000 0.000000 0.025406 0.000000 0.000000
# 5 0.000000 0.000000 0.000000 0.000000 0.044209 0.000000
# 6 0.000000 0.000000 0.000000 0.000000 0.000000 0.056213
#
#
# Mechanical properties :
#
#
# Convention : Reuss Voigt Hill
#
# Bulk Modulus (GPa) = 50.93796 60.25631 55.59713
# Shear Modulus (GPa) = 25.87134 28.99121 27.43127
#
# Velocity S-wave (km/s) = 3.64536 3.85891 3.75365
# Velocity P-wave (km/s) = 6.62436 7.12777 6.88067
#
# Compressibility (1/GPa) = 0.01963173
#
# Stress axis : x y z
#
# Youngs Moduli (GPa) = 60.89829 70.44929 103.66641
#
# Poissons Ratio (x) = 0.15016 0.30944
# Poissons Ratio (y) = 0.12980 0.53892
# Poissons Ratio (z) = 0.18178 0.36624
#
# Static dielectric constant tensor:
#      x y z
#    x 1.751280 0.000000 0.000000 
#    y 0.000000 1.802040 0.000000 
#    z 0.000000 0.000000 1.747500 
# 
# From -- ./inp_files/37534.got.cif
#   From: 2010.05.17/outbox.cif.g08.bks.cpg/sg48_19_cif.got.tgz:37534.got - 2010.06.03 20:39:00.
