data_PCOD9389941
_publ_section_title
;
Structure prediction by ZEFSAII (Michael W. Deem and Ramdas Pophale) SiO2 
 PCOD9389941
Probable space group: P N N N
;
_chemical_formula_sum "Si O2"
_cell_formula_units_Z 64
_cell_length_a 17.571082
_cell_length_b 18.823107
_cell_length_c 9.469804
_cell_angle_alpha 90.000000
_cell_angle_beta 90.000000
_cell_angle_gamma 90.000000
_cell_volume 3132.065291
_symmetry_space_group_name_H-M "P N N N"
_symmetry_group_IT_number 48
_space_group.IT_coordinate_system_code '2'
_symmetry_cell_setting 'orthorhombic'
loop_
_space_group_symop_operation_xyz
x,y,z
1/2-x,1/2-y,z
x,1/2-y,1/2-z
1/2-x,y,1/2-z
-x,-y,-z
1/2+x,1/2+y,-z
-x,1/2+y,1/2+z
1/2+x,-y,1/2+z
loop_
_atom_site_type_symbol
_atom_site_label
_atom_site_fract_x
_atom_site_fract_y
_atom_site_fract_z
Si Si1 0.069826 0.522717 0.661552
Si Si2 0.224758 0.126313 0.908038
Si Si3 0.089420 0.923999 0.413399
Si Si4 0.928755 0.706894 0.397885
Si Si5 0.659420 0.699715 0.617667
Si Si6 0.798347 0.474556 0.126757
Si Si7 0.054921 0.901257 0.105121
Si Si8 0.037374 0.086576 0.371319
O O1 0.129029 0.498422 0.781038
O O2 0.013372 0.458421 0.628160
O O3 0.101291 0.561501 0.521790
O O4 0.017580 0.581738 0.737328
O O5 0.250000 0.148024 0.750000
O O6 0.135946 0.144960 0.908339
O O7 0.251877 0.044234 0.924465
O O8 0.269142 0.172070 0.025767
O O9 0.165941 0.925740 0.506307
O O10 0.096556 0.895723 0.255273
O O11 0.017403 0.890844 0.498152
O O12 0.066794 0.007197 0.402109
O O13 0.927123 0.750000 0.250000
O O14 0.898976 0.760580 0.514794
O O15 0.010620 0.671730 0.424693
O O16 0.673642 0.750000 0.750000
O O17 0.611224 0.631471 0.663429
O O18 0.750000 0.437059 0.250000
#
# Coordination Sequence:
#
# PCOD9389941 Si02
#       8
#     8   8   8   8   8   8   8   8
#     4   9  19  34  56  77 104 141 187 250 297 329
#     4  11  22  37  54  73 112 163 208 221 259 332
#     4   9  17  31  58  76 101 139 192 242 287 339
#     4  12  24  36  56  80 117 165 197 226 270 345
#     4  12  24  36  53  78 116 154 203 242 279 323
#     4  10  19  34  59  80 106 142 190 230 283 342
#     4  10  19  34  53  79 108 140 191 245 296 324
#     4   9  17  33  53  77 100 144 192 239 289 324
#
# _framework density 20.433800999999999
#
# number of rings (size 3 to 8) (size 9 to 14) (size 15 to 20)
#    0.000    1.750    2.500    4.125    0.000    1.000 
#    0.000    0.625    5.500    0.000    0.000    0.000 
#    0.000   55.000    0.000    0.000    0.000    0.000 
#
# Total GULP energy -356955.082414 kJ/mol
# GULP energy per Si atom -5577.423163 kJ/mol
# Density = 2.038729 g / cm^3
# Si number density = 20.433801 Si / 1000 Ang^3
#
#
#
# Elastic Constant Matrix: (Units=GPa)
#
#
# Indices 1 2 3 4 5 6 
#
# 1 46.3540 28.6062 15.6776 0.0000 0.0000 0.0000
# 2 28.6062 40.9796 20.5087 0.0000 0.0000 0.0000
# 3 15.6776 20.5087 98.4409 0.0000 0.0000 0.0000
# 4 0.0000 0.0000 0.0000 16.7211 0.0000 0.0000
# 5 0.0000 0.0000 0.0000 0.0000 22.1479 0.0000
# 6 0.0000 0.0000 0.0000 0.0000 0.0000 23.1246
#
#
#
# Elastic Compliance Matrix: (Units=1/GPa)
#
#
# Indices 1 2 3 4 5 6 
#
# 1 0.037930 -0.026185 -0.000586 0.000000 0.000000 0.000000
# 2 -0.026185 0.045319 -0.005271 0.000000 0.000000 0.000000
# 3 -0.000586 -0.005271 0.011350 0.000000 0.000000 0.000000
# 4 0.000000 0.000000 0.000000 0.059805 0.000000 0.000000
# 5 0.000000 0.000000 0.000000 0.000000 0.045151 0.000000
# 6 0.000000 0.000000 0.000000 0.000000 0.000000 0.043244
#
#
# Mechanical properties :
#
#
# Convention : Reuss Voigt Hill
#
# Bulk Modulus (GPa) = 32.76968 35.03993 33.90481
# Shear Modulus (GPa) = 15.77020 20.46420 18.11720
#
# Velocity S-wave (km/s) = 2.78109 3.16806 2.98086
# Velocity P-wave (km/s) = 5.13658 5.52878 5.33628
#
# Compressibility (1/GPa) = 0.03051601
#
# Stress axis : x y z
#
# Youngs Moduli (GPa) = 26.36414 22.06583 88.10681
#
# Poissons Ratio (x) = 0.57778 0.05159
# Poissons Ratio (y) = 0.69033 0.46445
# Poissons Ratio (z) = 0.01544 0.11632
#
# Static dielectric constant tensor:
#      x y z
#    x 1.776100 0.000000 0.000000 
#    y 0.000000 1.756460 0.000000 
#    z 0.000000 0.000000 1.791380 
# 
# From -- ./inp_files/14561.got.cif
#   From: 2010.05.17/outbox.cif.g08.bks.cpg/sg48_8_cif.got.tgz:14561.got - 2010.06.03 20:39:00.
