data_PCOD9389628
_publ_section_title
;
Structure prediction by ZEFSAII (Michael W. Deem and Ramdas Pophale) SiO2 
 PCOD9389628
Probable space group: P N N N
;
_chemical_formula_sum "Si O2"
_cell_formula_units_Z 64
_cell_length_a 24.297774
_cell_length_b 5.066588
_cell_length_c 31.380658
_cell_angle_alpha 90.000000
_cell_angle_beta 90.000000
_cell_angle_gamma 90.000000
_cell_volume 3863.172708
_symmetry_space_group_name_H-M "P N N N"
_symmetry_group_IT_number 48
_space_group.IT_coordinate_system_code '2'
_symmetry_cell_setting 'orthorhombic'
loop_
_space_group_symop_operation_xyz
x,y,z
1/2-x,1/2-y,z
x,1/2-y,1/2-z
1/2-x,y,1/2-z
-x,-y,-z
1/2+x,1/2+y,-z
-x,1/2+y,1/2+z
1/2+x,-y,1/2+z
loop_
_atom_site_type_symbol
_atom_site_label
_atom_site_fract_x
_atom_site_fract_y
_atom_site_fract_z
Si Si1 0.024778 0.787289 0.420972
Si Si2 0.079258 0.634102 0.703055
Si Si3 0.024387 0.686218 0.538097
Si Si4 0.313709 0.322693 0.505761
Si Si5 0.691697 0.142329 0.343894
Si Si6 0.656762 0.853403 0.104952
Si Si7 0.875101 0.184084 0.980443
Si Si8 0.043341 0.363798 0.846857
O O1 0.085102 0.734226 0.440145
O O2 0.990133 0.514372 0.424508
O O3 0.013943 0.860067 0.372188
O O4 0.001270 0.030262 0.450093
O O5 0.071464 0.750000 0.750000
O O6 0.144338 0.626214 0.691726
O O7 0.053342 0.352950 0.689987
O O8 0.053203 0.848578 0.671718
O O9 0.086338 0.724346 0.522508
O O10 0.000000 0.500000 0.500000
O O11 0.250000 0.250000 0.503063
O O12 0.331555 0.318560 0.555343
O O13 0.327073 0.604930 0.485530
O O14 0.351424 0.108096 0.482002
O O15 0.750000 0.250000 0.327468
O O16 0.673931 0.357548 0.379244
O O17 0.690577 0.862921 0.367901
O O18 0.593172 0.819973 0.118965
#
# Coordination Sequence:
#
# PCOD9389628 Si02
#       8
#     8   8   8   8   8   8   8   8
#     4  11  20  33  50  72  95 119 157 200 243 291
#     4  10  21  35  50  70  95 119 149 189 238 300
#     4  10  18  30  48  71  96 121 149 196 251 285
#     4  12  23  34  47  65  93 131 169 201 240 278
#     4  10  19  32  49  66  86 118 159 202 242 274
#     4  10  20  33  46  65  90 118 156 202 238 277
#     4  11  21  33  47  66  92 123 159 200 239 276
#     4  10  20  34  53  71  90 119 153 190 241 291
#
# _framework density 16.566693000000001
#
# number of rings (size 3 to 8) (size 9 to 14) (size 15 to 20)
#    0.000    1.500    0.000    8.625    0.000    2.250 
#    0.000    0.000    0.000    4.500    0.000    0.000 
#    0.000    0.000    0.000    0.000    0.000   43.750 
#
# Total GULP energy -357029.771447 kJ/mol
# GULP energy per Si atom -5578.590179 kJ/mol
# Density = 1.652899 g / cm^3
# Si number density = 16.566693 Si / 1000 Ang^3
#
#
#
# Elastic Constant Matrix: (Units=GPa)
#
#
# Indices 1 2 3 4 5 6 
#
# 1 39.6403 -3.1266 14.6542 0.0000 0.0000 0.0000
# 2 -3.1266 62.3998 -10.7454 0.0000 0.0000 0.0000
# 3 14.6542 -10.7454 37.4705 0.0000 0.0000 0.0000
# 4 0.0000 0.0000 0.0000 14.1161 0.0000 0.0000
# 5 0.0000 0.0000 0.0000 0.0000 7.6845 0.0000
# 6 0.0000 0.0000 0.0000 0.0000 0.0000 22.9426
#
#
#
# Elastic Compliance Matrix: (Units=1/GPa)
#
#
# Indices 1 2 3 4 5 6 
#
# 1 0.029507 -0.000535 -0.011693 0.000000 0.000000 0.000000
# 2 -0.000535 0.016868 0.005046 0.000000 0.000000 0.000000
# 3 -0.011693 0.005046 0.032708 0.000000 0.000000 0.000000
# 4 0.000000 0.000000 0.000000 0.070841 0.000000 0.000000
# 5 0.000000 0.000000 0.000000 0.000000 0.130133 0.000000
# 6 0.000000 0.000000 0.000000 0.000000 0.000000 0.043587
#
#
# Mechanical properties :
#
#
# Convention : Reuss Voigt Hill
#
# Bulk Modulus (GPa) = 15.45139 15.67501 15.56320
# Shear Modulus (GPa) = 13.90505 18.19719 16.05112
#
# Velocity S-wave (km/s) = 2.90028 3.31784 3.11606
# Velocity P-wave (km/s) = 4.53459 4.91525 4.72875
#
# Compressibility (1/GPa) = 0.06471912
#
# Stress axis : x y z
#
# Youngs Moduli (GPa) = 33.88974 59.28427 30.57360
#
# Poissons Ratio (x) = 0.03172 0.35751
# Poissons Ratio (y) = 0.01813 -0.15429
# Poissons Ratio (z) = 0.39629 -0.29917
#
# Static dielectric constant tensor:
#      x y z
#    x 1.589750 0.000000 0.000000 
#    y 0.000000 1.593540 0.000000 
#    z 0.000000 0.000000 1.585820 
# 
# From -- ./inp_files/38117.got.cif
#   From: 2010.05.17/outbox.cif.g08.bks.cpg/sg48_20_cif.got.tgz:38117.got - 2010.06.03 20:39:00.
