data_PCOD9389731
_publ_section_title
;
Structure prediction by ZEFSAII (Michael W. Deem and Ramdas Pophale) SiO2 
 PCOD9389731
Probable space group: P N N N
;
_chemical_formula_sum "Si O2"
_cell_formula_units_Z 40
_cell_length_a 26.422370
_cell_length_b 5.010229
_cell_length_c 12.822666
_cell_angle_alpha 90.000000
_cell_angle_beta 90.000000
_cell_angle_gamma 90.000000
_cell_volume 1697.491766
_symmetry_space_group_name_H-M "P N N N"
_symmetry_group_IT_number 48
_space_group.IT_coordinate_system_code '2'
_symmetry_cell_setting 'orthorhombic'
loop_
_space_group_symop_operation_xyz
x,y,z
1/2-x,1/2-y,z
x,1/2-y,1/2-z
1/2-x,y,1/2-z
-x,-y,-z
1/2+x,1/2+y,-z
-x,1/2+y,1/2+z
1/2+x,-y,1/2+z
loop_
_atom_site_type_symbol
_atom_site_label
_atom_site_fract_x
_atom_site_fract_y
_atom_site_fract_z
Si Si1 0.403164 0.749044 0.124063
Si Si2 0.302437 0.652769 0.994554
Si Si3 0.534684 0.745116 0.623539
Si Si4 0.673975 0.851409 0.134900
Si Si5 0.062456 0.006392 0.679922
O O1 0.398245 0.750000 0.250000
O O2 0.446477 0.535588 0.091381
O O3 0.421957 0.040134 0.093326
O O4 0.350360 0.686164 0.069684
O O5 0.250000 0.750000 0.045246
O O6 0.304813 0.356686 0.948775
O O7 0.308663 0.854688 0.896718
O O8 0.533639 0.750000 0.750000
O O9 0.479700 0.617291 0.603925
O O10 0.687902 0.750000 0.250000
O O11 0.612756 0.865235 0.132975
O O12 0.078601 0.750000 0.750000
O O13 0.039759 0.250000 0.750000
#
# Coordination Sequence:
#
# PCOD9389731 Si02
#       5
#     8   8   8   8   8
#     4  10  21  39  62  90 125 163 203 250 306 370
#     4  12  26  43  63  89 121 160 214 270 314 363
#     4   9  17  33  60  91 123 162 199 239 300 372
#     4  11  24  43  65  91 123 161 205 257 315 374
#     4  10  18  34  61  93 127 164 202 246 307 375
#
# _framework density 23.564178999999999
#
# number of rings (size 3 to 8) (size 9 to 14) (size 15 to 20)
#    0.000    1.600    0.000    7.800    0.000    2.800 
#    0.000    6.000    0.000    6.000    0.000    0.000 
#    0.000    0.000    0.000    0.000    0.000    0.000 
#
# Total GULP energy -223768.508920 kJ/mol
# GULP energy per Si atom -5594.212723 kJ/mol
# Density = 2.351055 g / cm^3
# Si number density = 23.564179 Si / 1000 Ang^3
#
#
#
# Elastic Constant Matrix: (Units=GPa)
#
#
# Indices 1 2 3 4 5 6 
#
# 1 144.7605 29.3371 22.8422 0.0000 0.0000 0.0000
# 2 29.3371 129.5579 26.4397 0.0000 0.0000 0.0000
# 3 22.8422 26.4397 77.0739 0.0000 0.0000 0.0000
# 4 0.0000 0.0000 0.0000 20.2632 0.0000 0.0000
# 5 0.0000 0.0000 0.0000 0.0000 34.8958 0.0000
# 6 0.0000 0.0000 0.0000 0.0000 0.0000 40.8761
#
#
#
# Elastic Compliance Matrix: (Units=1/GPa)
#
#
# Indices 1 2 3 4 5 6 
#
# 1 0.007454 -0.001330 -0.001753 0.000000 0.000000 0.000000
# 2 -0.001330 0.008537 -0.002534 0.000000 0.000000 0.000000
# 3 -0.001753 -0.002534 0.014363 0.000000 0.000000 0.000000
# 4 0.000000 0.000000 0.000000 0.049350 0.000000 0.000000
# 5 0.000000 0.000000 0.000000 0.000000 0.028657 0.000000
# 6 0.000000 0.000000 0.000000 0.000000 0.000000 0.024464
#
#
# Mechanical properties :
#
#
# Convention : Reuss Voigt Hill
#
# Bulk Modulus (GPa) = 52.30184 56.51448 54.40816
# Shear Modulus (GPa) = 33.23720 37.39192 35.31456
#
# Velocity S-wave (km/s) = 3.75973 3.98780 3.87545
# Velocity P-wave (km/s) = 6.41024 6.72597 6.57000
#
# Compressibility (1/GPa) = 0.01911979
#
# Stress axis : x y z
#
# Youngs Moduli (GPa) = 134.15394 117.13768 69.62126
#
# Poissons Ratio (x) = 0.15582 0.12204
# Poissons Ratio (y) = 0.17845 0.17644
# Poissons Ratio (z) = 0.23515 0.29687
#
# Static dielectric constant tensor:
#      x y z
#    x 1.939690 0.000000 0.000000 
#    y 0.000000 1.868870 0.000000 
#    z 0.000000 0.000000 1.930190 
# 
# From -- ./inp_files/28513.got.cif
#   From: 2010.05.17/outbox.cif.g08.bks.cpg/sg48_15_cif.got.tgz:28513.got - 2010.06.03 20:39:00.
