data_PCOD9389645
_publ_section_title
;
Structure prediction by ZEFSAII (Michael W. Deem and Ramdas Pophale) SiO2 
 PCOD9389645
Probable space group: P N N N
;
_chemical_formula_sum "Si O2"
_cell_formula_units_Z 64
_cell_length_a 20.097499
_cell_length_b 8.418455
_cell_length_c 19.371514
_cell_angle_alpha 90.000000
_cell_angle_beta 90.000000
_cell_angle_gamma 90.000000
_cell_volume 3277.464341
_symmetry_space_group_name_H-M "P N N N"
_symmetry_group_IT_number 48
_space_group.IT_coordinate_system_code '2'
_symmetry_cell_setting 'orthorhombic'
loop_
_space_group_symop_operation_xyz
x,y,z
1/2-x,1/2-y,z
x,1/2-y,1/2-z
1/2-x,y,1/2-z
-x,-y,-z
1/2+x,1/2+y,-z
-x,1/2+y,1/2+z
1/2+x,-y,1/2+z
loop_
_atom_site_type_symbol
_atom_site_label
_atom_site_fract_x
_atom_site_fract_y
_atom_site_fract_z
Si Si1 0.455796 0.193510 0.170939
Si Si2 0.245918 0.067860 0.858258
Si Si3 0.403407 0.813352 0.621542
Si Si4 0.966312 0.641905 0.421207
Si Si5 0.305415 0.865721 0.512413
Si Si6 0.488102 0.117188 0.805087
Si Si7 0.406885 0.426021 0.064374
Si Si8 0.353749 0.956054 0.751732
O O1 0.457792 0.250000 0.250000
O O2 0.527460 0.226643 0.134836
O O3 0.405559 0.301633 0.126997
O O4 0.453342 0.003749 0.174892
O O5 0.250000 0.250000 0.880561
O O6 0.308577 0.983517 0.820345
O O7 0.188390 0.069668 0.800076
O O8 0.226784 0.962913 0.924049
O O9 0.362919 0.766777 0.553586
O O10 0.422866 0.996583 0.608137
O O11 0.363019 0.812582 0.693672
O O12 0.962299 0.792921 0.372757
O O13 0.939698 0.663895 0.498496
O O14 0.040530 0.568311 0.420609
O O15 0.250000 0.750000 0.482141
O O16 0.339989 0.987893 0.460209
O O17 0.509111 0.250000 0.750000
O O18 0.427134 0.019995 0.770013
#
# Coordination Sequence:
#
# PCOD9389645 Si02
#       8
#     8   8   8   8   8   8   8   8
#     4  11  21  35  56  83 115 153 186 242 312 366
#     4  10  21  32  48  76 114 162 206 235 271 321
#     4   9  18  34  51  78 116 160 193 229 286 346
#     4   9  18  34  56  76 108 160 189 231 287 355
#     4  10  22  37  55  76 108 161 206 239 285 347
#     4  12  20  30  54  85 115 153 202 231 285 358
#     4   9  20  40  54  73 114 151 194 244 307 350
#     4  10  18  31  49  75 121 159 196 233 269 329
#
# _framework density 19.527290000000001
#
# number of rings (size 3 to 8) (size 9 to 14) (size 15 to 20)
#    0.000    2.000    2.500    3.000    5.250    0.500 
#    0.000    1.875    0.000    0.000    0.000    0.000 
#    0.000   12.000    0.000    0.000    0.000    0.000 
#
# Total GULP energy -356720.717083 kJ/mol
# GULP energy per Si atom -5573.761204 kJ/mol
# Density = 1.948285 g / cm^3
# Si number density = 19.527290 Si / 1000 Ang^3
#
#
#
# Elastic Constant Matrix: (Units=GPa)
#
#
# Indices 1 2 3 4 5 6 
#
# 1 63.9305 6.5551 24.0449 0.0000 0.0000 0.0000
# 2 6.5551 146.3982 61.7875 0.0000 0.0000 0.0000
# 3 24.0449 61.7875 90.1895 0.0000 0.0000 0.0000
# 4 0.0000 0.0000 0.0000 32.7484 0.0000 0.0000
# 5 0.0000 0.0000 0.0000 0.0000 24.1113 0.0000
# 6 0.0000 0.0000 0.0000 0.0000 0.0000 22.9515
#
#
#
# Elastic Compliance Matrix: (Units=1/GPa)
#
#
# Indices 1 2 3 4 5 6 
#
# 1 0.017676 0.001684 -0.005866 0.000000 0.000000 0.000000
# 2 0.001684 0.009770 -0.007142 0.000000 0.000000 0.000000
# 3 -0.005866 -0.007142 0.017545 0.000000 0.000000 0.000000
# 4 0.000000 0.000000 0.000000 0.030536 0.000000 0.000000
# 5 0.000000 0.000000 0.000000 0.000000 0.041474 0.000000
# 6 0.000000 0.000000 0.000000 0.000000 0.000000 0.043570
#
#
# Mechanical properties :
#
#
# Convention : Reuss Voigt Hill
#
# Bulk Modulus (GPa) = 44.75887 53.92146 49.34016
# Shear Modulus (GPa) = 26.22391 29.83762 28.03076
#
# Velocity S-wave (km/s) = 3.66859 3.91320 3.79286
# Velocity P-wave (km/s) = 6.39653 6.93476 6.67107
#
# Compressibility (1/GPa) = 0.02234194
#
# Stress axis : x y z
#
# Youngs Moduli (GPa) = 56.57488 102.35847 56.99724
#
# Poissons Ratio (x) = -0.17242 0.33437
# Poissons Ratio (y) = -0.09530 0.40708
# Poissons Ratio (z) = 0.33189 0.73105
#
# Static dielectric constant tensor:
#      x y z
#    x 1.731020 0.000000 0.000000 
#    y 0.000000 1.888550 0.000000 
#    z 0.000000 0.000000 1.729090 
# 
# From -- ./inp_files/32246.got.cif
#   From: 2010.05.17/outbox.cif.g08.bks.cpg/sg48_17_cif.got.tgz:32246.got - 2010.06.03 20:39:00.
