data_PCOD9389636
_publ_section_title
;
Structure prediction by ZEFSAII (Michael W. Deem and Ramdas Pophale) SiO2 
 PCOD9389636
Probable space group: P N N N
;
_chemical_formula_sum "Si O2"
_cell_formula_units_Z 64
_cell_length_a 16.090447
_cell_length_b 17.609183
_cell_length_c 11.982541
_cell_angle_alpha 90.000000
_cell_angle_beta 90.000000
_cell_angle_gamma 90.000000
_cell_volume 3395.128683
_symmetry_space_group_name_H-M "P N N N"
_symmetry_group_IT_number 48
_space_group.IT_coordinate_system_code '2'
_symmetry_cell_setting 'orthorhombic'
loop_
_space_group_symop_operation_xyz
x,y,z
1/2-x,1/2-y,z
x,1/2-y,1/2-z
1/2-x,y,1/2-z
-x,-y,-z
1/2+x,1/2+y,-z
-x,1/2+y,1/2+z
1/2+x,-y,1/2+z
loop_
_atom_site_type_symbol
_atom_site_label
_atom_site_fract_x
_atom_site_fract_y
_atom_site_fract_z
Si Si1 0.553884 0.163534 0.213675
Si Si2 0.979190 0.435772 0.776222
Si Si3 0.806274 0.677502 0.934983
Si Si4 0.515078 0.140218 0.550796
Si Si5 0.107221 0.953585 0.853426
Si Si6 0.507627 0.683813 0.474731
Si Si7 0.116485 0.420860 0.253390
Si Si8 0.167678 0.078597 0.992347
O O1 0.560717 0.250000 0.250000
O O2 0.626272 0.114063 0.268865
O O3 0.466596 0.131140 0.263621
O O4 0.542493 0.153800 0.082278
O O5 0.950837 0.387652 0.669291
O O6 0.911337 0.500333 0.804364
O O7 0.053607 0.487504 0.723117
O O8 0.000979 0.377280 0.874804
O O9 0.750000 0.750000 0.905869
O O10 0.825124 0.627367 0.826443
O O11 0.748828 0.629289 0.017751
O O12 0.896016 0.693874 0.988060
O O13 0.556413 0.087782 0.454729
O O14 0.525440 0.230680 0.544081
O O15 0.416368 0.122072 0.544709
O O16 0.173842 0.003717 0.917708
O O17 0.151674 0.436894 0.376149
#
# Coordination Sequence:
#
# PCOD9389636 Si02
#       8
#     8   8   8   8   8   8   8   8
#     4  10  18  30  51  80 111 141 183 239 291 327
#     4  10  20  35  56  83 111 156 197 251 287 328
#     4  11  24  35  51  83 126 165 187 218 291 370
#     4  11  17  35  58  81 115 153 197 243 285 348
#     4  10  19  33  58  77 110 151 198 240 284 342
#     4  11  22  35  56  86 125 150 189 244 295 347
#     4  10  20  32  52  82 114 148 192 238 288 335
#     4  11  18  35  53  77 113 155 195 222 276 356
#
# _framework density 18.850538
#
# number of rings (size 3 to 8) (size 9 to 14) (size 15 to 20)
#    0.000    1.500    6.250    1.500    1.750    5.000 
#    0.000    2.500    0.000    0.000    0.000    0.875 
#    3.750    0.000    0.000    0.000    0.000    0.000 
#
# Total GULP energy -356554.809265 kJ/mol
# GULP energy per Si atom -5571.168895 kJ/mol
# Density = 1.880763 g / cm^3
# Si number density = 18.850538 Si / 1000 Ang^3
#
#
#
# Elastic Constant Matrix: (Units=GPa)
#
#
# Indices 1 2 3 4 5 6 
#
# 1 24.9810 31.2805 13.7211 0.0000 0.0000 0.0000
# 2 31.2805 112.1695 55.0911 0.0000 0.0000 0.0000
# 3 13.7211 55.0911 108.1132 0.0000 0.0000 0.0000
# 4 0.0000 0.0000 0.0000 22.8286 0.0000 0.0000
# 5 0.0000 0.0000 0.0000 0.0000 7.3406 0.0000
# 6 0.0000 0.0000 0.0000 0.0000 0.0000 15.0685
#
#
#
# Elastic Compliance Matrix: (Units=1/GPa)
#
#
# Indices 1 2 3 4 5 6 
#
# 1 0.061635 -0.017801 0.001249 0.000000 0.000000 0.000000
# 2 -0.017801 0.017032 -0.006420 0.000000 0.000000 0.000000
# 3 0.001249 -0.006420 0.012362 0.000000 0.000000 0.000000
# 4 0.000000 0.000000 0.000000 0.043805 0.000000 0.000000
# 5 0.000000 0.000000 0.000000 0.000000 0.136229 0.000000
# 6 0.000000 0.000000 0.000000 0.000000 0.000000 0.066364
#
#
# Mechanical properties :
#
#
# Convention : Reuss Voigt Hill
#
# Bulk Modulus (GPa) = 22.18051 49.49435 35.83743
# Shear Modulus (GPa) = 12.55019 18.72559 15.63789
#
# Velocity S-wave (km/s) = 2.58306 3.15520 2.88336
# Velocity P-wave (km/s) = 4.54844 6.29181 5.48977
#
# Compressibility (1/GPa) = 0.04508462
#
# Stress axis : x y z
#
# Youngs Moduli (GPa) = 16.22457 58.71173 80.88983
#
# Poissons Ratio (x) = 1.04514 -0.10100
# Poissons Ratio (y) = 0.28882 0.51931
# Poissons Ratio (z) = -0.02026 0.37693
#
# Static dielectric constant tensor:
#      x y z
#    x 1.668170 0.000000 0.000000 
#    y 0.000000 1.698670 0.000000 
#    z 0.000000 0.000000 1.684390 
# 
# From -- ./inp_files/22407.got.cif
#   From: 2010.05.17/outbox.cif.g08.bks.cpg/sg48_12_cif.got.tgz:22407.got - 2010.06.03 20:39:00.
