data_PCOD9389495
_publ_section_title
;
Structure prediction by ZEFSAII (Michael W. Deem and Ramdas Pophale) SiO2 
 PCOD9389495
Probable space group: P N N N
;
_chemical_formula_sum "Si O2"
_cell_formula_units_Z 58
_cell_length_a 16.917991
_cell_length_b 18.178541
_cell_length_c 7.840086
_cell_angle_alpha 90.000000
_cell_angle_beta 90.000000
_cell_angle_gamma 90.000000
_cell_volume 2411.174490
_symmetry_space_group_name_H-M "P N N N"
_symmetry_group_IT_number 48
_space_group.IT_coordinate_system_code '2'
_symmetry_cell_setting 'orthorhombic'
loop_
_space_group_symop_operation_xyz
x,y,z
1/2-x,1/2-y,z
x,1/2-y,1/2-z
1/2-x,y,1/2-z
-x,-y,-z
1/2+x,1/2+y,-z
-x,1/2+y,1/2+z
1/2+x,-y,1/2+z
loop_
_atom_site_type_symbol
_atom_site_label
_atom_site_fract_x
_atom_site_fract_y
_atom_site_fract_z
Si Si1 0.165221 0.119440 0.081014
Si Si2 0.195541 0.068196 0.601422
Si Si3 0.643687 0.095960 0.157500
Si Si4 0.418220 0.333773 0.742266
Si Si5 0.985411 0.561239 0.727875
Si Si6 0.750000 0.750000 0.750000
Si Si7 0.781012 0.334295 0.498603
Si Si8 0.565070 0.401861 0.856539
O O1 0.099505 0.098212 0.216480
O O2 0.199086 0.197781 0.130499
O O3 0.241270 0.066962 0.051698
O O4 0.114541 0.123905 0.908752
O O5 0.250000 0.103372 0.750000
O O6 0.121399 0.122250 0.587413
O O7 0.167054 0.990032 0.673024
O O8 0.549393 0.094259 0.142011
O O9 0.674848 0.146834 0.315484
O O10 0.698706 0.121792 0.004134
O O11 0.392622 0.250000 0.750000
O O12 0.511407 0.340196 0.768172
O O13 0.959771 0.476168 0.743839
O O14 0.034197 0.575871 0.549248
O O15 0.750000 0.250000 0.516550
O O16 0.846592 0.369956 0.623170
#
# Coordination Sequence:
#
# PCOD9389495 Si02
#       8
#     8   8   8   8   8   2   8   8
#     4  10  22  35  56  80 114 158 196 235 301 373
#     4  10  17  30  56  87 112 141 196 254 308 342
#     4  10  16  29  52  83 118 144 190 256 295 351
#     4  10  19  33  56  89 112 144 194 263 304 345
#     4   9  17  31  52  84 107 147 194 244 301 350
#     4  12  24  44  50  72 120 166 186 226 292 396
#     4  10  19  29  47  82 121 162 192 237 303 366
#     4   9  17  31  53  78 119 147 191 241 303 363
#
# _framework density 24.054666999999998
#
# number of rings (size 3 to 8) (size 9 to 14) (size 15 to 20)
#    0.000    2.207    2.759    2.483    3.862    1.931 
#    7.448    0.000    0.000    4.552    0.000    0.000 
#    0.000    0.000    0.000    0.000    0.000    0.000 
#
# Total GULP energy -323212.833213 kJ/mol
# GULP energy per Si atom -5572.635055 kJ/mol
# Density = 2.399992 g / cm^3
# Si number density = 24.054667 Si / 1000 Ang^3
#
#
#
# Elastic Constant Matrix: (Units=GPa)
#
#
# Indices 1 2 3 4 5 6 
#
# 1 201.9255 53.9170 36.8918 0.0000 0.0000 0.0000
# 2 53.9170 119.6321 2.8115 0.0000 0.0000 0.0000
# 3 36.8918 2.8115 78.7971 0.0000 0.0000 0.0000
# 4 0.0000 0.0000 0.0000 -15.0354 0.0000 0.0000
# 5 0.0000 0.0000 0.0000 0.0000 20.4195 0.0000
# 6 0.0000 0.0000 0.0000 0.0000 0.0000 24.1341
#
#
#
# Elastic Compliance Matrix: (Units=1/GPa)
#
#
# Indices 1 2 3 4 5 6 
#
# 1 0.006192 -0.002725 -0.002802 0.000000 0.000000 0.000000
# 2 -0.002725 0.009565 0.000934 0.000000 0.000000 0.000000
# 3 -0.002802 0.000934 0.013969 0.000000 0.000000 0.000000
# 4 0.000000 0.000000 0.000000 -0.066510 0.000000 0.000000
# 5 0.000000 0.000000 0.000000 0.000000 0.048973 0.000000
# 6 0.000000 0.000000 0.000000 0.000000 0.000000 0.041435
#
#
# Mechanical properties :
#
#
# Convention : Reuss Voigt Hill
#
# Bulk Modulus (GPa) = 48.68088 65.28836 56.98462
# Shear Modulus (GPa) = 71.78194 26.35260 49.06727
#
# Velocity S-wave (km/s) = 5.46863 3.31347 4.52134
# Velocity P-wave (km/s) = 7.75604 6.46833 7.14127
#
# Compressibility (1/GPa) = 0.02054195
#
# Stress axis : x y z
#
# Youngs Moduli (GPa) = 161.50600 104.54782 71.58611
#
# Poissons Ratio (x) = 0.28486 0.20056
# Poissons Ratio (y) = 0.44006 -0.06689
# Poissons Ratio (z) = 0.45249 -0.09769
#
# Static dielectric constant tensor:
#      x y z
#    x 2.000630 0.000000 0.000000 
#    y 0.000000 1.916070 0.000000 
#    z 0.000000 0.000000 2.050840 
# 
# From -- ./inp_files/14441.got.cif
#   From: 2010.05.17/outbox.cif.g08.bks.cpg/sg48_8_cif.got.tgz:14441.got - 2010.06.03 20:39:00.
