data_PCOD9389377
_publ_section_title
;
Structure prediction by ZEFSAII (Michael W. Deem and Ramdas Pophale) SiO2 
 PCOD9389377
Probable space group: P M M M
;
_chemical_formula_sum "Si O2"
_cell_formula_units_Z 56
_cell_length_a 15.000000
_cell_length_b 21.000000
_cell_length_c 9.000000
_cell_angle_alpha 90.000000
_cell_angle_beta 90.000000
_cell_angle_gamma 90.000000
_cell_volume 2835.000000
_symmetry_space_group_name_H-M "P M M M"
_symmetry_group_IT_number 47
_symmetry_cell_setting 'orthorhombic'
loop_
_space_group_symop_operation_xyz
x,y,z
-x,-y,z
x,-y,-z
-x,y,-z
-x,-y,-z
x,y,-z
-x,y,z
x,-y,z
loop_
_atom_site_type_symbol
_atom_site_label
_atom_site_fract_x
_atom_site_fract_y
_atom_site_fract_z
Si Si1 0.353660 0.428781 0.676134
Si Si2 0.600690 0.302045 0.830903
Si Si3 0.159761 0.571713 0.821904
Si Si4 0.728181 0.074683 0.173254
Si Si5 0.102305 0.717420 0.178480
Si Si6 0.266893 0.792968 0.676517
Si Si7 0.097622 0.076168 0.334478
O O1 0.360274 0.416697 0.500000
O O2 0.388178 0.500000 0.705246
O O3 0.398832 0.373372 0.768865
O O4 0.250947 0.427905 0.729095
O O5 0.500000 0.277672 0.830804
O O6 0.662321 0.259137 0.729490
O O7 0.635368 0.301508 0.000000
O O8 0.118136 0.500000 0.794447
O O9 0.115332 0.640899 0.788192
O O10 0.177011 0.573104 0.000000
O O11 0.698333 0.137873 0.262531
O O12 0.833584 0.084347 0.202732
O O13 0.707739 0.000000 0.220098
O O14 0.705287 0.079559 0.000000
O O15 0.173445 0.764482 0.257424
O O16 0.000000 0.733558 0.216331
O O17 0.114124 0.723936 0.000000
O O18 0.261315 0.794963 0.500000
O O19 0.128975 0.097377 0.500000
O O20 0.000000 0.103200 0.307745
O O21 0.089850 0.000000 0.346137
#
# Coordination Sequence:
#
# PCOD9389377 Si02
#       7
#     8   8   8   8   8   8   8
#     4  10  20  34  56  88 125 162 199 244 300 356
#     4  11  24  42  65  91 120 157 201 247 298 359
#     4   9  17  31  54  82 115 158 205 254 305 353
#     4  10  21  37  59  85 112 146 188 235 290 354
#     4  10  21  37  58  85 120 163 210 257 302 354
#     4  12  25  41  63  88 120 159 196 245 302 357
#     4   8  14  26  45  71 105 142 180 225 276 331
#
# _framework density 19.753086
#
# number of rings (size 3 to 8) (size 9 to 14) (size 15 to 20)
#    0.000    2.000    1.429    3.000    0.000    4.571 
#    0.000    4.286    0.000    0.429    0.000    6.000 
#    0.000    0.000    0.000    0.000    0.000    0.000 
#
# Total GULP energy -311919.744885 kJ/mol
# GULP energy per Si atom -5569.995444 kJ/mol
# Density = 1.970813 g / cm^3
# Si number density = 19.753086 Si / 1000 Ang^3
#
#
#
# Elastic Constant Matrix: (Units=GPa)
#
#
# Indices 1 2 3 4 5 6 
#
# 1 54.1876 24.9781 18.9964 0.0000 0.0000 0.0000
# 2 24.9781 130.4331 46.3148 0.0000 0.0000 0.0000
# 3 18.9964 46.3148 71.5838 0.0000 0.0000 0.0000
# 4 0.0000 0.0000 0.0000 26.4109 0.0000 0.0000
# 5 0.0000 0.0000 0.0000 0.0000 17.6814 0.0000
# 6 0.0000 0.0000 0.0000 0.0000 0.0000 -6.0294
#
#
#
# Elastic Compliance Matrix: (Units=1/GPa)
#
#
# Indices 1 2 3 4 5 6 
#
# 1 0.021033 -0.002656 -0.003863 0.000000 0.000000 0.000000
# 2 -0.002656 0.010289 -0.005952 0.000000 0.000000 0.000000
# 3 -0.003863 -0.005952 0.018846 0.000000 0.000000 0.000000
# 4 0.000000 0.000000 0.000000 0.037863 0.000000 0.000000
# 5 0.000000 0.000000 0.000000 0.000000 0.056557 0.000000
# 6 0.000000 0.000000 0.000000 0.000000 0.000000 -0.165854
#
#
# Mechanical properties :
#
#
# Convention : Reuss Voigt Hill
#
# Bulk Modulus (GPa) = 39.64295 48.53147 44.08721
# Shear Modulus (GPa) = 413.76472 18.67361 216.21916
#
# Velocity S-wave (km/s) = 14.48872 3.07799 10.47371
# Velocity P-wave (km/s) = 17.32081 6.10364 12.98585
#
# Compressibility (1/GPa) = 0.02522517
#
# Stress axis : x y z
#
# Youngs Moduli (GPa) = 47.54421 97.19208 53.06229
#
# Poissons Ratio (x) = 0.25816 0.20498
# Poissons Ratio (y) = 0.12628 0.31583
# Poissons Ratio (z) = 0.18367 0.57849
#
# Static dielectric constant tensor:
#      x y z
#    x 1.729250 0.000000 0.000000 
#    y 0.000000 1.748640 0.000000 
#    z 0.000000 0.000000 1.673170 
# 
# From -- ./inp_files/7192.got.cif
#   From: 2010.05.17/outbox.ucp.g08.bks.cvg/sg47_4_cif.got.tgz:7192.got - 2010.06.11 16:36:43.
