data_PCOD9389758
_publ_section_title
;
Structure prediction by ZEFSAII (Michael W. Deem and Ramdas Pophale) SiO2 
 PCOD9389758
Probable space group: P N N N
;
_chemical_formula_sum "Si O2"
_cell_formula_units_Z 42
_cell_length_a 9.844628
_cell_length_b 9.634411
_cell_length_c 16.473407
_cell_angle_alpha 90.000000
_cell_angle_beta 90.000000
_cell_angle_gamma 90.000000
_cell_volume 1562.456401
_symmetry_space_group_name_H-M "P N N N"
_symmetry_group_IT_number 48
_space_group.IT_coordinate_system_code '2'
_symmetry_cell_setting 'orthorhombic'
loop_
_space_group_symop_operation_xyz
x,y,z
1/2-x,1/2-y,z
x,1/2-y,1/2-z
1/2-x,y,1/2-z
-x,-y,-z
1/2+x,1/2+y,-z
-x,1/2+y,1/2+z
1/2+x,-y,1/2+z
loop_
_atom_site_type_symbol
_atom_site_label
_atom_site_fract_x
_atom_site_fract_y
_atom_site_fract_z
Si Si1 0.456094 0.793306 0.053608
Si Si2 0.629778 0.352942 0.369487
Si Si3 0.664040 0.579494 0.084072
Si Si4 0.250000 0.750000 0.250000
Si Si5 0.618832 0.512031 0.676406
Si Si6 0.377163 0.000182 0.398812
O O1 0.604348 0.737292 0.084320
O O2 0.418958 0.942097 0.088697
O O3 0.363764 0.667497 0.090436
O O4 0.428479 0.799524 0.957285
O O5 0.750000 0.250000 0.344758
O O6 0.707139 0.500653 0.381238
O O7 0.502071 0.382104 0.311297
O O8 0.535473 0.491099 0.120149
O O9 0.655318 0.555284 0.987611
O O10 0.362637 0.630340 0.274181
O O11 0.771383 0.567161 0.662453
#
# Coordination Sequence:
#
# PCOD9389758 Si02
#       6
#     8   8   8   2   8   8
#     4  10  18  35  59  95 141 173 209 269 343 409
#     4  12  21  37  58  98 148 171 210 269 360 415
#     4   9  18  31  57  89 141 169 205 257 338 426
#     4  12  24  48  64  98 130 176 264 288 322 404
#     4  12  23  37  67  89 133 180 223 287 326 398
#     4   9  16  33  53  89 130 176 201 258 334 399
#
# _framework density 26.880749999999999
#
# number of rings (size 3 to 8) (size 9 to 14) (size 15 to 20)
#    1.143    0.381    5.714    0.571    0.000    0.762 
#    0.000    2.857    0.000    9.143    0.000   34.667 
#    5.714    0.000    0.000    0.000    0.000    0.000 
#
# Total GULP energy -233971.950694 kJ/mol
# GULP energy per Si atom -5570.760731 kJ/mol
# Density = 2.681957 g / cm^3
# Si number density = 26.880750 Si / 1000 Ang^3
#
#
#
# Elastic Constant Matrix: (Units=GPa)
#
#
# Indices 1 2 3 4 5 6 
#
# 1 175.2536 50.6298 18.7018 0.0000 0.0000 0.0000
# 2 50.6298 124.7031 13.8417 0.0000 0.0000 0.0000
# 3 18.7018 13.8417 59.5868 0.0000 0.0000 0.0000
# 4 0.0000 0.0000 0.0000 18.2315 0.0000 0.0000
# 5 0.0000 0.0000 0.0000 0.0000 -1.4319 0.0000
# 6 0.0000 0.0000 0.0000 0.0000 0.0000 49.7113
#
#
#
# Elastic Compliance Matrix: (Units=1/GPa)
#
#
# Indices 1 2 3 4 5 6 
#
# 1 0.006590 -0.002511 -0.001485 0.000000 0.000000 0.000000
# 2 -0.002511 0.009188 -0.001346 0.000000 0.000000 0.000000
# 3 -0.001485 -0.001346 0.017561 0.000000 0.000000 0.000000
# 4 0.000000 0.000000 0.000000 0.054850 0.000000 0.000000
# 5 0.000000 0.000000 0.000000 0.000000 -0.698380 0.000000
# 6 0.000000 0.000000 0.000000 0.000000 0.000000 0.020116
#
#
# Mechanical properties :
#
#
# Convention : Reuss Voigt Hill
#
# Bulk Modulus (GPa) = 44.14093 58.43225 51.28659
# Shear Modulus (GPa) = -8.74371 31.72685 11.49157
#
# Velocity S-wave (km/s) = -1.80550 3.43925 2.06985
# Velocity P-wave (km/s) = 3.47997 6.12830 4.98328
#
# Compressibility (1/GPa) = 0.02265471
#
# Stress axis : x y z
#
# Youngs Moduli (GPa) = 151.74966 108.83983 56.94408
#
# Poissons Ratio (x) = 0.27326 0.08457
# Poissons Ratio (y) = 0.38099 0.07666
# Poissons Ratio (z) = 0.22536 0.14653
#
# Static dielectric constant tensor:
#      x y z
#    x 2.285230 0.000000 0.000000 
#    y 0.000000 2.116300 0.000000 
#    z 0.000000 0.000000 2.258700 
# 
# From -- ./inp_files/35794.got.cif
#   From: 2010.05.17/outbox.cif.g08.bks.cpg/sg48_18_cif.got.tgz:35794.got - 2010.06.03 20:39:00.
