data_PCOD9389670
_publ_section_title
;
Structure prediction by ZEFSAII (Michael W. Deem and Ramdas Pophale) SiO2 
 PCOD9389670
Probable space group: P N N N
;
_chemical_formula_sum "Si O2"
_cell_formula_units_Z 44
_cell_length_a 10.800535
_cell_length_b 7.940832
_cell_length_c 20.938704
_cell_angle_alpha 90.000000
_cell_angle_beta 90.000000
_cell_angle_gamma 90.000000
_cell_volume 1795.812847
_symmetry_space_group_name_H-M "P N N N"
_symmetry_group_IT_number 48
_space_group.IT_coordinate_system_code '2'
_symmetry_cell_setting 'orthorhombic'
loop_
_space_group_symop_operation_xyz
x,y,z
1/2-x,1/2-y,z
x,1/2-y,1/2-z
1/2-x,y,1/2-z
-x,-y,-z
1/2+x,1/2+y,-z
-x,1/2+y,1/2+z
1/2+x,-y,1/2+z
loop_
_atom_site_type_symbol
_atom_site_label
_atom_site_fract_x
_atom_site_fract_y
_atom_site_fract_z
Si Si1 0.147600 0.478122 0.454315
Si Si2 0.403574 0.921387 0.713969
Si Si3 0.250000 0.750000 0.137346
Si Si4 0.988533 0.620969 0.172196
Si Si5 0.888151 0.735950 0.850949
Si Si6 0.878189 0.600658 0.410869
O O1 0.237431 0.587496 0.409136
O O2 0.120205 0.297236 0.423535
O O3 0.196275 0.449155 0.525656
O O4 0.016313 0.571677 0.441358
O O5 0.366802 0.750000 0.750000
O O6 0.539931 0.876575 0.688970
O O7 0.415374 0.074210 0.763043
O O8 0.341471 0.977483 0.647742
O O9 0.119979 0.724104 0.175022
O O10 0.036452 0.435262 0.152846
O O11 0.898188 0.718774 0.123199
O O12 0.750000 0.750000 0.825767
#
# Coordination Sequence:
#
# PCOD9389670 Si02
#       6
#     8   8   4   8   8   8
#     4   9  18  32  50  65 102 130 173 213 254 310
#     4   9  19  32  47  69 104 134 166 203 258 316
#     4  10  18  32  49  74  95 138 172 216 258 310
#     4  10  19  30  47  71 102 133 174 206 261 321
#     4  10  18  32  45  71 103 138 168 215 261 310
#     4   9  18  33  46  71  97 136 167 212 253 310
#
# _framework density 24.501439999999999
#
# number of rings (size 3 to 8) (size 9 to 14) (size 15 to 20)
#    0.000    2.545    1.818    0.545    0.000    4.000 
#    3.273    1.818    0.000    0.000    0.000    0.636 
#    0.000    0.000    0.000    0.000    0.000    0.000 
#
# Total GULP energy -245261.155437 kJ/mol
# GULP energy per Si atom -5574.117169 kJ/mol
# Density = 2.444567 g / cm^3
# Si number density = 24.501440 Si / 1000 Ang^3
#
#
#
# Elastic Constant Matrix: (Units=GPa)
#
#
# Indices 1 2 3 4 5 6 
#
# 1 47.7678 -2.9012 12.8491 0.0000 0.0000 0.0000
# 2 -2.9012 145.3936 71.6373 0.0000 0.0000 0.0000
# 3 12.8491 71.6373 212.2100 0.0000 0.0000 0.0000
# 4 0.0000 0.0000 0.0000 31.7358 0.0000 0.0000
# 5 0.0000 0.0000 0.0000 0.0000-1004.1694 0.0000
# 6 0.0000 0.0000 0.0000 0.0000 0.0000 -15.9116
#
#
#
# Elastic Compliance Matrix: (Units=1/GPa)
#
#
# Indices 1 2 3 4 5 6 
#
# 1 0.021479 0.001283 -0.001734 0.000000 0.000000 0.000000
# 2 0.001283 0.008327 -0.002889 0.000000 0.000000 0.000000
# 3 -0.001734 -0.002889 0.005792 0.000000 0.000000 0.000000
# 4 0.000000 0.000000 0.000000 0.031510 0.000000 0.000000
# 5 0.000000 0.000000 0.000000 0.000000 -0.000996 0.000000
# 6 0.000000 0.000000 0.000000 0.000000 0.000000 -0.062847
#
#
# Mechanical properties :
#
#
# Convention : Reuss Voigt Hill
#
# Bulk Modulus (GPa) = 34.57915 63.17129 48.87522
# Shear Modulus (GPa) = 255.31679 -176.08329 39.61675
#
# Velocity S-wave (km/s) = 10.21915 -8.48661 4.02545
# Velocity P-wave (km/s) = 12.38487 8.37803 6.44956
#
# Compressibility (1/GPa) = 0.02891916
#
# Stress axis : x y z
#
# Youngs Moduli (GPa) = 46.55746 120.09538 172.64015
#
# Poissons Ratio (x) = -0.15405 0.29928
# Poissons Ratio (y) = -0.05972 0.49868
# Poissons Ratio (z) = 0.08071 0.34690
#
# Static dielectric constant tensor:
#      x y z
#    x 2.003130 0.000000 0.000000 
#    y 0.000000 2.056680 0.000000 
#    z 0.000000 0.000000 2.058730 
# 
# From -- ./inp_files/31500.got.cif
#   From: 2010.05.17/outbox.cif.g08.bks.cpg/sg48_16_cif.got.tgz:31500.got - 2010.06.03 20:39:00.
