data_PCOD9389910
_publ_section_title
;
Structure prediction by ZEFSAII (Michael W. Deem and Ramdas Pophale) SiO2 
 PCOD9389910
Probable space group: P N N N
;
_chemical_formula_sum "Si O2"
_cell_formula_units_Z 38
_cell_length_a 8.456081
_cell_length_b 17.233153
_cell_length_c 11.917740
_cell_angle_alpha 90.000000
_cell_angle_beta 90.000000
_cell_angle_gamma 90.000000
_cell_volume 1736.711918
_symmetry_space_group_name_H-M "P N N N"
_symmetry_group_IT_number 48
_space_group.IT_coordinate_system_code '2'
_symmetry_cell_setting 'orthorhombic'
loop_
_space_group_symop_operation_xyz
x,y,z
1/2-x,1/2-y,z
x,1/2-y,1/2-z
1/2-x,y,1/2-z
-x,-y,-z
1/2+x,1/2+y,-z
-x,1/2+y,1/2+z
1/2+x,-y,1/2+z
loop_
_atom_site_type_symbol
_atom_site_label
_atom_site_fract_x
_atom_site_fract_y
_atom_site_fract_z
Si Si1 0.090971 0.851854 0.319165
Si Si2 0.588490 0.963068 0.806428
Si Si3 0.750000 0.250000 0.250000
Si Si4 0.370675 0.984431 0.596316
Si Si5 0.890386 0.356669 0.062117
Si Si6 0.250000 0.116451 0.750000
O O1 0.250000 0.832875 0.250000
O O2 0.094367 0.815729 0.442715
O O3 0.917832 0.840038 0.264390
O O4 0.099218 0.945907 0.334532
O O5 0.750000 0.938042 0.750000
O O6 0.456891 0.956529 0.709740
O O7 0.541132 0.909672 0.909318
O O8 0.856564 0.300467 0.165820
O O9 0.254473 0.917298 0.557017
O O10 0.500000 0.000000 0.500000
O O11 0.278152 0.060633 0.640971
#
# Coordination Sequence:
#
# PCOD9389910 Si02
#       6
#     8   8   2   8   8   4
#     4  10  21  36  61  97 126 155 210 273 334 368
#     4  10  19  33  55  94 125 160 209 270 329 371
#     4  12  26  44  64  88 128 194 214 228 304 412
#     4  11  19  32  57  90 125 161 205 267 326 379
#     4  12  21  41  60  86 132 172 216 251 307 394
#     4  10  19  34  52  93 127 151 196 264 350 364
#
# _framework density 21.880428999999999
#
# number of rings (size 3 to 8) (size 9 to 14) (size 15 to 20)
#    0.000    1.263    6.316    4.421    2.947    0.000 
#    0.000    1.053    0.000    0.000    0.000    5.895 
#    0.000    0.000    0.000    0.000    0.000    0.000 
#
# Total GULP energy -212369.962658 kJ/mol
# GULP energy per Si atom -5588.683228 kJ/mol
# Density = 2.183063 g / cm^3
# Si number density = 21.880429 Si / 1000 Ang^3
#
#
#
# Elastic Constant Matrix: (Units=GPa)
#
#
# Indices 1 2 3 4 5 6 
#
# 1 154.9765 22.3631 50.4454 0.0000 0.0000 0.0000
# 2 22.3631 69.3614 24.3961 0.0000 0.0000 0.0000
# 3 50.4454 24.3961 131.3885 0.0000 0.0000 0.0000
# 4 0.0000 0.0000 0.0000 16.9015 0.0000 0.0000
# 5 0.0000 0.0000 0.0000 0.0000 53.9322 0.0000
# 6 0.0000 0.0000 0.0000 0.0000 0.0000 -10.2011
#
#
#
# Elastic Compliance Matrix: (Units=1/GPa)
#
#
# Indices 1 2 3 4 5 6 
#
# 1 0.007519 -0.001507 -0.002607 0.000000 0.000000 0.000000
# 2 -0.001507 0.015727 -0.002341 0.000000 0.000000 0.000000
# 3 -0.002607 -0.002341 0.009047 0.000000 0.000000 0.000000
# 4 0.000000 0.000000 0.000000 0.059166 0.000000 0.000000
# 5 0.000000 0.000000 0.000000 0.000000 0.018542 0.000000
# 6 0.000000 0.000000 0.000000 0.000000 0.000000 -0.098029
#
#
# Mechanical properties :
#
#
# Convention : Reuss Voigt Hill
#
# Bulk Modulus (GPa) = 51.59696 61.12617 56.36156
# Shear Modulus (GPa) = 159.52587 29.36131 94.44359
#
# Velocity S-wave (km/s) = 8.54788 3.66717 6.57702
# Velocity P-wave (km/s) = 11.00247 6.77701 9.13735
#
# Compressibility (1/GPa) = 0.01938099
#
# Stress axis : x y z
#
# Youngs Moduli (GPa) = 133.00316 63.58602 110.53821
#
# Poissons Ratio (x) = 0.09584 0.28816
# Poissons Ratio (y) = 0.20047 0.25882
# Poissons Ratio (z) = 0.34672 0.14888
#
# Static dielectric constant tensor:
#      x y z
#    x 2.021370 0.000000 0.000000 
#    y 0.000000 1.808380 0.000000 
#    z 0.000000 0.000000 1.891810 
# 
# From -- ./inp_files/13843.got.cif
#   From: 2010.05.17/outbox.cif.g08.bks.cpg/sg48_7_cif.got.tgz:13843.got - 2010.06.03 20:39:00.
