data_PCOD9389710
_publ_section_title
;
Structure prediction by ZEFSAII (Michael W. Deem and Ramdas Pophale) SiO2 
 PCOD9389710
Probable space group: P N N N
;
_chemical_formula_sum "Si O2"
_cell_formula_units_Z 56
_cell_length_a 16.512513
_cell_length_b 9.746814
_cell_length_c 17.449560
_cell_angle_alpha 90.000000
_cell_angle_beta 90.000000
_cell_angle_gamma 90.000000
_cell_volume 2808.408840
_symmetry_space_group_name_H-M "P N N N"
_symmetry_group_IT_number 48
_space_group.IT_coordinate_system_code '2'
_symmetry_cell_setting 'orthorhombic'
loop_
_space_group_symop_operation_xyz
x,y,z
1/2-x,1/2-y,z
x,1/2-y,1/2-z
1/2-x,y,1/2-z
-x,-y,-z
1/2+x,1/2+y,-z
-x,1/2+y,1/2+z
1/2+x,-y,1/2+z
loop_
_atom_site_type_symbol
_atom_site_label
_atom_site_fract_x
_atom_site_fract_y
_atom_site_fract_z
Si Si1 0.647172 0.767437 0.897542
Si Si2 0.871193 0.032521 0.699202
Si Si3 0.976046 0.585305 0.108935
Si Si4 0.299500 0.119899 0.934345
Si Si5 0.315052 0.630206 0.971420
Si Si6 0.701286 0.029566 0.636622
Si Si7 0.479670 0.773003 0.954867
O O1 0.670728 0.848595 0.977062
O O2 0.701403 0.636436 0.875490
O O3 0.559672 0.704047 0.920628
O O4 0.631674 0.872851 0.828081
O O5 0.792418 0.085194 0.651892
O O6 0.849953 0.053330 0.787240
O O7 0.957666 0.091760 0.675683
O O8 0.978681 0.427310 0.079498
O O9 0.880063 0.606024 0.116118
O O10 0.007505 0.691771 0.044431
O O11 0.250000 0.250000 0.908500
O O12 0.235035 0.996777 0.936249
O O13 0.250000 0.750000 0.969525
O O14 0.332106 0.591604 0.059325
O O15 0.399206 0.686909 0.938262
#
# Coordination Sequence:
#
# PCOD9389710 Si02
#       7
#     8   8   8   8   8   8   8
#     4  10  18  34  54  77 114 148 193 236 282 336
#     4  10  19  33  54  79 109 162 193 219 272 356
#     4   9  18  36  53  76 112 155 196 226 296 350
#     4  11  19  34  58  84 113 150 191 245 291 341
#     4  12  21  34  54  86 120 145 187 240 292 344
#     4  11  21  32  52  81 114 151 192 230 268 340
#     4   9  19  31  54  77 111 147 181 240 296 339
#
# _framework density 19.940117999999998
#
# number of rings (size 3 to 8) (size 9 to 14) (size 15 to 20)
#    0.000    1.714    4.286    2.571    0.000    1.714 
#    0.000    5.000    0.000    0.000    0.000    1.000 
#    4.286    0.000    0.286    0.000    0.000    0.000 
#
# Total GULP energy -312228.356364 kJ/mol
# GULP energy per Si atom -5575.506364 kJ/mol
# Density = 1.989473 g / cm^3
# Si number density = 19.940118 Si / 1000 Ang^3
#
#
#
# Elastic Constant Matrix: (Units=GPa)
#
#
# Indices 1 2 3 4 5 6 
#
# 1 149.1368 35.7292 31.5737 0.0000 0.0000 0.0000
# 2 35.7292 63.3673 0.4167 0.0000 0.0000 0.0000
# 3 31.5737 0.4167 29.1854 0.0000 0.0000 0.0000
# 4 0.0000 0.0000 0.0000 8.4476 0.0000 0.0000
# 5 0.0000 0.0000 0.0000 0.0000 28.6156 0.0000
# 6 0.0000 0.0000 0.0000 0.0000 0.0000 23.6682
#
#
#
# Elastic Compliance Matrix: (Units=1/GPa)
#
#
# Indices 1 2 3 4 5 6 
#
# 1 0.010489 -0.005840 -0.011264 0.000000 0.000000 0.000000
# 2 -0.005840 0.019034 0.006046 0.000000 0.000000 0.000000
# 3 -0.011264 0.006046 0.046363 0.000000 0.000000 0.000000
# 4 0.000000 0.000000 0.000000 0.118377 0.000000 0.000000
# 5 0.000000 0.000000 0.000000 0.000000 0.034946 0.000000
# 6 0.000000 0.000000 0.000000 0.000000 0.000000 0.042251
#
#
# Mechanical properties :
#
#
# Convention : Reuss Voigt Hill
#
# Bulk Modulus (GPa) = 18.59749 41.90317 30.25033
# Shear Modulus (GPa) = 16.05136 23.74425 19.89781
#
# Velocity S-wave (km/s) = 2.84029 3.45451 3.16235
# Velocity P-wave (km/s) = 4.48367 6.08043 5.34205
#
# Compressibility (1/GPa) = 0.05377071
#
# Stress axis : x y z
#
# Youngs Moduli (GPa) = 95.33706 52.53707 21.56880
#
# Poissons Ratio (x) = 0.30682 0.24295
# Poissons Ratio (y) = 0.55678 -0.13041
# Poissons Ratio (z) = 1.07388 -0.31765
#
# Static dielectric constant tensor:
#      x y z
#    x 1.691070 0.000000 0.000000 
#    y 0.000000 1.729640 0.000000 
#    z 0.000000 0.000000 1.692540 
# 
# From -- ./inp_files/34487.got.cif
#   From: 2010.05.17/outbox.cif.g08.bks.cpg/sg48_18_cif.got.tgz:34487.got - 2010.06.03 20:39:00.
