data_PCOD9389118
_publ_section_title
;
Structure prediction by ZEFSAII (Michael W. Deem and Ramdas Pophale) SiO2 
 PCOD9389118
Probable space group: P M M M
;
_chemical_formula_sum "Si O2"
_cell_formula_units_Z 44
_cell_length_a 7.550587
_cell_length_b 29.703243
_cell_length_c 9.634981
_cell_angle_alpha 90.000000
_cell_angle_beta 90.000000
_cell_angle_gamma 90.000000
_cell_volume 2160.903867
_symmetry_space_group_name_H-M "P M M M"
_symmetry_group_IT_number 47
_symmetry_cell_setting 'orthorhombic'
loop_
_space_group_symop_operation_xyz
x,y,z
-x,-y,z
x,-y,-z
-x,y,-z
-x,-y,-z
x,y,-z
-x,y,z
x,-y,z
loop_
_atom_site_type_symbol
_atom_site_label
_atom_site_fract_x
_atom_site_fract_y
_atom_site_fract_z
Si Si1 0.287023 0.048383 0.838227
Si Si2 0.712165 0.583776 0.158032
Si Si3 0.717214 0.500000 0.340780
Si Si4 0.209957 0.852955 0.158352
Si Si5 0.212078 0.314598 0.158146
Si Si6 0.217337 0.230713 0.659448
O O1 0.500000 0.047697 0.837731
O O2 0.234215 0.096852 0.780724
O O3 0.226600 0.000000 0.778708
O O4 0.228476 0.049031 0.000000
O O5 0.500000 0.579193 0.151118
O O6 0.776413 0.544493 0.258483
O O7 0.750094 0.634579 0.205561
O O8 0.780726 0.578998 0.000000
O O9 0.500000 0.500000 0.340938
O O10 0.774193 0.500000 0.500000
O O11 0.277864 0.813193 0.255487
O O12 0.000000 0.845847 0.146602
O O13 0.282802 0.851520 0.000000
O O14 0.276044 0.275518 0.259523
O O15 0.000000 0.309957 0.151039
O O16 0.280694 0.309684 0.000000
O O17 0.274212 0.230088 0.500000
O O18 0.000000 0.230561 0.658758
#
# Coordination Sequence:
#
# PCOD9389118 Si02
#       6
#     8   8   4   8   8   8
#     4   8  14  25  41  62  88 115 141 172 214 260
#     4   9  17  30  48  68  89 114 145 180 217 257
#     4   9  17  29  46  67  90 118 150 181 214 254
#     4   9  16  26  43  66  87 108 140 181 216 247
#     4   9  17  30  48  68  89 114 145 180 217 257
#     4   9  17  29  45  64  87 116 146 175 212 259
#
# _framework density 20.361851000000001
#
# number of rings (size 3 to 8) (size 9 to 14) (size 15 to 20)
#    0.000    3.182    0.000    1.364    0.000    4.364 
#    0.000    3.182    0.000    9.273    0.000    3.818 
#    0.000    0.000    0.000    0.000    0.000    0.000 
#
# Total GULP energy -245275.500297 kJ/mol
# GULP energy per Si atom -5574.443189 kJ/mol
# Density = 2.031551 g / cm^3
# Si number density = 20.361851 Si / 1000 Ang^3
#
#
#
# Elastic Constant Matrix: (Units=GPa)
#
#
# Indices 1 2 3 4 5 6 
#
# 1 45.8876 0.8981 6.1729 0.0000 0.0000 0.0000
# 2 0.8981 247.2071 125.9709 0.0000 0.0000 0.0000
# 3 6.1729 125.9709 104.3143 0.0000 0.0000 0.0000
# 4 0.0000 0.0000 0.0000 -14.3197 0.0000 0.0000
# 5 0.0000 0.0000 0.0000 0.0000 2.4571 0.0000
# 6 0.0000 0.0000 0.0000 0.0000 0.0000 23.0847
#
#
#
# Elastic Compliance Matrix: (Units=1/GPa)
#
#
# Indices 1 2 3 4 5 6 
#
# 1 0.022188 0.001530 -0.003161 0.000000 0.000000 0.000000
# 2 0.001530 0.010623 -0.012918 0.000000 0.000000 0.000000
# 3 -0.003161 -0.012918 0.025374 0.000000 0.000000 0.000000
# 4 0.000000 0.000000 0.000000 -0.069834 0.000000 0.000000
# 5 0.000000 0.000000 0.000000 0.000000 0.406982 0.000000
# 6 0.000000 0.000000 0.000000 0.000000 0.000000 0.043319
#
#
# Mechanical properties :
#
#
# Convention : Reuss Voigt Hill
#
# Bulk Modulus (GPa) = 34.38084 73.72143 54.05113
# Shear Modulus (GPa) = 10.47243 19.86890 15.17067
#
# Velocity S-wave (km/s) = 2.27031 3.12715 2.73253
# Velocity P-wave (km/s) = 4.87791 7.02304 6.04637
#
# Compressibility (1/GPa) = 0.02908597
#
# Stress axis : x y z
#
# Youngs Moduli (GPa) = 45.07019 94.13924 39.41063
#
# Poissons Ratio (x) = -0.14402 0.12456
# Poissons Ratio (y) = -0.06895 0.50912
# Poissons Ratio (z) = 0.14244 1.21613
#
# Static dielectric constant tensor:
#      x y z
#    x 1.766520 0.000000 0.000000 
#    y 0.000000 1.731350 0.000000 
#    z 0.000000 0.000000 1.689590 
# 
# From -- ./inp_files/2264.got.cif
#   From: 2010.05.17/outbox.cif.g08.bks.cpg/sg47_2_cif.got.tgz:2264.got - 2010.06.03 20:15:42.
