data_PCOD9389226
_publ_section_title
;
Structure prediction by ZEFSAII (Michael W. Deem and Ramdas Pophale) SiO2 
 PCOD9389226
Probable space group: P M M M
;
_chemical_formula_sum "Si O2"
_cell_formula_units_Z 64
_cell_length_a 9.000000
_cell_length_b 15.000000
_cell_length_c 30.000000
_cell_angle_alpha 90.000000
_cell_angle_beta 90.000000
_cell_angle_gamma 90.000000
_cell_volume 4050.000000
_symmetry_space_group_name_H-M "P M M M"
_symmetry_group_IT_number 47
_symmetry_cell_setting 'orthorhombic'
loop_
_space_group_symop_operation_xyz
x,y,z
-x,-y,z
x,-y,-z
-x,y,-z
-x,-y,-z
x,y,-z
-x,y,z
x,-y,z
loop_
_atom_site_type_symbol
_atom_site_label
_atom_site_fract_x
_atom_site_fract_y
_atom_site_fract_z
Si Si1 0.678720 0.100519 0.591788
Si Si2 0.179684 0.770760 0.229812
Si Si3 0.822985 0.103368 0.687265
Si Si4 0.818473 0.895971 0.852900
Si Si5 0.824863 0.107898 0.048348
Si Si6 0.825756 0.606628 0.369086
Si Si7 0.320455 0.284766 0.550371
Si Si8 0.321878 0.395385 0.273219
O O1 0.500000 0.098772 0.593890
O O2 0.740964 0.121644 0.640920
O O3 0.719760 0.181139 0.559265
O O4 0.729065 0.000000 0.579585
O O5 0.219024 0.831538 0.272711
O O6 0.224832 0.827071 0.185900
O O7 0.253386 0.674737 0.238264
O O8 0.000000 0.761265 0.228823
O O9 0.000000 0.112008 0.680054
O O10 0.793535 0.000000 0.699604
O O11 0.766098 0.866856 0.902594
O O12 0.000000 0.897083 0.853768
O O13 0.774382 0.000000 0.844591
O O14 0.000000 0.131718 0.047951
O O15 0.818078 0.000000 0.048429
O O16 0.761664 0.137688 0.000000
O O17 0.813591 0.500000 0.376057
O O18 0.753382 0.657456 0.410664
O O19 0.745034 0.626617 0.322173
O O20 0.000000 0.629834 0.365142
O O21 0.277532 0.310893 0.500000
O O22 0.500000 0.292508 0.553807
O O23 0.500000 0.386984 0.274490
O O24 0.285713 0.500000 0.264090
#
# Coordination Sequence:
#
# PCOD9389226 Si02
#       8
#     8   8   8   8   8   8   8   8
#     4   9  18  32  48  65  86 114 148 181 209 240
#     4  10  18  27  43  66  91 119 148 180 219 260
#     4   9  17  28  42  62  88 116 144 172 205 249
#     4   8  13  21  34  56  89 126 159 188 221 263
#     4   7   9  14  26  46  76 117 160 194 221 253
#     4  10  21  37  56  75  93 113 139 174 216 261
#     4  10  21  35  51  72  96 121 147 175 211 255
#     4  10  21  36  52  68  87 113 144 178 218 264
#
# _framework density 15.802469
#
# number of rings (size 3 to 8) (size 9 to 14) (size 15 to 20)
#    0.000    2.875    0.000    3.000    0.000    6.750 
#    0.000    2.500    0.000    1.125    0.000    2.625 
#    0.000    1.000    0.000    9.375    0.000    3.750 
#
# Total GULP energy -356518.884280 kJ/mol
# GULP energy per Si atom -5570.607567 kJ/mol
# Density = 1.576650 g / cm^3
# Si number density = 15.802469 Si / 1000 Ang^3
#
#
#
# Elastic Constant Matrix: (Units=GPa)
#
#
# Indices 1 2 3 4 5 6 
#
# 1 20.5909 24.5407 23.9440 0.0000 0.0000 0.0000
# 2 24.5407 71.7246 61.8334 0.0000 0.0000 0.0000
# 3 23.9440 61.8334 106.9642 0.0000 0.0000 0.0000
# 4 0.0000 0.0000 0.0000 20.9654 0.0000 0.0000
# 5 0.0000 0.0000 0.0000 0.0000 -0.5662 0.0000
# 6 0.0000 0.0000 0.0000 0.0000 0.0000 21.5011
#
#
#
# Elastic Compliance Matrix: (Units=1/GPa)
#
#
# Indices 1 2 3 4 5 6 
#
# 1 0.082991 -0.024679 -0.004312 0.000000 0.000000 0.000000
# 2 -0.024679 0.035132 -0.014784 0.000000 0.000000 0.000000
# 3 -0.004312 -0.014784 0.018861 0.000000 0.000000 0.000000
# 4 0.000000 0.000000 0.000000 0.047698 0.000000 0.000000
# 5 0.000000 0.000000 0.000000 0.000000 -1.766157 0.000000
# 6 0.000000 0.000000 0.000000 0.000000 0.000000 0.046509
#
#
# Mechanical properties :
#
#
# Convention : Reuss Voigt Hill
#
# Bulk Modulus (GPa) = 20.22891 46.65731 33.44311
# Shear Modulus (GPa) = -3.49421 14.31084 5.40831
#
# Velocity S-wave (km/s) = -1.48862 3.01260 1.85199
# Velocity P-wave (km/s) = 3.14233 6.45681 5.07763
#
# Compressibility (1/GPa) = 0.04943420
#
# Stress axis : x y z
#
# Youngs Moduli (GPa) = 12.04950 28.46448 53.02073
#
# Poissons Ratio (x) = 0.70246 0.22860
# Poissons Ratio (y) = 0.29736 0.78388
# Poissons Ratio (z) = 0.05195 0.42083
#
# Static dielectric constant tensor:
#      x y z
#    x 1.529070 0.000000 0.000000 
#    y 0.000000 1.536410 0.000000 
#    z 0.000000 0.000000 1.539500 
# 
# From -- ./inp_files/34410.got.cif
#   From: 2010.05.17/outbox.ucp.g08.bks.cvg/sg47_18_cif.got.tgz:34410.got - 2010.06.11 16:36:43.
