data_PCOD9389537
_publ_section_title
;
Structure prediction by ZEFSAII (Michael W. Deem and Ramdas Pophale) SiO2 
 PCOD9389537
Probable space group: P N N N
;
_chemical_formula_sum "Si O2"
_cell_formula_units_Z 56
_cell_length_a 8.742840
_cell_length_b 24.134366
_cell_length_c 15.543485
_cell_angle_alpha 90.000000
_cell_angle_beta 90.000000
_cell_angle_gamma 90.000000
_cell_volume 3279.720418
_symmetry_space_group_name_H-M "P N N N"
_symmetry_group_IT_number 48
_space_group.IT_coordinate_system_code '2'
_symmetry_cell_setting 'orthorhombic'
loop_
_space_group_symop_operation_xyz
x,y,z
1/2-x,1/2-y,z
x,1/2-y,1/2-z
1/2-x,y,1/2-z
-x,-y,-z
1/2+x,1/2+y,-z
-x,1/2+y,1/2+z
1/2+x,-y,1/2+z
loop_
_atom_site_type_symbol
_atom_site_label
_atom_site_fract_x
_atom_site_fract_y
_atom_site_fract_z
Si Si1 0.688291 0.586097 0.058750
Si Si2 0.928174 0.485375 0.765095
Si Si3 0.825870 0.420749 0.525439
Si Si4 0.629006 0.135228 0.826658
Si Si5 0.371567 0.475192 0.438094
Si Si6 0.685919 0.808119 0.153704
Si Si7 0.317573 0.527460 0.844712
O O1 0.737217 0.641545 0.104240
O O2 0.734074 0.532085 0.115969
O O3 0.506652 0.585374 0.041681
O O4 0.792788 0.579275 0.973997
O O5 0.750000 0.483886 0.750000
O O6 0.959043 0.421421 0.793766
O O7 0.949555 0.525862 0.845892
O O8 0.011357 0.510643 0.683598
O O9 0.724917 0.379337 0.585800
O O10 0.763329 0.479485 0.559605
O O11 0.803396 0.427737 0.421499
O O12 0.750000 0.148859 0.750000
O O13 0.497065 0.180582 0.843009
O O14 0.500000 0.500000 0.500000
O O15 0.750000 0.750000 0.117888
O O16 0.750000 0.810760 0.250000
O O17 0.250000 0.539930 0.750000
#
# Coordination Sequence:
#
# PCOD9389537 Si02
#       7
#     8   8   8   8   8   8   8
#     4  11  19  33  50  68 104 144 176 216 261 305
#     4  10  17  27  44  71 102 134 168 198 242 303
#     4  10  20  32  48  75 102 138 181 211 252 318
#     4  10  19  35  56  74 101 140 176 212 260 310
#     4  10  18  28  45  70  99 136 175 208 245 304
#     4  11  23  37  52  75 100 129 175 223 262 305
#     4  11  19  28  46  73 108 140 169 204 251 309
#
# _framework density 17.074625999999999
#
# number of rings (size 3 to 8) (size 9 to 14) (size 15 to 20)
#    0.000    1.571    0.000   11.571    0.000    0.000 
#    0.000    5.000    0.000    0.000    0.000    0.000 
#    0.000   17.714    0.000    0.000    0.000    0.000 
#
# Total GULP energy -311820.450349 kJ/mol
# GULP energy per Si atom -5568.222328 kJ/mol
# Density = 1.703576 g / cm^3
# Si number density = 17.074626 Si / 1000 Ang^3
#
#
#
# Elastic Constant Matrix: (Units=GPa)
#
#
# Indices 1 2 3 4 5 6 
#
# 1 112.7356 40.6977 40.4742 0.0000 0.0000 0.0000
# 2 40.6977 65.9881 32.2377 0.0000 0.0000 0.0000
# 3 40.4742 32.2377 108.6701 0.0000 0.0000 0.0000
# 4 0.0000 0.0000 0.0000 15.2050 0.0000 0.0000
# 5 0.0000 0.0000 0.0000 0.0000 35.2143 0.0000
# 6 0.0000 0.0000 0.0000 0.0000 0.0000 16.6588
#
#
#
# Elastic Compliance Matrix: (Units=1/GPa)
#
#
# Indices 1 2 3 4 5 6 
#
# 1 0.012038 -0.006121 -0.002668 0.000000 0.000000 0.000000
# 2 -0.006121 0.020835 -0.003901 0.000000 0.000000 0.000000
# 3 -0.002668 -0.003901 0.011353 0.000000 0.000000 0.000000
# 4 0.000000 0.000000 0.000000 0.065768 0.000000 0.000000
# 5 0.000000 0.000000 0.000000 0.000000 0.028398 0.000000
# 6 0.000000 0.000000 0.000000 0.000000 0.000000 0.060028
#
#
# Mechanical properties :
#
#
# Convention : Reuss Voigt Hill
#
# Bulk Modulus (GPa) = 53.06034 57.13476 55.09755
# Shear Modulus (GPa) = 21.73143 25.01455 23.37299
#
# Velocity S-wave (km/s) = 3.57141 3.83170 3.70384
# Velocity P-wave (km/s) = 6.93899 7.28768 7.11547
#
# Compressibility (1/GPa) = 0.01884647
#
# Stress axis : x y z
#
# Youngs Moduli (GPa) = 83.07230 47.99581 88.08232
#
# Poissons Ratio (x) = 0.29378 0.23497
# Poissons Ratio (y) = 0.50848 0.34362
# Poissons Ratio (z) = 0.22161 0.18724
#
# Static dielectric constant tensor:
#      x y z
#    x 1.730710 0.000000 0.000000 
#    y 0.000000 1.563030 0.000000 
#    z 0.000000 0.000000 1.738260 
# 
# From -- ./inp_files/25616.got.cif
#   From: 2010.05.17/outbox.cif.g08.bks.cpg/sg48_13_cif.got.tgz:25616.got - 2010.06.03 20:39:00.
