data_PCOD9389029
_publ_section_title
;
Structure prediction by ZEFSAII (Michael W. Deem and Ramdas Pophale) SiO2 
 PCOD9389029
Probable space group: P M M M
;
_chemical_formula_sum "Si O2"
_cell_formula_units_Z 40
_cell_length_a 7.390398
_cell_length_b 7.900799
_cell_length_c 29.738612
_cell_angle_alpha 90.000000
_cell_angle_beta 90.000000
_cell_angle_gamma 90.000000
_cell_volume 1736.439016
_symmetry_space_group_name_H-M "P M M M"
_symmetry_group_IT_number 47
_symmetry_cell_setting 'orthorhombic'
loop_
_space_group_symop_operation_xyz
x,y,z
-x,-y,z
x,-y,-z
-x,y,-z
-x,-y,-z
x,y,-z
-x,y,z
x,-y,z
loop_
_atom_site_type_symbol
_atom_site_label
_atom_site_fract_x
_atom_site_fract_y
_atom_site_fract_z
Si Si1 0.293252 0.299314 0.500000
Si Si2 0.221782 0.000000 0.948045
Si Si3 0.706811 0.799349 0.404316
Si Si4 0.718058 0.304534 0.212888
Si Si5 0.708813 0.703564 0.691361
Si Si6 0.213779 0.693909 0.886650
O O1 0.303356 0.500000 0.500000
O O2 0.500000 0.226120 0.500000
O O3 0.209942 0.247814 0.452325
O O4 0.283759 0.168943 0.921984
O O5 0.000000 0.000000 0.946538
O O6 0.274880 0.000000 0.000000
O O7 0.500000 0.726202 0.405192
O O8 0.791498 0.743976 0.357030
O O9 0.696411 0.000000 0.402863
O O10 0.500000 0.305823 0.216110
O O11 0.781590 0.500000 0.210595
O O12 0.783590 0.232061 0.260763
O O13 0.763635 0.234202 0.164069
O O14 0.500000 0.765473 0.688625
O O15 0.705696 0.500000 0.695323
O O16 0.287535 0.500000 0.888899
O O17 0.000000 0.679573 0.894555
#
# Coordination Sequence:
#
# PCOD9389029 Si02
#       6
#     4   4   8   8   8   8
#     4   9  15  21  29  39  53  83 126 163 200 249
#     4   9  18  32  49  71  97 121 149 186 223 260
#     4   9  15  21  28  41  63  88 119 163 208 246
#     4   8  14  26  44  64  87 116 148 181 219 262
#     4   8  13  22  35  49  68  97 131 165 202 248
#     4   9  17  30  49  71  93 119 151 185 222 262
#
# _framework density 23.035648999999999
#
# number of rings (size 3 to 8) (size 9 to 14) (size 15 to 20)
#    0.000    3.400    0.000    2.100    0.000    4.000 
#    1.800    2.500    0.000    1.200    0.000    2.800 
#    0.000    0.000    0.000    0.900    0.000   22.200 
#
# Total GULP energy -222870.365944 kJ/mol
# GULP energy per Si atom -5571.759149 kJ/mol
# Density = 2.298322 g / cm^3
# Si number density = 23.035649 Si / 1000 Ang^3
#
#
#
# Elastic Constant Matrix: (Units=GPa)
#
#
# Indices 1 2 3 4 5 6 
#
# 1 78.9059 4.7592 8.5610 0.0000 0.0000 0.0000
# 2 4.7592 75.7745 78.5082 0.0000 0.0000 0.0000
# 3 8.5610 78.5082 288.9315 0.0000 0.0000 0.0000
# 4 0.0000 0.0000 0.0000 67.2809 0.0000 0.0000
# 5 0.0000 0.0000 0.0000 0.0000 29.5194 0.0000
# 6 0.0000 0.0000 0.0000 0.0000 0.0000 -17.2360
#
#
#
# Elastic Compliance Matrix: (Units=1/GPa)
#
#
# Indices 1 2 3 4 5 6 
#
# 1 0.012732 -0.000569 -0.000223 0.000000 0.000000 0.000000
# 2 -0.000569 0.018394 -0.004981 0.000000 0.000000 0.000000
# 3 -0.000223 -0.004981 0.004821 0.000000 0.000000 0.000000
# 4 0.000000 0.000000 0.000000 0.014863 0.000000 0.000000
# 5 0.000000 0.000000 0.000000 0.000000 0.033876 0.000000
# 6 0.000000 0.000000 0.000000 0.000000 0.000000 -0.058018
#
#
# Mechanical properties :
#
#
# Convention : Reuss Voigt Hill
#
# Bulk Modulus (GPa) = 40.98175 69.69654 55.33914
# Shear Modulus (GPa) = 107.88380 39.36510 73.62445
#
# Velocity S-wave (km/s) = 6.85092 4.13834 5.65955
# Velocity P-wave (km/s) = 8.96712 7.29082 8.17207
#
# Compressibility (1/GPa) = 0.02440111
#
# Stress axis : x y z
#
# Youngs Moduli (GPa) = 78.54348 54.36701 207.42323
#
# Poissons Ratio (x) = 0.03093 0.04618
# Poissons Ratio (y) = 0.04469 1.03318
# Poissons Ratio (z) = 0.01749 0.27080
#
# Static dielectric constant tensor:
#      x y z
#    x 1.980750 0.000000 0.000000 
#    y 0.000000 1.822250 0.000000 
#    z 0.000000 0.000000 1.912370 
# 
# From -- ./inp_files/33103.got.cif
#   From: 2010.05.17/outbox.cif.g08.bks.cpg/sg47_17_cif.got.tgz:33103.got - 2010.06.03 20:15:42.
