data_PCOD9389601
_publ_section_title
;
Structure prediction by ZEFSAII (Michael W. Deem and Ramdas Pophale) SiO2 
 PCOD9389601
Probable space group: P N N N
;
_chemical_formula_sum "Si O2"
_cell_formula_units_Z 42
_cell_length_a 20.119888
_cell_length_b 5.552420
_cell_length_c 15.447856
_cell_angle_alpha 90.000000
_cell_angle_beta 90.000000
_cell_angle_gamma 90.000000
_cell_volume 1725.742844
_symmetry_space_group_name_H-M "P N N N"
_symmetry_group_IT_number 48
_space_group.IT_coordinate_system_code '2'
_symmetry_cell_setting 'orthorhombic'
loop_
_space_group_symop_operation_xyz
x,y,z
1/2-x,1/2-y,z
x,1/2-y,1/2-z
1/2-x,y,1/2-z
-x,-y,-z
1/2+x,1/2+y,-z
-x,1/2+y,1/2+z
1/2+x,-y,1/2+z
loop_
_atom_site_type_symbol
_atom_site_label
_atom_site_fract_x
_atom_site_fract_y
_atom_site_fract_z
Si Si1 0.353390 0.727386 0.475193
Si Si2 0.250000 0.250000 0.750000
Si Si3 0.496042 0.243775 0.912549
Si Si4 0.971527 0.755064 0.884824
Si Si5 0.175374 0.641399 0.663081
Si Si6 0.321409 0.228901 0.392456
O O1 0.425735 0.729622 0.433353
O O2 0.359040 0.786198 0.575742
O O3 0.323445 0.464314 0.455590
O O4 0.319104 0.963865 0.435208
O O5 0.196809 0.371568 0.684523
O O6 0.489964 0.497234 0.864109
O O7 0.487277 0.987859 0.866305
O O8 0.463192 0.256651 0.008301
O O9 0.895545 0.758092 0.850069
O O10 0.250000 0.750000 0.655567
O O11 0.145006 0.750000 0.750000
O O12 0.250000 0.250000 0.345462
#
# Coordination Sequence:
#
# PCOD9389601 Si02
#       6
#     8   2   8   8   8   8
#     4  10  19  26  38  50  65  84 112 143 165 195
#     4   8  18  28  36  42  60  88 110 132 178 210
#     4   8  14  25  36  49  61  82 106 131 162 189
#     4   8  14  24  36  47  66  83 102 129 161 194
#     4   9  18  27  35  46  61  86 108 138 171 204
#     4  10  18  25  35  53  69  86 107 136 167 194
#
# _framework density 24.337344999999999
#
# number of rings (size 3 to 8) (size 9 to 14) (size 15 to 20)
#    0.000    3.238    0.000    1.714    6.667    0.000 
#    0.000    0.000    0.000    0.000    0.000    0.000 
#    0.000    0.000    0.000    0.000    0.000    0.952 
#
# Total GULP energy -233803.440527 kJ/mol
# GULP energy per Si atom -5566.748584 kJ/mol
# Density = 2.428195 g / cm^3
# Si number density = 24.337345 Si / 1000 Ang^3
#
#
#
# Elastic Constant Matrix: (Units=GPa)
#
#
# Indices 1 2 3 4 5 6 
#
# 1 81.4956 8.8107 -6.2959 0.0000 0.0000 0.0000
# 2 8.8107 187.6547 24.3103 0.0000 0.0000 0.0000
# 3 -6.2959 24.3103 60.9261 0.0000 0.0000 0.0000
# 4 0.0000 0.0000 0.0000 -3.3582 0.0000 0.0000
# 5 0.0000 0.0000 0.0000 0.0000 -13.2374 0.0000
# 6 0.0000 0.0000 0.0000 0.0000 0.0000 3.2077
#
#
#
# Elastic Compliance Matrix: (Units=1/GPa)
#
#
# Indices 1 2 3 4 5 6 
#
# 1 0.012481 -0.000794 0.001607 0.000000 0.000000 0.000000
# 2 -0.000794 0.005670 -0.002344 0.000000 0.000000 0.000000
# 3 0.001607 -0.002344 0.017515 0.000000 0.000000 0.000000
# 4 0.000000 0.000000 0.000000 -0.297781 0.000000 0.000000
# 5 0.000000 0.000000 0.000000 0.000000 -0.075543 0.000000
# 6 0.000000 0.000000 0.000000 0.000000 0.000000 0.311754
#
#
# Mechanical properties :
#
#
# Convention : Reuss Voigt Hill
#
# Bulk Modulus (GPa) = 30.67360 42.63628 36.65494
# Shear Modulus (GPa) = -417.54722 17.53917 -200.00402
#
# Velocity S-wave (km/s) = -13.11255 2.68744 -9.07515
# Velocity P-wave (km/s) = 14.71805 5.21409 9.73227
#
# Compressibility (1/GPa) = 0.03260132
#
# Stress axis : x y z
#
# Youngs Moduli (GPa) = 80.12459 176.36875 57.09460
#
# Poissons Ratio (x) = 0.14006 -0.09173
# Poissons Ratio (y) = 0.06363 0.13385
# Poissons Ratio (z) = -0.12872 0.41348
#
# Static dielectric constant tensor:
#      x y z
#    x 1.957050 0.000000 0.000000 
#    y 0.000000 2.063890 0.000000 
#    z 0.000000 0.000000 1.995070 
# 
# From -- ./inp_files/5287.got.cif
#   From: 2010.05.17/outbox.cif.g08.bks.cpg/sg48_3_cif.got.tgz:5287.got - 2010.06.03 20:39:00.
