data_PCOD9389649
_publ_section_title
;
Structure prediction by ZEFSAII (Michael W. Deem and Ramdas Pophale) SiO2 
 PCOD9389649
Probable space group: P N N N
;
_chemical_formula_sum "Si O2"
_cell_formula_units_Z 36
_cell_length_a 10.877923
_cell_length_b 17.922181
_cell_length_c 8.677820
_cell_angle_alpha 90.000000
_cell_angle_beta 90.000000
_cell_angle_gamma 90.000000
_cell_volume 1691.793986
_symmetry_space_group_name_H-M "P N N N"
_symmetry_group_IT_number 48
_space_group.IT_coordinate_system_code '2'
_symmetry_cell_setting 'orthorhombic'
loop_
_space_group_symop_operation_xyz
x,y,z
1/2-x,1/2-y,z
x,1/2-y,1/2-z
1/2-x,y,1/2-z
-x,-y,-z
1/2+x,1/2+y,-z
-x,1/2+y,1/2+z
1/2+x,-y,1/2+z
loop_
_atom_site_type_symbol
_atom_site_label
_atom_site_fract_x
_atom_site_fract_y
_atom_site_fract_z
Si Si1 0.331233 0.487373 0.042164
Si Si2 0.433345 0.039552 0.140800
Si Si3 0.584967 0.830481 0.498875
Si Si4 0.370103 0.869683 0.666161
Si Si5 0.750000 0.750000 0.750000
Si Si6 0.250000 0.250000 0.750000
O O1 0.201077 0.445133 0.069596
O O2 0.390450 0.507047 0.208117
O O3 0.412699 0.419730 0.979554
O O4 0.324011 0.556833 0.928409
O O5 0.526244 0.101479 0.210363
O O6 0.500000 0.000000 0.000000
O O7 0.443838 0.815944 0.548644
O O8 0.664887 0.800821 0.642636
O O9 0.656069 0.796657 0.355084
O O10 0.250000 0.839202 0.750000
#
# Coordination Sequence:
#
# PCOD9389649 Si02
#       6
#     8   8   8   8   2   2
#     4  10  21  34  56  90 124 150 197 255 315 374
#     4  10  18  31  50  81 125 159 188 229 302 381
#     4  10  21  38  60  89 115 160 212 259 307 362
#     4  11  21  36  59  95 127 160 193 255 328 383
#     4  10  20  42  62  82 112 162 224 254 288 358
#     4  10  24  38  64  90 122 166 220 270 300 358
#
# _framework density 21.279187
#
# number of rings (size 3 to 8) (size 9 to 14) (size 15 to 20)
#    0.000    1.778    2.222    5.333    1.556    1.778 
#    0.000    0.556    0.000    0.000    5.778    1.556 
#    0.000    0.000    0.000    0.000    0.000    0.000 
#
# Total GULP energy -200489.391038 kJ/mol
# GULP energy per Si atom -5569.149751 kJ/mol
# Density = 2.123075 g / cm^3
# Si number density = 21.279187 Si / 1000 Ang^3
#
#
#
# Elastic Constant Matrix: (Units=GPa)
#
#
# Indices 1 2 3 4 5 6 
#
# 1 165.7628 13.9293 48.8953 0.0000 0.0000 0.0000
# 2 13.9293 48.0150 33.8589 0.0000 0.0000 0.0000
# 3 48.8953 33.8589 102.9997 0.0000 0.0000 0.0000
# 4 0.0000 0.0000 0.0000 10.1601 0.0000 0.0000
# 5 0.0000 0.0000 0.0000 0.0000 44.6614 0.0000
# 6 0.0000 0.0000 0.0000 0.0000 0.0000 23.0962
#
#
#
# Elastic Compliance Matrix: (Units=1/GPa)
#
#
# Indices 1 2 3 4 5 6 
#
# 1 0.007021 0.000408 -0.003467 0.000000 0.000000 0.000000
# 2 0.000408 0.027135 -0.009114 0.000000 0.000000 0.000000
# 3 -0.003467 -0.009114 0.014351 0.000000 0.000000 0.000000
# 4 0.000000 0.000000 0.000000 0.098424 0.000000 0.000000
# 5 0.000000 0.000000 0.000000 0.000000 0.022391 0.000000
# 6 0.000000 0.000000 0.000000 0.000000 0.000000 0.043297
#
#
# Mechanical properties :
#
#
# Convention : Reuss Voigt Hill
#
# Bulk Modulus (GPa) = 41.38867 56.68272 49.03569
# Shear Modulus (GPa) = 20.40660 30.25648 25.33154
#
# Velocity S-wave (km/s) = 3.10012 3.77488 3.45401
# Velocity P-wave (km/s) = 5.68391 6.75981 6.24507
#
# Compressibility (1/GPa) = 0.02416120
#
# Stress axis : x y z
#
# Youngs Moduli (GPa) = 142.42694 36.85239 69.68310
#
# Poissons Ratio (x) = -0.01504 0.24160
# Poissons Ratio (y) = -0.05813 0.63508
# Poissons Ratio (z) = 0.49382 0.33587
#
# Static dielectric constant tensor:
#      x y z
#    x 1.897530 0.000000 0.000000 
#    y 0.000000 1.812660 0.000000 
#    z 0.000000 0.000000 1.822110 
# 
# From -- ./inp_files/10949.got.cif
#   From: 2010.05.17/outbox.cif.g08.bks.cpg/sg48_6_cif.got.tgz:10949.got - 2010.06.03 20:39:00.
