data_PCOD9389060
_publ_section_title
;
Structure prediction by ZEFSAII (Michael W. Deem and Ramdas Pophale) SiO2 
 PCOD9389060
Probable space group: P M M M
;
_chemical_formula_sum "Si O2"
_cell_formula_units_Z 48
_cell_length_a 14.171642
_cell_length_b 7.661201
_cell_length_c 25.084127
_cell_angle_alpha 90.000000
_cell_angle_beta 90.000000
_cell_angle_gamma 90.000000
_cell_volume 2723.428766
_symmetry_space_group_name_H-M "P M M M"
_symmetry_group_IT_number 47
_symmetry_cell_setting 'orthorhombic'
loop_
_space_group_symop_operation_xyz
x,y,z
-x,-y,z
x,-y,-z
-x,y,-z
-x,-y,-z
x,y,-z
-x,y,z
x,-y,z
loop_
_atom_site_type_symbol
_atom_site_label
_atom_site_fract_x
_atom_site_fract_y
_atom_site_fract_z
Si Si1 0.603923 0.292614 0.668038
Si Si2 0.109735 0.209886 0.057388
Si Si3 0.701748 0.788472 0.559515
Si Si4 0.895620 0.208496 0.389290
Si Si5 0.204184 0.288666 0.719583
Si Si6 0.892229 0.291814 0.173469
O O1 0.500000 0.219716 0.679109
O O2 0.600488 0.500000 0.677949
O O3 0.631656 0.267646 0.606223
O O4 0.692571 0.222474 0.701843
O O5 0.150053 0.261518 0.114627
O O6 0.000000 0.269346 0.058370
O O7 0.109182 0.000000 0.056482
O O8 0.149925 0.269379 0.000000
O O9 0.677396 0.730376 0.500000
O O10 0.806935 0.726211 0.576200
O O11 0.702982 0.000000 0.559859
O O12 0.867671 0.241223 0.327830
O O13 0.000000 0.278761 0.401167
O O14 0.898842 0.000000 0.397413
O O15 0.208482 0.500000 0.720955
O O16 0.167548 0.224744 0.776622
O O17 0.898800 0.500000 0.180016
O O18 0.000000 0.221493 0.174816
#
# Coordination Sequence:
#
# PCOD9389060 Si02
#       6
#     8   8   8   8   8   8
#     4   9  18  32  48  63  79 102 131 164 204 246
#     4   8  14  24  36  51  75 108 141 167 190 218
#     4   9  18  31  45  62  83 105 130 161 198 240
#     4   9  17  28  42  60  81 106 135 164 194 231
#     4   9  17  29  43  59  81 106 133 166 202 241
#     4   9  16  24  36  56  80 106 134 161 191 228
#
# _framework density 17.624842000000001
#
# number of rings (size 3 to 8) (size 9 to 14) (size 15 to 20)
#    0.000    3.167    0.000    1.000    0.000    3.333 
#    0.000    6.667    0.000    0.000    0.000    4.667 
#    0.000    0.667    0.000    8.333    0.000    1.667 
#
# Total GULP energy -267324.153234 kJ/mol
# GULP energy per Si atom -5569.253192 kJ/mol
# Density = 1.758473 g / cm^3
# Si number density = 17.624842 Si / 1000 Ang^3
#
#
#
# Elastic Constant Matrix: (Units=GPa)
#
#
# Indices 1 2 3 4 5 6 
#
# 1 66.6611 1.9070 12.4242 0.0000 0.0000 0.0000
# 2 1.9070 30.1490 -5.3700 0.0000 0.0000 0.0000
# 3 12.4242 -5.3700 100.8415 0.0000 0.0000 0.0000
# 4 0.0000 0.0000 0.0000 19.7690 0.0000 0.0000
# 5 0.0000 0.0000 0.0000 0.0000 8.8196 0.0000
# 6 0.0000 0.0000 0.0000 0.0000 0.0000 9.6669
#
#
#
# Elastic Compliance Matrix: (Units=1/GPa)
#
#
# Indices 1 2 3 4 5 6 
#
# 1 0.015406 -0.001325 -0.001969 0.000000 0.000000 0.000000
# 2 -0.001325 0.033600 0.001953 0.000000 0.000000 0.000000
# 3 -0.001969 0.001953 0.010263 0.000000 0.000000 0.000000
# 4 0.000000 0.000000 0.000000 0.050584 0.000000 0.000000
# 5 0.000000 0.000000 0.000000 0.000000 0.113384 0.000000
# 6 0.000000 0.000000 0.000000 0.000000 0.000000 0.103446
#
#
# Mechanical properties :
#
#
# Convention : Reuss Voigt Hill
#
# Bulk Modulus (GPa) = 17.67196 23.95265 20.81231
# Shear Modulus (GPa) = 14.35838 20.23044 17.29441
#
# Velocity S-wave (km/s) = 2.85733 3.39165 3.13589
# Velocity P-wave (km/s) = 4.57540 5.38122 4.99459
#
# Compressibility (1/GPa) = 0.05658682
#
# Stress axis : x y z
#
# Youngs Moduli (GPa) = 64.90941 29.76175 97.43666
#
# Poissons Ratio (x) = 0.03944 0.19182
# Poissons Ratio (y) = 0.08601 -0.19025
# Poissons Ratio (z) = 0.12779 -0.05811
#
# Static dielectric constant tensor:
#      x y z
#    x 1.605910 0.000000 0.000000 
#    y 0.000000 1.659660 0.000000 
#    z 0.000000 0.000000 1.622760 
# 
# From -- ./inp_files/7469.got.cif
#   From: 2010.05.17/outbox.cif.g08.bks.cpg/sg47_4_cif.got.tgz:7469.got - 2010.06.03 20:15:42.
