data_PCOD9389058
_publ_section_title
;
Structure prediction by ZEFSAII (Michael W. Deem and Ramdas Pophale) SiO2 
 PCOD9389058
Probable space group: P M M M
;
_chemical_formula_sum "Si O2"
_cell_formula_units_Z 52
_cell_length_a 22.443392
_cell_length_b 7.473323
_cell_length_c 13.298636
_cell_angle_alpha 90.000000
_cell_angle_beta 90.000000
_cell_angle_gamma 90.000000
_cell_volume 2230.536565
_symmetry_space_group_name_H-M "P M M M"
_symmetry_group_IT_number 47
_symmetry_cell_setting 'orthorhombic'
loop_
_space_group_symop_operation_xyz
x,y,z
-x,-y,z
x,-y,-z
-x,y,-z
-x,-y,-z
x,y,-z
-x,y,z
x,-y,z
loop_
_atom_site_type_symbol
_atom_site_label
_atom_site_fract_x
_atom_site_fract_y
_atom_site_fract_z
Si Si1 0.428723 0.796083 0.391276
Si Si2 0.566327 0.703941 0.164381
Si Si3 0.255443 0.216195 0.611628
Si Si4 0.126851 0.205965 0.320261
Si Si5 0.000000 0.208713 0.619862
Si Si6 0.692543 0.288478 0.173956
Si Si7 0.822332 0.717091 0.889381
O O1 0.408182 0.723713 0.500000
O O2 0.500000 0.810315 0.399980
O O3 0.423571 0.698484 0.285401
O O4 0.404923 0.000000 0.381293
O O5 0.500000 0.783444 0.145821
O O6 0.563570 0.500000 0.127082
O O7 0.629739 0.787631 0.133847
O O8 0.273656 0.273025 0.500000
O O9 0.187853 0.282198 0.632775
O O10 0.296312 0.269399 0.705688
O O11 0.253959 0.000000 0.613284
O O12 0.062984 0.288096 0.345114
O O13 0.138671 0.211298 0.201551
O O14 0.124478 0.000000 0.356726
O O15 0.000000 0.210535 0.500000
O O16 0.000000 0.000000 0.655078
O O17 0.689788 0.500000 0.152349
O O18 0.754013 0.220556 0.126556
O O19 0.822035 0.500000 0.881860
O O20 0.843086 0.767204 0.000000
#
# Coordination Sequence:
#
# PCOD9389058 Si02
#       7
#     8   8   8   8   4   8   8
#     4   8  14  24  36  50  71 102 139 174 206 247
#     4   9  17  28  41  57  79 107 137 175 227 282
#     4   9  17  29  45  66  93 123 155 192 230 267
#     4   9  17  30  50  76 102 128 161 197 230 269
#     4   9  16  28  50  79 110 142 169 191 222 267
#     4   9  18  31  46  65  87 113 150 192 233 283
#     4   9  18  34  54  71  90 121 159 199 243 285
#
# _framework density 23.312777000000001
#
# number of rings (size 3 to 8) (size 9 to 14) (size 15 to 20)
#    0.000    3.154    0.000    0.923    0.000    4.000 
#    0.000    5.385    0.000    4.615    0.000    3.231 
#    0.000    0.000    0.000   11.538    0.000   12.000 
#
# Total GULP energy -289888.528051 kJ/mol
# GULP energy per Si atom -5574.779386 kJ/mol
# Density = 2.325972 g / cm^3
# Si number density = 23.312777 Si / 1000 Ang^3
#
#
#
# Elastic Constant Matrix: (Units=GPa)
#
#
# Indices 1 2 3 4 5 6 
#
# 1 199.8777 3.6214 12.2740 0.0000 0.0000 0.0000
# 2 3.6214 69.1347 -7.6054 0.0000 0.0000 0.0000
# 3 12.2740 -7.6054 62.1053 0.0000 0.0000 0.0000
# 4 0.0000 0.0000 0.0000 8.6797 0.0000 0.0000
# 5 0.0000 0.0000 0.0000 0.0000 -13.7698 0.0000
# 6 0.0000 0.0000 0.0000 0.0000 0.0000 0.0583
#
#
#
# Elastic Compliance Matrix: (Units=1/GPa)
#
#
# Indices 1 2 3 4 5 6 
#
# 1 0.005074 -0.000381 -0.001050 0.000000 0.000000 0.000000
# 2 -0.000381 0.014691 0.001874 0.000000 0.000000 0.000000
# 3 -0.001050 0.001874 0.016539 0.000000 0.000000 0.000000
# 4 0.000000 0.000000 0.000000 0.115211 0.000000 0.000000
# 5 0.000000 0.000000 0.000000 0.000000 -0.072623 0.000000
# 6 0.000000 0.000000 0.000000 0.000000 0.000000 17.146195
#
#
# Mechanical properties :
#
#
# Convention : Reuss Voigt Hill
#
# Bulk Modulus (GPa) = 26.88833 38.63306 32.76070
# Shear Modulus (GPa) = 0.29008 20.51549 10.40279
#
# Velocity S-wave (km/s) = 0.35313 2.96972 2.11470
# Velocity P-wave (km/s) = 3.42418 5.32603 4.47725
#
# Compressibility (1/GPa) = 0.03719086
#
# Stress axis : x y z
#
# Youngs Moduli (GPa) = 197.06693 68.07037 60.46439
#
# Poissons Ratio (x) = 0.02595 0.06346
# Poissons Ratio (y) = 0.07514 -0.11333
# Poissons Ratio (z) = 0.20683 -0.12759
#
# Static dielectric constant tensor:
#      x y z
#    x 1.922840 0.000000 0.000000 
#    y 0.000000 1.927630 0.000000 
#    z 0.000000 0.000000 1.947240 
# 
# From -- ./inp_files/25025.got.cif
#   From: 2010.05.17/outbox.cif.g08.bks.cpg/sg47_13_cif.got.tgz:25025.got - 2010.06.03 20:15:42.
