data_PCOD9389212
_publ_section_title
;
Structure prediction by ZEFSAII (Michael W. Deem and Ramdas Pophale) SiO2 
 PCOD9389212
Probable space group: P M M M
;
_chemical_formula_sum "Si O2"
_cell_formula_units_Z 40
_cell_length_a 9.587874
_cell_length_b 28.632741
_cell_length_c 7.466600
_cell_angle_alpha 90.000000
_cell_angle_beta 90.000000
_cell_angle_gamma 90.000000
_cell_volume 2049.784142
_symmetry_space_group_name_H-M "P M M M"
_symmetry_group_IT_number 47
_symmetry_cell_setting 'orthorhombic'
loop_
_space_group_symop_operation_xyz
x,y,z
-x,-y,z
x,-y,-z
-x,y,-z
-x,-y,-z
x,y,-z
-x,y,z
x,-y,z
loop_
_atom_site_type_symbol
_atom_site_label
_atom_site_fract_x
_atom_site_fract_y
_atom_site_fract_z
Si Si1 0.665303 0.371152 0.787601
Si Si2 0.839981 0.279884 0.218665
Si Si3 0.341175 0.912559 0.285714
Si Si4 0.330947 0.552904 0.500000
Si Si5 0.159940 0.000000 0.280455
Si Si6 0.341012 0.192762 0.785807
O O1 0.500000 0.362148 0.757530
O O2 0.753834 0.326040 0.731671
O O3 0.707026 0.416282 0.672962
O O4 0.684257 0.378763 0.000000
O O5 0.759487 0.233496 0.280883
O O6 0.000000 0.281334 0.277939
O O7 0.841034 0.278939 0.000000
O O8 0.348531 0.917532 0.500000
O O9 0.500000 0.916817 0.216131
O O10 0.241994 0.953741 0.220574
O O11 0.291534 0.859952 0.249151
O O12 0.277149 0.500000 0.500000
O O13 0.500000 0.550150 0.500000
O O14 0.159960 0.000000 0.500000
O O15 0.000000 0.000000 0.223131
O O16 0.500000 0.196947 0.716180
O O17 0.348602 0.198177 0.000000
#
# Coordination Sequence:
#
# PCOD9389212 Si02
#       6
#     8   8   8   4   4   8
#     4   9  17  31  52  75 100 134 172 208 250 300
#     4   9  17  30  49  71  96 128 163 198 239 290
#     4   9  17  30  47  66  87 114 151 192 233 281
#     4   9  18  32  51  79 109 133 167 216 259 294
#     4   9  17  29  46  65  86 116 152 191 234 280
#     4   9  17  30  48  69  94 123 154 192 240 291
#
# _framework density 19.514250000000001
#
# number of rings (size 3 to 8) (size 9 to 14) (size 15 to 20)
#    0.000    3.000    0.000    0.900    0.000    4.800 
#    1.800    3.000    0.000    4.200    0.000    2.800 
#    0.000    0.000    0.000    0.000    0.000    0.000 
#
# Total GULP energy -223166.419931 kJ/mol
# GULP energy per Si atom -5579.160498 kJ/mol
# Density = 1.946983 g / cm^3
# Si number density = 19.514250 Si / 1000 Ang^3
#
#
#
# Elastic Constant Matrix: (Units=GPa)
#
#
# Indices 1 2 3 4 5 6 
#
# 1 98.7596 115.8289 27.4235 0.0000 0.0000 0.0000
# 2 115.8289 231.9634 36.3666 0.0000 0.0000 0.0000
# 3 27.4235 36.3666 62.6157 0.0000 0.0000 0.0000
# 4 0.0000 0.0000 0.0000 24.2331 0.0000 0.0000
# 5 0.0000 0.0000 0.0000 0.0000 3.4697 0.0000
# 6 0.0000 0.0000 0.0000 0.0000 0.0000 -15.9562
#
#
#
# Elastic Compliance Matrix: (Units=1/GPa)
#
#
# Indices 1 2 3 4 5 6 
#
# 1 0.025372 -0.012022 -0.004130 0.000000 0.000000 0.000000
# 2 -0.012022 0.010439 -0.000798 0.000000 0.000000 0.000000
# 3 -0.004130 -0.000798 0.018243 0.000000 0.000000 0.000000
# 4 0.000000 0.000000 0.000000 0.041266 0.000000 0.000000
# 5 0.000000 0.000000 0.000000 0.000000 0.288207 0.000000
# 6 0.000000 0.000000 0.000000 0.000000 0.000000 -0.062672
#
#
# Mechanical properties :
#
#
# Convention : Reuss Voigt Hill
#
# Bulk Modulus (GPa) = 49.61637 83.61963 66.61800
# Shear Modulus (GPa) = 13.83233 16.59730 15.21482
#
# Velocity S-wave (km/s) = 2.66528 2.91954 2.79530
# Velocity P-wave (km/s) = 5.91207 7.36943 6.68061
#
# Compressibility (1/GPa) = 0.02015464
#
# Stress axis : x y z
#
# Youngs Moduli (GPa) = 39.41347 95.79369 54.81697
#
# Poissons Ratio (x) = 1.15162 0.22639
# Poissons Ratio (y) = 0.47382 0.04373
# Poissons Ratio (z) = 0.16277 0.07642
#
# Static dielectric constant tensor:
#      x y z
#    x 1.658180 0.000000 0.000000 
#    y 0.000000 1.653330 0.000000 
#    z 0.000000 0.000000 1.730120 
# 
# From -- ./inp_files/1816.got.cif
#   From: 2010.05.17/outbox.cif.g08.bks.cpg/sg47_1_cif.got.tgz:1816.got - 2010.06.03 20:15:42.
