data_PCOD9389815
_publ_section_title
;
Structure prediction by ZEFSAII (Michael W. Deem and Ramdas Pophale) SiO2 
 PCOD9389815
Probable space group: P N N N
;
_chemical_formula_sum "Si O2"
_cell_formula_units_Z 32
_cell_length_a 10.443563
_cell_length_b 7.172719
_cell_length_c 17.975267
_cell_angle_alpha 90.000000
_cell_angle_beta 90.000000
_cell_angle_gamma 90.000000
_cell_volume 1346.504652
_symmetry_space_group_name_H-M "P N N N"
_symmetry_group_IT_number 48
_space_group.IT_coordinate_system_code '2'
_symmetry_cell_setting 'orthorhombic'
loop_
_space_group_symop_operation_xyz
x,y,z
1/2-x,1/2-y,z
x,1/2-y,1/2-z
1/2-x,y,1/2-z
-x,-y,-z
1/2+x,1/2+y,-z
-x,1/2+y,1/2+z
1/2+x,-y,1/2+z
loop_
_atom_site_type_symbol
_atom_site_label
_atom_site_fract_x
_atom_site_fract_y
_atom_site_fract_z
Si Si1 0.101083 0.974903 0.240292
Si Si2 0.115790 0.857400 0.089048
Si Si3 0.508612 0.960562 0.896544
Si Si4 0.216475 0.442848 0.980894
O O1 0.085633 0.750000 0.250000
O O2 0.250000 0.023177 0.250000
O O3 0.072347 0.999705 0.153170
O O4 0.026994 0.066947 0.308878
O O5 0.250000 0.750000 0.112617
O O6 0.020755 0.684787 0.087057
O O7 0.158082 0.959239 0.014382
O O8 0.627250 0.890953 0.946742
O O9 0.370138 0.921569 0.930731
O O10 0.250000 0.250000 0.942076
#
# Coordination Sequence:
#
# PCOD9389815 Si02
#       4
#     8   8   8   8
#     4   9  11  24  48  69  84 116 163 200 233 272
#     4   9  15  28  49  67  93 126 161 201 238 284
#     4   9  18  30  47  69  97 128 157 203 245 279
#     4  10  19  29  43  71 103 127 154 195 249 298
#
# _framework density 23.765236000000002
#
# number of rings (size 3 to 8) (size 9 to 14) (size 15 to 20)
#    0.000    2.750    7.500    0.000    0.000    1.000 
#    0.000    2.500    0.000    6.750    0.000    0.000 
#    0.000   16.000    0.000    0.000    0.000    0.000 
#
# Total GULP energy -178398.805020 kJ/mol
# GULP energy per Si atom -5574.962657 kJ/mol
# Density = 2.371114 g / cm^3
# Si number density = 23.765236 Si / 1000 Ang^3
#
#
#
# Elastic Constant Matrix: (Units=GPa)
#
#
# Indices 1 2 3 4 5 6 
#
# 1 66.2146 8.5445 20.7303 0.0000 0.0000 0.0000
# 2 8.5445 60.2837 5.0354 0.0000 0.0000 0.0000
# 3 20.7303 5.0354 91.4104 0.0000 0.0000 0.0000
# 4 0.0000 0.0000 0.0000 15.4771 0.0000 0.0000
# 5 0.0000 0.0000 0.0000 0.0000 28.1464 0.0000
# 6 0.0000 0.0000 0.0000 0.0000 0.0000 15.8872
#
#
#
# Elastic Compliance Matrix: (Units=1/GPa)
#
#
# Indices 1 2 3 4 5 6 
#
# 1 0.016502 -0.002036 -0.003630 0.000000 0.000000 0.000000
# 2 -0.002036 0.016916 -0.000470 0.000000 0.000000 0.000000
# 3 -0.003630 -0.000470 0.011789 0.000000 0.000000 0.000000
# 4 0.000000 0.000000 0.000000 0.064612 0.000000 0.000000
# 5 0.000000 0.000000 0.000000 0.000000 0.035529 0.000000
# 6 0.000000 0.000000 0.000000 0.000000 0.000000 0.062944
#
#
# Mechanical properties :
#
#
# Convention : Reuss Voigt Hill
#
# Bulk Modulus (GPa) = 30.36334 31.83658 31.09996
# Shear Modulus (GPa) = 21.59446 24.14201 22.86824
#
# Velocity S-wave (km/s) = 3.01766 3.19070 3.10539
# Velocity P-wave (km/s) = 4.99458 5.19610 5.09634
#
# Compressibility (1/GPa) = 0.03293446
#
# Stress axis : x y z
#
# Youngs Moduli (GPa) = 60.60006 59.11547 84.82602
#
# Poissons Ratio (x) = 0.12034 0.30793
# Poissons Ratio (y) = 0.12336 0.03988
# Poissons Ratio (z) = 0.21999 0.02779
#
# Static dielectric constant tensor:
#      x y z
#    x 1.918950 0.000000 0.000000 
#    y 0.000000 2.028210 0.000000 
#    z 0.000000 0.000000 2.025300 
# 
# From -- ./inp_files/10542.got.cif
#   From: 2010.05.17/outbox.cif.g08.bks.cpg/sg48_6_cif.got.tgz:10542.got - 2010.06.03 20:39:00.
