data_PCOD9389785
_publ_section_title
;
Structure prediction by ZEFSAII (Michael W. Deem and Ramdas Pophale) SiO2 
 PCOD9389785
Probable space group: P N N N
;
_chemical_formula_sum "Si O2"
_cell_formula_units_Z 56
_cell_length_a 8.887565
_cell_length_b 14.644170
_cell_length_c 21.799929
_cell_angle_alpha 90.000000
_cell_angle_beta 90.000000
_cell_angle_gamma 90.000000
_cell_volume 2837.282837
_symmetry_space_group_name_H-M "P N N N"
_symmetry_group_IT_number 48
_space_group.IT_coordinate_system_code '2'
_symmetry_cell_setting 'orthorhombic'
loop_
_space_group_symop_operation_xyz
x,y,z
1/2-x,1/2-y,z
x,1/2-y,1/2-z
1/2-x,y,1/2-z
-x,-y,-z
1/2+x,1/2+y,-z
-x,1/2+y,1/2+z
1/2+x,-y,1/2+z
loop_
_atom_site_type_symbol
_atom_site_label
_atom_site_fract_x
_atom_site_fract_y
_atom_site_fract_z
Si Si1 0.250000 0.982040 0.250000
Si Si2 0.858456 0.837441 0.414140
Si Si3 0.334319 0.838033 0.149280
Si Si4 0.210872 0.962613 0.052976
Si Si5 0.046255 0.385651 0.048292
Si Si6 0.271467 0.540993 0.914799
Si Si7 0.051314 0.084573 0.157385
Si Si8 0.250000 0.250000 0.127491
O O1 0.317367 0.920431 0.196338
O O2 0.113742 0.037261 0.218699
O O3 0.750000 0.750000 0.414647
O O4 0.940699 0.846485 0.479951
O O5 0.991701 0.823882 0.365711
O O6 0.769925 0.933674 0.404525
O O7 0.250000 0.750000 0.174143
O O8 0.244147 0.868823 0.087885
O O9 0.368780 0.016922 0.047544
O O10 0.116017 0.025267 0.099483
O O11 0.155229 0.952248 0.983392
O O12 0.146594 0.317719 0.088184
O O13 0.882763 0.402509 0.076215
O O14 0.376070 0.580487 0.860788
O O15 0.130859 0.183108 0.159762
#
# Coordination Sequence:
#
# PCOD9389785 Si02
#       8
#     4   8   8   8   8   8   8   4
#     4  10  25  47  64  80 118 174 236 271 333 374
#     4  11  22  36  61  99 138 171 209 257 322 400
#     4  11  22  39  64  87 125 172 219 268 314 387
#     4   9  18  36  58  89 130 170 200 242 326 399
#     4  10  18  37  60  94 143 169 193 256 332 404
#     4  11  20  37  63  96 134 169 205 258 334 393
#     4  10  23  39  65  88 119 168 218 272 319 393
#     4  10  22  39  64  96 126 162 209 262 336 404
#
# _framework density 19.737193999999999
#
# number of rings (size 3 to 8) (size 9 to 14) (size 15 to 20)
#    0.000    1.714    3.571    1.500    4.000    2.000 
#    0.000    0.714    0.000    0.000    3.714    0.000 
#    0.000    0.000    0.000    0.000    0.000    0.000 
#
# Total GULP energy -312341.756087 kJ/mol
# GULP energy per Si atom -5577.531359 kJ/mol
# Density = 1.969227 g / cm^3
# Si number density = 19.737194 Si / 1000 Ang^3
#
#
#
# Elastic Constant Matrix: (Units=GPa)
#
#
# Indices 1 2 3 4 5 6 
#
# 1 115.0518 45.6469 39.3834 0.0000 0.0000 0.0000
# 2 45.6469 108.2027 32.5295 0.0000 0.0000 0.0000
# 3 39.3834 32.5295 68.2024 0.0000 0.0000 0.0000
# 4 0.0000 0.0000 0.0000 24.2597 0.0000 0.0000
# 5 0.0000 0.0000 0.0000 0.0000 15.4310 0.0000
# 6 0.0000 0.0000 0.0000 0.0000 0.0000 23.1406
#
#
#
# Elastic Compliance Matrix: (Units=1/GPa)
#
#
# Indices 1 2 3 4 5 6 
#
# 1 0.011831 -0.003429 -0.005196 0.000000 0.000000 0.000000
# 2 -0.003429 0.011783 -0.003640 0.000000 0.000000 0.000000
# 3 -0.005196 -0.003640 0.019399 0.000000 0.000000 0.000000
# 4 0.000000 0.000000 0.000000 0.041221 0.000000 0.000000
# 5 0.000000 0.000000 0.000000 0.000000 0.064805 0.000000
# 6 0.000000 0.000000 0.000000 0.000000 0.000000 0.043214
#
#
# Mechanical properties :
#
#
# Convention : Reuss Voigt Hill
#
# Bulk Modulus (GPa) = 54.10535 58.50850 56.30692
# Shear Modulus (GPa) = 22.42729 24.15940 23.29335
#
# Velocity S-wave (km/s) = 3.37456 3.50244 3.43909
# Velocity P-wave (km/s) = 6.53115 6.78707 6.66034
#
# Compressibility (1/GPa) = 0.01848246
#
# Stress axis : x y z
#
# Youngs Moduli (GPa) = 84.52451 84.87041 51.54937
#
# Poissons Ratio (x) = 0.29101 0.26787
# Poissons Ratio (y) = 0.28982 0.18763
# Poissons Ratio (z) = 0.43922 0.30891
#
# Static dielectric constant tensor:
#      x y z
#    x 1.734860 0.000000 0.000000 
#    y 0.000000 1.701690 0.000000 
#    z 0.000000 0.000000 1.702120 
# 
# From -- ./inp_files/33619.got.cif
#   From: 2010.05.17/outbox.cif.g08.bks.cpg/sg48_17_cif.got.tgz:33619.got - 2010.06.03 20:39:00.
