data_PCOD9389605
_publ_section_title
;
Structure prediction by ZEFSAII (Michael W. Deem and Ramdas Pophale) SiO2 
 PCOD9389605
Probable space group: P N N N
;
_chemical_formula_sum "Si O2"
_cell_formula_units_Z 44
_cell_length_a 9.341905
_cell_length_b 8.839782
_cell_length_c 28.229151
_cell_angle_alpha 90.000000
_cell_angle_beta 90.000000
_cell_angle_gamma 90.000000
_cell_volume 2331.174685
_symmetry_space_group_name_H-M "P N N N"
_symmetry_group_IT_number 48
_space_group.IT_coordinate_system_code '2'
_symmetry_cell_setting 'orthorhombic'
loop_
_space_group_symop_operation_xyz
x,y,z
1/2-x,1/2-y,z
x,1/2-y,1/2-z
1/2-x,y,1/2-z
-x,-y,-z
1/2+x,1/2+y,-z
-x,1/2+y,1/2+z
1/2+x,-y,1/2+z
loop_
_atom_site_type_symbol
_atom_site_label
_atom_site_fract_x
_atom_site_fract_y
_atom_site_fract_z
Si Si1 0.750000 0.750000 0.666296
Si Si2 0.413914 0.554856 0.435177
Si Si3 0.424318 0.741026 0.150817
Si Si4 0.250000 0.014108 0.250000
Si Si5 0.024247 0.750000 0.250000
Si Si6 0.915528 0.231815 0.471493
Si Si7 0.898955 0.557618 0.590732
O O1 0.776754 0.886139 0.703187
O O2 0.869760 0.688561 0.630068
O O3 0.446901 0.619732 0.383951
O O4 0.517902 0.420019 0.449243
O O5 0.425293 0.693182 0.472536
O O6 0.252372 0.490012 0.432968
O O7 0.250000 0.750000 0.163008
O O8 0.528003 0.757598 0.196100
O O9 0.447782 0.587781 0.121070
O O10 0.116387 0.903534 0.244808
O O11 0.750000 0.250000 0.459687
O O12 0.000730 0.373394 0.449829
#
# Coordination Sequence:
#
# PCOD9389605 Si02
#       7
#     4   8   8   4   4   8   8
#     4  11  18  30  50  84 114 152 176 231 284 338
#     4  10  22  38  57  80 111 149 186 234 281 334
#     4  10  18  31  54  81 112 143 179 229 289 332
#     4  10  18  26  48  84 120 136 186 230 282 328
#     4  11  16  28  46  82 113 138 169 238 281 340
#     4  11  23  38  56  82 111 148 193 231 278 338
#     4  11  20  37  56  80 117 149 183 232 287 333
#
# _framework density 18.874604000000001
#
# number of rings (size 3 to 8) (size 9 to 14) (size 15 to 20)
#    0.000    1.455    5.455    2.727    0.000    2.909 
#    0.000    2.727    0.000    0.000    0.000   11.455 
#    0.000    0.000    0.000    0.000    0.000    0.000 
#
# Total GULP energy -245091.355574 kJ/mol
# GULP energy per Si atom -5570.258081 kJ/mol
# Density = 1.883164 g / cm^3
# Si number density = 18.874604 Si / 1000 Ang^3
#
#
#
# Elastic Constant Matrix: (Units=GPa)
#
#
# Indices 1 2 3 4 5 6 
#
# 1 45.2466 23.7471 38.9276 0.0000 0.0000 0.0000
# 2 23.7471 79.9108 36.4685 0.0000 0.0000 0.0000
# 3 38.9276 36.4685 134.0982 0.0000 0.0000 0.0000
# 4 0.0000 0.0000 0.0000 49.8747 0.0000 0.0000
# 5 0.0000 0.0000 0.0000 0.0000 9.6839 0.0000
# 6 0.0000 0.0000 0.0000 0.0000 0.0000 13.4986
#
#
#
# Elastic Compliance Matrix: (Units=1/GPa)
#
#
# Indices 1 2 3 4 5 6 
#
# 1 0.031775 -0.005974 -0.007599 0.000000 0.000000 0.000000
# 2 -0.005974 0.015410 -0.002457 0.000000 0.000000 0.000000
# 3 -0.007599 -0.002457 0.010331 0.000000 0.000000 0.000000
# 4 0.000000 0.000000 0.000000 0.020050 0.000000 0.000000
# 5 0.000000 0.000000 0.000000 0.000000 0.103264 0.000000
# 6 0.000000 0.000000 0.000000 0.000000 0.000000 0.074082
#
#
# Mechanical properties :
#
#
# Convention : Reuss Voigt Hill
#
# Bulk Modulus (GPa) = 39.28354 50.83801 45.06078
# Shear Modulus (GPa) = 16.92288 25.28561 21.10425
#
# Velocity S-wave (km/s) = 2.99757 3.66411 3.34747
# Velocity P-wave (km/s) = 5.73050 6.70030 6.23429
#
# Compressibility (1/GPa) = 0.02545595
#
# Stress axis : x y z
#
# Youngs Moduli (GPa) = 31.47170 64.89089 96.79356
#
# Poissons Ratio (x) = 0.38769 0.73555
# Poissons Ratio (y) = 0.18803 0.23778
# Poissons Ratio (z) = 0.23916 0.15941
#
# Static dielectric constant tensor:
#      x y z
#    x 1.648570 0.000000 0.000000 
#    y 0.000000 1.746310 0.000000 
#    z 0.000000 0.000000 1.734150 
# 
# From -- ./inp_files/38641.got.cif
#   From: 2010.05.17/outbox.cif.g08.bks.cpg/sg48_20_cif.got.tgz:38641.got - 2010.06.03 20:39:00.
