data_PCOD9389222
_publ_section_title
;
Structure prediction by ZEFSAII (Michael W. Deem and Ramdas Pophale) SiO2 
 PCOD9389222
Probable space group: P M M M
;
_chemical_formula_sum "Si O2"
_cell_formula_units_Z 64
_cell_length_a 9.000000
_cell_length_b 15.000000
_cell_length_c 30.000000
_cell_angle_alpha 90.000000
_cell_angle_beta 90.000000
_cell_angle_gamma 90.000000
_cell_volume 4050.000000
_symmetry_space_group_name_H-M "P M M M"
_symmetry_group_IT_number 47
_symmetry_cell_setting 'orthorhombic'
loop_
_space_group_symop_operation_xyz
x,y,z
-x,-y,z
x,-y,-z
-x,y,-z
-x,-y,-z
x,y,-z
-x,y,z
x,-y,z
loop_
_atom_site_type_symbol
_atom_site_label
_atom_site_fract_x
_atom_site_fract_y
_atom_site_fract_z
Si Si1 0.178834 0.899387 0.092085
Si Si2 0.175904 0.892253 0.548067
Si Si3 0.675176 0.393455 0.128530
Si Si4 0.679604 0.781893 0.273864
Si Si5 0.324569 0.104671 0.186757
Si Si6 0.318997 0.601842 0.230032
Si Si7 0.179351 0.717701 0.049625
Si Si8 0.180280 0.105055 0.353188
O O1 0.237319 0.876339 0.141420
O O2 0.223593 0.820356 0.059119
O O3 0.000000 0.901329 0.092956
O O4 0.230871 0.000000 0.081075
O O5 0.238841 0.861189 0.500000
O O6 0.232654 0.865875 0.596991
O O7 0.000000 0.870765 0.547642
O O8 0.185840 0.000000 0.548051
O O9 0.500000 0.371497 0.126244
O O10 0.690500 0.500000 0.122767
O O11 0.726673 0.373709 0.179252
O O12 0.758011 0.341581 0.089620
O O13 0.500000 0.785142 0.278625
O O14 0.718682 0.836239 0.228905
O O15 0.724921 0.679406 0.264272
O O16 0.753156 0.831569 0.315464
O O17 0.500000 0.119215 0.178439
O O18 0.303052 0.000000 0.197441
O O19 0.500000 0.600741 0.229197
O O20 0.270989 0.500000 0.239724
O O21 0.000000 0.713326 0.050771
O O22 0.228360 0.690066 0.000000
O O23 0.000000 0.108812 0.352414
O O24 0.220300 0.000000 0.346253
#
# Coordination Sequence:
#
# PCOD9389222 Si02
#       8
#     8   8   8   8   8   8   8   8
#     4   9  18  32  48  64  82 108 144 179 204 231
#     4   7  10  19  36  55  75 105 147 186 212 238
#     4   9  18  34  55  73  86 104 134 171 207 245
#     4  10  18  27  42  62  85 114 142 169 207 253
#     4   9  17  28  42  61  84 110 140 171 204 245
#     4   8  15  29  48  67  84 105 138 176 209 245
#     4  10  21  34  47  66  91 115 136 162 203 251
#     4   9  17  27  39  59  88 119 148 178 211 245
#
# _framework density 15.802469
#
# number of rings (size 3 to 8) (size 9 to 14) (size 15 to 20)
#    0.000    3.125    0.000    3.000    0.000    3.750 
#    0.000    4.375    0.000    1.500    0.000    4.375 
#    0.000    0.500    0.000    6.250    0.000    0.250 
#
# Total GULP energy -356311.835897 kJ/mol
# GULP energy per Si atom -5567.372436 kJ/mol
# Density = 1.576650 g / cm^3
# Si number density = 15.802469 Si / 1000 Ang^3
#
#
#
# Elastic Constant Matrix: (Units=GPa)
#
#
# Indices 1 2 3 4 5 6 
#
# 1 4.8977 17.9831 18.2456 0.0000 0.0000 0.0000
# 2 17.9831 64.3790 63.4911 0.0000 0.0000 0.0000
# 3 18.2456 63.4911 105.4923 0.0000 0.0000 0.0000
# 4 0.0000 0.0000 0.0000 18.7318 0.0000 0.0000
# 5 0.0000 0.0000 0.0000 0.0000 -22.1943 0.0000
# 6 0.0000 0.0000 0.0000 0.0000 0.0000 17.6527
#
#
#
# Elastic Compliance Matrix: (Units=1/GPa)
#
#
# Indices 1 2 3 4 5 6 
#
# 1 -7.601166 2.033976 0.090513 0.000000 0.000000 0.000000
# 2 2.033976 -0.506050 -0.047221 0.000000 0.000000 0.000000
# 3 0.090513 -0.047221 0.022245 0.000000 0.000000 0.000000
# 4 0.000000 0.000000 0.000000 0.053385 0.000000 0.000000
# 5 0.000000 0.000000 0.000000 0.000000 -0.045057 0.000000
# 6 0.000000 0.000000 0.000000 0.000000 0.000000 0.056649
#
#
# Mechanical properties :
#
#
# Convention : Reuss Voigt Hill
#
# Bulk Modulus (GPa) = -0.25442 41.57872 20.66215
# Shear Modulus (GPa) = -0.37079 7.84135 3.73528
#
# Velocity S-wave (km/s) = -0.48492 2.22999 1.53911
# Velocity P-wave (km/s) = 0.68912 5.74449 4.03263
#
# Compressibility (1/GPa) = -3.93043418
#
# Stress axis : x y z
#
# Youngs Moduli (GPa) = -0.13156 -1.97609 44.95451
#
# Poissons Ratio (x) = 4.01932 -4.06899
# Poissons Ratio (y) = 0.26759 2.12280
# Poissons Ratio (z) = 0.01191 -0.09331
#
# Static dielectric constant tensor:
#      x y z
#    x 1.532940 0.000000 0.000000 
#    y 0.000000 1.539030 0.000000 
#    z 0.000000 0.000000 1.538610 
# 
# From -- ./inp_files/14290.got.cif
#   From: 2010.05.17/outbox.ucp.g08.bks.cvg/sg47_8_cif.got.tgz:14290.got - 2010.06.11 16:36:43.
