data_PCOD9389525
_publ_section_title
;
Structure prediction by ZEFSAII (Michael W. Deem and Ramdas Pophale) SiO2 
 PCOD9389525
Probable space group: P N N N
;
_chemical_formula_sum "Si O2"
_cell_formula_units_Z 36
_cell_length_a 5.884835
_cell_length_b 17.763211
_cell_length_c 16.998753
_cell_angle_alpha 90.000000
_cell_angle_beta 90.000000
_cell_angle_gamma 90.000000
_cell_volume 1776.940265
_symmetry_space_group_name_H-M "P N N N"
_symmetry_group_IT_number 48
_space_group.IT_coordinate_system_code '2'
_symmetry_cell_setting 'orthorhombic'
loop_
_space_group_symop_operation_xyz
x,y,z
1/2-x,1/2-y,z
x,1/2-y,1/2-z
1/2-x,y,1/2-z
-x,-y,-z
1/2+x,1/2+y,-z
-x,1/2+y,1/2+z
1/2+x,-y,1/2+z
loop_
_atom_site_type_symbol
_atom_site_label
_atom_site_fract_x
_atom_site_fract_y
_atom_site_fract_z
Si Si1 0.872968 0.137165 0.139665
Si Si2 0.750000 0.750000 0.585332
Si Si3 0.250000 0.250000 0.750000
Si Si4 0.250000 0.509319 0.750000
Si Si5 0.945344 0.120247 0.684059
Si Si6 0.250000 0.750000 0.750000
Si Si7 0.366244 0.669993 0.486047
O O1 0.679241 0.186646 0.185610
O O2 0.091793 0.192377 0.135793
O O3 0.890285 0.061740 0.189506
O O4 0.784777 0.128307 0.051703
O O5 0.599130 0.696120 0.528492
O O6 0.401380 0.305564 0.697776
O O7 0.412865 0.454585 0.701451
O O8 0.750000 0.124246 0.750000
O O9 0.875034 0.123466 0.593605
O O10 0.250000 0.750000 0.467279
#
# Coordination Sequence:
#
# PCOD9389525 Si02
#       7
#     8   4   2   4   8   2   8
#     4  10  21  39  60  92 127 157 206 261 311 378
#     4  10  19  37  66  98 116 166 200 269 325 361
#     4  10  20  38  64  90 116 156 218 284 292 384
#     4  10  26  42  56  92 138 166 212 264 304 384
#     4  11  23  41  63  90 123 174 210 258 326 369
#     4  10  16  40  56  90 128 142 204 260 292 366
#     4  10  20  37  61  94 120 154 215 267 307 376
#
# _framework density 20.259543000000001
#
# number of rings (size 3 to 8) (size 9 to 14) (size 15 to 20)
#    0.000    1.778    3.333    2.333    0.000    8.444 
#    0.000    2.222    0.000    0.000    0.000    0.000 
#    0.000    0.000    0.000    0.000    0.000    0.000 
#
# Total GULP energy -200405.271061 kJ/mol
# GULP energy per Si atom -5566.813085 kJ/mol
# Density = 2.021343 g / cm^3
# Si number density = 20.259543 Si / 1000 Ang^3
#
#
#
# Elastic Constant Matrix: (Units=GPa)
#
#
# Indices 1 2 3 4 5 6 
#
# 1 80.6795 43.0535 40.3247 0.0000 0.0000 0.0000
# 2 43.0535 119.4015 76.4893 0.0000 0.0000 0.0000
# 3 40.3247 76.4893 171.8475 0.0000 0.0000 0.0000
# 4 0.0000 0.0000 0.0000 -2.0397 0.0000 0.0000
# 5 0.0000 0.0000 0.0000 0.0000 2.7758 0.0000
# 6 0.0000 0.0000 0.0000 0.0000 0.0000 -75.0536
#
#
#
# Elastic Compliance Matrix: (Units=1/GPa)
#
#
# Indices 1 2 3 4 5 6 
#
# 1 0.015666 -0.004608 -0.001625 0.000000 0.000000 0.000000
# 2 -0.004608 0.013071 -0.004737 0.000000 0.000000 0.000000
# 3 -0.001625 -0.004737 0.008309 0.000000 0.000000 0.000000
# 4 0.000000 0.000000 0.000000 -0.490267 0.000000 0.000000
# 5 0.000000 0.000000 0.000000 0.000000 0.360250 0.000000
# 6 0.000000 0.000000 0.000000 0.000000 0.000000 -0.013324
#
#
# Mechanical properties :
#
#
# Convention : Reuss Voigt Hill
#
# Bulk Modulus (GPa) = 66.19675 76.85151 71.52413
# Shear Modulus (GPa) = -63.03542 -0.72608 -31.88075
#
# Velocity S-wave (km/s) = -5.58404 -0.59930 -3.97119
# Velocity P-wave (km/s) = 2.97154 6.12674 3.78860
#
# Compressibility (1/GPa) = 0.01510648
#
# Stress axis : x y z
#
# Youngs Moduli (GPa) = 63.83330 76.50629 120.35525
#
# Poissons Ratio (x) = 0.35251 0.19560
# Poissons Ratio (y) = 0.29412 0.57008
# Poissons Ratio (z) = 0.10374 0.36238
#
# Static dielectric constant tensor:
#      x y z
#    x 1.873930 0.000000 0.000000 
#    y 0.000000 1.693510 0.000000 
#    z 0.000000 0.000000 1.748320 
# 
# From -- ./inp_files/29323.got.cif
#   From: 2010.05.17/outbox.cif.g08.bks.cpg/sg48_15_cif.got.tgz:29323.got - 2010.06.03 20:39:00.
