data_PCOD9389810
_publ_section_title
;
Structure prediction by ZEFSAII (Michael W. Deem and Ramdas Pophale) SiO2 
 PCOD9389810
Probable space group: P N N N
;
_chemical_formula_sum "Si O2"
_cell_formula_units_Z 28
_cell_length_a 5.040804
_cell_length_b 15.752263
_cell_length_c 13.226735
_cell_angle_alpha 90.000000
_cell_angle_beta 90.000000
_cell_angle_gamma 90.000000
_cell_volume 1050.256596
_symmetry_space_group_name_H-M "P N N N"
_symmetry_group_IT_number 48
_space_group.IT_coordinate_system_code '2'
_symmetry_cell_setting 'orthorhombic'
loop_
_space_group_symop_operation_xyz
x,y,z
1/2-x,1/2-y,z
x,1/2-y,1/2-z
1/2-x,y,1/2-z
-x,-y,-z
1/2+x,1/2+y,-z
-x,1/2+y,1/2+z
1/2+x,-y,1/2+z
loop_
_atom_site_type_symbol
_atom_site_label
_atom_site_fract_x
_atom_site_fract_y
_atom_site_fract_z
Si Si1 0.639527 0.387209 0.391362
Si Si2 0.866872 0.371898 0.597675
Si Si3 0.750000 0.250000 0.250000
Si Si4 0.750000 0.750000 0.972362
Si Si5 0.750000 0.250000 0.750000
Si Si6 0.750000 0.971008 0.250000
O O1 0.738484 0.417023 0.501334
O O2 0.843206 0.323292 0.331121
O O3 0.400069 0.322891 0.410028
O O4 0.578605 0.466769 0.321679
O O5 0.655020 0.321151 0.668263
O O6 0.046574 0.301071 0.543100
O O7 0.058617 0.423256 0.671751
#
# Coordination Sequence:
#
# PCOD9389810 Si02
#       6
#     8   8   2   4   2   4
#     4  11  24  47  71 108 151 191 252 317 369 460
#     4  12  24  48  70 110 150 197 257 316 365 463
#     4  10  18  46  68 104 138 194 246 308 364 450
#     4  12  22  46  80 100 142 206 250 298 378 446
#     4  12  22  46  76  98 142 198 258 302 364 454
#     4  11  28  46  74 111 162 194 244 323 408 418
#
# _framework density 26.660153999999999
#
# number of rings (size 3 to 8) (size 9 to 14) (size 15 to 20)
#    0.000    0.571    5.714    2.571    0.000    1.714 
#    5.143    0.000    0.000    0.000    0.000    0.000 
#    0.000    0.000    0.000    0.000    0.000    0.000 
#
# Total GULP energy -155916.770004 kJ/mol
# GULP energy per Si atom -5568.456072 kJ/mol
# Density = 2.659947 g / cm^3
# Si number density = 26.660154 Si / 1000 Ang^3
#
#
#
# Elastic Constant Matrix: (Units=GPa)
#
#
# Indices 1 2 3 4 5 6 
#
# 1 83.5409 32.4697 50.5034 0.0000 0.0000 0.0000
# 2 32.4697 96.7054 89.4553 0.0000 0.0000 0.0000
# 3 50.5034 89.4553 230.5066 0.0000 0.0000 0.0000
# 4 0.0000 0.0000 0.0000 54.3746 0.0000 0.0000
# 5 0.0000 0.0000 0.0000 0.0000 27.4496 0.0000
# 6 0.0000 0.0000 0.0000 0.0000 0.0000 40.1032
#
#
#
# Elastic Compliance Matrix: (Units=1/GPa)
#
#
# Indices 1 2 3 4 5 6 
#
# 1 0.014326 -0.002974 -0.001984 0.000000 0.000000 0.000000
# 2 -0.002974 0.016749 -0.005848 0.000000 0.000000 0.000000
# 3 -0.001984 -0.005848 0.007043 0.000000 0.000000 0.000000
# 4 0.000000 0.000000 0.000000 0.018391 0.000000 0.000000
# 5 0.000000 0.000000 0.000000 0.000000 0.036430 0.000000
# 6 0.000000 0.000000 0.000000 0.000000 0.000000 0.024936
#
#
# Mechanical properties :
#
#
# Convention : Reuss Voigt Hill
#
# Bulk Modulus (GPa) = 60.59345 83.95664 72.27505
# Shear Modulus (GPa) = 34.48499 40.27378 37.37939
#
# Velocity S-wave (km/s) = 3.60043 3.89091 3.74848
# Velocity P-wave (km/s) = 6.32942 7.19342 6.77521
#
# Compressibility (1/GPa) = 0.01650343
#
# Stress axis : x y z
#
# Youngs Moduli (GPa) = 69.80356 59.70400 141.99053
#
# Poissons Ratio (x) = 0.17758 0.28178
# Poissons Ratio (y) = 0.20762 0.83042
# Poissons Ratio (z) = 0.13852 0.34917
#
# Static dielectric constant tensor:
#      x y z
#    x 2.189910 0.000000 0.000000 
#    y 0.000000 2.102890 0.000000 
#    z 0.000000 0.000000 2.163930 
# 
# From -- ./inp_files/3966.got.cif
#   From: 2010.05.17/outbox.cif.g08.bks.cpg/sg48_2_cif.got.tgz:3966.got - 2010.06.03 20:39:00.
