data_PCOD9389984
_publ_section_title
;
Structure prediction by ZEFSAII (Michael W. Deem and Ramdas Pophale) SiO2 
 PCOD9389984
Probable space group: P N N N
;
_chemical_formula_sum "Si O2"
_cell_formula_units_Z 40
_cell_length_a 12.732046
_cell_length_b 17.455343
_cell_length_c 7.014256
_cell_angle_alpha 90.000000
_cell_angle_beta 90.000000
_cell_angle_gamma 90.000000
_cell_volume 1558.863895
_symmetry_space_group_name_H-M "P N N N"
_symmetry_group_IT_number 48
_space_group.IT_coordinate_system_code '2'
_symmetry_cell_setting 'orthorhombic'
loop_
_space_group_symop_operation_xyz
x,y,z
1/2-x,1/2-y,z
x,1/2-y,1/2-z
1/2-x,y,1/2-z
-x,-y,-z
1/2+x,1/2+y,-z
-x,1/2+y,1/2+z
1/2+x,-y,1/2+z
loop_
_atom_site_type_symbol
_atom_site_label
_atom_site_fract_x
_atom_site_fract_y
_atom_site_fract_z
Si Si1 0.311515 0.520998 0.975329
Si Si2 0.034550 0.403309 0.538152
Si Si3 0.842330 0.606957 0.854765
Si Si4 0.523078 0.769848 0.977965
Si Si5 0.204447 0.671390 0.036822
O O1 0.416530 0.564480 0.062044
O O2 0.378633 0.456926 0.858031
O O3 0.220727 0.466757 0.069061
O O4 0.240646 0.594855 0.934185
O O5 0.072805 0.411767 0.312780
O O6 0.036730 0.312773 0.574030
O O7 0.750000 0.653175 0.750000
O O8 0.889490 0.665696 0.002712
O O9 0.516532 0.750000 0.750000
O O10 0.417766 0.813019 0.036560
O O11 0.250000 0.750000 0.954846
O O12 0.250000 0.664539 0.250000
#
# Coordination Sequence:
#
# PCOD9389984 Si02
#       5
#     8   8   8   8   8
#     4  10  19  35  56  85 122 161 200 248 303 361
#     4   9  18  34  56  87 117 157 197 245 301 366
#     4   9  19  35  60  89 124 154 198 256 309 358
#     4  10  21  38  60  93 123 153 204 257 309 361
#     4  11  22  37  58  86 119 166 206 245 296 364
#
# _framework density 25.659713
#
# number of rings (size 3 to 8) (size 9 to 14) (size 15 to 20)
#    0.000    2.200    2.000    1.800    0.000   10.400 
#    0.000    0.000    0.000    4.800    0.000    4.200 
#    0.000    0.000    0.000    0.000    0.000    0.000 
#
# Total GULP energy -222792.527512 kJ/mol
# GULP energy per Si atom -5569.813188 kJ/mol
# Density = 2.560131 g / cm^3
# Si number density = 25.659713 Si / 1000 Ang^3
#
#
#
# Elastic Constant Matrix: (Units=GPa)
#
#
# Indices 1 2 3 4 5 6 
#
# 1 157.4772 129.5131 27.9605 0.0000 0.0000 0.0000
# 2 129.5131 287.2249 44.3642 0.0000 0.0000 0.0000
# 3 27.9605 44.3642 95.9581 0.0000 0.0000 0.0000
# 4 0.0000 0.0000 0.0000 -118.2859 0.0000 0.0000
# 5 0.0000 0.0000 0.0000 0.0000 32.8330 0.0000
# 6 0.0000 0.0000 0.0000 0.0000 0.0000 85.8493
#
#
#
# Elastic Compliance Matrix: (Units=1/GPa)
#
#
# Indices 1 2 3 4 5 6 
#
# 1 0.010166 -0.004444 -0.000908 0.000000 0.000000 0.000000
# 2 -0.004444 0.005692 -0.001337 0.000000 0.000000 0.000000
# 3 -0.000908 -0.001337 0.011304 0.000000 0.000000 0.000000
# 4 0.000000 0.000000 0.000000 -0.008454 0.000000 0.000000
# 5 0.000000 0.000000 0.000000 0.000000 0.030457 0.000000
# 6 0.000000 0.000000 0.000000 0.000000 0.000000 0.011648
#
#
# Mechanical properties :
#
#
# Convention : Reuss Voigt Hill
#
# Bulk Modulus (GPa) = 72.54154 104.92621 88.73387
# Shear Modulus (GPa) = 63.46463 22.66743 43.06603
#
# Velocity S-wave (km/s) = 4.97864 2.97541 4.10121
# Velocity P-wave (km/s) = 7.83461 7.26528 7.55531
#
# Compressibility (1/GPa) = 0.01378521
#
# Stress axis : x y z
#
# Youngs Moduli (GPa) = 98.36778 175.69189 88.46678
#
# Poissons Ratio (x) = 0.78073 0.08030
# Poissons Ratio (y) = 0.43712 0.11825
# Poissons Ratio (z) = 0.08929 0.23484
#
# Static dielectric constant tensor:
#      x y z
#    x 1.838650 0.000000 0.000000 
#    y 0.000000 2.042270 0.000000 
#    z 0.000000 0.000000 2.253740 
# 
# From -- ./inp_files/10681.got.cif
#   From: 2010.05.17/outbox.cif.g08.bks.cpg/sg48_6_cif.got.tgz:10681.got - 2010.06.03 20:39:00.
