data_PCOD9389266
_publ_section_title
;
Structure prediction by ZEFSAII (Michael W. Deem and Ramdas Pophale) SiO2 
 PCOD9389266
Probable space group: P M M M
;
_chemical_formula_sum "Si O2"
_cell_formula_units_Z 64
_cell_length_a 21.000000
_cell_length_b 18.000000
_cell_length_c 9.000000
_cell_angle_alpha 90.000000
_cell_angle_beta 90.000000
_cell_angle_gamma 90.000000
_cell_volume 3402.000000
_symmetry_space_group_name_H-M "P M M M"
_symmetry_group_IT_number 47
_symmetry_cell_setting 'orthorhombic'
loop_
_space_group_symop_operation_xyz
x,y,z
-x,-y,z
x,-y,-z
-x,y,-z
-x,-y,-z
x,y,-z
-x,y,z
x,-y,z
loop_
_atom_site_type_symbol
_atom_site_label
_atom_site_fract_x
_atom_site_fract_y
_atom_site_fract_z
Si Si1 0.366389 0.082422 0.325157
Si Si2 0.930341 0.247173 0.678157
Si Si3 0.573167 0.375032 0.676602
Si Si4 0.761547 0.881591 0.174565
Si Si5 0.107826 0.081118 0.323523
Si Si6 0.424531 0.778086 0.165189
Si Si7 0.297163 0.418074 0.177665
Si Si8 0.797842 0.711810 0.176848
O O1 0.373373 0.097412 0.500000
O O2 0.293040 0.085225 0.276826
O O3 0.398148 0.146064 0.228665
O O4 0.392114 0.000000 0.294776
O O5 0.926457 0.255806 0.500000
O O6 0.927912 0.158151 0.708959
O O7 0.867598 0.283637 0.749138
O O8 0.000000 0.275119 0.727960
O O9 0.575109 0.384877 0.500000
O O10 0.500000 0.393692 0.725577
O O11 0.585842 0.289769 0.723292
O O12 0.632514 0.415356 0.751921
O O13 0.828725 0.913901 0.225933
O O14 0.765611 0.792555 0.199151
O O15 0.749647 0.895432 0.000000
O O16 0.123552 0.084383 0.500000
O O17 0.077181 0.000000 0.298292
O O18 0.500000 0.785174 0.152790
O O19 0.397952 0.761530 0.000000
O O20 0.269577 0.500000 0.206581
O O21 0.249773 0.352893 0.230648
O O22 0.304498 0.409117 0.000000
O O23 0.806660 0.702267 0.000000
#
# Coordination Sequence:
#
# PCOD9389266 Si02
#       8
#     8   8   8   8   8   8   8   8
#     4  11  23  35  48  69  98 132 171 218 271 322
#     4   9  18  32  51  76 103 134 176 221 264 315
#     4  10  21  37  58  84 114 147 180 214 256 312
#     4  10  19  31  49  71  96 129 171 216 259 309
#     4   9  17  29  45  67  99 136 170 209 260 313
#     4  10  21  37  56  75  96 127 170 217 262 311
#     4  10  21  37  58  84 113 144 179 220 264 312
#     4   9  19  35  54  77 104 135 173 217 265 317
#
# _framework density 18.812463000000001
#
# number of rings (size 3 to 8) (size 9 to 14) (size 15 to 20)
#    0.000    2.250    0.000    2.625    0.000    7.500 
#    0.000    3.750    0.000    0.375    0.000    6.125 
#    0.000    0.000    0.000    0.000    0.000    0.000 
#
# Total GULP energy -356954.010961 kJ/mol
# GULP energy per Si atom -5577.406421 kJ/mol
# Density = 1.876965 g / cm^3
# Si number density = 18.812463 Si / 1000 Ang^3
#
#
#
# Elastic Constant Matrix: (Units=GPa)
#
#
# Indices 1 2 3 4 5 6 
#
# 1 58.7741 57.8453 18.8570 0.0000 0.0000 0.0000
# 2 57.8453 83.7648 22.3860 0.0000 0.0000 0.0000
# 3 18.8570 22.3860 20.3329 0.0000 0.0000 0.0000
# 4 0.0000 0.0000 0.0000 25.8888 0.0000 0.0000
# 5 0.0000 0.0000 0.0000 0.0000 24.9045 0.0000
# 6 0.0000 0.0000 0.0000 0.0000 0.0000 -65.0279
#
#
#
# Elastic Compliance Matrix: (Units=1/GPa)
#
#
# Indices 1 2 3 4 5 6 
#
# 1 0.055483 -0.034804 -0.013138 0.000000 0.000000 0.000000
# 2 -0.034804 0.038747 -0.010382 0.000000 0.000000 0.000000
# 3 -0.013138 -0.010382 0.072796 0.000000 0.000000 0.000000
# 4 0.000000 0.000000 0.000000 0.038627 0.000000 0.000000
# 5 0.000000 0.000000 0.000000 0.000000 0.040153 0.000000
# 6 0.000000 0.000000 0.000000 0.000000 0.000000 -0.015378
#
#
# Mechanical properties :
#
#
# Convention : Reuss Voigt Hill
#
# Bulk Modulus (GPa) = 19.84955 40.11649 29.98302
# Shear Modulus (GPa) = 13.74120 1.40534 7.57327
#
# Velocity S-wave (km/s) = 2.70558 0.86524 2.00858
# Velocity P-wave (km/s) = 4.50937 4.72958 4.62079
#
# Compressibility (1/GPa) = 0.05037897
#
# Stress axis : x y z
#
# Youngs Moduli (GPa) = 18.02340 25.80828 13.73702
#
# Poissons Ratio (x) = 0.89823 0.18047
# Poissons Ratio (y) = 0.62729 0.14262
# Poissons Ratio (z) = 0.23679 0.26794
#
# Static dielectric constant tensor:
#      x y z
#    x 1.658480 0.000000 0.000000 
#    y 0.000000 1.693610 0.000000 
#    z 0.000000 0.000000 1.629140 
# 
# From -- ./inp_files/9923.got.cif
#   From: 2010.05.17/outbox.ucp.g08.bks.cvg/sg47_5_cif.got.tgz:9923.got - 2010.06.11 16:36:43.
