data_PCOD9389415
_publ_section_title
;
Structure prediction by ZEFSAII (Michael W. Deem and Ramdas Pophale) SiO2 
 PCOD9389415
Probable space group: P M M M
;
_chemical_formula_sum "Si O2"
_cell_formula_units_Z 44
_cell_length_a 9.000000
_cell_length_b 30.000000
_cell_length_c 9.000000
_cell_angle_alpha 90.000000
_cell_angle_beta 90.000000
_cell_angle_gamma 90.000000
_cell_volume 2430.000000
_symmetry_space_group_name_H-M "P M M M"
_symmetry_group_IT_number 47
_symmetry_cell_setting 'orthorhombic'
loop_
_space_group_symop_operation_xyz
x,y,z
-x,-y,z
x,-y,-z
-x,y,-z
-x,-y,-z
x,y,-z
-x,y,z
x,-y,z
loop_
_atom_site_type_symbol
_atom_site_label
_atom_site_fract_x
_atom_site_fract_y
_atom_site_fract_z
Si Si1 0.822321 0.092120 0.676464
Si Si2 0.821533 0.815085 0.174799
Si Si3 0.678494 0.636001 0.174044
Si Si4 0.672683 0.000000 0.319220
Si Si5 0.821971 0.549891 0.676553
Si Si6 0.678639 0.728675 0.325478
O O1 0.792706 0.096594 0.500000
O O2 0.772170 0.137610 0.755650
O O3 0.748507 0.046131 0.730608
O O4 0.000000 0.088069 0.695870
O O5 0.749557 0.772110 0.251076
O O6 0.000000 0.812626 0.194808
O O7 0.788901 0.814595 0.000000
O O8 0.500000 0.633425 0.190887
O O9 0.747685 0.591407 0.242533
O O10 0.728308 0.681833 0.253051
O O11 0.713808 0.638773 0.000000
O O12 0.500000 0.000000 0.279801
O O13 0.684957 0.000000 0.500000
O O14 0.792071 0.553032 0.500000
O O15 0.773750 0.500000 0.725987
O O16 0.000000 0.552182 0.696221
O O17 0.713146 0.728151 0.500000
O O18 0.500000 0.731246 0.307733
#
# Coordination Sequence:
#
# PCOD9389415 Si02
#       6
#     8   8   8   4   8   8
#     4   9  17  31  51  73  99 133 171 210 254 303
#     4  10  21  36  54  78 107 138 173 213 259 311
#     4  10  21  36  54  78 108 140 174 213 259 312
#     4   9  17  29  48  75 102 128 166 215 258 299
#     4   9  19  36  56  78 105 138 177 219 261 306
#     4  10  21  37  57  79 103 135 175 216 259 308
#
# _framework density 18.106995999999999
#
# number of rings (size 3 to 8) (size 9 to 14) (size 15 to 20)
#    0.000    2.455    0.000    2.455    0.000    6.909 
#    0.000    5.000    0.000    2.727    0.000    0.000 
#    0.000    0.000    0.000    0.000    0.000    0.000 
#
# Total GULP energy -245507.990386 kJ/mol
# GULP energy per Si atom -5579.727054 kJ/mol
# Density = 1.806578 g / cm^3
# Si number density = 18.106996 Si / 1000 Ang^3
#
#
#
# Elastic Constant Matrix: (Units=GPa)
#
#
# Indices 1 2 3 4 5 6 
#
# 1 21.0403 64.3475 53.4576 0.0000 0.0000 0.0000
# 2 64.3475 251.7283 111.1587 0.0000 0.0000 0.0000
# 3 53.4576 111.1587 88.0134 0.0000 0.0000 0.0000
# 4 0.0000 0.0000 0.0000 -4.2762 0.0000 0.0000
# 5 0.0000 0.0000 0.0000 0.0000 22.3134 0.0000
# 6 0.0000 0.0000 0.0000 0.0000 0.0000 155.1196
#
#
#
# Elastic Compliance Matrix: (Units=1/GPa)
#
#
# Indices 1 2 3 4 5 6 
#
# 1 -0.086814 -0.002470 0.055849 0.000000 0.000000 0.000000
# 2 -0.002470 0.008911 -0.009754 0.000000 0.000000 0.000000
# 3 0.055849 -0.009754 -0.010240 0.000000 0.000000 0.000000
# 4 0.000000 0.000000 0.000000 -0.233851 0.000000 0.000000
# 5 0.000000 0.000000 0.000000 0.000000 0.044816 0.000000
# 6 0.000000 0.000000 0.000000 0.000000 0.000000 0.006447
#
#
# Mechanical properties :
#
#
# Convention : Reuss Voigt Hill
#
# Bulk Modulus (GPa) = -1118.39544 90.96773 -513.71386
# Shear Modulus (GPa) = -13.95569 43.41925 14.73178
#
# Velocity S-wave (km/s) = -2.77922 4.90218 2.85546
# Velocity P-wave (km/s) = 25.08583 9.07688 16.53646
#
# Compressibility (1/GPa) = -0.00089414
#
# Stress axis : x y z
#
# Youngs Moduli (GPa) = -11.51890 112.21582 -97.65750
#
# Poissons Ratio (x) = 0.27720 5.45406
# Poissons Ratio (y) = -0.02845 -0.95260
# Poissons Ratio (z) = 0.64332 1.09461
#
# Static dielectric constant tensor:
#      x y z
#    x 1.613980 0.000000 0.000000 
#    y 0.000000 1.596940 0.000000 
#    z 0.000000 0.000000 1.610580 
# 
# From -- ./inp_files/2193.got.cif
#   From: 2010.05.17/outbox.ucp.g08.bks.cvg/sg47_2_cif.got.tgz:2193.got - 2010.06.11 16:36:43.
