data_PCOD9389893
_publ_section_title
;
Structure prediction by ZEFSAII (Michael W. Deem and Ramdas Pophale) SiO2 
 PCOD9389893
Probable space group: P N N N
;
_chemical_formula_sum "Si O2"
_cell_formula_units_Z 32
_cell_length_a 7.160484
_cell_length_b 34.664144
_cell_length_c 5.335409
_cell_angle_alpha 90.000000
_cell_angle_beta 90.000000
_cell_angle_gamma 90.000000
_cell_volume 1324.312797
_symmetry_space_group_name_H-M "P N N N"
_symmetry_group_IT_number 48
_space_group.IT_coordinate_system_code '2'
_symmetry_cell_setting 'orthorhombic'
loop_
_space_group_symop_operation_xyz
x,y,z
1/2-x,1/2-y,z
x,1/2-y,1/2-z
1/2-x,y,1/2-z
-x,-y,-z
1/2+x,1/2+y,-z
-x,1/2+y,1/2+z
1/2+x,-y,1/2+z
loop_
_atom_site_type_symbol
_atom_site_label
_atom_site_fract_x
_atom_site_fract_y
_atom_site_fract_z
Si Si1 0.549862 0.578693 0.482132
Si Si2 0.023658 0.838961 0.252952
Si Si3 0.527952 0.545579 0.993542
Si Si4 0.023752 0.705606 0.756920
O O1 0.558563 0.622067 0.377440
O O2 0.445868 0.558284 0.256699
O O3 0.746102 0.558674 0.001875
O O4 0.460465 0.569251 0.750490
O O5 0.250000 0.843955 0.250000
O O6 0.972694 0.808516 0.466735
O O7 0.968456 0.822645 0.976654
O O8 0.500000 0.500000 0.000000
O O9 0.963638 0.750000 0.750000
O O10 0.250000 0.705307 0.750000
#
# Coordination Sequence:
#
# PCOD9389893 Si02
#       4
#     8   8   8   8
#     4  10  21  38  58  83 109 150 191 239 302 349
#     4  10  19  33  52  83 121 150 190 239 289 353
#     4  10  21  40  60  78 106 141 202 244 292 350
#     4   9  17  30  52  81 118 159 193 230 279 336
#
# _framework density 24.163477
#
# number of rings (size 3 to 8) (size 9 to 14) (size 15 to 20)
#    0.000    2.250    0.000    3.000    0.000    3.000 
#   13.500    0.000    0.000    0.000    0.000   52.500 
#    0.000    0.000    0.000    0.000    0.000    0.000 
#
# Total GULP energy -178405.438054 kJ/mol
# GULP energy per Si atom -5575.169939 kJ/mol
# Density = 2.410848 g / cm^3
# Si number density = 24.163477 Si / 1000 Ang^3
#
#
#
# Elastic Constant Matrix: (Units=GPa)
#
#
# Indices 1 2 3 4 5 6 
#
# 1 136.9835 13.0405 7.8374 0.0000 0.0000 0.0000
# 2 13.0405 174.4957 44.6225 0.0000 0.0000 0.0000
# 3 7.8374 44.6225 223.7554 0.0000 0.0000 0.0000
# 4 0.0000 0.0000 0.0000 54.3543 0.0000 0.0000
# 5 0.0000 0.0000 0.0000 0.0000 -30.8403 0.0000
# 6 0.0000 0.0000 0.0000 0.0000 0.0000 18.6307
#
#
#
# Elastic Compliance Matrix: (Units=1/GPa)
#
#
# Indices 1 2 3 4 5 6 
#
# 1 0.007358 -0.000510 -0.000156 0.000000 0.000000 0.000000
# 2 -0.000510 0.006074 -0.001193 0.000000 0.000000 0.000000
# 3 -0.000156 -0.001193 0.004713 0.000000 0.000000 0.000000
# 4 0.000000 0.000000 0.000000 0.018398 0.000000 0.000000
# 5 0.000000 0.000000 0.000000 0.000000 -0.032425 0.000000
# 6 0.000000 0.000000 0.000000 0.000000 0.000000 0.053675
#
#
# Mechanical properties :
#
#
# Convention : Reuss Voigt Hill
#
# Bulk Modulus (GPa) = 69.32174 74.02614 71.67394
# Shear Modulus (GPa) = 75.39289 39.74456 57.56873
#
# Velocity S-wave (km/s) = 5.59186 4.06004 4.88635
# Velocity P-wave (km/s) = 8.39302 7.25814 7.84613
#
# Compressibility (1/GPa) = 0.01442549
#
# Stress axis : x y z
#
# Youngs Moduli (GPa) = 135.91351 164.63325 212.19536
#
# Poissons Ratio (x) = 0.08396 0.03311
# Poissons Ratio (y) = 0.06931 0.25325
# Poissons Ratio (z) = 0.02120 0.19648
#
# Static dielectric constant tensor:
#      x y z
#    x 2.149970 0.000000 0.000000 
#    y 0.000000 2.071260 0.000000 
#    z 0.000000 0.000000 1.910350 
# 
# From -- ./inp_files/2502.got.cif
#   From: 2010.05.17/outbox.cif.g08.bks.cpg/sg48_2_cif.got.tgz:2502.got - 2010.06.03 20:39:00.
