data_PCOD9389092
_publ_section_title
;
Structure prediction by ZEFSAII (Michael W. Deem and Ramdas Pophale) SiO2 
 PCOD9389092
Probable space group: P M M M
;
_chemical_formula_sum "Si O2"
_cell_formula_units_Z 52
_cell_length_a 7.535022
_cell_length_b 24.002627
_cell_length_c 15.951066
_cell_angle_alpha 90.000000
_cell_angle_beta 90.000000
_cell_angle_gamma 90.000000
_cell_volume 2884.914941
_symmetry_space_group_name_H-M "P M M M"
_symmetry_group_IT_number 47
_symmetry_cell_setting 'orthorhombic'
loop_
_space_group_symop_operation_xyz
x,y,z
-x,-y,z
x,-y,-z
-x,y,-z
-x,-y,-z
x,y,-z
-x,y,z
x,-y,z
loop_
_atom_site_type_symbol
_atom_site_label
_atom_site_fract_x
_atom_site_fract_y
_atom_site_fract_z
Si Si1 0.211326 0.185130 0.908269
Si Si2 0.283184 0.063586 0.500000
Si Si3 0.794986 0.233613 0.263104
Si Si4 0.713643 0.061038 0.151218
Si Si5 0.715363 0.887708 0.675558
Si Si6 0.791771 0.683912 0.596544
Si Si7 0.286286 0.440135 0.401564
O O1 0.283781 0.220473 0.829288
O O2 0.233322 0.118569 0.893449
O O3 0.000000 0.194561 0.908732
O O4 0.283280 0.199401 0.000000
O O5 0.500000 0.064447 0.500000
O O6 0.225183 0.092308 0.585202
O O7 0.227193 0.000000 0.500000
O O8 0.789818 0.172749 0.304476
O O9 0.714741 0.275895 0.331518
O O10 0.000000 0.251164 0.250411
O O11 0.500000 0.059685 0.146173
O O12 0.763809 0.071007 0.248574
O O13 0.778025 0.000000 0.122086
O O14 0.500000 0.884043 0.676088
O O15 0.719234 0.687966 0.500000
O O16 0.777628 0.620001 0.627584
O O17 0.000000 0.697815 0.589374
O O18 0.236998 0.441171 0.500000
O O19 0.500000 0.439312 0.396801
O O20 0.226237 0.500000 0.365222
#
# Coordination Sequence:
#
# PCOD9389092 Si02
#       7
#     8   4   8   8   8   8   8
#     4   9  18  32  47  61  78 103 134 167 206 250
#     4   9  16  26  41  59  77  99 132 171 204 237
#     4   9  18  31  44  59  82 109 135 168 206 242
#     4   9  17  29  44  61  81 102 125 159 206 256
#     4   9  17  28  42  59  77 102 135 168 202 242
#     4   9  17  27  40  60  85 114 143 167 196 236
#     4   8  14  25  40  59  85 116 146 173 199 225
#
# _framework density 18.024795999999998
#
# number of rings (size 3 to 8) (size 9 to 14) (size 15 to 20)
#    0.000    3.154    0.000    0.923    1.077    3.692 
#    0.000    3.077    0.000    1.846    0.000    0.000 
#    0.000    0.615    0.000    7.692    0.000    1.538 
#
# Total GULP energy -289488.321157 kJ/mol
# GULP energy per Si atom -5567.083099 kJ/mol
# Density = 1.798377 g / cm^3
# Si number density = 18.024796 Si / 1000 Ang^3
#
#
#
# Elastic Constant Matrix: (Units=GPa)
#
#
# Indices 1 2 3 4 5 6 
#
# 1 42.2527 1.0423 7.1753 0.0000 0.0000 0.0000
# 2 1.0423 103.1161 56.8153 0.0000 0.0000 0.0000
# 3 7.1753 56.8153 129.6603 0.0000 0.0000 0.0000
# 4 0.0000 0.0000 0.0000 11.0759 0.0000 0.0000
# 5 0.0000 0.0000 0.0000 0.0000 -16.9527 0.0000
# 6 0.0000 0.0000 0.0000 0.0000 0.0000 15.6528
#
#
#
# Elastic Compliance Matrix: (Units=1/GPa)
#
#
# Indices 1 2 3 4 5 6 
#
# 1 0.023924 0.000643 -0.001606 0.000000 0.000000 0.000000
# 2 0.000643 0.012802 -0.005645 0.000000 0.000000 0.000000
# 3 -0.001606 -0.005645 0.010275 0.000000 0.000000 0.000000
# 4 0.000000 0.000000 0.000000 0.090286 0.000000 0.000000
# 5 0.000000 0.000000 0.000000 0.000000 -0.058987 0.000000
# 6 0.000000 0.000000 0.000000 0.000000 0.000000 0.063886
#
#
# Mechanical properties :
#
#
# Convention : Reuss Voigt Hill
#
# Bulk Modulus (GPa) = 29.59911 45.01055 37.30483
# Shear Modulus (GPa) = 30.00076 15.95494 22.97785
#
# Velocity S-wave (km/s) = 4.08415 2.97840 3.57430
# Velocity P-wave (km/s) = 6.22072 6.07071 6.14617
#
# Compressibility (1/GPa) = 0.03378480
#
# Stress axis : x y z
#
# Youngs Moduli (GPa) = 41.79911 78.11495 97.32452
#
# Poissons Ratio (x) = -0.05022 0.15627
# Poissons Ratio (y) = -0.02687 0.54940
# Poissons Ratio (z) = 0.06711 0.44096
#
# Static dielectric constant tensor:
#      x y z
#    x 1.686630 0.000000 0.000000 
#    y 0.000000 1.632250 0.000000 
#    z 0.000000 0.000000 1.535820 
# 
# From -- ./inp_files/12490.got.cif
#   From: 2010.05.17/outbox.cif.g08.bks.cpg/sg47_7_cif.got.tgz:12490.got - 2010.06.03 20:15:42.
