data_PCOD9389572
_publ_section_title
;
Structure prediction by ZEFSAII (Michael W. Deem and Ramdas Pophale) SiO2 
 PCOD9389572
Probable space group: P N N N
;
_chemical_formula_sum "Si O2"
_cell_formula_units_Z 48
_cell_length_a 29.427419
_cell_length_b 8.753096
_cell_length_c 10.024711
_cell_angle_alpha 90.000000
_cell_angle_beta 90.000000
_cell_angle_gamma 90.000000
_cell_volume 2582.175320
_symmetry_space_group_name_H-M "P N N N"
_symmetry_group_IT_number 48
_space_group.IT_coordinate_system_code '2'
_symmetry_cell_setting 'orthorhombic'
loop_
_space_group_symop_operation_xyz
x,y,z
1/2-x,1/2-y,z
x,1/2-y,1/2-z
1/2-x,y,1/2-z
-x,-y,-z
1/2+x,1/2+y,-z
-x,1/2+y,1/2+z
1/2+x,-y,1/2+z
loop_
_atom_site_type_symbol
_atom_site_label
_atom_site_fract_x
_atom_site_fract_y
_atom_site_fract_z
Si Si1 0.295899 0.314130 0.903323
Si Si2 0.881429 0.849419 0.380131
Si Si3 0.936839 0.100212 0.059230
Si Si4 0.337950 0.590399 0.806625
Si Si5 0.049379 0.944931 0.457180
Si Si6 0.532020 0.917565 0.689892
O O1 0.250000 0.250000 0.966865
O O2 0.295394 0.250000 0.750000
O O3 0.344442 0.254727 0.956287
O O4 0.300942 0.495628 0.889976
O O5 0.898560 0.750000 0.250000
O O6 0.852068 0.986904 0.318557
O O7 0.917714 0.932909 0.471269
O O8 0.944047 0.270171 0.000526
O O9 0.945679 0.967085 0.950352
O O10 0.886043 0.101272 0.116096
O O11 0.977217 0.075612 0.167484
O O12 0.322104 0.750000 0.750000
O O13 0.050141 0.963750 0.298558
O O14 0.000000 0.000000 0.500000
O O15 0.542002 0.750000 0.750000
#
# Coordination Sequence:
#
# PCOD9389572 Si02
#       6
#     8   8   8   8   8   8
#     4   8  17  33  51  79 113 142 176 223 276 346
#     4   9  20  32  54  79 109 151 184 225 278 335
#     4  11  23  38  52  76 114 141 199 230 278 334
#     4  10  17  32  57  79 108 148 177 228 278 334
#     4  12  22  36  53  76 112 150 190 237 275 323
#     4  11  24  37  53  77 105 153 193 237 270 322
#
# _framework density 18.588978000000001
#
# number of rings (size 3 to 8) (size 9 to 14) (size 15 to 20)
#    0.000    2.167    3.333    2.000    4.667    1.333 
#    0.000    6.667    0.000    0.000    0.000    2.333 
#    0.000    2.667    0.000    0.000    0.000    0.000 
#
# Total GULP energy -267463.288462 kJ/mol
# GULP energy per Si atom -5572.151843 kJ/mol
# Density = 1.854667 g / cm^3
# Si number density = 18.588978 Si / 1000 Ang^3
#
#
#
# Elastic Constant Matrix: (Units=GPa)
#
#
# Indices 1 2 3 4 5 6 
#
# 1 96.1929 43.7715 18.9704 0.0000 0.0000 0.0000
# 2 43.7715 136.3305 25.5416 0.0000 0.0000 0.0000
# 3 18.9704 25.5416 44.3716 0.0000 0.0000 0.0000
# 4 0.0000 0.0000 0.0000 27.3796 0.0000 0.0000
# 5 0.0000 0.0000 0.0000 0.0000 13.5463 0.0000
# 6 0.0000 0.0000 0.0000 0.0000 0.0000 18.2677
#
#
#
# Elastic Compliance Matrix: (Units=1/GPa)
#
#
# Indices 1 2 3 4 5 6 
#
# 1 0.012625 -0.003410 -0.003435 0.000000 0.000000 0.000000
# 2 -0.003410 0.009143 -0.003805 0.000000 0.000000 0.000000
# 3 -0.003435 -0.003805 0.026196 0.000000 0.000000 0.000000
# 4 0.000000 0.000000 0.000000 0.036524 0.000000 0.000000
# 5 0.000000 0.000000 0.000000 0.000000 0.073821 0.000000
# 6 0.000000 0.000000 0.000000 0.000000 0.000000 0.054742
#
#
# Mechanical properties :
#
#
# Convention : Reuss Voigt Hill
#
# Bulk Modulus (GPa) = 37.50373 50.38466 43.94420
# Shear Modulus (GPa) = 20.55614 24.41281 22.48447
#
# Velocity S-wave (km/s) = 3.32900 3.62787 3.48165
# Velocity P-wave (km/s) = 5.91569 6.68671 6.31298
#
# Compressibility (1/GPa) = 0.02666401
#
# Stress axis : x y z
#
# Youngs Moduli (GPa) = 79.20919 109.37556 38.17428
#
# Poissons Ratio (x) = 0.37296 0.13112
# Poissons Ratio (y) = 0.27010 0.14525
# Poissons Ratio (z) = 0.27206 0.41617
#
# Static dielectric constant tensor:
#      x y z
#    x 1.708930 0.000000 0.000000 
#    y 0.000000 1.734790 0.000000 
#    z 0.000000 0.000000 1.811110 
# 
# From -- ./inp_files/16823.got.cif
#   From: 2010.05.17/outbox.cif.g08.bks.cpg/sg48_9_cif.got.tgz:16823.got - 2010.06.03 20:39:00.
