data_PCOD9389336
_publ_section_title
;
Structure prediction by ZEFSAII (Michael W. Deem and Ramdas Pophale) SiO2 
 PCOD9389336
Probable space group: P M M M
;
_chemical_formula_sum "Si O2"
_cell_formula_units_Z 52
_cell_length_a 9.000000
_cell_length_b 21.000000
_cell_length_c 15.000000
_cell_angle_alpha 90.000000
_cell_angle_beta 90.000000
_cell_angle_gamma 90.000000
_cell_volume 2835.000000
_symmetry_space_group_name_H-M "P M M M"
_symmetry_group_IT_number 47
_symmetry_cell_setting 'orthorhombic'
loop_
_space_group_symop_operation_xyz
x,y,z
-x,-y,z
x,-y,-z
-x,y,-z
-x,-y,-z
x,y,-z
-x,y,z
x,-y,z
loop_
_atom_site_type_symbol
_atom_site_label
_atom_site_fract_x
_atom_site_fract_y
_atom_site_fract_z
Si Si1 0.676939 0.107189 0.598538
Si Si2 0.677631 0.300467 0.223970
Si Si3 0.330654 0.577488 0.500000
Si Si4 0.177498 0.930007 0.220668
Si Si5 0.179279 0.806788 0.896164
Si Si6 0.681317 0.427604 0.697015
Si Si7 0.822525 0.754039 0.599255
O O1 0.699171 0.077458 0.500000
O O2 0.500000 0.118837 0.607771
O O3 0.737550 0.072122 0.685356
O O4 0.767784 0.173116 0.597760
O O5 0.500000 0.295223 0.216596
O O6 0.752379 0.255324 0.150899
O O7 0.720240 0.375178 0.229199
O O8 0.732138 0.276126 0.320299
O O9 0.659169 0.500000 0.500000
O O10 0.500000 0.603286 0.500000
O O11 0.262928 0.591549 0.597280
O O12 0.222988 0.870264 0.159275
O O13 0.000000 0.923685 0.237035
O O14 0.201847 0.000000 0.179026
O O15 0.000000 0.802641 0.891641
O O16 0.221873 0.811511 0.000000
O O17 0.500000 0.427885 0.690514
O O18 0.728052 0.500000 0.716046
O O19 0.791207 0.727283 0.500000
O O20 0.000000 0.750772 0.614820
#
# Coordination Sequence:
#
# PCOD9389336 Si02
#       7
#     8   8   4   8   8   8   8
#     4  10  20  34  53  79 112 149 187 225 265 309
#     4  11  21  32  55  86 112 141 180 228 278 327
#     4   7  10  20  38  62  99 145 182 211 246 294
#     4  10  21  37  58  83 110 143 182 222 269 327
#     4  10  22  41  62  81 105 139 179 226 281 339
#     4   8  15  27  44  72 111 149 183 220 262 310
#     4  10  20  33  50  74 109 151 189 225 266 317
#
# _framework density 18.342151999999999
#
# number of rings (size 3 to 8) (size 9 to 14) (size 15 to 20)
#    0.000    2.385    1.538    2.308    1.077    3.077 
#    0.000    3.077    0.000    2.308    0.000    6.462 
#    0.000    0.000    0.000    0.000    0.000    0.000 
#
# Total GULP energy -289833.427300 kJ/mol
# GULP energy per Si atom -5573.719756 kJ/mol
# Density = 1.830040 g / cm^3
# Si number density = 18.342152 Si / 1000 Ang^3
#
#
#
# Elastic Constant Matrix: (Units=GPa)
#
#
# Indices 1 2 3 4 5 6 
#
# 1 21.0669 14.8369 25.2786 0.0000 0.0000 0.0000
# 2 14.8369 123.1222 66.8895 0.0000 0.0000 0.0000
# 3 25.2786 66.8895 116.3741 0.0000 0.0000 0.0000
# 4 0.0000 0.0000 0.0000 5.9817 0.0000 0.0000
# 5 0.0000 0.0000 0.0000 0.0000 22.9970 0.0000
# 6 0.0000 0.0000 0.0000 0.0000 0.0000 27.3204
#
#
#
# Elastic Compliance Matrix: (Units=1/GPa)
#
#
# Indices 1 2 3 4 5 6 
#
# 1 0.064206 -0.000233 -0.013813 0.000000 0.000000 0.000000
# 2 -0.000233 0.011811 -0.006738 0.000000 0.000000 0.000000
# 3 -0.013813 -0.006738 0.015466 0.000000 0.000000 0.000000
# 4 0.000000 0.000000 0.000000 0.167177 0.000000 0.000000
# 5 0.000000 0.000000 0.000000 0.000000 0.043484 0.000000
# 6 0.000000 0.000000 0.000000 0.000000 0.000000 0.036603
#
#
# Mechanical properties :
#
#
# Convention : Reuss Voigt Hill
#
# Bulk Modulus (GPa) = 20.03381 52.73034 36.38207
# Shear Modulus (GPa) = 12.59595 21.49704 17.04649
#
# Velocity S-wave (km/s) = 2.62338 3.42717 3.05185
# Velocity P-wave (km/s) = 4.48577 6.66867 5.68302
#
# Compressibility (1/GPa) = 0.04991562
#
# Stress axis : x y z
#
# Youngs Moduli (GPa) = 15.57480 84.66936 64.65713
#
# Poissons Ratio (x) = 0.01973 0.89310
# Poissons Ratio (y) = 0.00363 0.43565
# Poissons Ratio (z) = 0.21513 0.57049
#
# Static dielectric constant tensor:
#      x y z
#    x 1.612610 0.000000 0.000000 
#    y 0.000000 1.690580 0.000000 
#    z 0.000000 0.000000 1.628380 
# 
# From -- ./inp_files/6922.got.cif
#   From: 2010.05.17/outbox.ucp.g08.bks.cvg/sg47_4_cif.got.tgz:6922.got - 2010.06.11 16:36:43.
