data_PCOD9389982
_publ_section_title
;
Structure prediction by ZEFSAII (Michael W. Deem and Ramdas Pophale) SiO2 
 PCOD9389982
Probable space group: P N N N
;
_chemical_formula_sum "Si O2"
_cell_formula_units_Z 40
_cell_length_a 15.263531
_cell_length_b 11.432784
_cell_length_c 9.853394
_cell_angle_alpha 90.000000
_cell_angle_beta 90.000000
_cell_angle_gamma 90.000000
_cell_volume 1719.463101
_symmetry_space_group_name_H-M "P N N N"
_symmetry_group_IT_number 48
_space_group.IT_coordinate_system_code '2'
_symmetry_cell_setting 'orthorhombic'
loop_
_space_group_symop_operation_xyz
x,y,z
1/2-x,1/2-y,z
x,1/2-y,1/2-z
1/2-x,y,1/2-z
-x,-y,-z
1/2+x,1/2+y,-z
-x,1/2+y,1/2+z
1/2+x,-y,1/2+z
loop_
_atom_site_type_symbol
_atom_site_label
_atom_site_fract_x
_atom_site_fract_y
_atom_site_fract_z
Si Si1 0.606669 0.863634 0.172897
Si Si2 0.904462 0.398377 0.804806
Si Si3 0.154757 0.799365 0.028854
Si Si4 0.108659 0.616698 0.742264
Si Si5 0.911352 0.845912 0.645130
O O1 0.643922 0.750000 0.250000
O O2 0.507498 0.884988 0.230168
O O3 0.646435 0.995072 0.196371
O O4 0.599087 0.826317 0.015136
O O5 0.896880 0.320499 0.939968
O O6 0.849378 0.356425 0.676804
O O7 0.872137 0.526780 0.834490
O O8 0.250000 0.750000 0.996677
O O9 0.112474 0.888210 0.921730
O O10 0.148269 0.750000 0.750000
O O11 0.012265 0.634000 0.805989
O O12 0.875839 0.750000 0.750000
#
# Coordination Sequence:
#
# PCOD9389982 Si02
#       5
#     8   8   8   8   8
#     4  11  21  34  60  91 126 159 194 252 323 384
#     4  10  19  35  56  82 125 158 200 256 310 371
#     4  11  22  36  58  86 117 162 216 259 299 362
#     4  10  21  36  56  83 126 154 201 246 316 366
#     4  10  21  34  58  88 126 156 195 246 325 381
#
# _framework density 23.263075000000001
#
# number of rings (size 3 to 8) (size 9 to 14) (size 15 to 20)
#    0.000    1.600    2.000    7.200    2.800    2.000 
#    0.000    0.000    0.000    2.400    0.000    1.400 
#    0.000    0.000    0.000    0.000    0.000    0.000 
#
# Total GULP energy -222698.795363 kJ/mol
# GULP energy per Si atom -5567.469884 kJ/mol
# Density = 2.321013 g / cm^3
# Si number density = 23.263075 Si / 1000 Ang^3
#
#
#
# Elastic Constant Matrix: (Units=GPa)
#
#
# Indices 1 2 3 4 5 6 
#
# 1 39.7734 -6.9639 20.9549 0.0000 0.0000 0.0000
# 2 -6.9639 174.5923 67.2721 0.0000 0.0000 0.0000
# 3 20.9549 67.2721 179.8955 0.0000 0.0000 0.0000
# 4 0.0000 0.0000 0.0000 44.8715 0.0000 0.0000
# 5 0.0000 0.0000 0.0000 0.0000 15.2734 0.0000
# 6 0.0000 0.0000 0.0000 0.0000 0.0000 -20.0243
#
#
#
# Elastic Compliance Matrix: (Units=1/GPa)
#
#
# Indices 1 2 3 4 5 6 
#
# 1 0.027881 0.002761 -0.004280 0.000000 0.000000 0.000000
# 2 0.002761 0.006965 -0.002926 0.000000 0.000000 0.000000
# 3 -0.004280 -0.002926 0.007152 0.000000 0.000000 0.000000
# 4 0.000000 0.000000 0.000000 0.022286 0.000000 0.000000
# 5 0.000000 0.000000 0.000000 0.000000 0.065473 0.000000
# 6 0.000000 0.000000 0.000000 0.000000 0.000000 -0.049939
#
#
# Mechanical properties :
#
#
# Convention : Reuss Voigt Hill
#
# Bulk Modulus (GPa) = 30.20473 61.86529 46.03501
# Shear Modulus (GPa) = 50.12830 28.89066 39.50948
#
# Velocity S-wave (km/s) = 4.64707 3.52790 4.12561
# Velocity P-wave (km/s) = 6.46574 6.57619 6.52120
#
# Compressibility (1/GPa) = 0.03310740
#
# Stress axis : x y z
#
# Youngs Moduli (GPa) = 35.86669 143.56858 139.82748
#
# Poissons Ratio (x) = -0.39644 0.59850
# Poissons Ratio (y) = -0.09904 0.40918
# Poissons Ratio (z) = 0.15352 0.42013
#
# Static dielectric constant tensor:
#      x y z
#    x 1.942720 0.000000 0.000000 
#    y 0.000000 2.046540 0.000000 
#    z 0.000000 0.000000 1.969160 
# 
# From -- ./inp_files/13813.got.cif
#   From: 2010.05.17/outbox.cif.g08.bks.cpg/sg48_7_cif.got.tgz:13813.got - 2010.06.03 20:39:00.
