data_PCOD9389235
_publ_section_title
;
Structure prediction by ZEFSAII (Michael W. Deem and Ramdas Pophale) SiO2 
 PCOD9389235
Probable space group: P M M M
;
_chemical_formula_sum "Si O2"
_cell_formula_units_Z 64
_cell_length_a 9.000000
_cell_length_b 21.000000
_cell_length_c 21.000000
_cell_angle_alpha 90.000000
_cell_angle_beta 90.000000
_cell_angle_gamma 90.000000
_cell_volume 3969.000000
_symmetry_space_group_name_H-M "P M M M"
_symmetry_group_IT_number 47
_symmetry_cell_setting 'orthorhombic'
loop_
_space_group_symop_operation_xyz
x,y,z
-x,-y,z
x,-y,-z
-x,y,-z
-x,-y,-z
x,y,-z
-x,y,z
x,-y,z
loop_
_atom_site_type_symbol
_atom_site_label
_atom_site_fract_x
_atom_site_fract_y
_atom_site_fract_z
Si Si1 0.821994 0.428658 0.622879
Si Si2 0.179487 0.288789 0.071561
Si Si3 0.675910 0.750417 0.203588
Si Si4 0.322806 0.697369 0.572433
Si Si5 0.675369 0.396615 0.243005
Si Si6 0.179008 0.430655 0.110865
Si Si7 0.318733 0.811659 0.333671
Si Si8 0.319197 0.926135 0.573410
O O1 0.782418 0.500000 0.599869
O O2 0.755737 0.370040 0.583414
O O3 0.756986 0.419757 0.693839
O O4 0.000000 0.424041 0.624306
O O5 0.245913 0.253564 0.134099
O O6 0.221260 0.364183 0.077174
O O7 0.000000 0.284891 0.075423
O O8 0.223589 0.266735 0.000000
O O9 0.500000 0.761088 0.193002
O O10 0.692142 0.679715 0.234079
O O11 0.727871 0.798720 0.260000
O O12 0.298652 0.719816 0.500000
O O13 0.500000 0.688210 0.581339
O O14 0.274409 0.750802 0.623109
O O15 0.500000 0.410714 0.246689
O O16 0.747866 0.426687 0.180385
O O17 0.218016 0.500000 0.082026
O O18 0.000000 0.429026 0.116398
O O19 0.500000 0.812358 0.332403
O O20 0.271145 0.875102 0.372739
O O21 0.274474 0.909921 0.500000
O O22 0.500000 0.924727 0.573555
O O23 0.275449 0.000000 0.585782
#
# Coordination Sequence:
#
# PCOD9389235 Si02
#       8
#     8   8   8   8   8   8   8   8
#     4  11  23  35  46  60  82 112 145 189 245 293
#     4   9  18  31  45  62  86 115 146 184 230 278
#     4   9  17  29  46  66  89 116 148 186 227 268
#     4  10  20  34  51  68  86 113 151 192 232 274
#     4  10  18  30  46  64  84 108 143 186 230 276
#     4   9  17  28  42  61  84 109 139 175 222 281
#     4   9  15  27  45  67  95 125 156 189 224 263
#     4   8  13  21  37  66 103 138 164 184 215 264
#
# _framework density 16.124969
#
# number of rings (size 3 to 8) (size 9 to 14) (size 15 to 20)
#    0.000    2.625    1.250    1.875    0.000    5.750 
#    0.000    2.500    0.000    0.000    0.000    3.500 
#    0.000    2.500    0.000   13.125    0.000    7.250 
#
# Total GULP energy -356574.043745 kJ/mol
# GULP energy per Si atom -5571.469434 kJ/mol
# Density = 1.608827 g / cm^3
# Si number density = 16.124969 Si / 1000 Ang^3
#
#
#
# Elastic Constant Matrix: (Units=GPa)
#
#
# Indices 1 2 3 4 5 6 
#
# 1 12.0664 12.9242 22.5421 0.0000 0.0000 0.0000
# 2 12.9242 79.9018 52.1305 0.0000 0.0000 0.0000
# 3 22.5421 52.1305 121.5905 0.0000 0.0000 0.0000
# 4 0.0000 0.0000 0.0000 14.9525 0.0000 0.0000
# 5 0.0000 0.0000 0.0000 0.0000 19.7143 0.0000
# 6 0.0000 0.0000 0.0000 0.0000 0.0000 8.6230
#
#
#
# Elastic Compliance Matrix: (Units=1/GPa)
#
#
# Indices 1 2 3 4 5 6 
#
# 1 0.129825 -0.007353 -0.020916 0.000000 0.000000 0.000000
# 2 -0.007353 0.017792 -0.006265 0.000000 0.000000 0.000000
# 3 -0.020916 -0.006265 0.014788 0.000000 0.000000 0.000000
# 4 0.000000 0.000000 0.000000 0.066878 0.000000 0.000000
# 5 0.000000 0.000000 0.000000 0.000000 0.050725 0.000000
# 6 0.000000 0.000000 0.000000 0.000000 0.000000 0.115968
#
#
# Mechanical properties :
#
#
# Convention : Reuss Voigt Hill
#
# Bulk Modulus (GPa) = 10.71385 43.19471 26.95428
# Shear Modulus (GPa) = 10.07744 17.05543 13.56644
#
# Velocity S-wave (km/s) = 2.50263 3.25576 2.90372
# Velocity P-wave (km/s) = 3.87422 6.40148 5.29096
#
# Compressibility (1/GPa) = 0.09333709
#
# Stress axis : x y z
#
# Youngs Moduli (GPa) = 7.70267 56.20439 67.62181
#
# Poissons Ratio (x) = 0.41326 1.41440
# Poissons Ratio (y) = 0.05664 0.42365
# Poissons Ratio (z) = 0.16111 0.35212
#
# Static dielectric constant tensor:
#      x y z
#    x 1.535440 0.000000 0.000000 
#    y 0.000000 1.551800 0.000000 
#    z 0.000000 0.000000 1.554910 
# 
# From -- ./inp_files/11846.got.cif
#   From: 2010.05.17/outbox.ucp.g08.bks.cvg/sg47_6_cif.got.tgz:11846.got - 2010.06.11 16:36:43.
