data_PCOD9389483
_publ_section_title
;
Structure prediction by ZEFSAII (Michael W. Deem and Ramdas Pophale) SiO2 
 PCOD9389483
Probable space group: P N N N
;
_chemical_formula_sum "Si O2"
_cell_formula_units_Z 48
_cell_length_a 13.274902
_cell_length_b 27.552082
_cell_length_c 5.589694
_cell_angle_alpha 90.000000
_cell_angle_beta 90.000000
_cell_angle_gamma 90.000000
_cell_volume 2044.437224
_symmetry_space_group_name_H-M "P N N N"
_symmetry_group_IT_number 48
_space_group.IT_coordinate_system_code '2'
_symmetry_cell_setting 'orthorhombic'
loop_
_space_group_symop_operation_xyz
x,y,z
1/2-x,1/2-y,z
x,1/2-y,1/2-z
1/2-x,y,1/2-z
-x,-y,-z
1/2+x,1/2+y,-z
-x,1/2+y,1/2+z
1/2+x,-y,1/2+z
loop_
_atom_site_type_symbol
_atom_site_label
_atom_site_fract_x
_atom_site_fract_y
_atom_site_fract_z
Si Si1 0.140745 0.367393 0.749999
Si Si2 0.606099 0.455685 0.750000
Si Si3 0.922738 0.895945 0.749999
Si Si4 0.429204 0.805760 0.750001
Si Si5 0.589403 0.159387 0.749999
Si Si6 0.086937 0.517521 0.750000
O O1 0.250000 0.341457 0.750000
O O2 0.135925 0.397076 0.500261
O O3 0.034387 0.338030 0.749999
O O4 0.135925 0.397076 0.999736
O O5 0.615148 0.397842 0.750000
O O6 0.488615 0.472208 0.750001
O O7 0.643077 0.477731 0.500652
O O8 0.643077 0.477731 0.999348
O O9 0.978990 0.843932 0.749998
O O10 0.011005 0.935791 0.750000
O O11 0.460551 0.750000 0.750000
O O12 0.374876 0.817278 0.498189
O O13 0.374876 0.817277 0.001814
#
# Coordination Sequence:
#
# PCOD9389483 Si02
#       6
#     8   8   8   8   8   8
#     4  10  18  27  41  53  67  93 118 147 189 221
#     4  10  16  25  41  58  74  92 108 136 188 220
#     4  10  17  30  40  53  74  88 118 156 180 215
#     4  10  18  27  41  53  67  93 118 147 189 221
#     4  10  17  30  40  53  74  88 118 156 180 215
#     4  10  16  25  41  58  74  92 108 136 188 220
#
# _framework density 23.478342000000001
#
# number of rings (size 3 to 8) (size 9 to 14) (size 15 to 20)
#    0.000    2.000    6.667    1.000    0.000    0.000 
#    0.000    0.000    0.000   48.000    0.000    0.000 
#    0.000    0.000    0.000    0.000    0.000    0.000 
#
# Total GULP energy -267563.208250 kJ/mol
# GULP energy per Si atom -5574.233505 kJ/mol
# Density = 2.342490 g / cm^3
# Si number density = 23.478342 Si / 1000 Ang^3
#
#
#
# Elastic Constant Matrix: (Units=GPa)
#
#
# Indices 1 2 3 4 5 6 
#
# 1 96.1985 6.2440 19.6762 0.0000 0.0000 0.0000
# 2 6.2440 121.4123 20.9813 0.0000 0.0000 0.0000
# 3 19.6762 20.9813 289.1099 0.0000 0.0000 0.0000
# 4 0.0000 0.0000 0.0000 28.2700 0.0000 0.0000
# 5 0.0000 0.0000 0.0000 0.0000 -28.6916 0.0000
# 6 0.0000 0.0000 0.0000 0.0000 0.0000 92.9122
#
#
#
# Elastic Compliance Matrix: (Units=1/GPa)
#
#
# Indices 1 2 3 4 5 6 
#
# 1 0.010563 -0.000424 -0.000688 0.000000 0.000000 0.000000
# 2 -0.000424 0.008358 -0.000578 0.000000 0.000000 0.000000
# 3 -0.000688 -0.000578 0.003548 0.000000 0.000000 0.000000
# 4 0.000000 0.000000 0.000000 0.035373 0.000000 0.000000
# 5 0.000000 0.000000 0.000000 0.000000 -0.034853 0.000000
# 6 0.000000 0.000000 0.000000 0.000000 0.000000 0.010763
#
#
# Mechanical properties :
#
#
# Convention : Reuss Voigt Hill
#
# Bulk Modulus (GPa) = 52.38662 66.72488 59.55575
# Shear Modulus (GPa) = 114.95547 49.15272 82.05409
#
# Velocity S-wave (km/s) = 7.00490 4.58048 5.91817
# Velocity P-wave (km/s) = 9.36942 7.51371 8.49240
#
# Compressibility (1/GPa) = 0.01908884
#
# Stress axis : x y z
#
# Youngs Moduli (GPa) = 94.66594 119.64517 281.87678
#
# Poissons Ratio (x) = 0.05077 0.19397
# Poissons Ratio (y) = 0.04017 0.16284
# Poissons Ratio (z) = 0.06514 0.06912
#
# Static dielectric constant tensor:
#      x y z
#    x 1.865860 0.000000 0.000000 
#    y 0.000000 1.833020 0.000000 
#    z 0.000000 0.000000 2.030550 
# 
# From -- ./inp_files/5393.got.cif
#   From: 2010.05.17/outbox.cif.g08.bks.cpg/sg48_3_cif.got.tgz:5393.got - 2010.06.03 20:39:00.
