data_PCOD9389822
_publ_section_title
;
Structure prediction by ZEFSAII (Michael W. Deem and Ramdas Pophale) SiO2 
 PCOD9389822
Probable space group: P N N N
;
_chemical_formula_sum "Si O2"
_cell_formula_units_Z 56
_cell_length_a 21.330465
_cell_length_b 5.422568
_cell_length_c 19.391539
_cell_angle_alpha 90.000000
_cell_angle_beta 90.000000
_cell_angle_gamma 90.000000
_cell_volume 2242.939751
_symmetry_space_group_name_H-M "P N N N"
_symmetry_group_IT_number 48
_space_group.IT_coordinate_system_code '2'
_symmetry_cell_setting 'orthorhombic'
loop_
_space_group_symop_operation_xyz
x,y,z
1/2-x,1/2-y,z
x,1/2-y,1/2-z
1/2-x,y,1/2-z
-x,-y,-z
1/2+x,1/2+y,-z
-x,1/2+y,1/2+z
1/2+x,-y,1/2+z
loop_
_atom_site_type_symbol
_atom_site_label
_atom_site_fract_x
_atom_site_fract_y
_atom_site_fract_z
Si Si1 0.670982 0.870921 0.414128
Si Si2 0.518794 0.840430 0.399708
Si Si3 0.581485 0.379673 0.526686
Si Si4 0.820502 0.506642 0.720454
Si Si5 0.148077 0.382941 0.432164
Si Si6 0.648800 0.126356 0.123470
Si Si7 0.016501 0.843634 0.676547
O O1 0.593850 0.857663 0.408238
O O2 0.686155 0.880042 0.495445
O O3 0.689565 0.617877 0.378808
O O4 0.685920 0.122196 0.376690
O O5 0.490751 0.716877 0.469075
O O6 0.498284 0.619823 0.347166
O O7 0.500957 0.112807 0.373926
O O8 0.608380 0.626445 0.563628
O O9 0.611368 0.377700 0.450686
O O10 0.608976 0.135403 0.563177
O O11 0.853564 0.750000 0.750000
O O12 0.750000 0.501953 0.750000
O O13 0.816386 0.566943 0.639128
O O14 0.848671 0.250000 0.750000
O O15 0.592519 0.130662 0.177484
O O16 0.994816 0.750000 0.750000
#
# Coordination Sequence:
#
# PCOD9389822 Si02
#       7
#     8   8   8   8   8   8   8
#     4   8  16  27  44  65  84 107 141 186 224 267
#     4  10  19  31  45  61  84 118 154 186 231 282
#     4  10  19  31  48  66  86 112 146 193 236 278
#     4  10  21  38  57  72  90 120 154 190 238 306
#     4  10  19  32  49  69  87 106 142 191 234 273
#     4   8  16  27  42  60  77 104 141 182 225 267
#     4  10  19  30  41  55  80 113 151 188 220 270
#
# _framework density 24.967233
#
# number of rings (size 3 to 8) (size 9 to 14) (size 15 to 20)
#    0.000    2.571    0.000    2.143    0.000   10.286 
#    0.000    7.143    0.000    0.000    0.000    0.000 
#    0.000    0.000    0.000    0.000    0.000    0.000 
#
# Total GULP energy -312297.171778 kJ/mol
# GULP energy per Si atom -5576.735210 kJ/mol
# Density = 2.491041 g / cm^3
# Si number density = 24.967233 Si / 1000 Ang^3
#
#
#
# Elastic Constant Matrix: (Units=GPa)
#
#
# Indices 1 2 3 4 5 6 
#
# 1 54.8389 14.7957 -2.9157 0.0000 0.0000 0.0000
# 2 14.7957 249.7716 13.6907 0.0000 0.0000 0.0000
# 3 -2.9157 13.6907 68.1701 0.0000 0.0000 0.0000
# 4 0.0000 0.0000 0.0000 26.0436 0.0000 0.0000
# 5 0.0000 0.0000 0.0000 0.0000 10.8209 0.0000
# 6 0.0000 0.0000 0.0000 0.0000 0.0000 19.8361
#
#
#
# Elastic Compliance Matrix: (Units=1/GPa)
#
#
# Indices 1 2 3 4 5 6 
#
# 1 0.018602 -0.001158 0.001028 0.000000 0.000000 0.000000
# 2 -0.001158 0.004120 -0.000877 0.000000 0.000000 0.000000
# 3 0.001028 -0.000877 0.014889 0.000000 0.000000 0.000000
# 4 0.000000 0.000000 0.000000 0.038397 0.000000 0.000000
# 5 0.000000 0.000000 0.000000 0.000000 0.092414 0.000000
# 6 0.000000 0.000000 0.000000 0.000000 0.000000 0.050413
#
#
# Mechanical properties :
#
#
# Convention : Reuss Voigt Hill
#
# Bulk Modulus (GPa) = 28.09156 47.10247 37.59701
# Shear Modulus (GPa) = 21.48535 34.48743 27.98639
#
# Velocity S-wave (km/s) = 2.93668 3.72063 3.35165
# Velocity P-wave (km/s) = 4.77227 6.11262 5.48355
#
# Compressibility (1/GPa) = 0.03559788
#
# Stress axis : x y z
#
# Youngs Moduli (GPa) = 53.75650 242.69809 67.16227
#
# Poissons Ratio (x) = 0.28112 -0.06906
# Poissons Ratio (y) = 0.06227 0.05890
# Poissons Ratio (z) = -0.05528 0.21286
#
# Static dielectric constant tensor:
#      x y z
#    x 2.255920 0.000000 0.000000 
#    y 0.000000 2.097110 0.000000 
#    z 0.000000 0.000000 2.003930 
# 
# From -- ./inp_files/35016.got.cif
#   From: 2010.05.17/outbox.cif.g08.bks.cpg/sg48_18_cif.got.tgz:35016.got - 2010.06.03 20:39:00.
