data_PCOD9389574
_publ_section_title
;
Structure prediction by ZEFSAII (Michael W. Deem and Ramdas Pophale) SiO2 
 PCOD9389574
Probable space group: P N N N
;
_chemical_formula_sum "Si O2"
_cell_formula_units_Z 26
_cell_length_a 13.115662
_cell_length_b 5.166341
_cell_length_c 15.664511
_cell_angle_alpha 90.000000
_cell_angle_beta 90.000000
_cell_angle_gamma 90.000000
_cell_volume 1061.426989
_symmetry_space_group_name_H-M "P N N N"
_symmetry_group_IT_number 48
_space_group.IT_coordinate_system_code '2'
_symmetry_cell_setting 'orthorhombic'
loop_
_space_group_symop_operation_xyz
x,y,z
1/2-x,1/2-y,z
x,1/2-y,1/2-z
1/2-x,y,1/2-z
-x,-y,-z
1/2+x,1/2+y,-z
-x,1/2+y,1/2+z
1/2+x,-y,1/2+z
loop_
_atom_site_type_symbol
_atom_site_label
_atom_site_fract_x
_atom_site_fract_y
_atom_site_fract_z
Si Si1 0.602224 0.776991 0.557495
Si Si2 0.595001 0.503233 0.384628
Si Si3 0.113035 0.709605 0.155236
Si Si4 0.750000 0.250000 0.250000
O O1 0.631331 0.678710 0.463701
O O2 0.478930 0.722661 0.573036
O O3 0.650217 0.563274 0.619809
O O4 0.629805 0.059798 0.588897
O O5 0.509052 0.674958 0.339984
O O6 0.676849 0.406953 0.316100
O O7 0.148393 0.750000 0.250000
#
# Coordination Sequence:
#
# PCOD9389574 Si02
#       4
#     8   8   8   2
#     4   9  19  35  56  72 119 163 206 250 322 388
#     4   9  21  32  55  76 124 164 207 251 339 383
#     4  10  17  32  58  81 105 149 219 263 301 366
#     4  12  20  40  54  96 128 172 218 290 346 400
#
# _framework density 24.495325999999999
#
# number of rings (size 3 to 8) (size 9 to 14) (size 15 to 20)
#    1.846    0.615    0.000    3.692    0.000    0.000 
#    0.000    6.923    0.000    0.000    0.000    1.077 
#    0.000    4.923    0.000    0.000    0.000    0.000 
#
# Total GULP energy -145028.730001 kJ/mol
# GULP energy per Si atom -5578.028077 kJ/mol
# Density = 2.443957 g / cm^3
# Si number density = 24.495326 Si / 1000 Ang^3
#
#
#
# Elastic Constant Matrix: (Units=GPa)
#
#
# Indices 1 2 3 4 5 6 
#
# 1 148.8573 20.5128 56.5274 0.0000 0.0000 0.0000
# 2 20.5128 97.1981 17.0385 0.0000 0.0000 0.0000
# 3 56.5274 17.0385 171.5028 0.0000 0.0000 0.0000
# 4 0.0000 0.0000 0.0000 10.2016 0.0000 0.0000
# 5 0.0000 0.0000 0.0000 0.0000 -10.5202 0.0000
# 6 0.0000 0.0000 0.0000 0.0000 0.0000 -7.3644
#
#
#
# Elastic Compliance Matrix: (Units=1/GPa)
#
#
# Indices 1 2 3 4 5 6 
#
# 1 0.007818 -0.001220 -0.002456 0.000000 0.000000 0.000000
# 2 -0.001220 0.010661 -0.000657 0.000000 0.000000 0.000000
# 3 -0.002456 -0.000657 0.006706 0.000000 0.000000 0.000000
# 4 0.000000 0.000000 0.000000 0.098024 0.000000 0.000000
# 5 0.000000 0.000000 0.000000 0.000000 -0.095055 0.000000
# 6 0.000000 0.000000 0.000000 0.000000 0.000000 -0.135789
#
#
# Mechanical properties :
#
#
# Convention : Reuss Voigt Hill
#
# Bulk Modulus (GPa) = 60.53339 67.30175 63.91757
# Shear Modulus (GPa) = -53.49643 20.02870 -16.73386
#
# Velocity S-wave (km/s) = -4.67834 2.86257 -2.61654
# Velocity P-wave (km/s) = 2.10157 6.20167 4.12578
#
# Compressibility (1/GPa) = 0.01651981
#
# Stress axis : x y z
#
# Youngs Moduli (GPa) = 127.90214 93.80120 149.13052
#
# Poissons Ratio (x) = 0.11439 0.36624
# Poissons Ratio (y) = 0.15598 0.09801
# Poissons Ratio (z) = 0.31410 0.06164
#
# Static dielectric constant tensor:
#      x y z
#    x 2.101200 0.000000 0.000000 
#    y 0.000000 1.930990 0.000000 
#    z 0.000000 0.000000 1.886330 
# 
# From -- ./inp_files/2833.got.cif
#   From: 2010.05.17/outbox.cif.g08.bks.cpg/sg48_2_cif.got.tgz:2833.got - 2010.06.03 20:39:00.
