data_PCOD9389482
_publ_section_title
;
Structure prediction by ZEFSAII (Michael W. Deem and Ramdas Pophale) SiO2 
 PCOD9389482
Probable space group: P N N N
;
_chemical_formula_sum "Si O2"
_cell_formula_units_Z 64
_cell_length_a 14.380715
_cell_length_b 7.428724
_cell_length_c 22.938034
_cell_angle_alpha 90.000000
_cell_angle_beta 90.000000
_cell_angle_gamma 90.000000
_cell_volume 2450.478491
_symmetry_space_group_name_H-M "P N N N"
_symmetry_group_IT_number 48
_space_group.IT_coordinate_system_code '2'
_symmetry_cell_setting 'orthorhombic'
loop_
_space_group_symop_operation_xyz
x,y,z
1/2-x,1/2-y,z
x,1/2-y,1/2-z
1/2-x,y,1/2-z
-x,-y,-z
1/2+x,1/2+y,-z
-x,1/2+y,1/2+z
1/2+x,-y,1/2+z
loop_
_atom_site_type_symbol
_atom_site_label
_atom_site_fract_x
_atom_site_fract_y
_atom_site_fract_z
Si Si1 0.867488 0.080954 0.292565
Si Si2 0.394791 0.929297 0.361976
Si Si3 0.045331 0.698273 0.603005
Si Si4 0.426579 0.656008 0.018777
Si Si5 0.732019 0.035773 0.380963
Si Si6 0.728092 0.956126 0.994470
Si Si7 0.941630 0.531560 0.763247
Si Si8 0.804673 0.943539 0.628481
O O1 0.846603 0.250000 0.250000
O O2 0.924048 0.163714 0.347895
O O3 0.778267 0.982867 0.319817
O O4 0.950772 0.971209 0.265458
O O5 0.444116 0.118941 0.382796
O O6 0.408197 0.924759 0.293433
O O7 0.285203 0.930779 0.367994
O O8 0.438052 0.804366 0.412953
O O9 0.058027 0.778527 0.538089
O O10 0.120785 0.532933 0.611493
O O11 0.320916 0.579726 0.012373
O O12 0.500000 0.500000 0.000000
O O13 0.750000 0.250000 0.382573
O O14 0.787357 0.961924 0.436260
O O15 0.750000 0.750000 0.984434
O O16 0.661641 0.981915 0.938497
O O17 0.940311 0.750000 0.750000
O O18 0.877766 0.514437 0.820614
O O19 0.750000 0.750000 0.637867
#
# Coordination Sequence:
#
# PCOD9389482 Si02
#       8
#     8   8   8   8   8   8   8   8
#     4  10  18  30  45  69  98 125 163 215 259 296
#     4  10  16  25  39  64  96 128 163 204 251 300
#     4   9  15  28  42  65  92 119 162 215 243 288
#     4   8  16  27  45  66  95 130 173 207 244 297
#     4   9  19  32  51  71 101 136 175 213 254 308
#     4   9  18  32  49  75 105 137 168 215 265 311
#     4  11  18  26  40  65 105 134 165 201 262 314
#     4  10  17  25  42  65  99 141 159 192 253 321
#
# _framework density 26.117346000000001
#
# number of rings (size 3 to 8) (size 9 to 14) (size 15 to 20)
#    0.000    2.500    3.750    0.375    0.000    2.250 
#    0.000    0.625    0.000    0.000    0.000   15.750 
#    0.000   44.500    0.000    0.000    0.000    0.000 
#
# Total GULP energy -356476.731349 kJ/mol
# GULP energy per Si atom -5569.948927 kJ/mol
# Density = 2.605790 g / cm^3
# Si number density = 26.117346 Si / 1000 Ang^3
#
#
#
# Elastic Constant Matrix: (Units=GPa)
#
#
# Indices 1 2 3 4 5 6 
#
# 1 118.4669 11.6702 40.0395 0.0000 0.0000 0.0000
# 2 11.6702 40.4899 3.4494 0.0000 0.0000 0.0000
# 3 40.0395 3.4494 203.0839 0.0000 0.0000 0.0000
# 4 0.0000 0.0000 0.0000 26.8870 0.0000 0.0000
# 5 0.0000 0.0000 0.0000 0.0000 42.7086 0.0000
# 6 0.0000 0.0000 0.0000 0.0000 0.0000 6.2875
#
#
#
# Elastic Compliance Matrix: (Units=1/GPa)
#
#
# Indices 1 2 3 4 5 6 
#
# 1 0.009295 -0.002527 -0.001790 0.000000 0.000000 0.000000
# 2 -0.002527 0.025420 0.000066 0.000000 0.000000 0.000000
# 3 -0.001790 0.000066 0.005276 0.000000 0.000000 0.000000
# 4 0.000000 0.000000 0.000000 0.037193 0.000000 0.000000
# 5 0.000000 0.000000 0.000000 0.000000 0.023414 0.000000
# 6 0.000000 0.000000 0.000000 0.000000 0.000000 0.159045
#
#
# Mechanical properties :
#
#
# Convention : Reuss Voigt Hill
#
# Bulk Modulus (GPa) = 31.75499 52.48435 42.11967
# Shear Modulus (GPa) = 17.94432 35.63540 26.78986
#
# Velocity S-wave (km/s) = 2.62404 3.69783 3.20621
# Velocity P-wave (km/s) = 4.62231 6.19445 5.46520
#
# Compressibility (1/GPa) = 0.03149111
#
# Stress axis : x y z
#
# Youngs Moduli (GPa) = 107.58547 39.33893 189.54513
#
# Poissons Ratio (x) = 0.09939 0.33922
# Poissons Ratio (y) = 0.27182 -0.01258
# Poissons Ratio (z) = 0.19254 -0.00261
#
# Static dielectric constant tensor:
#      x y z
#    x 2.253370 0.000000 0.000000 
#    y 0.000000 2.111720 0.000000 
#    z 0.000000 0.000000 2.201640 
# 
# From -- ./inp_files/34732.got.cif
#   From: 2010.05.17/outbox.cif.g08.bks.cpg/sg48_18_cif.got.tgz:34732.got - 2010.06.03 20:39:00.
