data_PCOD9389491
_publ_section_title
;
Structure prediction by ZEFSAII (Michael W. Deem and Ramdas Pophale) SiO2 
 PCOD9389491
Probable space group: P N N N
;
_chemical_formula_sum "Si O2"
_cell_formula_units_Z 56
_cell_length_a 27.911576
_cell_length_b 5.455517
_cell_length_c 25.832964
_cell_angle_alpha 90.000000
_cell_angle_beta 90.000000
_cell_angle_gamma 90.000000
_cell_volume 3933.639093
_symmetry_space_group_name_H-M "P N N N"
_symmetry_group_IT_number 48
_space_group.IT_coordinate_system_code '2'
_symmetry_cell_setting 'orthorhombic'
loop_
_space_group_symop_operation_xyz
x,y,z
1/2-x,1/2-y,z
x,1/2-y,1/2-z
1/2-x,y,1/2-z
-x,-y,-z
1/2+x,1/2+y,-z
-x,1/2+y,1/2+z
1/2+x,-y,1/2+z
loop_
_atom_site_type_symbol
_atom_site_label
_atom_site_fract_x
_atom_site_fract_y
_atom_site_fract_z
Si Si1 0.581008 0.000000 0.615282
Si Si2 0.949349 0.500000 0.031916
Si Si3 0.980238 1.000000 0.059558
Si Si4 0.070062 0.000000 0.236655
Si Si5 0.780348 1.000000 0.606850
Si Si6 0.120279 0.000000 0.435671
Si Si7 0.176688 0.500000 0.221851
O O1 0.604021 0.750339 0.593105
O O2 0.525980 0.000000 0.596651
O O3 0.584929 1.000000 0.676937
O O4 0.604021 0.249662 0.593105
O O5 0.950753 0.749908 0.064169
O O6 0.950753 0.250092 0.064169
O O7 0.906939 0.500000 0.990350
O O8 0.000000 0.500000 0.000000
O O9 0.000000 0.000000 0.000000
O O10 0.043579 0.750000 0.250000
O O11 0.118780 0.000000 0.271379
O O12 0.043579 0.250000 0.250000
O O13 0.750000 0.250000 0.603331
O O14 0.822505 1.000000 0.564617
O O15 0.806286 0.000000 0.663067
O O16 0.750000 0.750000 0.603331
O O17 0.193059 0.750000 0.250000
O O18 0.193059 0.250000 0.250000
#
# Coordination Sequence:
#
# PCOD9389491 Si02
#       7
#     8   8   8   8   8   8   8
#     4  12  19  30  52  66  87 112 131 172 235 279
#     4  10  16  29  44  71  94 101 121 161 207 297
#     4  10  16  28  42  73  95 101 121 161 208 295
#     4  10  20  32  43  61  81 104 147 179 208 271
#     4  12  26  38  46  62  79 108 155 193 230 271
#     4  12  20  32  51  64  86 113 131 171 237 279
#     4  10  19  35  48  58  74  95 142 193 232 264
#
# _framework density 14.236181
#
# number of rings (size 3 to 8) (size 9 to 14) (size 15 to 20)
#    0.000    1.143    5.714    6.000    0.000    1.714 
#    0.000    0.000    0.000    0.000    0.000    0.000 
#    0.000    0.000    0.000    0.000    0.000    0.000 
#
# Total GULP energy -312393.477871 kJ/mol
# GULP energy per Si atom -5578.454962 kJ/mol
# Density = 1.420378 g / cm^3
# Si number density = 14.236181 Si / 1000 Ang^3
#
#
#
# Elastic Constant Matrix: (Units=GPa)
#
#
# Indices 1 2 3 4 5 6 
#
# 1 64.7398 28.7516 35.4356 0.0000 0.0000 0.0000
# 2 28.7516 168.1174 22.4411 0.0000 0.0000 0.0000
# 3 35.4356 22.4411 26.8132 0.0000 0.0000 0.0000
# 4 0.0000 0.0000 0.0000 16.0457 0.0000 0.0000
# 5 0.0000 0.0000 0.0000 0.0000 22.7599 0.0000
# 6 0.0000 0.0000 0.0000 0.0000 0.0000 3.0423
#
#
#
# Elastic Compliance Matrix: (Units=1/GPa)
#
#
# Indices 1 2 3 4 5 6 
#
# 1 0.055854 0.000339 -0.074099 0.000000 0.000000 0.000000
# 2 0.000339 0.006698 -0.006054 0.000000 0.000000 0.000000
# 3 -0.074099 -0.006054 0.140288 0.000000 0.000000 0.000000
# 4 0.000000 0.000000 0.000000 0.062322 0.000000 0.000000
# 5 0.000000 0.000000 0.000000 0.000000 0.043937 0.000000
# 6 0.000000 0.000000 0.000000 0.000000 0.000000 0.328696
#
#
# Mechanical properties :
#
#
# Convention : Reuss Voigt Hill
#
# Bulk Modulus (GPa) = 23.14102 48.10301 35.62201
# Shear Modulus (GPa) = 6.15894 19.90573 13.03234
#
# Velocity S-wave (km/s) = 2.08222 3.74337 3.02890
# Velocity P-wave (km/s) = 4.69800 7.24889 6.10810
#
# Compressibility (1/GPa) = 0.04321332
#
# Stress axis : x y z
#
# Youngs Moduli (GPa) = 17.90377 149.28970 7.12817
#
# Poissons Ratio (x) = -0.05058 0.52819
# Poissons Ratio (y) = -0.00607 0.04315
# Poissons Ratio (z) = 1.32665 0.90379
#
# Static dielectric constant tensor:
#      x y z
#    x 1.456110 0.000000 0.000000 
#    y 0.000000 1.594910 0.000000 
#    z 0.000000 0.000000 1.446250 
# 
# From -- ./inp_files/38100.got.cif
#   From: 2010.05.17/outbox.cif.g08.bks.cpg/sg48_20_cif.got.tgz:38100.got - 2010.06.03 20:39:00.
