data_PCOD9389971
_publ_section_title
;
Structure prediction by ZEFSAII (Michael W. Deem and Ramdas Pophale) SiO2 
 PCOD9389971
Probable space group: P N N N
;
_chemical_formula_sum "Si O2"
_cell_formula_units_Z 64
_cell_length_a 22.630279
_cell_length_b 9.101676
_cell_length_c 15.334306
_cell_angle_alpha 90.000000
_cell_angle_beta 90.000000
_cell_angle_gamma 90.000000
_cell_volume 3158.460175
_symmetry_space_group_name_H-M "P N N N"
_symmetry_group_IT_number 48
_space_group.IT_coordinate_system_code '2'
_symmetry_cell_setting 'orthorhombic'
loop_
_space_group_symop_operation_xyz
x,y,z
1/2-x,1/2-y,z
x,1/2-y,1/2-z
1/2-x,y,1/2-z
-x,-y,-z
1/2+x,1/2+y,-z
-x,1/2+y,1/2+z
1/2+x,-y,1/2+z
loop_
_atom_site_type_symbol
_atom_site_label
_atom_site_fract_x
_atom_site_fract_y
_atom_site_fract_z
Si Si1 0.981476 0.659696 0.531685
Si Si2 0.927251 0.304852 0.157659
Si Si3 0.945194 0.931649 0.445815
Si Si4 0.815218 0.313072 0.428460
Si Si5 0.817597 0.076882 0.743954
Si Si6 0.282063 0.112246 0.499065
Si Si7 0.335548 0.943427 0.050675
Si Si8 0.369132 0.162811 0.344009
O O1 0.958019 0.759373 0.451416
O O2 0.930878 0.673222 0.605996
O O3 0.000000 0.500000 0.500000
O O4 0.038112 0.730380 0.577904
O O5 0.949691 0.250000 0.250000
O O6 0.937720 0.478698 0.143570
O O7 0.860574 0.249078 0.142922
O O8 0.885125 0.971500 0.496848
O O9 0.000000 0.000000 0.500000
O O10 0.750000 0.250000 0.407191
O O11 0.817138 0.489032 0.444617
O O12 0.832813 0.224157 0.516867
O O13 0.813777 0.250000 0.750000
O O14 0.750000 0.017958 0.750000
O O15 0.847255 0.041864 0.652013
O O16 0.856544 0.004762 0.817689
O O17 0.250000 0.250000 0.546138
O O18 0.319409 0.184790 0.419606
O O19 0.229120 0.010594 0.463480
O O20 0.364286 0.250000 0.250000
#
# Coordination Sequence:
#
# PCOD9389971 Si02
#       8
#     8   8   8   8   8   8   8   8
#     4  11  23  41  62  86 118 160 206 252 303 380
#     4  10  21  40  65  90 117 149 201 261 313 357
#     4   9  20  39  62  83 111 155 201 250 300 368
#     4   9  20  36  59  84 113 157 202 246 302 373
#     4  11  22  33  51  81 122 160 198 248 303 362
#     4  11  20  31  51  79 115 153 195 236 290 366
#     4  10  19  35  52  78 115 157 200 239 300 367
#     4  12  24  36  54  84 123 160 203 246 309 371
#
# _framework density 20.263038000000002
#
# number of rings (size 3 to 8) (size 9 to 14) (size 15 to 20)
#    0.000    1.625    1.250    4.125    3.500    3.250 
#    0.000    0.625    0.000    0.000    0.000    7.875 
#    0.000    0.000    0.000    0.000    0.000    0.000 
#
# Total GULP energy -356738.211177 kJ/mol
# GULP energy per Si atom -5574.034550 kJ/mol
# Density = 2.021692 g / cm^3
# Si number density = 20.263038 Si / 1000 Ang^3
#
#
#
# Elastic Constant Matrix: (Units=GPa)
#
#
# Indices 1 2 3 4 5 6 
#
# 1 83.5966 14.5331 7.4700 0.0000 0.0000 0.0000
# 2 14.5331 137.5853 31.8227 0.0000 0.0000 0.0000
# 3 7.4700 31.8227 55.8356 0.0000 0.0000 0.0000
# 4 0.0000 0.0000 0.0000 2.1751 0.0000 0.0000
# 5 0.0000 0.0000 0.0000 0.0000 150.6007 0.0000
# 6 0.0000 0.0000 0.0000 0.0000 0.0000 12.1056
#
#
#
# Elastic Compliance Matrix: (Units=1/GPa)
#
#
# Indices 1 2 3 4 5 6 
#
# 1 0.012238 -0.001053 -0.001037 0.000000 0.000000 0.000000
# 2 -0.001053 0.008462 -0.004682 0.000000 0.000000 0.000000
# 3 -0.001037 -0.004682 0.020717 0.000000 0.000000 0.000000
# 4 0.000000 0.000000 0.000000 0.459753 0.000000 0.000000
# 5 0.000000 0.000000 0.000000 0.000000 0.006640 0.000000
# 6 0.000000 0.000000 0.000000 0.000000 0.000000 0.082606
#
#
# Mechanical properties :
#
#
# Convention : Reuss Voigt Hill
#
# Bulk Modulus (GPa) = 35.87708 42.74100 39.30904
# Shear Modulus (GPa) = 8.15325 47.85572 28.00449
#
# Velocity S-wave (km/s) = 2.00809 4.86503 3.72162
# Velocity P-wave (km/s) = 4.80840 7.25926 6.15701
#
# Compressibility (1/GPa) = 0.02787295
#
# Stress axis : x y z
#
# Youngs Moduli (GPa) = 81.71322 118.17003 48.26949
#
# Poissons Ratio (x) = 0.12441 0.05007
# Poissons Ratio (y) = 0.08603 0.22601
# Poissons Ratio (z) = 0.08476 0.55329
#
# Static dielectric constant tensor:
#      x y z
#    x 1.830740 0.000000 0.000000 
#    y 0.000000 1.803150 0.000000 
#    z 0.000000 0.000000 1.710980 
# 
# From -- ./inp_files/28653.got.cif
#   From: 2010.05.17/outbox.cif.g08.bks.cpg/sg48_15_cif.got.tgz:28653.got - 2010.06.03 20:39:00.
