data_PCOD9389000
_publ_section_title
;
Structure prediction by ZEFSAII (Michael W. Deem and Ramdas Pophale) SiO2 
 PCOD9389000
Probable space group: P M M M
;
_chemical_formula_sum "Si O2"
_cell_formula_units_Z 44
_cell_length_a 31.650415
_cell_length_b 7.853730
_cell_length_c 9.417342
_cell_angle_alpha 90.000000
_cell_angle_beta 90.000000
_cell_angle_gamma 90.000000
_cell_volume 2340.904617
_symmetry_space_group_name_H-M "P M M M"
_symmetry_group_IT_number 47
_symmetry_cell_setting 'orthorhombic'
loop_
_space_group_symop_operation_xyz
x,y,z
-x,-y,z
x,-y,-z
-x,y,-z
-x,-y,-z
x,y,-z
-x,y,z
x,-y,z
loop_
_atom_site_type_symbol
_atom_site_label
_atom_site_fract_x
_atom_site_fract_y
_atom_site_fract_z
Si Si1 0.789234 0.294652 0.163375
Si Si2 0.548532 0.000000 0.173567
Si Si3 0.697588 0.202358 0.164813
Si Si4 0.952901 0.292268 0.164544
Si Si5 0.393223 0.311453 0.826827
Si Si6 0.128870 0.291323 0.336996
O O1 0.790368 0.500000 0.159379
O O2 0.743607 0.243695 0.225725
O O3 0.829363 0.235537 0.252947
O O4 0.792329 0.232482 0.000000
O O5 0.574871 0.165223 0.219660
O O6 0.500000 0.000000 0.220194
O O7 0.548135 0.000000 0.000000
O O8 0.654818 0.282387 0.225059
O O9 0.691395 0.000000 0.164628
O O10 0.700424 0.261589 0.000000
O O11 0.952743 0.500000 0.167407
O O12 0.913967 0.234314 0.259615
O O13 0.000000 0.238005 0.210083
O O14 0.946915 0.242884 0.000000
O O15 0.407730 0.500000 0.789275
O O16 0.391240 0.300372 0.000000
O O17 0.129938 0.237960 0.500000
O O18 0.128779 0.500000 0.334372
#
# Coordination Sequence:
#
# PCOD9389000 Si02
#       6
#     8   4   8   8   8   8
#     4   9  16  25  38  56  76 100 133 171 212 261
#     4   9  16  24  32  46  72 106 145 187 228 273
#     4   9  15  24  38  55  74  95 126 173 223 264
#     4   8  13  21  33  49  71 102 139 177 217 260
#     4   9  15  23  35  50  71 101 138 182 230 275
#     4   9  16  24  34  50  75 106 137 171 213 262
#
# _framework density 18.796151999999999
#
# number of rings (size 3 to 8) (size 9 to 14) (size 15 to 20)
#    0.000    3.182    0.909    1.636    0.000    5.091 
#    0.000    3.636    0.000    0.545    0.000    0.000 
#    0.000    0.727    0.000    8.364    0.000   12.545 
#
# Total GULP energy -245144.600778 kJ/mol
# GULP energy per Si atom -5571.468200 kJ/mol
# Density = 1.875337 g / cm^3
# Si number density = 18.796152 Si / 1000 Ang^3
#
#
#
# Elastic Constant Matrix: (Units=GPa)
#
#
# Indices 1 2 3 4 5 6 
#
# 1 200.5310 57.0987 54.8288 0.0000 0.0000 0.0000
# 2 57.0987 60.6380 16.2197 0.0000 0.0000 0.0000
# 3 54.8288 16.2197 37.7996 0.0000 0.0000 0.0000
# 4 0.0000 0.0000 0.0000 -0.2987 0.0000 0.0000
# 5 0.0000 0.0000 0.0000 0.0000 -3.2388 0.0000
# 6 0.0000 0.0000 0.0000 0.0000 0.0000 26.3680
#
#
#
# Elastic Compliance Matrix: (Units=1/GPa)
#
#
# Indices 1 2 3 4 5 6 
#
# 1 0.010000 -0.006254 -0.011821 0.000000 0.000000 0.000000
# 2 -0.006254 0.022541 -0.000601 0.000000 0.000000 0.000000
# 3 -0.011821 -0.000601 0.043860 0.000000 0.000000 0.000000
# 4 0.000000 0.000000 0.000000 -3.347655 0.000000 0.000000
# 5 0.000000 0.000000 0.000000 0.000000 -0.308753 0.000000
# 6 0.000000 0.000000 0.000000 0.000000 0.000000 0.037925
#
#
# Mechanical properties :
#
#
# Convention : Reuss Voigt Hill
#
# Bulk Modulus (GPa) = 25.60902 61.69590 43.65246
# Shear Modulus (GPa) = -1.43196 15.95418 7.26111
#
# Velocity S-wave (km/s) = -0.87378 2.91658 1.96760
# Velocity P-wave (km/s) = 3.55474 6.65108 5.33259
#
# Compressibility (1/GPa) = 0.03904874
#
# Stress axis : x y z
#
# Youngs Moduli (GPa) = 100.00415 44.36367 22.80002
#
# Poissons Ratio (x) = 0.27745 0.26952
# Poissons Ratio (y) = 0.62543 0.01370
# Poissons Ratio (z) = 1.18215 0.02665
#
# Static dielectric constant tensor:
#      x y z
#    x 1.659650 0.000000 0.000000 
#    y 0.000000 1.687540 0.000000 
#    z 0.000000 0.000000 1.613080 
# 
# From -- ./inp_files/2063.got.cif
#   From: 2010.05.17/outbox.cif.g08.bks.cpg/sg47_2_cif.got.tgz:2063.got - 2010.06.03 20:15:42.
