data_PCOD9389501
_publ_section_title
;
Structure prediction by ZEFSAII (Michael W. Deem and Ramdas Pophale) SiO2 
 PCOD9389501
Probable space group: P N N N
;
_chemical_formula_sum "Si O2"
_cell_formula_units_Z 48
_cell_length_a 5.247866
_cell_length_b 13.051581
_cell_length_c 29.514513
_cell_angle_alpha 90.000000
_cell_angle_beta 90.000000
_cell_angle_gamma 90.000000
_cell_volume 2021.536009
_symmetry_space_group_name_H-M "P N N N"
_symmetry_group_IT_number 48
_space_group.IT_coordinate_system_code '2'
_symmetry_cell_setting 'orthorhombic'
loop_
_space_group_symop_operation_xyz
x,y,z
1/2-x,1/2-y,z
x,1/2-y,1/2-z
1/2-x,y,1/2-z
-x,-y,-z
1/2+x,1/2+y,-z
-x,1/2+y,1/2+z
1/2+x,-y,1/2+z
loop_
_atom_site_type_symbol
_atom_site_label
_atom_site_fract_x
_atom_site_fract_y
_atom_site_fract_z
Si Si1 0.011809 0.119645 0.572192
Si Si2 0.764666 0.024405 0.303398
Si Si3 0.501840 0.678629 0.526060
Si Si4 0.515026 0.350711 0.889037
Si Si5 0.236020 0.597020 0.302807
Si Si6 0.003352 0.819906 0.625510
O O1 0.014730 0.109469 0.518596
O O2 0.264304 0.087372 0.598092
O O3 0.750970 0.083186 0.593556
O O4 0.000426 0.243028 0.584321
O O5 0.750000 0.050193 0.250000
O O6 0.904011 0.109773 0.333299
O O7 0.465458 0.997721 0.311535
O O8 0.967863 0.930975 0.310884
O O9 0.750000 0.750000 0.523432
O O10 0.518013 0.627771 0.575637
O O11 0.250000 0.750000 0.521710
O O12 0.583798 0.328386 0.836968
O O13 0.250000 0.625667 0.250000
O O14 0.750000 0.750000 0.633383
O O15 0.250000 0.750000 0.618617
#
# Coordination Sequence:
#
# PCOD9389501 Si02
#       6
#     8   8   8   8   8   8
#     4  10  17  30  51  82 107 138 179 233 273 312
#     4  10  21  39  57  77 108 145 185 225 272 331
#     4  10  16  30  50  80 108 141 174 212 277 339
#     4  10  18  30  53  79 105 139 189 223 268 322
#     4  10  21  37  57  75 104 152 189 220 269 333
#     4  10  21  34  58  87 108 139 175 232 280 327
#
# _framework density 23.744322
#
# number of rings (size 3 to 8) (size 9 to 14) (size 15 to 20)
#    0.000    2.000    3.333    2.000    0.000    0.333 
#    0.000    2.500    0.000   10.000    0.000    0.000 
#    0.000    0.000    0.000    0.000    0.000    0.000 
#
# Total GULP energy -267351.038878 kJ/mol
# GULP energy per Si atom -5569.813310 kJ/mol
# Density = 2.369028 g / cm^3
# Si number density = 23.744322 Si / 1000 Ang^3
#
#
#
# Elastic Constant Matrix: (Units=GPa)
#
#
# Indices 1 2 3 4 5 6 
#
# 1 224.5181 19.1977 59.3083 0.0000 0.0000 0.0000
# 2 19.1977 33.5833 38.1032 0.0000 0.0000 0.0000
# 3 59.3083 38.1032 158.8968 0.0000 0.0000 0.0000
# 4 0.0000 0.0000 0.0000 -2.1875 0.0000 0.0000
# 5 0.0000 0.0000 0.0000 0.0000 53.5576 0.0000
# 6 0.0000 0.0000 0.0000 0.0000 0.0000 24.8342
#
#
#
# Elastic Compliance Matrix: (Units=1/GPa)
#
#
# Indices 1 2 3 4 5 6 
#
# 1 0.004966 -0.001011 -0.001611 0.000000 0.000000 0.000000
# 2 -0.001011 0.041112 -0.009481 0.000000 0.000000 0.000000
# 3 -0.001611 -0.009481 0.009168 0.000000 0.000000 0.000000
# 4 0.000000 0.000000 0.000000 -0.457148 0.000000 0.000000
# 5 0.000000 0.000000 0.000000 0.000000 0.018672 0.000000
# 6 0.000000 0.000000 0.000000 0.000000 0.000000 0.040267
#
#
# Mechanical properties :
#
#
# Convention : Reuss Voigt Hill
#
# Bulk Modulus (GPa) = 32.21678 72.24630 52.23154
# Shear Modulus (GPa) = -16.21220 35.26678 9.52729
#
# Velocity S-wave (km/s) = -2.61584 3.85810 2.00528
# Velocity P-wave (km/s) = 2.11522 7.09503 5.23515
#
# Compressibility (1/GPa) = 0.03103972
#
# Stress axis : x y z
#
# Youngs Moduli (GPa) = 201.36850 24.32391 109.07068
#
# Poissons Ratio (x) = 0.02459 0.17573
# Poissons Ratio (y) = 0.20354 1.03413
# Poissons Ratio (z) = 0.32444 0.23062
#
# Static dielectric constant tensor:
#      x y z
#    x 1.970170 0.000000 0.000000 
#    y 0.000000 2.014610 0.000000 
#    z 0.000000 0.000000 1.974670 
# 
# From -- ./inp_files/37090.got.cif
#   From: 2010.05.17/outbox.cif.g08.bks.cpg/sg48_19_cif.got.tgz:37090.got - 2010.06.03 20:39:00.
