data_PCOD9389886
_publ_section_title
;
Structure prediction by ZEFSAII (Michael W. Deem and Ramdas Pophale) SiO2 
 PCOD9389886
Probable space group: P N N N
;
_chemical_formula_sum "Si O2"
_cell_formula_units_Z 58
_cell_length_a 7.909787
_cell_length_b 14.973979
_cell_length_c 25.803991
_cell_angle_alpha 90.000000
_cell_angle_beta 90.000000
_cell_angle_gamma 90.000000
_cell_volume 3056.250096
_symmetry_space_group_name_H-M "P N N N"
_symmetry_group_IT_number 48
_space_group.IT_coordinate_system_code '2'
_symmetry_cell_setting 'orthorhombic'
loop_
_space_group_symop_operation_xyz
x,y,z
1/2-x,1/2-y,z
x,1/2-y,1/2-z
1/2-x,y,1/2-z
-x,-y,-z
1/2+x,1/2+y,-z
-x,1/2+y,1/2+z
1/2+x,-y,1/2+z
loop_
_atom_site_type_symbol
_atom_site_label
_atom_site_fract_x
_atom_site_fract_y
_atom_site_fract_z
Si Si1 0.430199 0.946593 0.366921
Si Si2 0.051416 0.929619 0.955367
Si Si3 0.049675 0.893543 0.244705
Si Si4 0.563913 0.757739 0.990962
Si Si5 0.557497 0.251912 0.897937
Si Si6 0.441395 0.937486 0.952461
Si Si7 0.750000 0.750000 0.250000
Si Si8 0.029617 0.564811 0.139019
O O1 0.452234 0.955712 0.305679
O O2 0.505770 0.850774 0.384992
O O3 0.228345 0.941179 0.376045
O O4 0.507179 0.023653 0.401510
O O5 0.248538 0.912918 0.961535
O O6 0.965060 0.834234 0.961464
O O7 0.000000 0.000000 0.000000
O O8 0.250000 0.860414 0.250000
O O9 0.012526 0.941947 0.299228
O O10 0.899126 0.822199 0.233329
O O11 0.750000 0.750000 0.014594
O O12 0.545415 0.845688 0.956208
O O13 0.443131 0.763147 0.040644
O O14 0.750000 0.250000 0.877242
O O15 0.468074 0.165902 0.873439
O O16 0.449095 0.992428 0.898960
O O17 0.500000 0.000000 0.000000
#
# Coordination Sequence:
#
# PCOD9389886 Si02
#       8
#     8   8   8   8   8   8   2   8
#     4  10  21  39  61  85 121 165 205 248 302 358
#     4  12  24  39  60  87 121 158 201 251 305 365
#     4  10  23  41  59  87 128 170 208 260 308 367
#     4  12  24  39  58  85 118 156 201 246 306 363
#     4  10  19  32  56  84 121 159 198 242 291 354
#     4  12  24  39  60  87 121 158 201 251 305 365
#     4  12  22  36  64  90 132 158 226 244 316 372
#     4  10  21  39  61  85 121 165 205 248 302 358
#
# _framework density 18.977504
#
# number of rings (size 3 to 8) (size 9 to 14) (size 15 to 20)
#    0.000    1.103    2.759    4.759    1.931    2.207 
#    2.483    0.000    0.000    0.828    0.000    5.793 
#    0.000    0.000    0.000    0.000    0.000    0.000 
#
# Total GULP energy -323393.640519 kJ/mol
# GULP energy per Si atom -5575.752423 kJ/mol
# Density = 1.893431 g / cm^3
# Si number density = 18.977504 Si / 1000 Ang^3
#
#
#
# Elastic Constant Matrix: (Units=GPa)
#
#
# Indices 1 2 3 4 5 6 
#
# 1 70.1664 2.5036 -3.2830 0.0000 0.0000 0.0000
# 2 2.5036 110.0766 44.6641 0.0000 0.0000 0.0000
# 3 -3.2830 44.6641 106.6557 0.0000 0.0000 0.0000
# 4 0.0000 0.0000 0.0000 -3.6970 0.0000 0.0000
# 5 0.0000 0.0000 0.0000 0.0000 20.8965 0.0000
# 6 0.0000 0.0000 0.0000 0.0000 0.0000 18.8602
#
#
#
# Elastic Compliance Matrix: (Units=1/GPa)
#
#
# Indices 1 2 3 4 5 6 
#
# 1 0.014306 -0.000607 0.000695 0.000000 0.000000 0.000000
# 2 -0.000607 0.010970 -0.004613 0.000000 0.000000 0.000000
# 3 0.000695 -0.004613 0.011329 0.000000 0.000000 0.000000
# 4 0.000000 0.000000 0.000000 -0.270493 0.000000 0.000000
# 5 0.000000 0.000000 0.000000 0.000000 0.047855 0.000000
# 6 0.000000 0.000000 0.000000 0.000000 0.000000 0.053022
#
#
# Mechanical properties :
#
#
# Convention : Reuss Voigt Hill
#
# Bulk Modulus (GPa) = 36.29158 41.62978 38.96068
# Shear Modulus (GPa) = -43.56304 23.41287 -10.07509
#
# Velocity S-wave (km/s) = -4.79635 3.51624 -2.30662
# Velocity P-wave (km/s) = 3.39238 6.20236 3.67158
#
# Compressibility (1/GPa) = 0.02755460
#
# Stress axis : x y z
#
# Youngs Moduli (GPa) = 69.90076 91.15801 88.26942
#
# Poissons Ratio (x) = 0.05535 -0.06132
# Poissons Ratio (y) = 0.04245 0.40715
# Poissons Ratio (z) = -0.04856 0.42047
#
# Static dielectric constant tensor:
#      x y z
#    x 1.704790 0.000000 0.000000 
#    y 0.000000 1.593830 0.000000 
#    z 0.000000 0.000000 1.616670 
# 
# From -- ./inp_files/35960.got.cif
#   From: 2010.05.17/outbox.cif.g08.bks.cpg/sg48_18_cif.got.tgz:35960.got - 2010.06.03 20:39:00.
