data_PCOD9389866
_publ_section_title
;
Structure prediction by ZEFSAII (Michael W. Deem and Ramdas Pophale) SiO2 
 PCOD9389866
Probable space group: P N N N
;
_chemical_formula_sum "Si O2"
_cell_formula_units_Z 32
_cell_length_a 34.728842
_cell_length_b 7.213299
_cell_length_c 5.174195
_cell_angle_alpha 90.000000
_cell_angle_beta 90.000000
_cell_angle_gamma 90.000000
_cell_volume 1296.185112
_symmetry_space_group_name_H-M "P N N N"
_symmetry_group_IT_number 48
_space_group.IT_coordinate_system_code '2'
_symmetry_cell_setting 'orthorhombic'
loop_
_space_group_symop_operation_xyz
x,y,z
1/2-x,1/2-y,z
x,1/2-y,1/2-z
1/2-x,y,1/2-z
-x,-y,-z
1/2+x,1/2+y,-z
-x,1/2+y,1/2+z
1/2+x,-y,1/2+z
loop_
_atom_site_type_symbol
_atom_site_label
_atom_site_fract_x
_atom_site_fract_y
_atom_site_fract_z
Si Si1 0.205643 0.524260 0.755732
Si Si2 0.659486 0.473576 0.747620
Si Si3 0.072382 0.036472 0.293620
Si Si4 0.463544 0.469106 0.809361
O O1 0.205938 0.750000 0.750000
O O2 0.250000 0.465347 0.750000
O O3 0.176913 0.467696 0.523729
O O4 0.188917 0.466231 0.029047
O O5 0.657416 0.250000 0.750000
O O6 0.617403 0.536622 0.652138
O O7 0.060087 0.250000 0.250000
O O8 0.045141 0.953771 0.520491
O O9 0.069090 0.956520 0.004177
O O10 0.461473 0.250000 0.750000
O O11 0.500000 0.500000 0.000000
#
# Coordination Sequence:
#
# PCOD9389866 Si02
#       4
#     8   8   8   8
#     4   9  17  30  50  76 106 138 175 222 270 314
#     4  10  19  32  52  79 105 136 180 222 264 318
#     4  10  21  37  56  78 109 144 176 217 274 331
#     4  10  21  38  58  81 107 141 182 223 273 331
#
# _framework density 24.687833000000001
#
# number of rings (size 3 to 8) (size 9 to 14) (size 15 to 20)
#    0.000    2.250    0.000    3.000    0.000    4.000 
#    0.000    2.500    0.000    4.500    0.000    0.000 
#    0.000    0.000    0.000    0.000    0.000    0.000 
#
# Total GULP energy -178461.369575 kJ/mol
# GULP energy per Si atom -5576.917799 kJ/mol
# Density = 2.463164 g / cm^3
# Si number density = 24.687833 Si / 1000 Ang^3
#
#
#
# Elastic Constant Matrix: (Units=GPa)
#
#
# Indices 1 2 3 4 5 6 
#
# 1 123.5498 -23.3155 46.7029 0.0000 0.0000 0.0000
# 2 -23.3155 87.5301 6.5960 0.0000 0.0000 0.0000
# 3 46.7029 6.5960 202.3249 0.0000 0.0000 0.0000
# 4 0.0000 0.0000 0.0000 -5.3019 0.0000 0.0000
# 5 0.0000 0.0000 0.0000 0.0000 49.1342 0.0000
# 6 0.0000 0.0000 0.0000 0.0000 0.0000 470.2790
#
#
#
# Elastic Compliance Matrix: (Units=1/GPa)
#
#
# Indices 1 2 3 4 5 6 
#
# 1 0.009460 0.002691 -0.002271 0.000000 0.000000 0.000000
# 2 0.002691 0.012218 -0.001020 0.000000 0.000000 0.000000
# 3 -0.002271 -0.001020 0.005500 0.000000 0.000000 0.000000
# 4 0.000000 0.000000 0.000000 -0.188610 0.000000 0.000000
# 5 0.000000 0.000000 0.000000 0.000000 0.020352 0.000000
# 6 0.000000 0.000000 0.000000 0.000000 0.000000 0.002126
#
#
# Mechanical properties :
#
#
# Convention : Reuss Voigt Hill
#
# Bulk Modulus (GPa) = 38.49249 52.59683 45.54466
# Shear Modulus (GPa) = -38.73172 128.38368 44.82598
#
# Velocity S-wave (km/s) = -3.96518 7.21912 4.26574
# Velocity P-wave (km/s) = 2.31041 9.53093 6.53837
#
# Compressibility (1/GPa) = 0.02597909
#
# Stress axis : x y z
#
# Youngs Moduli (GPa) = 105.70376 81.84434 181.81447
#
# Poissons Ratio (x) = -0.22026 0.41299
# Poissons Ratio (y) = -0.28446 0.18536
# Poissons Ratio (z) = 0.24010 0.08344
#
# Static dielectric constant tensor:
#      x y z
#    x 1.998150 0.000000 0.000000 
#    y 0.000000 2.050290 0.000000 
#    z 0.000000 0.000000 1.986120 
# 
# From -- ./inp_files/6763.got.cif
#   From: 2010.05.17/outbox.cif.g08.bks.cpg/sg48_4_cif.got.tgz:6763.got - 2010.06.03 20:39:00.
