data_PCOD9389469
_publ_section_title
;
Structure prediction by ZEFSAII (Michael W. Deem and Ramdas Pophale) SiO2 
 PCOD9389469
Probable space group: P N N N
;
_chemical_formula_sum "Si O2"
_cell_formula_units_Z 40
_cell_length_a 10.873603
_cell_length_b 8.386160
_cell_length_c 22.403452
_cell_angle_alpha 90.000000
_cell_angle_beta 90.000000
_cell_angle_gamma 90.000000
_cell_volume 2042.920930
_symmetry_space_group_name_H-M "P N N N"
_symmetry_group_IT_number 48
_space_group.IT_coordinate_system_code '2'
_symmetry_cell_setting 'orthorhombic'
loop_
_space_group_symop_operation_xyz
x,y,z
1/2-x,1/2-y,z
x,1/2-y,1/2-z
1/2-x,y,1/2-z
-x,-y,-z
1/2+x,1/2+y,-z
-x,1/2+y,1/2+z
1/2+x,-y,1/2+z
loop_
_atom_site_type_symbol
_atom_site_label
_atom_site_fract_x
_atom_site_fract_y
_atom_site_fract_z
Si Si1 0.312998 0.080982 0.537096
Si Si2 0.137283 0.640792 0.897898
Si Si3 0.370940 0.428646 0.220013
Si Si4 0.618806 0.439707 0.269150
Si Si5 0.452360 0.418782 0.086273
O O1 0.250000 0.250000 0.547341
O O2 0.363780 0.063998 0.470141
O O3 0.204386 0.956217 0.550726
O O4 0.432472 0.042109 0.578650
O O5 0.250000 0.750000 0.873985
O O6 0.100533 0.543185 0.839725
O O7 0.024585 0.750096 0.917283
O O8 0.374989 0.250000 0.250000
O O9 0.250000 0.502567 0.250000
O O10 0.499458 0.508938 0.237544
O O11 0.378053 0.421881 0.148322
O O12 0.620753 0.250000 0.250000
O O13 0.750000 0.506703 0.250000
#
# Coordination Sequence:
#
# PCOD9389469 Si02
#       5
#     8   8   8   8   8
#     4  10  23  36  54  83 121 164 196 244 295 365
#     4  10  17  32  55  81 111 150 200 241 297 346
#     4  10  19  30  55  97 115 137 183 273 313 325
#     4  10  14  26  52  87 104 140 187 255 287 337
#     4  10  20  38  58  85 120 150 204 250 301 360
#
# _framework density 19.579808
#
# number of rings (size 3 to 8) (size 9 to 14) (size 15 to 20)
#    0.000    2.000    6.000    1.200    2.800    0.800 
#    0.000    0.000    0.000    5.400    0.000    2.800 
#    0.000    0.000    0.000    0.000    0.000    0.000 
#
# Total GULP energy -222737.262097 kJ/mol
# GULP energy per Si atom -5568.431552 kJ/mol
# Density = 1.953524 g / cm^3
# Si number density = 19.579808 Si / 1000 Ang^3
#
#
#
# Elastic Constant Matrix: (Units=GPa)
#
#
# Indices 1 2 3 4 5 6 
#
# 1 136.7755 29.2449 65.2519 0.0000 0.0000 0.0000
# 2 29.2449 31.7049 28.9770 0.0000 0.0000 0.0000
# 3 65.2519 28.9770 150.6554 0.0000 0.0000 0.0000
# 4 0.0000 0.0000 0.0000 1.0142 0.0000 0.0000
# 5 0.0000 0.0000 0.0000 0.0000 -0.4366 0.0000
# 6 0.0000 0.0000 0.0000 0.0000 0.0000 2.1398
#
#
#
# Elastic Compliance Matrix: (Units=1/GPa)
#
#
# Indices 1 2 3 4 5 6 
#
# 1 0.010220 -0.006529 -0.003171 0.000000 0.000000 0.000000
# 2 -0.006529 0.042439 -0.005335 0.000000 0.000000 0.000000
# 3 -0.003171 -0.005335 0.009037 0.000000 0.000000 0.000000
# 4 0.000000 0.000000 0.000000 0.985960 0.000000 0.000000
# 5 0.000000 0.000000 0.000000 0.000000 -2.290612 0.000000
# 6 0.000000 0.000000 0.000000 0.000000 0.000000 0.467337
#
#
# Mechanical properties :
#
#
# Convention : Reuss Voigt Hill
#
# Bulk Modulus (GPa) = 31.61858 62.89814 47.25836
# Shear Modulus (GPa) = -6.80266 13.58763 3.39248
#
# Velocity S-wave (km/s) = -1.86598 2.63717 1.31773
# Velocity P-wave (km/s) = 3.39722 6.43946 5.14819
#
# Compressibility (1/GPa) = 0.03162698
#
# Stress axis : x y z
#
# Youngs Moduli (GPa) = 97.84822 23.56311 110.65571
#
# Poissons Ratio (x) = 0.15385 0.35085
# Poissons Ratio (y) = 0.63886 0.59033
# Poissons Ratio (z) = 0.31024 0.12571
#
# Static dielectric constant tensor:
#      x y z
#    x 1.731580 0.000000 0.000000 
#    y 0.000000 1.697300 0.000000 
#    z 0.000000 0.000000 1.720210 
# 
# From -- ./inp_files/10978.got.cif
#   From: 2010.05.17/outbox.cif.g08.bks.cpg/sg48_6_cif.got.tgz:10978.got - 2010.06.03 20:39:00.
