data_PCOD9389819
_publ_section_title
;
Structure prediction by ZEFSAII (Michael W. Deem and Ramdas Pophale) SiO2 
 PCOD9389819
Probable space group: P N N N
;
_chemical_formula_sum "Si O2"
_cell_formula_units_Z 52
_cell_length_a 10.314773
_cell_length_b 19.006621
_cell_length_c 12.654234
_cell_angle_alpha 90.000000
_cell_angle_beta 90.000000
_cell_angle_gamma 90.000000
_cell_volume 2480.849682
_symmetry_space_group_name_H-M "P N N N"
_symmetry_group_IT_number 48
_space_group.IT_coordinate_system_code '2'
_symmetry_cell_setting 'orthorhombic'
loop_
_space_group_symop_operation_xyz
x,y,z
1/2-x,1/2-y,z
x,1/2-y,1/2-z
1/2-x,y,1/2-z
-x,-y,-z
1/2+x,1/2+y,-z
-x,1/2+y,1/2+z
1/2+x,-y,1/2+z
loop_
_atom_site_type_symbol
_atom_site_label
_atom_site_fract_x
_atom_site_fract_y
_atom_site_fract_z
Si Si1 0.144215 0.167577 0.343009
Si Si2 0.814121 0.104103 0.002933
Si Si3 0.083757 0.121882 0.901545
Si Si4 0.788472 0.963695 0.903359
Si Si5 0.359279 0.643711 0.669618
Si Si6 0.441838 0.980513 0.702468
Si Si7 0.750000 0.750000 0.038809
O O1 0.250000 0.181305 0.250000
O O2 0.173594 0.087106 0.372348
O O3 0.161567 0.209532 0.452212
O O4 0.997528 0.177709 0.308107
O O5 0.702908 0.151610 0.054233
O O6 0.878961 0.063639 0.104140
O O7 0.934466 0.135720 0.937228
O O8 0.750928 0.041907 0.935059
O O9 0.087280 0.063609 0.808269
O O10 0.144829 0.077428 0.998810
O O11 0.166986 0.193125 0.895587
O O12 0.905055 0.971663 0.819483
O O13 0.250000 0.668576 0.750000
O O14 0.387577 0.560681 0.696461
#
# Coordination Sequence:
#
# PCOD9389819 Si02
#       7
#     8   8   8   8   8   8   4
#     4  11  20  32  47  67 100 133 169 204 246 313
#     4   8  15  27  46  71  98 121 159 206 261 297
#     4   8  15  29  49  67  92 131 172 198 234 298
#     4   8  14  27  47  66  91 128 162 202 247 299
#     4  10  19  29  48  73 102 127 156 210 270 306
#     4   8  13  27  47  68  91 126 159 202 249 302
#     4  10  21  32  50  68  95 140 182 200 227 308
#
# _framework density 20.960560999999998
#
# number of rings (size 3 to 8) (size 9 to 14) (size 15 to 20)
#    0.000    3.077    1.538    2.077    2.154    0.615 
#    0.000    0.769    0.000    0.000    0.000   26.385 
#    0.000    0.000    0.000   24.615    0.000    0.000 
#
# Total GULP energy -289509.685446 kJ/mol
# GULP energy per Si atom -5567.493951 kJ/mol
# Density = 2.091285 g / cm^3
# Si number density = 20.960561 Si / 1000 Ang^3
#
#
#
# Elastic Constant Matrix: (Units=GPa)
#
#
# Indices 1 2 3 4 5 6 
#
# 1 125.6443 34.4225 3.9400 0.0000 0.0000 0.0000
# 2 34.4225 88.5048 8.4868 0.0000 0.0000 0.0000
# 3 3.9400 8.4868 11.9267 0.0000 0.0000 0.0000
# 4 0.0000 0.0000 0.0000 313.1122 0.0000 0.0000
# 5 0.0000 0.0000 0.0000 0.0000 9.1887 0.0000
# 6 0.0000 0.0000 0.0000 0.0000 0.0000 -1.5919
#
#
#
# Elastic Compliance Matrix: (Units=1/GPa)
#
#
# Indices 1 2 3 4 5 6 
#
# 1 0.008911 -0.003417 -0.000513 0.000000 0.000000 0.000000
# 2 -0.003417 0.013436 -0.008432 0.000000 0.000000 0.000000
# 3 -0.000513 -0.008432 0.090015 0.000000 0.000000 0.000000
# 4 0.000000 0.000000 0.000000 0.003194 0.000000 0.000000
# 5 0.000000 0.000000 0.000000 0.000000 0.108829 0.000000
# 6 0.000000 0.000000 0.000000 0.000000 0.000000 -0.628169
#
#
# Mechanical properties :
#
#
# Convention : Reuss Voigt Hill
#
# Bulk Modulus (GPa) = 11.41043 35.53047 23.47045
# Shear Modulus (GPa) = -14.29192 76.09022 30.89915
#
# Velocity S-wave (km/s) = -2.61406 6.03162 3.84364
# Velocity P-wave (km/s) = 1.91193 8.09291 5.56056
#
# Compressibility (1/GPa) = 0.08763915
#
# Stress axis : x y z
#
# Youngs Moduli (GPa) = 112.21941 74.42544 11.10931
#
# Poissons Ratio (x) = 0.25429 0.00569
# Poissons Ratio (y) = 0.38342 0.09368
# Poissons Ratio (z) = 0.05751 0.62757
#
# Static dielectric constant tensor:
#      x y z
#    x 1.827430 0.000000 0.000000 
#    y 0.000000 1.800810 0.000000 
#    z 0.000000 0.000000 1.867530 
# 
# From -- ./inp_files/26653.got.cif
#   From: 2010.05.17/outbox.cif.g08.bks.cpg/sg48_14_cif.got.tgz:26653.got - 2010.06.03 20:39:00.
