data_PCOD9389098
_publ_section_title
;
Structure prediction by ZEFSAII (Michael W. Deem and Ramdas Pophale) SiO2 
 PCOD9389098
Probable space group: P M M M
;
_chemical_formula_sum "Si O2"
_cell_formula_units_Z 36
_cell_length_a 24.491541
_cell_length_b 9.313980
_cell_length_c 7.409166
_cell_angle_alpha 90.000000
_cell_angle_beta 90.000000
_cell_angle_gamma 90.000000
_cell_volume 1690.132441
_symmetry_space_group_name_H-M "P M M M"
_symmetry_group_IT_number 47
_symmetry_cell_setting 'orthorhombic'
loop_
_space_group_symop_operation_xyz
x,y,z
-x,-y,z
x,-y,-z
-x,y,-z
-x,-y,-z
x,y,-z
-x,y,z
x,-y,z
loop_
_atom_site_type_symbol
_atom_site_label
_atom_site_fract_x
_atom_site_fract_y
_atom_site_fract_z
Si Si1 0.283512 0.164884 0.220837
Si Si2 0.058632 0.333049 0.283374
Si Si3 0.391730 0.665320 0.220294
Si Si4 0.178284 0.663546 0.213493
Si Si5 0.500000 0.165495 0.220412
O O1 0.336525 0.254760 0.276755
O O2 0.227833 0.240938 0.283229
O O3 0.286785 0.000000 0.278349
O O4 0.283295 0.164304 0.000000
O O5 0.057198 0.334490 0.500000
O O6 0.059870 0.500000 0.221621
O O7 0.117598 0.271504 0.234967
O O8 0.000000 0.271467 0.221578
O O9 0.392895 0.500000 0.278159
O O10 0.445532 0.751337 0.277594
O O11 0.391869 0.664995 0.000000
O O12 0.178756 0.500000 0.287699
O O13 0.187196 0.651094 0.000000
O O14 0.500000 0.000000 0.277846
O O15 0.500000 0.165347 0.000000
#
# Coordination Sequence:
#
# PCOD9389098 Si02
#       5
#     8   8   8   8   4
#     4   9  16  25  36  50  71 100 131 163 203 249
#     4   8  14  25  41  61  84 108 133 163 202 246
#     4   9  15  22  32  46  66  94 130 170 207 242
#     4   9  16  25  39  60  82 103 132 170 206 240
#     4   9  15  21  29  43  65  95 132 169 204 245
#
# _framework density 21.300107000000001
#
# number of rings (size 3 to 8) (size 9 to 14) (size 15 to 20)
#    0.000    3.222    0.000    2.333    0.000    7.111 
#    0.000    2.222    0.000    1.333    0.000    4.667 
#    0.000    0.000    0.000    1.000    0.000   21.778 
#
# Total GULP energy -200794.525790 kJ/mol
# GULP energy per Si atom -5577.625716 kJ/mol
# Density = 2.125163 g / cm^3
# Si number density = 21.300107 Si / 1000 Ang^3
#
#
#
# Elastic Constant Matrix: (Units=GPa)
#
#
# Indices 1 2 3 4 5 6 
#
# 1 269.7647 128.2181 2.4123 0.0000 0.0000 0.0000
# 2 128.2181 152.5588 5.0160 0.0000 0.0000 0.0000
# 3 2.4123 5.0160 67.9493 0.0000 0.0000 0.0000
# 4 0.0000 0.0000 0.0000 -7.8694 0.0000 0.0000
# 5 0.0000 0.0000 0.0000 0.0000 65.6302 0.0000
# 6 0.0000 0.0000 0.0000 0.0000 0.0000 -13.7807
#
#
#
# Elastic Compliance Matrix: (Units=1/GPa)
#
#
# Indices 1 2 3 4 5 6 
#
# 1 0.006175 -0.005195 0.000164 0.000000 0.000000 0.000000
# 2 -0.005195 0.010941 -0.000623 0.000000 0.000000 0.000000
# 3 0.000164 -0.000623 0.014757 0.000000 0.000000 0.000000
# 4 0.000000 0.000000 0.000000 -0.127074 0.000000 0.000000
# 5 0.000000 0.000000 0.000000 0.000000 0.015237 0.000000
# 6 0.000000 0.000000 0.000000 0.000000 0.000000 -0.072565
#
#
# Mechanical properties :
#
#
# Convention : Reuss Voigt Hill
#
# Bulk Modulus (GPa) = 48.62557 84.61841 66.62199
# Shear Modulus (GPa) = -37.21153 32.43778 -2.38688
#
# Velocity S-wave (km/s) = -4.18426 3.90666 -1.05973
# Velocity P-wave (km/s) = 0.68242 7.75644 5.46336
#
# Compressibility (1/GPa) = 0.02056531
#
# Stress axis : x y z
#
# Youngs Moduli (GPa) = 161.95580 91.39686 67.76430
#
# Poissons Ratio (x) = 0.47479 -0.01113
# Poissons Ratio (y) = 0.84132 0.04223
# Poissons Ratio (z) = -0.02660 0.05696
#
# Static dielectric constant tensor:
#      x y z
#    x 1.772320 0.000000 0.000000 
#    y 0.000000 1.715890 0.000000 
#    z 0.000000 0.000000 1.817220 
# 
# From -- ./inp_files/3753.got.cif
#   From: 2010.05.17/outbox.cif.g08.bks.cpg/sg47_2_cif.got.tgz:3753.got - 2010.06.03 20:15:42.
