data_PCOD9389318
_publ_section_title
;
Structure prediction by ZEFSAII (Michael W. Deem and Ramdas Pophale) SiO2 
 PCOD9389318
Probable space group: P M M M
;
_chemical_formula_sum "Si O2"
_cell_formula_units_Z 64
_cell_length_a 21.000000
_cell_length_b 21.000000
_cell_length_c 9.000000
_cell_angle_alpha 90.000000
_cell_angle_beta 90.000000
_cell_angle_gamma 90.000000
_cell_volume 3969.000000
_symmetry_space_group_name_H-M "P M M M"
_symmetry_group_IT_number 47
_symmetry_cell_setting 'orthorhombic'
loop_
_space_group_symop_operation_xyz
x,y,z
-x,-y,z
x,-y,-z
-x,y,-z
-x,-y,-z
x,y,-z
-x,y,z
x,-y,z
loop_
_atom_site_type_symbol
_atom_site_label
_atom_site_fract_x
_atom_site_fract_y
_atom_site_fract_z
Si Si1 0.073127 0.275715 0.178938
Si Si2 0.711278 0.813359 0.679090
Si Si3 0.571788 0.233698 0.320813
Si Si4 0.792737 0.073269 0.180006
Si Si5 0.206573 0.685699 0.679053
Si Si6 0.070391 0.875590 0.820463
Si Si7 0.570959 0.373953 0.179094
Si Si8 0.291184 0.573379 0.179617
O O1 0.134606 0.307552 0.256297
O O2 0.076783 0.199824 0.211474
O O3 0.000000 0.295947 0.219932
O O4 0.078665 0.283340 0.000000
O O5 0.713410 0.819824 0.500000
O O6 0.636641 0.803611 0.722644
O O7 0.745191 0.874326 0.752282
O O8 0.752265 0.749602 0.717372
O O9 0.573809 0.239389 0.500000
O O10 0.500000 0.208580 0.282471
O O11 0.576207 0.303852 0.249872
O O12 0.865503 0.089217 0.229732
O O13 0.777324 0.000000 0.218757
O O14 0.791083 0.078749 0.000000
O O15 0.203980 0.681377 0.500000
O O16 0.244851 0.625223 0.745151
O O17 0.000000 0.896854 0.766449
O O18 0.069055 0.881898 0.000000
O O19 0.500000 0.399614 0.219836
O O20 0.634717 0.412342 0.220872
O O21 0.571800 0.368628 0.000000
O O22 0.275806 0.500000 0.217917
O O23 0.286288 0.579888 0.000000
#
# Coordination Sequence:
#
# PCOD9389318 Si02
#       8
#     8   8   8   8   8   8   8   8
#     4   9  17  31  53  78 102 132 169 207 251 301
#     4  10  20  33  50  74 100 131 168 206 253 301
#     4   9  17  31  51  73  98 127 164 210 253 296
#     4  10  20  32  49  74 101 132 169 207 250 298
#     4  11  21  33  52  78 104 133 171 212 255 300
#     4   8  14  26  45  70  99 129 162 199 237 281
#     4   9  17  29  47  73 103 134 168 205 248 297
#     4  10  21  35  51  73 103 140 176 209 250 300
#
# _framework density 16.124969
#
# number of rings (size 3 to 8) (size 9 to 14) (size 15 to 20)
#    0.000    2.500    2.500    1.125    0.000    2.250 
#    0.000    2.500    0.000    1.125    0.000    8.750 
#    0.000    0.000    0.000    0.000    0.000    0.000 
#
# Total GULP energy -356536.083213 kJ/mol
# GULP energy per Si atom -5570.876300 kJ/mol
# Density = 1.608827 g / cm^3
# Si number density = 16.124969 Si / 1000 Ang^3
#
#
#
# Elastic Constant Matrix: (Units=GPa)
#
#
# Indices 1 2 3 4 5 6 
#
# 1 166.7199 76.1227 35.7526 0.0000 0.0000 0.0000
# 2 76.1227 110.1646 30.4165 0.0000 0.0000 0.0000
# 3 35.7526 30.4165 23.1912 0.0000 0.0000 0.0000
# 4 0.0000 0.0000 0.0000 19.2238 0.0000 0.0000
# 5 0.0000 0.0000 0.0000 0.0000 24.7342 0.0000
# 6 0.0000 0.0000 0.0000 0.0000 0.0000 27.1888
#
#
#
# Elastic Compliance Matrix: (Units=1/GPa)
#
#
# Indices 1 2 3 4 5 6 
#
# 1 0.010056 -0.004183 -0.010017 0.000000 0.000000 0.000000
# 2 -0.004183 0.015971 -0.014497 0.000000 0.000000 0.000000
# 3 -0.010017 -0.014497 0.077576 0.000000 0.000000 0.000000
# 4 0.000000 0.000000 0.000000 0.052019 0.000000 0.000000
# 5 0.000000 0.000000 0.000000 0.000000 0.040430 0.000000
# 6 0.000000 0.000000 0.000000 0.000000 0.000000 0.036780
#
#
# Mechanical properties :
#
#
# Convention : Reuss Voigt Hill
#
# Bulk Modulus (GPa) = 21.64105 64.96214 43.30160
# Shear Modulus (GPa) = 16.35975 24.74826 20.55401
#
# Velocity S-wave (km/s) = 3.18867 3.92188 3.57412
# Velocity P-wave (km/s) = 5.19681 7.80271 6.62907
#
# Compressibility (1/GPa) = 0.04620847
#
# Stress axis : x y z
#
# Youngs Moduli (GPa) = 99.44254 62.61536 12.89060
#
# Poissons Ratio (x) = 0.26192 0.12912
# Poissons Ratio (y) = 0.41598 0.18688
# Poissons Ratio (z) = 0.99607 0.90776
#
# Static dielectric constant tensor:
#      x y z
#    x 1.567390 0.000000 0.000000 
#    y 0.000000 1.518000 0.000000 
#    z 0.000000 0.000000 1.539080 
# 
# From -- ./inp_files/9930.got.cif
#   From: 2010.05.17/outbox.ucp.g08.bks.cvg/sg47_5_cif.got.tgz:9930.got - 2010.06.11 16:36:43.
