data_PCOD9389185
_publ_section_title
;
Structure prediction by ZEFSAII (Michael W. Deem and Ramdas Pophale) SiO2 
 PCOD9389185
Probable space group: P M M M
;
_chemical_formula_sum "Si O2"
_cell_formula_units_Z 40
_cell_length_a 9.394440
_cell_length_b 7.907473
_cell_length_c 28.797059
_cell_angle_alpha 90.000000
_cell_angle_beta 90.000000
_cell_angle_gamma 90.000000
_cell_volume 2139.226407
_symmetry_space_group_name_H-M "P M M M"
_symmetry_group_IT_number 47
_symmetry_cell_setting 'orthorhombic'
loop_
_space_group_symop_operation_xyz
x,y,z
-x,-y,z
x,-y,-z
-x,y,-z
-x,-y,-z
x,y,-z
-x,y,z
x,-y,z
loop_
_atom_site_type_symbol
_atom_site_label
_atom_site_fract_x
_atom_site_fract_y
_atom_site_fract_z
Si Si1 0.326608 0.811885 0.116713
Si Si2 0.336972 0.297150 0.399973
Si Si3 0.674036 0.500000 0.946561
Si Si4 0.334339 0.295243 0.780733
Si Si5 0.336762 0.201309 0.500000
Si Si6 0.836640 0.292857 0.689583
O O1 0.500000 0.806450 0.117072
O O2 0.279422 0.665523 0.081854
O O3 0.283714 0.775006 0.169809
O O4 0.282852 0.000000 0.102654
O O5 0.500000 0.231404 0.397994
O O6 0.344186 0.500000 0.396266
O O7 0.274040 0.256878 0.450742
O O8 0.246118 0.235013 0.356458
O O9 0.500000 0.500000 0.946540
O O10 0.719741 0.500000 0.000000
O O11 0.500000 0.247640 0.774062
O O12 0.329499 0.500000 0.783718
O O13 0.243304 0.240368 0.736529
O O14 0.500000 0.270316 0.500000
O O15 0.342284 0.000000 0.500000
O O16 0.834638 0.500000 0.689270
O O17 0.000000 0.238962 0.689220
#
# Coordination Sequence:
#
# PCOD9389185 Si02
#       6
#     8   8   4   8   4   8
#     4   9  16  26  41  63  91 124 163 202 239 285
#     4   9  16  28  47  69  90 115 150 188 227 274
#     4   9  16  26  40  62  95 131 163 198 243 290
#     4   9  15  26  45  65  88 121 157 192 232 279
#     4   9  17  29  46  67  88 112 146 189 230 268
#     4   9  17  28  44  68  94 118 149 190 234 280
#
# _framework density 18.698350000000001
#
# number of rings (size 3 to 8) (size 9 to 14) (size 15 to 20)
#    0.000    3.000    1.000    0.900    0.000    4.000 
#    0.000    3.500    0.000   10.200    0.000    0.000 
#    0.000    1.600    0.000    1.800    0.000    2.000 
#
# Total GULP energy -222953.463064 kJ/mol
# GULP energy per Si atom -5573.836577 kJ/mol
# Density = 1.865579 g / cm^3
# Si number density = 18.698350 Si / 1000 Ang^3
#
#
#
# Elastic Constant Matrix: (Units=GPa)
#
#
# Indices 1 2 3 4 5 6 
#
# 1 46.6813 20.4258 57.0312 0.0000 0.0000 0.0000
# 2 20.4258 66.0566 63.4593 0.0000 0.0000 0.0000
# 3 57.0312 63.4593 205.4634 0.0000 0.0000 0.0000
# 4 0.0000 0.0000 0.0000 -9.5338 0.0000 0.0000
# 5 0.0000 0.0000 0.0000 0.0000 -4.1742 0.0000
# 6 0.0000 0.0000 0.0000 0.0000 0.0000 2.9440
#
#
#
# Elastic Compliance Matrix: (Units=1/GPa)
#
#
# Indices 1 2 3 4 5 6 
#
# 1 0.032594 -0.001972 -0.008438 0.000000 0.000000 0.000000
# 2 -0.001972 0.021645 -0.006138 0.000000 0.000000 0.000000
# 3 -0.008438 -0.006138 0.009105 0.000000 0.000000 0.000000
# 4 0.000000 0.000000 0.000000 -0.104890 0.000000 0.000000
# 5 0.000000 0.000000 0.000000 0.000000 -0.239569 0.000000
# 6 0.000000 0.000000 0.000000 0.000000 0.000000 0.339672
#
#
# Mechanical properties :
#
#
# Convention : Reuss Voigt Hill
#
# Bulk Modulus (GPa) = 33.06083 66.67046 49.86564
# Shear Modulus (GPa) = 49.14722 9.66621 29.40672
#
# Velocity S-wave (km/s) = 5.13238 2.27613 3.97002
# Velocity P-wave (km/s) = 7.26920 6.53000 6.90949
#
# Compressibility (1/GPa) = 0.03024728
#
# Stress axis : x y z
#
# Youngs Moduli (GPa) = 30.68088 46.20043 109.83102
#
# Poissons Ratio (x) = 0.09112 0.92675
# Poissons Ratio (y) = 0.06051 0.67411
# Poissons Ratio (z) = 0.25888 0.28357
#
# Static dielectric constant tensor:
#      x y z
#    x 1.616590 0.000000 0.000000 
#    y 0.000000 1.667270 0.000000 
#    z 0.000000 0.000000 1.640140 
# 
# From -- ./inp_files/33091.got.cif
#   From: 2010.05.17/outbox.cif.g08.bks.cpg/sg47_17_cif.got.tgz:33091.got - 2010.06.03 20:15:42.
