data_PCOD9389460
_publ_section_title
;
Structure prediction by ZEFSAII (Michael W. Deem and Ramdas Pophale) SiO2 
 PCOD9389460
Probable space group: P M M M
;
_chemical_formula_sum "Si O2"
_cell_formula_units_Z 37
_cell_length_a 9.000000
_cell_length_b 12.000000
_cell_length_c 18.000000
_cell_angle_alpha 90.000000
_cell_angle_beta 90.000000
_cell_angle_gamma 90.000000
_cell_volume 1944.000000
_symmetry_space_group_name_H-M "P M M M"
_symmetry_group_IT_number 47
_symmetry_cell_setting 'orthorhombic'
loop_
_space_group_symop_operation_xyz
x,y,z
-x,-y,z
x,-y,-z
-x,y,-z
-x,-y,-z
x,y,-z
-x,y,z
x,-y,z
loop_
_atom_site_type_symbol
_atom_site_label
_atom_site_fract_x
_atom_site_fract_y
_atom_site_fract_z
Si Si1 0.823411 0.763054 0.209042
Si Si2 0.678329 0.242845 0.362046
Si Si3 0.000000 0.000000 0.000000
Si Si4 0.175265 0.367169 0.500000
Si Si5 0.319759 0.000000 0.585586
Si Si6 0.669630 0.633653 0.084292
Si Si7 0.834347 0.000000 0.844449
O O1 0.740415 0.723206 0.282448
O O2 0.785094 0.683714 0.140892
O O3 0.000000 0.765454 0.221221
O O4 0.765408 0.885468 0.183976
O O5 0.500000 0.249343 0.364786
O O6 0.747565 0.314833 0.427888
O O7 0.725624 0.114089 0.375392
O O8 0.871855 0.000000 0.067411
O O9 0.192249 0.500000 0.500000
O O10 0.000000 0.340595 0.500000
O O11 0.500000 0.000000 0.584167
O O12 0.269003 0.000000 0.500000
O O13 0.500000 0.666562 0.103695
O O14 0.674771 0.500000 0.085322
O O15 0.699604 0.670819 0.000000
O O16 0.000000 0.000000 0.809503
#
# Coordination Sequence:
#
# PCOD9389460 Si02
#       7
#     8   8   1   4   4   8   4
#     4  11  22  36  58  87 121 155 194 241 287 346
#     4  11  22  39  63  89 119 156 194 237 295 353
#     4   8  16  36  56  80 124 170 200 232 290 358
#     4  11  25  44  63  86 118 153 196 249 298 353
#     4   9  17  34  61  90 115 141 185 236 280 335
#     4   9  20  39  60  82 111 149 194 244 296 349
#     4   8  19  33  54  84 121 159 193 233 289 347
#
# _framework density 19.032921999999999
#
# number of rings (size 3 to 8) (size 9 to 14) (size 15 to 20)
#    0.324    1.730    1.081    2.919    1.514    2.595 
#    0.000    4.865    0.000    1.297    0.000    0.000 
#    0.000    0.000    0.000    0.000    0.000    0.000 
#
# Total GULP energy -206082.273003 kJ/mol
# GULP energy per Si atom -5569.791162 kJ/mol
# Density = 1.898960 g / cm^3
# Si number density = 19.032922 Si / 1000 Ang^3
#
#
#
# Elastic Constant Matrix: (Units=GPa)
#
#
# Indices 1 2 3 4 5 6 
#
# 1 74.9303 38.4135 51.8093 0.0000 0.0000 0.0000
# 2 38.4135 48.7335 31.1816 0.0000 0.0000 0.0000
# 3 51.8093 31.1816 102.2794 0.0000 0.0000 0.0000
# 4 0.0000 0.0000 0.0000 30.7094 0.0000 0.0000
# 5 0.0000 0.0000 0.0000 0.0000 21.5197 0.0000
# 6 0.0000 0.0000 0.0000 0.0000 0.0000 32.7135
#
#
#
# Elastic Compliance Matrix: (Units=1/GPa)
#
#
# Indices 1 2 3 4 5 6 
#
# 1 0.028055 -0.016176 -0.009279 0.000000 0.000000 0.000000
# 2 -0.016176 0.034820 -0.002421 0.000000 0.000000 0.000000
# 3 -0.009279 -0.002421 0.015216 0.000000 0.000000 0.000000
# 4 0.000000 0.000000 0.000000 0.032563 0.000000 0.000000
# 5 0.000000 0.000000 0.000000 0.000000 0.046469 0.000000
# 6 0.000000 0.000000 0.000000 0.000000 0.000000 0.030568
#
#
# Mechanical properties :
#
#
# Convention : Reuss Voigt Hill
#
# Bulk Modulus (GPa) = 44.77054 52.08357 48.42705
# Shear Modulus (GPa) = 19.92898 23.95777 21.94337
#
# Velocity S-wave (km/s) = 3.23937 3.55174 3.39915
# Velocity P-wave (km/s) = 6.12904 6.65163 6.39568
#
# Compressibility (1/GPa) = 0.02233612
#
# Stress axis : x y z
#
# Youngs Moduli (GPa) = 35.64455 28.71917 65.72136
#
# Poissons Ratio (x) = 0.46458 0.60985
# Poissons Ratio (y) = 0.57660 0.15913
# Poissons Ratio (z) = 0.33076 0.06954
#
# Static dielectric constant tensor:
#      x y z
#    x 1.640640 0.000000 0.000000 
#    y 0.000000 1.667790 0.000000 
#    z 0.000000 0.000000 1.651870 
# 
# From -- ./inp_files/26183.got.cif
#   From: 2010.05.17/outbox.ucp.g08.bks.cvg/sg47_14_cif.got.tgz:26183.got - 2010.06.11 16:36:43.
