data_PCOD9389327
_publ_section_title
;
Structure prediction by ZEFSAII (Michael W. Deem and Ramdas Pophale) SiO2 
 PCOD9389327
Probable space group: P M M M
;
_chemical_formula_sum "Si O2"
_cell_formula_units_Z 64
_cell_length_a 9.000000
_cell_length_b 15.000000
_cell_length_c 30.000000
_cell_angle_alpha 90.000000
_cell_angle_beta 90.000000
_cell_angle_gamma 90.000000
_cell_volume 4050.000000
_symmetry_space_group_name_H-M "P M M M"
_symmetry_group_IT_number 47
_symmetry_cell_setting 'orthorhombic'
loop_
_space_group_symop_operation_xyz
x,y,z
-x,-y,z
x,-y,-z
-x,y,-z
-x,-y,-z
x,y,-z
-x,y,z
x,-y,z
loop_
_atom_site_type_symbol
_atom_site_label
_atom_site_fract_x
_atom_site_fract_y
_atom_site_fract_z
Si Si1 0.674320 0.352567 0.548829
Si Si2 0.332619 0.892096 0.862351
Si Si3 0.832180 0.100381 0.365506
Si Si4 0.325219 0.773154 0.302102
Si Si5 0.667822 0.862662 0.550777
Si Si6 0.826693 0.108410 0.049254
Si Si7 0.681157 0.400445 0.647184
Si Si8 0.176843 0.897021 0.229197
O O1 0.737356 0.379157 0.500000
O O2 0.500000 0.379170 0.547998
O O3 0.677537 0.245084 0.551109
O O4 0.735804 0.386109 0.596138
O O5 0.500000 0.860638 0.854083
O O6 0.268531 0.858969 0.909221
O O7 0.227337 0.873275 0.820720
O O8 0.337408 0.000000 0.865488
O O9 0.710293 0.163249 0.343827
O O10 0.793035 0.100270 0.417296
O O11 0.000000 0.132650 0.357102
O O12 0.822090 0.000000 0.347674
O O13 0.500000 0.768699 0.292848
O O14 0.270536 0.676391 0.318635
O O15 0.244257 0.824225 0.262240
O O16 0.684345 0.891560 0.500000
O O17 0.500000 0.886871 0.565571
O O18 0.000000 0.132008 0.054728
O O19 0.821101 0.000000 0.049518
O O20 0.776283 0.137173 0.000000
O O21 0.500000 0.393221 0.645159
O O22 0.719503 0.500000 0.661653
O O23 0.000000 0.897215 0.233091
O O24 0.228510 0.000000 0.237997
#
# Coordination Sequence:
#
# PCOD9389327 Si02
#       8
#     8   8   8   8   8   8   8   8
#     4   8  13  24  44  69  93 112 132 161 198 242
#     4   9  16  25  38  58  83 111 148 193 235 273
#     4  11  23  35  47  65  89 116 145 175 209 252
#     4  11  21  34  51  69  89 113 142 179 218 258
#     4   9  17  31  50  69  88 111 141 174 206 242
#     4   8  13  21  33  50  76 113 154 193 233 273
#     4   9  17  29  47  72  96 114 135 168 212 258
#     4  10  20  33  48  65  87 116 150 189 232 274
#
# _framework density 15.802469
#
# number of rings (size 3 to 8) (size 9 to 14) (size 15 to 20)
#    0.000    2.625    1.250    3.000    0.000    5.750 
#    0.000    3.750    0.000    1.500    0.000    0.000 
#    0.000    2.000    0.000    0.000    0.000    0.625 
#
# Total GULP energy -356383.568974 kJ/mol
# GULP energy per Si atom -5568.493265 kJ/mol
# Density = 1.576650 g / cm^3
# Si number density = 15.802469 Si / 1000 Ang^3
#
#
#
# Elastic Constant Matrix: (Units=GPa)
#
#
# Indices 1 2 3 4 5 6 
#
# 1 28.4509 17.0598 29.4425 0.0000 0.0000 0.0000
# 2 17.0598 67.0581 36.5413 0.0000 0.0000 0.0000
# 3 29.4425 36.5413 98.7533 0.0000 0.0000 0.0000
# 4 0.0000 0.0000 0.0000 0.2105 0.0000 0.0000
# 5 0.0000 0.0000 0.0000 0.0000 30.8620 0.0000
# 6 0.0000 0.0000 0.0000 0.0000 0.0000 16.9529
#
#
#
# Elastic Compliance Matrix: (Units=1/GPa)
#
#
# Indices 1 2 3 4 5 6 
#
# 1 0.052735 -0.006073 -0.013475 0.000000 0.000000 0.000000
# 2 -0.006073 0.019378 -0.005360 0.000000 0.000000 0.000000
# 3 -0.013475 -0.005360 0.016127 0.000000 0.000000 0.000000
# 4 0.000000 0.000000 0.000000 4.750566 0.000000 0.000000
# 5 0.000000 0.000000 0.000000 0.000000 0.032402 0.000000
# 6 0.000000 0.000000 0.000000 0.000000 0.000000 0.058987
#
#
# Mechanical properties :
#
#
# Convention : Reuss Voigt Hill
#
# Bulk Modulus (GPa) = 26.02553 40.03882 33.03218
# Shear Modulus (GPa) = 1.00144 17.01968 9.01056
#
# Velocity S-wave (km/s) = 0.79693 3.28537 2.39048
# Velocity P-wave (km/s) = 4.16555 6.30742 5.34488
#
# Compressibility (1/GPa) = 0.03842381
#
# Stress axis : x y z
#
# Youngs Moduli (GPa) = 18.96288 51.60473 62.00759
#
# Poissons Ratio (x) = 0.31339 0.83557
# Poissons Ratio (y) = 0.11516 0.33235
# Poissons Ratio (z) = 0.25553 0.27659
#
# Static dielectric constant tensor:
#      x y z
#    x 1.533870 0.000000 0.000000 
#    y 0.000000 1.531520 0.000000 
#    z 0.000000 0.000000 1.564750 
# 
# From -- ./inp_files/34416.got.cif
#   From: 2010.05.17/outbox.ucp.g08.bks.cvg/sg47_18_cif.got.tgz:34416.got - 2010.06.11 16:36:43.
