data_PCOD9389169
_publ_section_title
;
Structure prediction by ZEFSAII (Michael W. Deem and Ramdas Pophale) SiO2 
 PCOD9389169
Probable space group: P M M M
;
_chemical_formula_sum "Si O2"
_cell_formula_units_Z 52
_cell_length_a 8.108784
_cell_length_b 14.132719
_cell_length_c 27.883528
_cell_angle_alpha 90.000000
_cell_angle_beta 90.000000
_cell_angle_gamma 90.000000
_cell_volume 3195.429046
_symmetry_space_group_name_H-M "P M M M"
_symmetry_group_IT_number 47
_symmetry_cell_setting 'orthorhombic'
loop_
_space_group_symop_operation_xyz
x,y,z
-x,-y,z
x,-y,-z
-x,y,-z
-x,-y,-z
x,y,-z
-x,y,z
x,-y,z
loop_
_atom_site_type_symbol
_atom_site_label
_atom_site_fract_x
_atom_site_fract_y
_atom_site_fract_z
Si Si1 0.801308 0.105019 0.601976
Si Si2 0.800153 0.298218 0.553747
Si Si3 0.301887 0.395287 0.650040
Si Si4 0.301586 0.890939 0.795953
Si Si5 0.699839 0.796071 0.698437
Si Si6 0.695985 0.108532 0.000000
Si Si7 0.803759 0.891396 0.101297
O O1 0.745048 0.192010 0.568678
O O2 0.753269 0.133215 0.656101
O O3 0.000000 0.103276 0.598951
O O4 0.739704 0.000000 0.589799
O O5 0.745761 0.321758 0.500000
O O6 0.739104 0.367276 0.595386
O O7 0.000000 0.299453 0.554589
O O8 0.500000 0.397054 0.654734
O O9 0.237912 0.500000 0.661500
O O10 0.240691 0.308332 0.682797
O O11 0.500000 0.894050 0.793764
O O12 0.242276 0.831993 0.750150
O O13 0.254013 0.850498 0.847995
O O14 0.240636 0.000000 0.792770
O O15 0.500000 0.794711 0.698900
O O16 0.750246 0.152479 0.949400
O O17 0.500000 0.103491 0.000000
O O18 0.765516 0.000000 0.000000
O O19 0.000000 0.895237 0.101776
O O20 0.736169 0.000000 0.101092
#
# Coordination Sequence:
#
# PCOD9389169 Si02
#       7
#     8   8   8   8   8   4   8
#     4   9  17  28  42  60  81 105 132 161 194 233
#     4   9  18  31  45  62  83 105 130 160 194 235
#     4   9  18  32  48  64  81 102 129 162 202 245
#     4   9  16  25  37  54  76 102 132 163 195 232
#     4   9  17  29  44  60  79 104 133 165 200 240
#     4   9  15  23  35  49  69 101 140 177 206 231
#     4   9  16  24  34  50  73 102 136 171 203 232
#
# _framework density 16.273244999999999
#
# number of rings (size 3 to 8) (size 9 to 14) (size 15 to 20)
#    0.000    3.000    0.000    1.154    0.000    5.538 
#    0.000    4.615    0.000    0.000    0.000    4.308 
#    0.000    0.000    0.000    0.692    0.000   16.385 
#
# Total GULP energy -289571.248554 kJ/mol
# GULP energy per Si atom -5568.677857 kJ/mol
# Density = 1.623621 g / cm^3
# Si number density = 16.273245 Si / 1000 Ang^3
#
#
#
# Elastic Constant Matrix: (Units=GPa)
#
#
# Indices 1 2 3 4 5 6 
#
# 1 9.1108 3.8715 5.1903 0.0000 0.0000 0.0000
# 2 3.8715 60.0899 17.6508 0.0000 0.0000 0.0000
# 3 5.1903 17.6508 115.1191 0.0000 0.0000 0.0000
# 4 0.0000 0.0000 0.0000 8.0290 0.0000 0.0000
# 5 0.0000 0.0000 0.0000 0.0000 36.2347 0.0000
# 6 0.0000 0.0000 0.0000 0.0000 0.0000 10.8610
#
#
#
# Elastic Compliance Matrix: (Units=1/GPa)
#
#
# Indices 1 2 3 4 5 6 
#
# 1 0.114785 -0.006152 -0.004232 0.000000 0.000000 0.000000
# 2 -0.006152 0.017756 -0.002445 0.000000 0.000000 0.000000
# 3 -0.004232 -0.002445 0.009252 0.000000 0.000000 0.000000
# 4 0.000000 0.000000 0.000000 0.124548 0.000000 0.000000
# 5 0.000000 0.000000 0.000000 0.000000 0.027598 0.000000
# 6 0.000000 0.000000 0.000000 0.000000 0.000000 0.092072
#
#
# Mechanical properties :
#
#
# Convention : Reuss Voigt Hill
#
# Bulk Modulus (GPa) = 8.61065 26.41612 17.51339
# Shear Modulus (GPa) = 11.10167 21.53210 16.31688
#
# Velocity S-wave (km/s) = 2.61474 3.64147 3.16995
# Velocity P-wave (km/s) = 3.79718 5.82654 4.91768
#
# Compressibility (1/GPa) = 0.11613520
#
# Stress axis : x y z
#
# Youngs Moduli (GPa) = 8.71191 56.31789 108.08051
#
# Poissons Ratio (x) = 0.34649 0.45739
# Poissons Ratio (y) = 0.05360 0.26427
# Poissons Ratio (z) = 0.03687 0.13770
#
# Static dielectric constant tensor:
#      x y z
#    x 1.570390 0.000000 0.000000 
#    y 0.000000 1.549660 0.000000 
#    z 0.000000 0.000000 1.567400 
# 
# From -- ./inp_files/8027.got.cif
#   From: 2010.05.17/outbox.cif.g08.bks.cpg/sg47_5_cif.got.tgz:8027.got - 2010.06.03 20:15:42.
