data_PCOD9389846
_publ_section_title
;
Structure prediction by ZEFSAII (Michael W. Deem and Ramdas Pophale) SiO2 
 PCOD9389846
Probable space group: P N N N
;
_chemical_formula_sum "Si O2"
_cell_formula_units_Z 58
_cell_length_a 8.946039
_cell_length_b 28.995588
_cell_length_c 12.510582
_cell_angle_alpha 90.000000
_cell_angle_beta 90.000000
_cell_angle_gamma 90.000000
_cell_volume 3245.190688
_symmetry_space_group_name_H-M "P N N N"
_symmetry_group_IT_number 48
_space_group.IT_coordinate_system_code '2'
_symmetry_cell_setting 'orthorhombic'
loop_
_space_group_symop_operation_xyz
x,y,z
1/2-x,1/2-y,z
x,1/2-y,1/2-z
1/2-x,y,1/2-z
-x,-y,-z
1/2+x,1/2+y,-z
-x,1/2+y,1/2+z
1/2+x,-y,1/2+z
loop_
_atom_site_type_symbol
_atom_site_label
_atom_site_fract_x
_atom_site_fract_y
_atom_site_fract_z
Si Si1 0.527603 0.189927 0.279879
Si Si2 0.058850 0.608704 0.011973
Si Si3 0.400845 0.441452 0.686364
Si Si4 0.750000 0.750000 0.750000
Si Si5 0.750922 0.016056 0.471439
Si Si6 0.205409 0.702060 0.934383
Si Si7 0.948877 0.990554 0.836840
Si Si8 0.592998 0.900943 0.797505
O O1 0.369206 0.214651 0.303975
O O2 0.596275 0.211409 0.169121
O O3 0.639817 0.189870 0.377512
O O4 0.519155 0.136275 0.249714
O O5 0.169245 0.565222 0.988838
O O6 0.137293 0.658387 0.996591
O O7 0.928599 0.603325 0.923196
O O8 0.981635 0.599554 0.124871
O O9 0.250000 0.429255 0.750000
O O10 0.353085 0.480714 0.597856
O O11 0.513543 0.463314 0.772356
O O12 0.596858 0.021501 0.405280
O O13 0.692677 0.995511 0.584573
O O14 0.250000 0.750000 0.992286
O O15 0.933377 0.951043 0.749364
O O16 0.750000 0.886126 0.750000
#
# Coordination Sequence:
#
# PCOD9389846 Si02
#       8
#     8   8   8   2   8   8   8   8
#     4  10  19  31  51  77 115 154 190 222 283 346
#     4  11  22  34  55  78 111 153 195 230 288 350
#     4  10  21  37  53  76 113 149 187 241 285 334
#     4  12  16  30  48  76 112 150 194 216 272 358
#     4  10  20  36  52  80 109 147 197 224 277 343
#     4  10  19  35  53  77 112 151 193 239 282 343
#     4  10  21  33  53  75 113 149 182 234 276 329
#     4  11  21  30  48  80 111 152 186 229 271 337
#
# _framework density 17.872602000000001
#
# number of rings (size 3 to 8) (size 9 to 14) (size 15 to 20)
#    0.000    1.655    3.448    2.483    1.931    1.103 
#    0.000    0.000    0.000    0.000    0.000    1.931 
#    0.000    7.724    0.000    0.000    0.000    0.000 
#
# Total GULP energy -323131.145480 kJ/mol
# GULP energy per Si atom -5571.226646 kJ/mol
# Density = 1.783192 g / cm^3
# Si number density = 17.872602 Si / 1000 Ang^3
#
#
#
# Elastic Constant Matrix: (Units=GPa)
#
#
# Indices 1 2 3 4 5 6 
#
# 1 66.4118 29.8760 32.9147 0.0000 0.0000 0.0000
# 2 29.8760 90.8411 37.9122 0.0000 0.0000 0.0000
# 3 32.9147 37.9122 72.6083 0.0000 0.0000 0.0000
# 4 0.0000 0.0000 0.0000 16.1171 0.0000 0.0000
# 5 0.0000 0.0000 0.0000 0.0000 16.7371 0.0000
# 6 0.0000 0.0000 0.0000 0.0000 0.0000 21.3564
#
#
#
# Elastic Compliance Matrix: (Units=1/GPa)
#
#
# Indices 1 2 3 4 5 6 
#
# 1 0.020315 -0.003629 -0.007315 0.000000 0.000000 0.000000
# 2 -0.003629 0.014724 -0.006043 0.000000 0.000000 0.000000
# 3 -0.007315 -0.006043 0.020244 0.000000 0.000000 0.000000
# 4 0.000000 0.000000 0.000000 0.062046 0.000000 0.000000
# 5 0.000000 0.000000 0.000000 0.000000 0.059748 0.000000
# 6 0.000000 0.000000 0.000000 0.000000 0.000000 0.046824
#
#
# Mechanical properties :
#
#
# Convention : Reuss Voigt Hill
#
# Bulk Modulus (GPa) = 46.92597 47.91855 47.42226
# Shear Modulus (GPa) = 18.86962 19.45266 19.16114
#
# Velocity S-wave (km/s) = 3.25281 3.30268 3.27784
# Velocity P-wave (km/s) = 6.35771 6.43529 6.39662
#
# Compressibility (1/GPa) = 0.02131016
#
# Stress axis : x y z
#
# Youngs Moduli (GPa) = 49.22438 67.91808 49.39809
#
# Poissons Ratio (x) = 0.24644 0.36133
# Poissons Ratio (y) = 0.17861 0.29851
# Poissons Ratio (z) = 0.36006 0.41043
#
# Static dielectric constant tensor:
#      x y z
#    x 1.662930 0.000000 0.000000 
#    y 0.000000 1.670260 0.000000 
#    z 0.000000 0.000000 1.620590 
# 
# From -- ./inp_files/19035.got.cif
#   From: 2010.05.17/outbox.cif.g08.bks.cpg/sg48_10_cif.got.tgz:19035.got - 2010.06.03 20:39:00.
