data_PCOD9389120
_publ_section_title
;
Structure prediction by ZEFSAII (Michael W. Deem and Ramdas Pophale) SiO2 
 PCOD9389120
Probable space group: P M M M
;
_chemical_formula_sum "Si O2"
_cell_formula_units_Z 52
_cell_length_a 7.718817
_cell_length_b 9.761007
_cell_length_c 35.175368
_cell_angle_alpha 90.000000
_cell_angle_beta 90.000000
_cell_angle_gamma 90.000000
_cell_volume 2650.232763
_symmetry_space_group_name_H-M "P M M M"
_symmetry_group_IT_number 47
_symmetry_cell_setting 'orthorhombic'
loop_
_space_group_symop_operation_xyz
x,y,z
-x,-y,z
x,-y,-z
-x,y,-z
-x,-y,-z
x,y,-z
-x,y,z
x,-y,z
loop_
_atom_site_type_symbol
_atom_site_label
_atom_site_fract_x
_atom_site_fract_y
_atom_site_fract_z
Si Si1 0.212714 0.658198 0.000000
Si Si2 0.288415 0.158314 0.542421
Si Si3 0.706246 0.843548 0.846907
Si Si4 0.791756 0.656381 0.696149
Si Si5 0.207097 0.843693 0.764466
Si Si6 0.206316 0.157182 0.929914
Si Si7 0.291461 0.656424 0.611710
O O1 0.270844 0.743031 0.037096
O O2 0.268320 0.500000 0.000000
O O3 0.000000 0.656798 0.000000
O O4 0.235222 0.203653 0.500000
O O5 0.500000 0.160592 0.542832
O O6 0.226756 0.251663 0.576998
O O7 0.236784 0.000000 0.547348
O O8 0.500000 0.849179 0.847192
O O9 0.759819 0.782678 0.806430
O O10 0.762235 0.785722 0.887507
O O11 0.777611 0.000000 0.846598
O O12 0.725332 0.500000 0.698805
O O13 0.724939 0.751556 0.730063
O O14 0.751840 0.709185 0.653834
O O15 0.000000 0.650486 0.699567
O O16 0.000000 0.852378 0.760114
O O17 0.276541 0.000000 0.763388
O O18 0.000000 0.146993 0.935013
O O19 0.275888 0.000000 0.932240
O O20 0.500000 0.652218 0.608987
O O21 0.226439 0.500000 0.609084
#
# Coordination Sequence:
#
# PCOD9389120 Si02
#       7
#     4   8   8   8   8   8   8
#     4   9  17  29  46  69  94 118 148 187 224 256
#     4   8  14  25  41  62  88 115 142 175 216 259
#     4   9  17  29  46  69  94 117 144 181 222 261
#     4   9  18  32  47  63  87 118 147 176 215 262
#     4   9  17  30  48  68  88 112 145 182 217 255
#     4   9  16  28  48  70  90 116 151 186 218 256
#     4   9  17  28  43  64  87 111 143 182 218 252
#
# _framework density 19.620918
#
# number of rings (size 3 to 8) (size 9 to 14) (size 15 to 20)
#    0.000    3.154    0.000    1.154    0.000    4.308 
#    0.000    2.692    0.000    7.846    0.000    3.231 
#    0.000    0.000    0.000    0.000    0.000    0.000 
#
# Total GULP energy -289755.783305 kJ/mol
# GULP energy per Si atom -5572.226602 kJ/mol
# Density = 1.957626 g / cm^3
# Si number density = 19.620918 Si / 1000 Ang^3
#
#
#
# Elastic Constant Matrix: (Units=GPa)
#
#
# Indices 1 2 3 4 5 6 
#
# 1 29.8348 5.4711 0.2625 0.0000 0.0000 0.0000
# 2 5.4711 73.9700 99.9070 0.0000 0.0000 0.0000
# 3 0.2625 99.9070 236.3324 0.0000 0.0000 0.0000
# 4 0.0000 0.0000 0.0000 92.5904 0.0000 0.0000
# 5 0.0000 0.0000 0.0000 0.0000 18.8837 0.0000
# 6 0.0000 0.0000 0.0000 0.0000 0.0000 4.0110
#
#
#
# Elastic Compliance Matrix: (Units=1/GPa)
#
#
# Indices 1 2 3 4 5 6 
#
# 1 0.034567 -0.005838 0.002430 0.000000 0.000000 0.000000
# 2 -0.005838 0.032497 -0.013731 0.000000 0.000000 0.000000
# 3 0.002430 -0.013731 0.010033 0.000000 0.000000 0.000000
# 4 0.000000 0.000000 0.000000 0.010800 0.000000 0.000000
# 5 0.000000 0.000000 0.000000 0.000000 0.052956 0.000000
# 6 0.000000 0.000000 0.000000 0.000000 0.000000 0.249312
#
#
# Mechanical properties :
#
#
# Convention : Reuss Voigt Hill
#
# Bulk Modulus (GPa) = 23.35493 61.26874 42.31183
# Shear Modulus (GPa) = 11.39686 38.73014 25.06350
#
# Velocity S-wave (km/s) = 2.41270 4.44770 3.57793
# Velocity P-wave (km/s) = 4.43739 7.59408 6.21935
#
# Compressibility (1/GPa) = 0.04281752
#
# Stress axis : x y z
#
# Youngs Moduli (GPa) = 28.92917 30.77233 99.66776
#
# Poissons Ratio (x) = 0.17966 -0.24217
# Poissons Ratio (y) = 0.16890 1.36855
# Poissons Ratio (z) = -0.07029 0.42254
#
# Static dielectric constant tensor:
#      x y z
#    x 1.721870 0.000000 0.000000 
#    y 0.000000 1.683040 0.000000 
#    z 0.000000 0.000000 1.699090 
# 
# From -- ./inp_files/33245.got.cif
#   From: 2010.05.17/outbox.cif.g08.bks.cpg/sg47_17_cif.got.tgz:33245.got - 2010.06.03 20:15:42.
