data_PCOD9389462
_publ_section_title
;
Structure prediction by ZEFSAII (Michael W. Deem and Ramdas Pophale) SiO2 
 PCOD9389462
Probable space group: P M M M
;
_chemical_formula_sum "Si O2"
_cell_formula_units_Z 36
_cell_length_a 12.000000
_cell_length_b 9.000000
_cell_length_c 18.000000
_cell_angle_alpha 90.000000
_cell_angle_beta 90.000000
_cell_angle_gamma 90.000000
_cell_volume 1944.000000
_symmetry_space_group_name_H-M "P M M M"
_symmetry_group_IT_number 47
_symmetry_cell_setting 'orthorhombic'
loop_
_space_group_symop_operation_xyz
x,y,z
-x,-y,z
x,-y,-z
-x,y,-z
-x,-y,-z
x,y,-z
-x,y,z
x,-y,z
loop_
_atom_site_type_symbol
_atom_site_label
_atom_site_fract_x
_atom_site_fract_y
_atom_site_fract_z
Si Si1 0.868054 0.323442 0.589517
Si Si2 0.500000 0.827627 0.088360
Si Si3 0.866315 0.825561 0.914825
Si Si4 0.635025 0.180024 0.341163
Si Si5 0.689515 0.677568 0.818408
O O1 0.866867 0.308447 0.500000
O O2 0.858624 0.500000 0.608220
O O3 0.750586 0.244252 0.617901
O O4 0.000000 0.279364 0.611943
O O5 0.394634 0.740780 0.120117
O O6 0.500000 0.000000 0.114006
O O7 0.500000 0.828039 0.000000
O O8 0.808280 0.730167 0.850839
O O9 0.000000 0.815943 0.910059
O O10 0.835050 0.000000 0.906032
O O11 0.835080 0.782002 0.000000
O O12 0.500000 0.215478 0.362061
O O13 0.653439 0.244340 0.258362
O O14 0.641497 0.000000 0.343796
O O15 0.683660 0.500000 0.810749
#
# Coordination Sequence:
#
# PCOD9389462 Si02
#       5
#     8   4   8   8   8
#     4   9  20  41  68  97 129 164 203 250 306 369
#     4  11  23  39  59  81 110 151 196 243 297 357
#     4   9  19  37  59  81 109 149 195 243 299 364
#     4  11  24  41  62  88 124 167 209 256 308 364
#     4  12  24  37  57  84 115 152 195 246 302 358
#
# _framework density 18.518519000000001
#
# number of rings (size 3 to 8) (size 9 to 14) (size 15 to 20)
#    0.000    1.667    1.111    5.000    0.000    8.000 
#    0.000    4.444    0.000    0.000    0.000    0.000 
#    0.000    0.000    0.000    0.000    0.000    0.000 
#
# Total GULP energy -200426.527771 kJ/mol
# GULP energy per Si atom -5567.403549 kJ/mol
# Density = 1.847637 g / cm^3
# Si number density = 18.518519 Si / 1000 Ang^3
#
#
#
# Elastic Constant Matrix: (Units=GPa)
#
#
# Indices 1 2 3 4 5 6 
#
# 1 143.3630 50.8251 40.3369 0.0000 0.0000 0.0000
# 2 50.8251 101.2833 27.6625 0.0000 0.0000 0.0000
# 3 40.3369 27.6625 57.8816 0.0000 0.0000 0.0000
# 4 0.0000 0.0000 0.0000 29.3398 0.0000 0.0000
# 5 0.0000 0.0000 0.0000 0.0000 29.2298 0.0000
# 6 0.0000 0.0000 0.0000 0.0000 0.0000 35.7035
#
#
#
# Elastic Compliance Matrix: (Units=1/GPa)
#
#
# Indices 1 2 3 4 5 6 
#
# 1 0.009620 -0.003446 -0.005057 0.000000 0.000000 0.000000
# 2 -0.003446 0.012590 -0.003615 0.000000 0.000000 0.000000
# 3 -0.005057 -0.003615 0.022529 0.000000 0.000000 0.000000
# 4 0.000000 0.000000 0.000000 0.034083 0.000000 0.000000
# 5 0.000000 0.000000 0.000000 0.000000 0.034212 0.000000
# 6 0.000000 0.000000 0.000000 0.000000 0.000000 0.028008
#
#
# Mechanical properties :
#
#
# Convention : Reuss Voigt Hill
#
# Bulk Modulus (GPa) = 48.77698 60.01965 54.39831
# Shear Modulus (GPa) = 29.05067 31.10151 30.07609
#
# Velocity S-wave (km/s) = 3.96502 4.10259 4.03440
# Velocity P-wave (km/s) = 6.88176 7.41098 7.15127
#
# Compressibility (1/GPa) = 0.02050148
#
# Stress axis : x y z
#
# Youngs Moduli (GPa) = 103.95121 79.42773 44.38796
#
# Poissons Ratio (x) = 0.27372 0.22447
# Poissons Ratio (y) = 0.35824 0.16048
# Poissons Ratio (z) = 0.52568 0.28716
#
# Static dielectric constant tensor:
#      x y z
#    x 1.759590 0.000000 0.000000 
#    y 0.000000 1.630840 0.000000 
#    z 0.000000 0.000000 1.639530 
# 
# From -- ./inp_files/26147.got.cif
#   From: 2010.05.17/outbox.ucp.g08.bks.cvg/sg47_14_cif.got.tgz:26147.got - 2010.06.11 16:36:43.
