data_PCOD9389418
_publ_section_title
;
Structure prediction by ZEFSAII (Michael W. Deem and Ramdas Pophale) SiO2 
 PCOD9389418
Probable space group: P M M M
;
_chemical_formula_sum "Si O2"
_cell_formula_units_Z 64
_cell_length_a 18.000000
_cell_length_b 9.000000
_cell_length_c 21.000000
_cell_angle_alpha 90.000000
_cell_angle_beta 90.000000
_cell_angle_gamma 90.000000
_cell_volume 3402.000000
_symmetry_space_group_name_H-M "P M M M"
_symmetry_group_IT_number 47
_symmetry_cell_setting 'orthorhombic'
loop_
_space_group_symop_operation_xyz
x,y,z
-x,-y,z
x,-y,-z
-x,y,-z
-x,-y,-z
x,y,-z
-x,y,z
x,-y,z
loop_
_atom_site_type_symbol
_atom_site_label
_atom_site_fract_x
_atom_site_fract_y
_atom_site_fract_z
Si Si1 0.229278 0.822034 0.424411
Si Si2 0.794938 0.666780 0.874545
Si Si3 0.085606 0.678766 0.355848
Si Si4 0.313791 0.677723 0.683158
Si Si5 0.412134 0.171959 0.206616
Si Si6 0.171498 0.823831 0.746817
Si Si7 0.366802 0.323236 0.927012
Si Si8 0.081319 0.835703 0.924824
O O1 0.235580 0.798645 0.500000
O O2 0.150684 0.750529 0.400014
O O3 0.299933 0.750073 0.386744
O O4 0.227651 0.000000 0.411823
O O5 0.788285 0.500000 0.848317
O O6 0.810629 0.783859 0.819070
O O7 0.721616 0.694524 0.915885
O O8 0.867614 0.694182 0.914964
O O9 0.096414 0.500000 0.352667
O O10 0.098958 0.754317 0.286494
O O11 0.000000 0.705924 0.376529
O O12 0.320942 0.500000 0.679310
O O13 0.372764 0.742467 0.734587
O O14 0.236581 0.731302 0.713205
O O15 0.500000 0.173282 0.217841
O O16 0.399161 0.242910 0.136068
O O17 0.385568 0.000000 0.205797
O O18 0.174925 0.000000 0.736125
O O19 0.384168 0.500000 0.923173
O O20 0.386559 0.274853 0.000000
O O21 0.000000 0.816433 0.895201
O O22 0.109756 0.000000 0.903868
O O23 0.074016 0.848111 0.000000
#
# Coordination Sequence:
#
# PCOD9389418 Si02
#       8
#     8   8   8   8   8   8   8   8
#     4  10  21  37  60  90 123 162 204 245 293 348
#     4  11  21  34  54  79 106 141 186 236 291 348
#     4  10  21  36  54  79 115 158 203 251 300 348
#     4  11  21  37  62  89 119 154 193 240 289 340
#     4  11  24  41  63  91 121 156 197 237 285 349
#     4  11  21  34  55  79 106 144 190 240 291 342
#     4  10  22  39  59  85 118 156 196 241 295 354
#     4   9  19  35  51  68  94 130 174 225 281 339
#
# _framework density 18.812463000000001
#
# number of rings (size 3 to 8) (size 9 to 14) (size 15 to 20)
#    0.000    1.625    1.250    6.000    0.000    5.750 
#    0.000    3.125    0.000    0.375    0.000    2.625 
#    0.000    0.000    0.000    0.000    0.000    0.000 
#
# Total GULP energy -356285.810650 kJ/mol
# GULP energy per Si atom -5566.965791 kJ/mol
# Density = 1.876965 g / cm^3
# Si number density = 18.812463 Si / 1000 Ang^3
#
#
#
# Elastic Constant Matrix: (Units=GPa)
#
#
# Indices 1 2 3 4 5 6 
#
# 1 65.9300 36.3303 29.7300 0.0000 0.0000 0.0000
# 2 36.3303 92.3693 27.6230 0.0000 0.0000 0.0000
# 3 29.7300 27.6230 87.4981 0.0000 0.0000 0.0000
# 4 0.0000 0.0000 0.0000 32.8458 0.0000 0.0000
# 5 0.0000 0.0000 0.0000 0.0000 23.1348 0.0000
# 6 0.0000 0.0000 0.0000 0.0000 0.0000 45.8867
#
#
#
# Elastic Compliance Matrix: (Units=1/GPa)
#
#
# Indices 1 2 3 4 5 6 
#
# 1 0.021209 -0.006832 -0.005050 0.000000 0.000000 0.000000
# 2 -0.006832 0.014155 -0.002148 0.000000 0.000000 0.000000
# 3 -0.005050 -0.002148 0.013823 0.000000 0.000000 0.000000
# 4 0.000000 0.000000 0.000000 0.030445 0.000000 0.000000
# 5 0.000000 0.000000 0.000000 0.000000 0.043225 0.000000
# 6 0.000000 0.000000 0.000000 0.000000 0.000000 0.021793
#
#
# Mechanical properties :
#
#
# Convention : Reuss Voigt Hill
#
# Bulk Modulus (GPa) = 47.32789 48.12932 47.72861
# Shear Modulus (GPa) = 27.81620 30.51441 29.16531
#
# Velocity S-wave (km/s) = 3.84943 4.03181 3.94168
# Velocity P-wave (km/s) = 6.70596 6.87847 6.79276
#
# Compressibility (1/GPa) = 0.02112919
#
# Stress axis : x y z
#
# Youngs Moduli (GPa) = 47.14909 70.64445 72.34554
#
# Poissons Ratio (x) = 0.48263 0.36532
# Poissons Ratio (y) = 0.32212 0.15536
# Poissons Ratio (z) = 0.23809 0.15171
#
# Static dielectric constant tensor:
#      x y z
#    x 1.686470 0.000000 0.000000 
#    y 0.000000 1.661900 0.000000 
#    z 0.000000 0.000000 1.722380 
# 
# From -- ./inp_files/31328.got.cif
#   From: 2010.05.17/outbox.ucp.g08.bks.cvg/sg47_16_cif.got.tgz:31328.got - 2010.06.11 16:36:43.
