data_PCOD9389373
_publ_section_title
;
Structure prediction by ZEFSAII (Michael W. Deem and Ramdas Pophale) SiO2 
 PCOD9389373
Probable space group: P M M M
;
_chemical_formula_sum "Si O2"
_cell_formula_units_Z 56
_cell_length_a 21.000000
_cell_length_b 9.000000
_cell_length_c 15.000000
_cell_angle_alpha 90.000000
_cell_angle_beta 90.000000
_cell_angle_gamma 90.000000
_cell_volume 2835.000000
_symmetry_space_group_name_H-M "P M M M"
_symmetry_group_IT_number 47
_symmetry_cell_setting 'orthorhombic'
loop_
_space_group_symop_operation_xyz
x,y,z
-x,-y,z
x,-y,-z
-x,y,-z
-x,-y,-z
x,y,-z
-x,y,z
x,-y,z
loop_
_atom_site_type_symbol
_atom_site_label
_atom_site_fract_x
_atom_site_fract_y
_atom_site_fract_z
Si Si1 0.610726 0.323150 0.717301
Si Si2 0.628139 0.176623 0.899303
Si Si3 0.500000 0.824372 0.605846
Si Si4 0.853002 0.676665 0.597915
Si Si5 0.000000 0.176960 0.101163
Si Si6 0.763788 0.672964 0.101557
Si Si7 0.284616 0.823254 0.398213
Si Si8 0.888638 0.323393 0.210127
O O1 0.608988 0.500000 0.717504
O O2 0.597463 0.260995 0.816204
O O3 0.560278 0.253233 0.649910
O O4 0.677438 0.264371 0.677607
O O5 0.702452 0.223122 0.893592
O O6 0.620844 0.000000 0.888982
O O7 0.606619 0.217411 0.000000
O O8 0.500000 0.806508 0.500000
O O9 0.500000 0.000000 0.625827
O O10 0.882246 0.701647 0.500000
O O11 0.837178 0.500000 0.603866
O O12 0.788118 0.769686 0.602789
O O13 0.893346 0.712186 0.685263
O O14 0.061324 0.235489 0.152406
O O15 0.000000 0.000000 0.099874
O O16 0.000000 0.233243 0.000000
O O17 0.743710 0.500000 0.114513
O O18 0.817963 0.708298 0.172764
O O19 0.789809 0.683670 0.000000
O O20 0.308633 0.792400 0.500000
O O21 0.289987 0.000000 0.383697
O O22 0.899039 0.500000 0.198563
#
# Coordination Sequence:
#
# PCOD9389373 Si02
#       8
#     8   8   4   8   4   8   8   8
#     4  12  24  38  59  85 115 152 192 234 279 330
#     4  10  21  37  58  85 117 152 189 231 280 333
#     4  11  25  45  66  87 114 147 185 232 282 333
#     4   9  18  33  54  83 116 146 180 224 272 323
#     4  11  25  41  56  77 104 134 173 225 280 331
#     4   9  17  30  51  81 113 143 180 227 276 328
#     4  10  20  34  55  85 119 153 188 228 277 331
#     4  10  20  35  56  79 105 143 185 222 267 324
#
# _framework density 19.753086
#
# number of rings (size 3 to 8) (size 9 to 14) (size 15 to 20)
#    0.000    1.857    0.000    4.286    0.000    7.429 
#    0.000    2.143    0.000    4.286    0.000    0.000 
#    0.000    0.000    0.000    0.000    0.000    0.000 
#
# Total GULP energy -312777.794908 kJ/mol
# GULP energy per Si atom -5585.317766 kJ/mol
# Density = 1.970813 g / cm^3
# Si number density = 19.753086 Si / 1000 Ang^3
#
#
#
# Elastic Constant Matrix: (Units=GPa)
#
#
# Indices 1 2 3 4 5 6 
#
# 1 24.8439 18.3735 25.6682 0.0000 0.0000 0.0000
# 2 18.3735 83.3719 70.2602 0.0000 0.0000 0.0000
# 3 25.6682 70.2602 147.9217 0.0000 0.0000 0.0000
# 4 0.0000 0.0000 0.0000 25.4508 0.0000 0.0000
# 5 0.0000 0.0000 0.0000 0.0000 27.8758 0.0000
# 6 0.0000 0.0000 0.0000 0.0000 0.0000 26.8823
#
#
#
# Elastic Compliance Matrix: (Units=1/GPa)
#
#
# Indices 1 2 3 4 5 6 
#
# 1 0.050954 -0.006299 -0.005850 0.000000 0.000000 0.000000
# 2 -0.006299 0.020779 -0.008777 0.000000 0.000000 0.000000
# 3 -0.005850 -0.008777 0.011944 0.000000 0.000000 0.000000
# 4 0.000000 0.000000 0.000000 0.039291 0.000000 0.000000
# 5 0.000000 0.000000 0.000000 0.000000 0.035873 0.000000
# 6 0.000000 0.000000 0.000000 0.000000 0.000000 0.037199
#
#
# Mechanical properties :
#
#
# Convention : Reuss Voigt Hill
#
# Bulk Modulus (GPa) = 23.90880 53.86013 38.88447
# Shear Modulus (GPa) = 19.85432 25.49749 22.67591
#
# Velocity S-wave (km/s) = 3.17381 3.59668 3.39184
# Velocity P-wave (km/s) = 5.05578 6.67638 5.92178
#
# Compressibility (1/GPa) = 0.04182561
#
# Stress axis : x y z
#
# Youngs Moduli (GPa) = 19.62558 48.12558 83.72342
#
# Poissons Ratio (x) = 0.30317 0.48975
# Poissons Ratio (y) = 0.12363 0.73480
# Poissons Ratio (z) = 0.11480 0.42237
#
# Static dielectric constant tensor:
#      x y z
#    x 1.529240 0.000000 0.000000 
#    y 0.000000 1.654940 0.000000 
#    z 0.000000 0.000000 1.727640 
# 
# From -- ./inp_files/25163.got.cif
#   From: 2010.05.17/outbox.ucp.g08.bks.cvg/sg47_13_cif.got.tgz:25163.got - 2010.06.11 16:36:43.
