data_PCOD9389138
_publ_section_title
;
Structure prediction by ZEFSAII (Michael W. Deem and Ramdas Pophale) SiO2 
 PCOD9389138
Probable space group: P M M M
;
_chemical_formula_sum "Si O2"
_cell_formula_units_Z 40
_cell_length_a 11.644557
_cell_length_b 22.363197
_cell_length_c 7.303733
_cell_angle_alpha 90.000000
_cell_angle_beta 90.000000
_cell_angle_gamma 90.000000
_cell_volume 1901.961621
_symmetry_space_group_name_H-M "P M M M"
_symmetry_group_IT_number 47
_symmetry_cell_setting 'orthorhombic'
loop_
_space_group_symop_operation_xyz
x,y,z
-x,-y,z
x,-y,-z
-x,y,-z
-x,-y,-z
x,y,-z
-x,y,z
x,-y,z
loop_
_atom_site_type_symbol
_atom_site_label
_atom_site_fract_x
_atom_site_fract_y
_atom_site_fract_z
Si Si1 0.369083 0.874460 0.710500
Si Si2 0.630556 0.500000 0.222963
Si Si3 0.239753 0.619585 0.776568
Si Si4 0.629736 0.735518 0.779382
Si Si5 0.871713 0.929353 0.278441
Si Si6 0.000000 0.430867 0.222968
O O1 0.374302 0.895410 0.500000
O O2 0.500000 0.885807 0.786479
O O3 0.353029 0.802783 0.712247
O O4 0.249523 0.901243 0.788040
O O5 0.500000 0.500000 0.278264
O O6 0.688443 0.561607 0.282003
O O7 0.636863 0.500000 0.000000
O O8 0.286786 0.683313 0.714960
O O9 0.111674 0.604658 0.720088
O O10 0.244432 0.620714 0.000000
O O11 0.500000 0.717231 0.731910
O O12 0.636953 0.738921 0.000000
O O13 0.871896 0.922235 0.500000
O O14 0.000000 0.907465 0.217454
O O15 0.867827 0.000000 0.238430
O O16 0.000000 0.500000 0.283049
O O17 0.000000 0.433317 0.000000
#
# Coordination Sequence:
#
# PCOD9389138 Si02
#       6
#     8   4   8   8   8   4
#     4   9  17  29  46  68  91 114 143 179 214 248
#     4   9  14  19  31  51  72  95 129 172 212 249
#     4   9  15  23  35  52  76 106 137 169 209 254
#     4   9  17  29  43  60  86 117 144 172 210 255
#     4   8  14  26  45  68  92 116 142 175 215 254
#     4   9  14  22  34  50  77 107 130 165 218 262
#
# _framework density 21.030919000000001
#
# number of rings (size 3 to 8) (size 9 to 14) (size 15 to 20)
#    0.000    3.200    1.000    1.200    0.000    2.800 
#    1.800    2.000    0.000    0.600    0.000    4.900 
#    0.000    4.800    0.000    0.000    0.000    0.000 
#
# Total GULP energy -222913.686624 kJ/mol
# GULP energy per Si atom -5572.842166 kJ/mol
# Density = 2.098305 g / cm^3
# Si number density = 21.030919 Si / 1000 Ang^3
#
#
#
# Elastic Constant Matrix: (Units=GPa)
#
#
# Indices 1 2 3 4 5 6 
#
# 1 234.4577 88.2007 10.5579 0.0000 0.0000 0.0000
# 2 88.2007 68.3826 0.8350 0.0000 0.0000 0.0000
# 3 10.5579 0.8350 82.1814 0.0000 0.0000 0.0000
# 4 0.0000 0.0000 0.0000 3.7407 0.0000 0.0000
# 5 0.0000 0.0000 0.0000 0.0000 -13.6840 0.0000
# 6 0.0000 0.0000 0.0000 0.0000 0.0000 58.4444
#
#
#
# Elastic Compliance Matrix: (Units=1/GPa)
#
#
# Indices 1 2 3 4 5 6 
#
# 1 0.008361 -0.010772 -0.000965 0.000000 0.000000 0.000000
# 2 -0.010772 0.028505 0.001094 0.000000 0.000000 0.000000
# 3 -0.000965 0.001094 0.012281 0.000000 0.000000 0.000000
# 4 0.000000 0.000000 0.000000 0.267332 0.000000 0.000000
# 5 0.000000 0.000000 0.000000 0.000000 -0.073078 0.000000
# 6 0.000000 0.000000 0.000000 0.000000 0.000000 0.017110
#
#
# Mechanical properties :
#
#
# Convention : Reuss Voigt Hill
#
# Bulk Modulus (GPa) = 35.89230 64.91210 50.40220
# Shear Modulus (GPa) = 17.17718 28.72876 22.95297
#
# Velocity S-wave (km/s) = 2.86100 3.69999 3.30721
# Velocity P-wave (km/s) = 5.29313 7.01322 6.21299
#
# Compressibility (1/GPa) = 0.02786113
#
# Stress axis : x y z
#
# Youngs Moduli (GPa) = 119.60151 35.08194 81.42644
#
# Poissons Ratio (x) = 0.37792 0.07855
# Poissons Ratio (y) = 1.28840 -0.08911
# Poissons Ratio (z) = 0.11538 -0.03839
#
# Static dielectric constant tensor:
#      x y z
#    x 1.755580 0.000000 0.000000 
#    y 0.000000 1.691640 0.000000 
#    z 0.000000 0.000000 1.860510 
# 
# From -- ./inp_files/4120.got.cif
#   From: 2010.05.17/outbox.cif.g08.bks.cpg/sg47_3_cif.got.tgz:4120.got - 2010.06.03 20:15:42.
