data_PCOD9389677
_publ_section_title
;
Structure prediction by ZEFSAII (Michael W. Deem and Ramdas Pophale) SiO2 
 PCOD9389677
Probable space group: P N N N
;
_chemical_formula_sum "Si O2"
_cell_formula_units_Z 64
_cell_length_a 23.105991
_cell_length_b 7.762701
_cell_length_c 18.604195
_cell_angle_alpha 90.000000
_cell_angle_beta 90.000000
_cell_angle_gamma 90.000000
_cell_volume 3336.939565
_symmetry_space_group_name_H-M "P N N N"
_symmetry_group_IT_number 48
_space_group.IT_coordinate_system_code '2'
_symmetry_cell_setting 'orthorhombic'
loop_
_space_group_symop_operation_xyz
x,y,z
1/2-x,1/2-y,z
x,1/2-y,1/2-z
1/2-x,y,1/2-z
-x,-y,-z
1/2+x,1/2+y,-z
-x,1/2+y,1/2+z
1/2+x,-y,1/2+z
loop_
_atom_site_type_symbol
_atom_site_label
_atom_site_fract_x
_atom_site_fract_y
_atom_site_fract_z
Si Si1 0.135020 0.225142 0.016040
Si Si2 0.115778 0.618597 0.397635
Si Si3 0.526992 0.348817 0.680981
Si Si4 0.156781 0.691286 0.969175
Si Si5 0.361674 0.040804 0.246363
Si Si6 0.714496 0.920663 0.876478
Si Si7 0.450087 0.018142 0.940554
Si Si8 0.733931 0.995418 0.477077
O O1 0.158214 0.347810 0.080030
O O2 0.110514 0.049165 0.051077
O O3 0.089093 0.322082 0.967449
O O4 0.194169 0.172608 0.974438
O O5 0.147127 0.764106 0.446041
O O6 0.143945 0.546965 0.324249
O O7 0.056626 0.707941 0.371637
O O8 0.502295 0.250000 0.750000
O O9 0.579281 0.467468 0.711070
O O10 0.480398 0.451160 0.635171
O O11 0.094060 0.642717 0.940465
O O12 0.201752 0.538568 0.950964
O O13 0.191662 0.859562 0.945142
O O14 0.363449 0.250000 0.250000
O O15 0.309501 0.988873 0.193583
O O16 0.750000 0.750000 0.854269
O O17 0.754407 0.012557 0.936098
O O18 0.500000 0.000000 0.000000
#
# Coordination Sequence:
#
# PCOD9389677 Si02
#       8
#     8   8   8   8   8   8   8   8
#     4  10  20  34  56  84 108 152 195 244 289 345
#     4  10  20  36  53  81 118 157 198 246 286 339
#     4  10  23  40  56  81 118 155 190 249 304 351
#     4  10  19  35  54  83 112 148 190 239 301 335
#     4  11  21  36  56  75 115 168 207 235 290 346
#     4  10  18  32  51  77 111 149 204 241 277 331
#     4  12  22  36  62  86 114 149 199 246 296 360
#     4   9  19  35  55  77 117 148 180 249 292 345
#
# _framework density 19.179251000000001
#
# number of rings (size 3 to 8) (size 9 to 14) (size 15 to 20)
#    0.000    1.750    3.750    1.500    0.000    0.750 
#    0.000    0.000    0.000    0.000    0.000    1.750 
#    0.000    4.000    0.000    0.000    0.000    0.000 
#
# Total GULP energy -356705.579671 kJ/mol
# GULP energy per Si atom -5573.524682 kJ/mol
# Density = 1.913560 g / cm^3
# Si number density = 19.179251 Si / 1000 Ang^3
#
#
#
# Elastic Constant Matrix: (Units=GPa)
#
#
# Indices 1 2 3 4 5 6 
#
# 1 93.4013 15.6449 25.0389 0.0000 0.0000 0.0000
# 2 15.6449 73.4995 8.7493 0.0000 0.0000 0.0000
# 3 25.0389 8.7493 41.9182 0.0000 0.0000 0.0000
# 4 0.0000 0.0000 0.0000 24.8382 0.0000 0.0000
# 5 0.0000 0.0000 0.0000 0.0000 27.0193 0.0000
# 6 0.0000 0.0000 0.0000 0.0000 0.0000 36.0592
#
#
#
# Elastic Compliance Matrix: (Units=1/GPa)
#
#
# Indices 1 2 3 4 5 6 
#
# 1 0.012999 -0.001890 -0.007370 0.000000 0.000000 0.000000
# 2 -0.001890 0.014227 -0.001841 0.000000 0.000000 0.000000
# 3 -0.007370 -0.001841 0.028643 0.000000 0.000000 0.000000
# 4 0.000000 0.000000 0.000000 0.040261 0.000000 0.000000
# 5 0.000000 0.000000 0.000000 0.000000 0.037011 0.000000
# 6 0.000000 0.000000 0.000000 0.000000 0.000000 0.027732
#
#
# Mechanical properties :
#
#
# Convention : Reuss Voigt Hill
#
# Bulk Modulus (GPa) = 29.70246 34.18726 31.94486
# Shear Modulus (GPa) = 25.73407 28.20905 26.97156
#
# Velocity S-wave (km/s) = 3.66699 3.83928 3.75412
# Velocity P-wave (km/s) = 5.78355 6.12513 5.95679
#
# Compressibility (1/GPa) = 0.03366724
#
# Stress axis : x y z
#
# Youngs Moduli (GPa) = 76.93044 70.28955 34.91309
#
# Poissons Ratio (x) = 0.13282 0.25731
# Poissons Ratio (y) = 0.14536 0.06427
# Poissons Ratio (z) = 0.56699 0.12939
#
# Static dielectric constant tensor:
#      x y z
#    x 1.693950 0.000000 0.000000 
#    y 0.000000 1.783490 0.000000 
#    z 0.000000 0.000000 1.663160 
# 
# From -- ./inp_files/32223.got.cif
#   From: 2010.05.17/outbox.cif.g08.bks.cpg/sg48_17_cif.got.tgz:32223.got - 2010.06.03 20:39:00.
