data_PCOD9389240
_publ_section_title
;
Structure prediction by ZEFSAII (Michael W. Deem and Ramdas Pophale) SiO2 
 PCOD9389240
Probable space group: P M M M
;
_chemical_formula_sum "Si O2"
_cell_formula_units_Z 52
_cell_length_a 9.000000
_cell_length_b 15.000000
_cell_length_c 21.000000
_cell_angle_alpha 90.000000
_cell_angle_beta 90.000000
_cell_angle_gamma 90.000000
_cell_volume 2835.000000
_symmetry_space_group_name_H-M "P M M M"
_symmetry_group_IT_number 47
_symmetry_cell_setting 'orthorhombic'
loop_
_space_group_symop_operation_xyz
x,y,z
-x,-y,z
x,-y,-z
-x,y,-z
-x,-y,-z
x,y,-z
-x,y,z
x,-y,z
loop_
_atom_site_type_symbol
_atom_site_label
_atom_site_fract_x
_atom_site_fract_y
_atom_site_fract_z
Si Si1 0.174610 0.104984 0.741424
Si Si2 0.324024 0.605683 0.820914
Si Si3 0.319393 0.399320 0.325612
Si Si4 0.319889 0.788225 0.373828
Si Si5 0.177049 0.724873 0.070766
Si Si6 0.677770 0.102280 0.879222
Si Si7 0.319179 0.103527 0.500000
O O1 0.249128 0.163116 0.686718
O O2 0.259151 0.117331 0.808093
O O3 0.000000 0.126060 0.748957
O O4 0.187034 0.000000 0.724719
O O5 0.500000 0.626151 0.824503
O O6 0.305440 0.500000 0.832676
O O7 0.275430 0.621525 0.747665
O O8 0.240147 0.663574 0.873003
O O9 0.500000 0.402572 0.325342
O O10 0.268352 0.500000 0.341952
O O11 0.276746 0.316356 0.370051
O O12 0.500000 0.792687 0.369446
O O13 0.274208 0.841475 0.437218
O O14 0.248269 0.822499 0.077993
O O15 0.000000 0.731498 0.076769
O O16 0.212464 0.689171 0.000000
O O17 0.500000 0.111652 0.879237
O O18 0.713943 0.000000 0.897387
O O19 0.500000 0.101241 0.500000
O O20 0.268963 0.000000 0.500000
#
# Coordination Sequence:
#
# PCOD9389240 Si02
#       7
#     8   8   8   8   8   8   4
#     4  10  20  33  51  77 106 132 163 211 267 316
#     4   9  18  34  56  79 102 131 171 222 275 321
#     4   8  15  29  50  76 101 124 160 214 267 308
#     4  10  18  30  51  74 100 140 181 214 255 307
#     4  11  24  38  52  74 106 142 176 214 263 316
#     4  10  21  37  57  79 102 132 173 219 265 316
#     4   9  18  30  44  70 108 143 179 223 262 299
#
# _framework density 18.342151999999999
#
# number of rings (size 3 to 8) (size 9 to 14) (size 15 to 20)
#    0.000    2.385    0.000    3.692    0.000    5.846 
#    0.000    3.846    0.000    5.077    0.000    0.000 
#    0.000    1.231    0.000    0.000    0.000    0.000 
#
# Total GULP energy -290179.957852 kJ/mol
# GULP energy per Si atom -5580.383805 kJ/mol
# Density = 1.830040 g / cm^3
# Si number density = 18.342152 Si / 1000 Ang^3
#
#
#
# Elastic Constant Matrix: (Units=GPa)
#
#
# Indices 1 2 3 4 5 6 
#
# 1 34.0227 30.0783 17.0123 0.0000 0.0000 0.0000
# 2 30.0783 112.0808 71.3232 0.0000 0.0000 0.0000
# 3 17.0123 71.3232 66.3660 0.0000 0.0000 0.0000
# 4 0.0000 0.0000 0.0000 19.7735 0.0000 0.0000
# 5 0.0000 0.0000 0.0000 0.0000-1260.5433 0.0000
# 6 0.0000 0.0000 0.0000 0.0000 0.0000 17.0577
#
#
#
# Elastic Compliance Matrix: (Units=1/GPa)
#
#
# Indices 1 2 3 4 5 6 
#
# 1 0.038858 -0.012936 0.003942 0.000000 0.000000 0.000000
# 2 -0.012936 0.032531 -0.031645 0.000000 0.000000 0.000000
# 3 0.003942 -0.031645 0.048066 0.000000 0.000000 0.000000
# 4 0.000000 0.000000 0.000000 0.050573 0.000000 0.000000
# 5 0.000000 0.000000 0.000000 0.000000 -0.000793 0.000000
# 6 0.000000 0.000000 0.000000 0.000000 0.000000 0.058625
#
#
# Mechanical properties :
#
#
# Convention : Reuss Voigt Hill
#
# Bulk Modulus (GPa) = 26.19448 49.92189 38.05818
# Shear Modulus (GPa) = 15.53454 -238.47203 -111.46874
#
# Velocity S-wave (km/s) = 2.91337 -11.41470 -7.80409
# Velocity P-wave (km/s) = 5.06251 12.10170 7.77245
#
# Compressibility (1/GPa) = 0.03817599
#
# Stress axis : x y z
#
# Youngs Moduli (GPa) = 25.73496 30.73975 20.80463
#
# Poissons Ratio (x) = 0.39766 -0.08201
# Poissons Ratio (y) = 0.33291 0.65836
# Poissons Ratio (z) = -0.10144 0.97276
#
# Static dielectric constant tensor:
#      x y z
#    x 1.602190 0.000000 0.000000 
#    y 0.000000 1.647310 0.000000 
#    z 0.000000 0.000000 1.617760 
# 
# From -- ./inp_files/7065.got.cif
#   From: 2010.05.17/outbox.ucp.g08.bks.cvg/sg47_4_cif.got.tgz:7065.got - 2010.06.11 16:36:43.
