data_PCOD9389918
_publ_section_title
;
Structure prediction by ZEFSAII (Michael W. Deem and Ramdas Pophale) SiO2 
 PCOD9389918
Probable space group: P N N N
;
_chemical_formula_sum "Si O2"
_cell_formula_units_Z 56
_cell_length_a 7.827957
_cell_length_b 20.050780
_cell_length_c 15.457630
_cell_angle_alpha 90.000000
_cell_angle_beta 90.000000
_cell_angle_gamma 90.000000
_cell_volume 2426.177724
_symmetry_space_group_name_H-M "P N N N"
_symmetry_group_IT_number 48
_space_group.IT_coordinate_system_code '2'
_symmetry_cell_setting 'orthorhombic'
loop_
_space_group_symop_operation_xyz
x,y,z
1/2-x,1/2-y,z
x,1/2-y,1/2-z
1/2-x,y,1/2-z
-x,-y,-z
1/2+x,1/2+y,-z
-x,1/2+y,1/2+z
1/2+x,-y,1/2+z
loop_
_atom_site_type_symbol
_atom_site_label
_atom_site_fract_x
_atom_site_fract_y
_atom_site_fract_z
Si Si1 0.948067 0.224346 0.522897
Si Si2 0.235462 0.458156 0.578486
Si Si3 0.549252 0.443024 0.688856
Si Si4 0.556994 0.684344 0.286688
Si Si5 0.062017 0.944412 0.796614
Si Si6 0.814818 0.088739 0.507993
Si Si7 0.948738 0.862029 0.949908
O O1 0.750000 0.250000 0.536802
O O2 0.926514 0.151859 0.477368
O O3 0.047248 0.283207 0.472168
O O4 0.040676 0.202324 0.611223
O O5 0.358227 0.428800 0.650933
O O6 0.088442 0.497248 0.630630
O O7 0.342799 0.520476 0.541983
O O8 0.186841 0.406087 0.504323
O O9 0.551085 0.378650 0.748977
O O10 0.551767 0.516177 0.727176
O O11 0.666472 0.429262 0.607850
O O12 0.470779 0.750000 0.250000
O O13 0.750000 0.682306 0.250000
O O14 0.250000 0.930779 0.750000
O O15 0.974079 0.884004 0.849090
O O16 0.624074 0.111186 0.490741
#
# Coordination Sequence:
#
# PCOD9389918 Si02
#       7
#     8   8   8   8   8   8   8
#     4   9  20  36  55  77 116 152 191 239 296 351
#     4  10  19  33  57  80 109 143 195 234 288 348
#     4  10  20  34  55  80 110 149 184 239 292 352
#     4  10  21  32  51  79 115 149 190 227 288 368
#     4   9  18  32  53  79 107 140 185 240 286 339
#     4   9  18  36  53  81 109 150 185 237 292 359
#     4  10  20  35  57  81 111 152 198 240 287 364
#
# _framework density 23.081572999999999
#
# number of rings (size 3 to 8) (size 9 to 14) (size 15 to 20)
#    0.000    2.429    0.000    3.429    6.000    0.286 
#    0.000    2.857    0.000   20.143    0.000    0.000 
#    0.000   27.429    0.000    0.000    0.000    0.000 
#
# Total GULP energy -311825.378888 kJ/mol
# GULP energy per Si atom -5568.310337 kJ/mol
# Density = 2.302904 g / cm^3
# Si number density = 23.081573 Si / 1000 Ang^3
#
#
#
# Elastic Constant Matrix: (Units=GPa)
#
#
# Indices 1 2 3 4 5 6 
#
# 1 30.8223 31.6104 12.1149 0.0000 0.0000 0.0000
# 2 31.6104 152.1333 59.4096 0.0000 0.0000 0.0000
# 3 12.1149 59.4096 72.6221 0.0000 0.0000 0.0000
# 4 0.0000 0.0000 0.0000 45.3788 0.0000 0.0000
# 5 0.0000 0.0000 0.0000 0.0000 35.1714 0.0000
# 6 0.0000 0.0000 0.0000 0.0000 0.0000 2.7256
#
#
#
# Elastic Compliance Matrix: (Units=1/GPa)
#
#
# Indices 1 2 3 4 5 6 
#
# 1 0.041232 -0.008642 0.000191 0.000000 0.000000 0.000000
# 2 -0.008642 0.011470 -0.007942 0.000000 0.000000 0.000000
# 3 0.000191 -0.007942 0.020235 0.000000 0.000000 0.000000
# 4 0.000000 0.000000 0.000000 0.022037 0.000000 0.000000
# 5 0.000000 0.000000 0.000000 0.000000 0.028432 0.000000
# 6 0.000000 0.000000 0.000000 0.000000 0.000000 0.366893
#
#
# Mechanical properties :
#
#
# Convention : Reuss Voigt Hill
#
# Bulk Modulus (GPa) = 24.90524 51.31638 38.11081
# Shear Modulus (GPa) = 9.32024 26.81801 18.06913
#
# Velocity S-wave (km/s) = 2.01165 3.41233 2.80096
# Velocity P-wave (km/s) = 4.02606 6.14868 5.19689
#
# Compressibility (1/GPa) = 0.04015220
#
# Stress axis : x y z
#
# Youngs Moduli (GPa) = 24.25317 87.18322 49.41983
#
# Poissons Ratio (x) = 0.75343 -0.00946
# Poissons Ratio (y) = 0.20959 0.39247
# Poissons Ratio (z) = -0.00464 0.69238
#
# Static dielectric constant tensor:
#      x y z
#    x 1.785560 0.000000 0.000000 
#    y 0.000000 2.012730 0.000000 
#    z 0.000000 0.000000 2.605110 
# 
# From -- ./inp_files/25612.got.cif
#   From: 2010.05.17/outbox.cif.g08.bks.cpg/sg48_13_cif.got.tgz:25612.got - 2010.06.03 20:39:00.
