data_PCOD9389172
_publ_section_title
;
Structure prediction by ZEFSAII (Michael W. Deem and Ramdas Pophale) SiO2 
 PCOD9389172
Probable space group: P M M M
;
_chemical_formula_sum "Si O2"
_cell_formula_units_Z 40
_cell_length_a 7.910220
_cell_length_b 9.194175
_cell_length_c 28.887941
_cell_angle_alpha 90.000000
_cell_angle_beta 90.000000
_cell_angle_gamma 90.000000
_cell_volume 2100.960641
_symmetry_space_group_name_H-M "P M M M"
_symmetry_group_IT_number 47
_symmetry_cell_setting 'orthorhombic'
loop_
_space_group_symop_operation_xyz
x,y,z
-x,-y,z
x,-y,-z
-x,y,-z
-x,-y,-z
x,y,-z
-x,y,z
x,-y,z
loop_
_atom_site_type_symbol
_atom_site_label
_atom_site_fract_x
_atom_site_fract_y
_atom_site_fract_z
Si Si1 0.206933 0.832971 0.592601
Si Si2 0.187169 0.677542 0.115954
Si Si3 0.700768 0.330405 0.215210
Si Si4 0.795934 0.667716 0.684653
Si Si5 0.793140 0.332883 0.500000
Si Si6 0.500000 0.677784 0.053207
O O1 0.262542 0.756177 0.639960
O O2 0.261563 0.747938 0.546675
O O3 0.000000 0.830596 0.592719
O O4 0.260118 0.000000 0.590864
O O5 0.196640 0.500000 0.117820
O O6 0.216540 0.730169 0.168628
O O7 0.334863 0.724939 0.081667
O O8 0.000000 0.717095 0.100032
O O9 0.500000 0.328407 0.208061
O O10 0.756600 0.500000 0.218331
O O11 0.742411 0.268246 0.265645
O O12 0.735901 0.500000 0.681308
O O13 0.000000 0.665129 0.684028
O O14 0.739499 0.500000 0.500000
O O15 0.000000 0.331320 0.500000
O O16 0.500000 0.500000 0.052973
O O17 0.500000 0.725198 0.000000
#
# Coordination Sequence:
#
# PCOD9389172 Si02
#       6
#     8   8   8   8   4   4
#     4   9  16  25  37  55  82 114 145 178 222 277
#     4   9  15  23  35  50  71 102 141 186 235 282
#     4   9  15  24  38  55  75  99 131 176 227 275
#     4   9  16  25  38  58  81 104 136 179 223 269
#     4   9  15  23  37  57  82 113 148 187 228 268
#     4   9  16  24  32  46  72 106 147 192 233 278
#
# _framework density 19.038910000000001
#
# number of rings (size 3 to 8) (size 9 to 14) (size 15 to 20)
#    0.000    3.000    1.000    1.500    0.000    6.400 
#    0.000    2.000    0.000    0.600    0.000    0.700 
#    0.000    5.600    0.000    0.000    0.000    2.000 
#
# Total GULP energy -222942.838317 kJ/mol
# GULP energy per Si atom -5573.570958 kJ/mol
# Density = 1.899558 g / cm^3
# Si number density = 19.038910 Si / 1000 Ang^3
#
#
#
# Elastic Constant Matrix: (Units=GPa)
#
#
# Indices 1 2 3 4 5 6 
#
# 1 66.7528 16.0892 64.2582 0.0000 0.0000 0.0000
# 2 16.0892 50.5924 48.5500 0.0000 0.0000 0.0000
# 3 64.2582 48.5500 196.9093 0.0000 0.0000 0.0000
# 4 0.0000 0.0000 0.0000 -4.7773 0.0000 0.0000
# 5 0.0000 0.0000 0.0000 0.0000 26.2410 0.0000
# 6 0.0000 0.0000 0.0000 0.0000 0.0000 0.2811
#
#
#
# Elastic Compliance Matrix: (Units=1/GPa)
#
#
# Indices 1 2 3 4 5 6 
#
# 1 0.021843 -0.000139 -0.007094 0.000000 0.000000 0.000000
# 2 -0.000139 0.025893 -0.006339 0.000000 0.000000 0.000000
# 3 -0.007094 -0.006339 0.008956 0.000000 0.000000 0.000000
# 4 0.000000 0.000000 0.000000 -0.209324 0.000000 0.000000
# 5 0.000000 0.000000 0.000000 0.000000 0.038108 0.000000
# 6 0.000000 0.000000 0.000000 0.000000 0.000000 3.557279
#
#
# Mechanical properties :
#
#
# Convention : Reuss Voigt Hill
#
# Bulk Modulus (GPa) = 33.84210 63.56100 48.70155
# Shear Modulus (GPa) = 1.43689 16.70610 9.07149
#
# Velocity S-wave (km/s) = 0.86968 2.96543 2.18519
# Velocity P-wave (km/s) = 4.33847 6.72178 5.65706
#
# Compressibility (1/GPa) = 0.02954900
#
# Stress axis : x y z
#
# Youngs Moduli (GPa) = 45.78158 38.62054 111.65285
#
# Poissons Ratio (x) = 0.00537 0.79204
# Poissons Ratio (y) = 0.00636 0.70775
# Poissons Ratio (z) = 0.32477 0.24481
#
# Static dielectric constant tensor:
#      x y z
#    x 1.684320 0.000000 0.000000 
#    y 0.000000 1.628250 0.000000 
#    z 0.000000 0.000000 1.664500 
# 
# From -- ./inp_files/1769.got.cif
#   From: 2010.05.17/outbox.cif.g08.bks.cpg/sg47_1_cif.got.tgz:1769.got - 2010.06.03 20:15:42.
