data_PCOD9389510
_publ_section_title
;
Structure prediction by ZEFSAII (Michael W. Deem and Ramdas Pophale) SiO2 
 PCOD9389510
Probable space group: P N N N
;
_chemical_formula_sum "Si O2"
_cell_formula_units_Z 32
_cell_length_a 12.908899
_cell_length_b 16.202967
_cell_length_c 7.473616
_cell_angle_alpha 90.000000
_cell_angle_beta 90.000000
_cell_angle_gamma 90.000000
_cell_volume 1563.199941
_symmetry_space_group_name_H-M "P N N N"
_symmetry_group_IT_number 48
_space_group.IT_coordinate_system_code '2'
_symmetry_cell_setting 'orthorhombic'
loop_
_space_group_symop_operation_xyz
x,y,z
1/2-x,1/2-y,z
x,1/2-y,1/2-z
1/2-x,y,1/2-z
-x,-y,-z
1/2+x,1/2+y,-z
-x,1/2+y,1/2+z
1/2+x,-y,1/2+z
loop_
_atom_site_type_symbol
_atom_site_label
_atom_site_fract_x
_atom_site_fract_y
_atom_site_fract_z
Si Si1 0.750000 0.750000 0.250000
Si Si2 0.750000 0.250000 0.750000
Si Si3 0.250000 0.038335 0.250000
Si Si4 0.608124 0.340843 0.174212
Si Si5 0.620460 0.682909 0.916732
Si Si6 0.818331 0.106857 0.517386
O O1 0.672966 0.792450 0.395483
O O2 0.823786 0.188440 0.639442
O O3 0.175667 0.098946 0.142142
O O4 0.183938 0.976672 0.373026
O O5 0.635924 0.250000 0.250000
O O6 0.501988 0.332472 0.069328
O O7 0.599820 0.392581 0.357643
O O8 0.702879 0.379569 0.065858
O O9 0.632605 0.750000 0.750000
#
# Coordination Sequence:
#
# PCOD9389510 Si02
#       6
#     2   2   4   8   8   8
#     4  12  22  46  76  90 122 190 218 286 336 376
#     4  10  16  32  54  92 126 172 226 230 338 406
#     4  11  23  41  61  96 140 170 217 277 327 401
#     4  10  20  40  65  95 128 177 222 269 328 400
#     4  11  24  46  69  96 129 172 233 280 328 397
#     4  10  20  36  64  92 138 174 203 281 331 397
#
# _framework density 20.470828999999998
#
# number of rings (size 3 to 8) (size 9 to 14) (size 15 to 20)
#    0.000    1.500    5.000    0.750    0.000    5.000 
#    4.500    0.000    0.000    0.000    0.000    0.000 
#    0.000    0.000    0.000    0.000    0.000    0.000 
#
# Total GULP energy -178411.698873 kJ/mol
# GULP energy per Si atom -5575.365590 kJ/mol
# Density = 2.042424 g / cm^3
# Si number density = 20.470829 Si / 1000 Ang^3
#
#
#
# Elastic Constant Matrix: (Units=GPa)
#
#
# Indices 1 2 3 4 5 6 
#
# 1 103.4368 17.4629 43.7341 0.0000 0.0000 0.0000
# 2 17.4629 113.4058 60.9552 0.0000 0.0000 0.0000
# 3 43.7341 60.9552 138.2548 0.0000 0.0000 0.0000
# 4 0.0000 0.0000 0.0000 31.1952 0.0000 0.0000
# 5 0.0000 0.0000 0.0000 0.0000 19.4038 0.0000
# 6 0.0000 0.0000 0.0000 0.0000 0.0000 12.5298
#
#
#
# Elastic Compliance Matrix: (Units=1/GPa)
#
#
# Indices 1 2 3 4 5 6 
#
# 1 0.011165 0.000235 -0.003635 0.000000 0.000000 0.000000
# 2 0.000235 0.011561 -0.005172 0.000000 0.000000 0.000000
# 3 -0.003635 -0.005172 0.010663 0.000000 0.000000 0.000000
# 4 0.000000 0.000000 0.000000 0.032056 0.000000 0.000000
# 5 0.000000 0.000000 0.000000 0.000000 0.051536 0.000000
# 6 0.000000 0.000000 0.000000 0.000000 0.000000 0.079810
#
#
# Mechanical properties :
#
#
# Convention : Reuss Voigt Hill
#
# Bulk Modulus (GPa) = 61.55637 66.60020 64.07828
# Shear Modulus (GPa) = 22.79447 28.15546 25.47497
#
# Velocity S-wave (km/s) = 3.34055 3.71265 3.53151
# Velocity P-wave (km/s) = 6.70929 7.14025 6.92812
#
# Compressibility (1/GPa) = 0.01624527
#
# Stress axis : x y z
#
# Youngs Moduli (GPa) = 89.56417 86.49435 93.78147
#
# Poissons Ratio (x) = -0.02030 0.34093
# Poissons Ratio (y) = -0.02102 0.48500
# Poissons Ratio (z) = 0.32560 0.44731
#
# Static dielectric constant tensor:
#      x y z
#    x 1.736830 0.000000 0.000000 
#    y 0.000000 1.728310 0.000000 
#    z 0.000000 0.000000 1.836460 
# 
# From -- ./inp_files/12165.got.cif
#   From: 2010.05.17/outbox.cif.g08.bks.cpg/sg48_7_cif.got.tgz:12165.got - 2010.06.03 20:39:00.
