data_PCOD9389873
_publ_section_title
;
Structure prediction by ZEFSAII (Michael W. Deem and Ramdas Pophale) SiO2 
 PCOD9389873
Probable space group: P N N N
;
_chemical_formula_sum "Si O2"
_cell_formula_units_Z 56
_cell_length_a 4.988034
_cell_length_b 34.977125
_cell_length_c 17.172866
_cell_angle_alpha 90.000000
_cell_angle_beta 90.000000
_cell_angle_gamma 90.000000
_cell_volume 2996.099936
_symmetry_space_group_name_H-M "P N N N"
_symmetry_group_IT_number 48
_space_group.IT_coordinate_system_code '2'
_symmetry_cell_setting 'orthorhombic'
loop_
_space_group_symop_operation_xyz
x,y,z
1/2-x,1/2-y,z
x,1/2-y,1/2-z
1/2-x,y,1/2-z
-x,-y,-z
1/2+x,1/2+y,-z
-x,1/2+y,1/2+z
1/2+x,-y,1/2+z
loop_
_atom_site_type_symbol
_atom_site_label
_atom_site_fract_x
_atom_site_fract_y
_atom_site_fract_z
Si Si1 0.327471 0.706304 0.417273
Si Si2 0.279580 0.639286 0.533936
Si Si3 0.745916 0.514476 0.449518
Si Si4 0.216663 0.395603 0.544023
Si Si5 0.993203 0.615268 0.805456
Si Si6 0.161235 0.328342 0.661130
Si Si7 0.000494 0.470594 0.196223
O O1 0.250000 0.750000 0.429888
O O2 0.272272 0.680850 0.494115
O O3 0.627190 0.697517 0.387742
O O4 0.129187 0.689878 0.351164
O O5 0.483863 0.614738 0.481616
O O6 0.409230 0.638511 0.619164
O O7 0.991181 0.619126 0.522542
O O8 0.500000 0.500000 0.500000
O O9 0.794638 0.559561 0.442024
O O10 0.641454 0.497528 0.367245
O O11 0.000000 0.500000 0.500000
O O12 0.155810 0.369745 0.619603
O O13 0.750000 0.628668 0.750000
O O14 0.250000 0.614622 0.750000
O O15 0.917522 0.571852 0.834352
O O16 0.250000 0.330321 0.750000
O O17 0.750000 0.462290 0.250000
O O18 0.250000 0.484917 0.250000
#
# Coordination Sequence:
#
# PCOD9389873 Si02
#       7
#     8   8   8   8   8   8   8
#     4  10  21  36  57  84 110 142 178 217 270 321
#     4  10  20  37  56  78 108 138 177 222 267 329
#     4  12  23  36  56  79 105 143 190 234 278 326
#     4  10  21  36  54  76 106 146 183 222 272 323
#     4  10  19  32  53  77 102 133 171 216 265 315
#     4  10  21  36  55  81 112 145 183 222 263 319
#     4  10  21  35  50  74 105 136 174 224 275 317
#
# _framework density 18.690964000000001
#
# number of rings (size 3 to 8) (size 9 to 14) (size 15 to 20)
#    0.000    1.714    0.000    5.143    0.000    4.571 
#    0.000    2.857    0.000    0.429    0.000    1.000 
#    0.000    0.000    0.000    0.000    0.000    0.000 
#
# Total GULP energy -312050.543849 kJ/mol
# GULP energy per Si atom -5572.331140 kJ/mol
# Density = 1.864842 g / cm^3
# Si number density = 18.690964 Si / 1000 Ang^3
#
#
#
# Elastic Constant Matrix: (Units=GPa)
#
#
# Indices 1 2 3 4 5 6 
#
# 1 106.6157 19.4187 16.7835 0.0000 0.0000 0.0000
# 2 19.4187 121.9412 56.5292 0.0000 0.0000 0.0000
# 3 16.7835 56.5292 104.7474 0.0000 0.0000 0.0000
# 4 0.0000 0.0000 0.0000 10.8879 0.0000 0.0000
# 5 0.0000 0.0000 0.0000 0.0000 36.3828 0.0000
# 6 0.0000 0.0000 0.0000 0.0000 0.0000 16.3329
#
#
#
# Elastic Compliance Matrix: (Units=1/GPa)
#
#
# Indices 1 2 3 4 5 6 
#
# 1 0.009732 -0.001103 -0.000964 0.000000 0.000000 0.000000
# 2 -0.001103 0.011062 -0.005793 0.000000 0.000000 0.000000
# 3 -0.000964 -0.005793 0.012828 0.000000 0.000000 0.000000
# 4 0.000000 0.000000 0.000000 0.091845 0.000000 0.000000
# 5 0.000000 0.000000 0.000000 0.000000 0.027486 0.000000
# 6 0.000000 0.000000 0.000000 0.000000 0.000000 0.061226
#
#
# Mechanical properties :
#
#
# Convention : Reuss Voigt Hill
#
# Bulk Modulus (GPa) = 55.86151 57.64081 56.75116
# Shear Modulus (GPa) = 21.19854 28.75892 24.97873
#
# Velocity S-wave (km/s) = 3.37138 3.92682 3.65966
# Velocity P-wave (km/s) = 6.71616 7.17396 6.94883
#
# Compressibility (1/GPa) = 0.01790141
#
# Stress axis : x y z
#
# Youngs Moduli (GPa) = 102.75241 90.40099 77.95677
#
# Poissons Ratio (x) = 0.09970 0.07517
# Poissons Ratio (y) = 0.11332 0.45161
# Poissons Ratio (z) = 0.09907 0.52370
#
# Static dielectric constant tensor:
#      x y z
#    x 1.646070 0.000000 0.000000 
#    y 0.000000 0.973000 0.000000 
#    z 0.000000 0.000000 1.653650 
# 
# From -- ./inp_files/3703.got.cif
#   From: 2010.05.17/outbox.cif.g08.bks.cpg/sg48_2_cif.got.tgz:3703.got - 2010.06.03 20:39:00.
