data_PCOD9389167
_publ_section_title
;
Structure prediction by ZEFSAII (Michael W. Deem and Ramdas Pophale) SiO2 
 PCOD9389167
Probable space group: P M M M
;
_chemical_formula_sum "Si O2"
_cell_formula_units_Z 56
_cell_length_a 21.025589
_cell_length_b 16.188814
_cell_length_c 7.391804
_cell_angle_alpha 90.000000
_cell_angle_beta 90.000000
_cell_angle_gamma 90.000000
_cell_volume 2516.017438
_symmetry_space_group_name_H-M "P M M M"
_symmetry_group_IT_number 47
_symmetry_cell_setting 'orthorhombic'
loop_
_space_group_symop_operation_xyz
x,y,z
-x,-y,z
x,-y,-z
-x,y,-z
-x,-y,-z
x,y,-z
-x,y,z
x,-y,z
loop_
_atom_site_type_symbol
_atom_site_label
_atom_site_fract_x
_atom_site_fract_y
_atom_site_fract_z
Si Si1 0.403002 0.411823 0.709574
Si Si2 0.170121 0.908289 0.221151
Si Si3 0.928521 0.767421 0.779332
Si Si4 0.121046 0.589740 0.779418
Si Si5 0.568823 0.771925 0.716937
Si Si6 0.737283 0.365994 0.219258
Si Si7 0.707792 0.181258 0.214645
O O1 0.423156 0.411615 0.500000
O O2 0.423898 0.500000 0.788740
O O3 0.423100 0.322740 0.786796
O O4 0.326420 0.409614 0.716170
O O5 0.123118 0.834948 0.279231
O O6 0.242160 0.886386 0.279694
O O7 0.151552 0.000000 0.280191
O O8 0.168488 0.908662 0.000000
O O9 0.912593 0.674008 0.720082
O O10 0.000000 0.789916 0.726080
O O11 0.926126 0.766346 0.000000
O O12 0.095941 0.500000 0.721369
O O13 0.195213 0.597493 0.726720
O O14 0.118772 0.590374 0.000000
O O15 0.567579 0.766217 0.500000
O O16 0.500000 0.803981 0.777902
O O17 0.632297 0.823538 0.756415
O O18 0.730524 0.271143 0.281512
O O19 0.735657 0.367917 0.000000
O O20 0.716048 0.183885 0.000000
#
# Coordination Sequence:
#
# PCOD9389167 Si02
#       7
#     8   8   8   8   8   8   8
#     4   9  17  27  39  59  87 115 147 189 230 267
#     4   9  16  27  44  65  88 115 149 188 232 279
#     4   9  16  25  36  55  88 124 155 188 226 271
#     4   9  15  22  34  53  80 116 155 190 224 264
#     4   9  18  31  46  65  90 121 153 185 227 276
#     4   9  15  25  41  59  82 115 153 189 226 267
#     4   9  16  28  47  67  89 117 150 189 228 269
#
# _framework density 22.257398999999999
#
# number of rings (size 3 to 8) (size 9 to 14) (size 15 to 20)
#    0.000    3.000    1.429    0.429    0.000    2.000 
#    0.000    4.286    0.000    0.857    0.000    7.000 
#    0.000    2.286    0.000    4.286    0.000    4.286 
#
# Total GULP energy -312393.958656 kJ/mol
# GULP energy per Si atom -5578.463547 kJ/mol
# Density = 2.220674 g / cm^3
# Si number density = 22.257399 Si / 1000 Ang^3
#
#
#
# Elastic Constant Matrix: (Units=GPa)
#
#
# Indices 1 2 3 4 5 6 
#
# 1 143.5790 70.6044 -2.1642 0.0000 0.0000 0.0000
# 2 70.6044 128.6502 3.8349 0.0000 0.0000 0.0000
# 3 -2.1642 3.8349 73.4630 0.0000 0.0000 0.0000
# 4 0.0000 0.0000 0.0000 -4.4222 0.0000 0.0000
# 5 0.0000 0.0000 0.0000 0.0000 12.6923 0.0000
# 6 0.0000 0.0000 0.0000 0.0000 0.0000 -23.6597
#
#
#
# Elastic Compliance Matrix: (Units=1/GPa)
#
#
# Indices 1 2 3 4 5 6 
#
# 1 0.009562 -0.005264 0.000556 0.000000 0.000000 0.000000
# 2 -0.005264 0.010683 -0.000713 0.000000 0.000000 0.000000
# 3 0.000556 -0.000713 0.013666 0.000000 0.000000 0.000000
# 4 0.000000 0.000000 0.000000 -0.226133 0.000000 0.000000
# 5 0.000000 0.000000 0.000000 0.000000 0.078788 0.000000
# 6 0.000000 0.000000 0.000000 0.000000 0.000000 -0.042266
#
#
# Mechanical properties :
#
#
# Convention : Reuss Voigt Hill
#
# Bulk Modulus (GPa) = 43.34619 54.47135 48.90877
# Shear Modulus (GPa) = -36.45127 15.14991 -10.65068
#
# Velocity S-wave (km/s) = -4.05126 2.61179 -2.18989
# Velocity P-wave (km/s) = 1.53830 5.79843 3.95319
#
# Compressibility (1/GPa) = 0.02307008
#
# Stress axis : x y z
#
# Youngs Moduli (GPa) = 104.58223 93.60391 73.17484
#
# Poissons Ratio (x) = 0.49275 -0.04072
# Poissons Ratio (y) = 0.55054 0.05216
# Poissons Ratio (z) = -0.05820 0.06672
#
# Static dielectric constant tensor:
#      x y z
#    x 1.811770 0.000000 0.000000 
#    y 0.000000 1.805300 0.000000 
#    z 0.000000 0.000000 1.876740 
# 
# From -- ./inp_files/11478.got.cif
#   From: 2010.05.17/outbox.cif.g08.bks.cpg/sg47_6_cif.got.tgz:11478.got - 2010.06.03 20:15:42.
