data_PCOD9389017
_publ_section_title
;
Structure prediction by ZEFSAII (Michael W. Deem and Ramdas Pophale) SiO2 
 PCOD9389017
Probable space group: P M M M
;
_chemical_formula_sum "Si O2"
_cell_formula_units_Z 56
_cell_length_a 7.553322
_cell_length_b 19.695066
_cell_length_c 19.447913
_cell_angle_alpha 90.000000
_cell_angle_beta 90.000000
_cell_angle_gamma 90.000000
_cell_volume 2893.133291
_symmetry_space_group_name_H-M "P M M M"
_symmetry_group_IT_number 47
_symmetry_cell_setting 'orthorhombic'
loop_
_space_group_symop_operation_xyz
x,y,z
-x,-y,z
x,-y,-z
-x,y,-z
-x,-y,-z
x,y,-z
-x,y,z
x,-y,z
loop_
_atom_site_type_symbol
_atom_site_label
_atom_site_fract_x
_atom_site_fract_y
_atom_site_fract_z
Si Si1 0.283813 0.576939 0.079416
Si Si2 0.213734 0.158492 0.923253
Si Si3 0.786952 0.572680 0.580973
Si Si4 0.212865 0.076032 0.791827
Si Si5 0.712421 0.790864 0.289076
Si Si6 0.707694 0.722101 0.422258
Si Si7 0.710399 0.292373 0.158417
O O1 0.500000 0.577956 0.080166
O O2 0.229552 0.500000 0.097370
O O3 0.220003 0.636135 0.130082
O O4 0.231645 0.590289 0.000000
O O5 0.278048 0.107011 0.864382
O O6 0.262006 0.234069 0.898651
O O7 0.000000 0.154541 0.924047
O O8 0.278274 0.144487 0.000000
O O9 0.737793 0.571896 0.500000
O O10 0.726348 0.500000 0.610712
O O11 0.721536 0.645026 0.606441
O O12 0.000000 0.573762 0.584659
O O13 0.254449 0.132503 0.734923
O O14 0.000000 0.072810 0.796199
O O15 0.278953 0.000000 0.779066
O O16 0.500000 0.782054 0.290795
O O17 0.783280 0.771062 0.363942
O O18 0.781777 0.740369 0.229127
O O19 0.783995 0.724645 0.500000
O O20 0.500000 0.737251 0.429059
O O21 0.500000 0.300882 0.167895
#
# Coordination Sequence:
#
# PCOD9389017 Si02
#       7
#     8   8   8   8   8   8   8
#     4   8  13  21  35  56  79 104 138 178 214 244
#     4   9  17  28  43  65  91 116 141 171 208 249
#     4   8  14  25  41  62  88 116 146 180 217 258
#     4   9  18  32  49  68  89 115 145 173 206 253
#     4   9  18  31  46  66  89 112 141 177 219 265
#     4   9  17  29  45  65  89 116 147 184 224 267
#     4   9  16  27  43  61  83 111 144 181 217 254
#
# _framework density 19.356176000000001
#
# number of rings (size 3 to 8) (size 9 to 14) (size 15 to 20)
#    0.000    3.286    0.000    1.286    0.000    2.286 
#    0.000    3.571    0.000    3.429    0.000    9.000 
#    0.000    0.000    0.000    0.000    0.000    0.000 
#
# Total GULP energy -311941.847752 kJ/mol
# GULP energy per Si atom -5570.390138 kJ/mol
# Density = 1.931212 g / cm^3
# Si number density = 19.356176 Si / 1000 Ang^3
#
#
#
# Elastic Constant Matrix: (Units=GPa)
#
#
# Indices 1 2 3 4 5 6 
#
# 1 44.4899 1.4487 5.0507 0.0000 0.0000 0.0000
# 2 1.4487 168.3806 92.1020 0.0000 0.0000 0.0000
# 3 5.0507 92.1020 109.2785 0.0000 0.0000 0.0000
# 4 0.0000 0.0000 0.0000 13.5669 0.0000 0.0000
# 5 0.0000 0.0000 0.0000 0.0000 6.6027 0.0000
# 6 0.0000 0.0000 0.0000 0.0000 0.0000 16.3709
#
#
#
# Elastic Compliance Matrix: (Units=1/GPa)
#
#
# Indices 1 2 3 4 5 6 
#
# 1 0.022640 0.000701 -0.001637 0.000000 0.000000 0.000000
# 2 0.000701 0.011040 -0.009337 0.000000 0.000000 0.000000
# 3 -0.001637 -0.009337 0.017096 0.000000 0.000000 0.000000
# 4 0.000000 0.000000 0.000000 0.073709 0.000000 0.000000
# 5 0.000000 0.000000 0.000000 0.000000 0.151454 0.000000
# 6 0.000000 0.000000 0.000000 0.000000 0.000000 0.061084
#
#
# Mechanical properties :
#
#
# Convention : Reuss Voigt Hill
#
# Bulk Modulus (GPa) = 33.08048 57.70577 45.39313
# Shear Modulus (GPa) = 13.59999 22.21126 17.90563
#
# Velocity S-wave (km/s) = 2.65357 3.39116 3.04478
# Velocity P-wave (km/s) = 5.14938 6.72388 5.98860
#
# Compressibility (1/GPa) = 0.03022930
#
# Stress axis : x y z
#
# Youngs Moduli (GPa) = 44.16962 90.57715 58.49225
#
# Poissons Ratio (x) = -0.06345 0.09574
# Poissons Ratio (y) = -0.03094 0.54616
# Poissons Ratio (z) = 0.07230 0.84575
#
# Static dielectric constant tensor:
#      x y z
#    x 1.723880 0.000000 0.000000 
#    y 0.000000 1.687760 0.000000 
#    z 0.000000 0.000000 1.694430 
# 
# From -- ./inp_files/27642.got.cif
#   From: 2010.05.17/outbox.cif.g08.bks.cpg/sg47_14_cif.got.tgz:27642.got - 2010.06.03 20:15:42.
