data_PCOD9389277
_publ_section_title
;
Structure prediction by ZEFSAII (Michael W. Deem and Ramdas Pophale) SiO2 
 PCOD9389277
Probable space group: P M M M
;
_chemical_formula_sum "Si O2"
_cell_formula_units_Z 52
_cell_length_a 9.000000
_cell_length_b 27.000000
_cell_length_c 12.000000
_cell_angle_alpha 90.000000
_cell_angle_beta 90.000000
_cell_angle_gamma 90.000000
_cell_volume 2916.000000
_symmetry_space_group_name_H-M "P M M M"
_symmetry_group_IT_number 47
_symmetry_cell_setting 'orthorhombic'
loop_
_space_group_symop_operation_xyz
x,y,z
-x,-y,z
x,-y,-z
-x,y,-z
-x,-y,-z
x,y,-z
-x,y,z
x,-y,z
loop_
_atom_site_type_symbol
_atom_site_label
_atom_site_fract_x
_atom_site_fract_y
_atom_site_fract_z
Si Si1 0.170939 0.500000 0.135485
Si Si2 0.831247 0.774505 0.366413
Si Si3 0.679697 0.868508 0.000000
Si Si4 0.323581 0.294100 0.206788
Si Si5 0.823378 0.761566 0.000000
Si Si6 0.679588 0.054333 0.187520
Si Si7 0.322544 0.399977 0.869998
Si Si8 0.326512 0.125863 0.368006
O O1 0.249164 0.550078 0.172548
O O2 0.000000 0.500000 0.166340
O O3 0.182008 0.500000 0.000000
O O4 0.828788 0.774588 0.500000
O O5 0.726481 0.732217 0.318945
O O6 0.769843 0.827760 0.328428
O O7 0.000000 0.767233 0.328158
O O8 0.722870 0.902319 0.895520
O O9 0.500000 0.861029 0.000000
O O10 0.760770 0.816839 0.000000
O O11 0.500000 0.289975 0.189664
O O12 0.240928 0.265906 0.107743
O O13 0.282272 0.351569 0.198969
O O14 0.000000 0.760784 0.000000
O O15 0.500000 0.051006 0.177859
O O16 0.715213 0.074810 0.309266
O O17 0.739894 0.000000 0.162863
O O18 0.500000 0.405841 0.868930
O O19 0.279179 0.391667 0.000000
O O20 0.312952 0.121835 0.500000
O O21 0.500000 0.136278 0.341216
#
# Coordination Sequence:
#
# PCOD9389277 Si02
#       8
#     4   8   4   8   4   8   8   8
#     4   9  17  27  43  69 100 137 176 211 247 295
#     4  10  21  36  53  75 104 137 172 211 257 308
#     4  10  19  32  50  68  91 127 166 201 238 293
#     4  11  21  35  54  77 105 137 176 217 257 304
#     4  12  24  35  51  76 107 138 168 207 259 311
#     4   9  17  29  47  71  94 118 155 204 250 289
#     4   9  17  31  48  69 100 137 173 210 253 299
#     4   9  17  30  49  71  94 123 159 200 247 300
#
# _framework density 17.832647000000001
#
# number of rings (size 3 to 8) (size 9 to 14) (size 15 to 20)
#    0.000    2.231    0.769    3.000    0.000    5.538 
#    0.000    1.538    0.000    2.308    0.000    2.692 
#    0.000    4.308    0.000    0.000    0.000    0.000 
#
# Total GULP energy -289905.713923 kJ/mol
# GULP energy per Si atom -5575.109883 kJ/mol
# Density = 1.779206 g / cm^3
# Si number density = 17.832647 Si / 1000 Ang^3
#
#
#
# Elastic Constant Matrix: (Units=GPa)
#
#
# Indices 1 2 3 4 5 6 
#
# 1 48.2265 51.5011 24.7335 0.0000 0.0000 0.0000
# 2 51.5011 136.3194 34.2092 0.0000 0.0000 0.0000
# 3 24.7335 34.2092 20.8522 0.0000 0.0000 0.0000
# 4 0.0000 0.0000 0.0000 -9.2335 0.0000 0.0000
# 5 0.0000 0.0000 0.0000 0.0000 15.1873 0.0000
# 6 0.0000 0.0000 0.0000 0.0000 0.0000 -95.7817
#
#
#
# Elastic Compliance Matrix: (Units=1/GPa)
#
#
# Indices 1 2 3 4 5 6 
#
# 1 0.057468 -0.007828 -0.055322 0.000000 0.000000 0.000000
# 2 -0.007828 0.013536 -0.012921 0.000000 0.000000 0.000000
# 3 -0.055322 -0.012921 0.134774 0.000000 0.000000 0.000000
# 4 0.000000 0.000000 0.000000 -0.108301 0.000000 0.000000
# 5 0.000000 0.000000 0.000000 0.000000 0.065845 0.000000
# 6 0.000000 0.000000 0.000000 0.000000 0.000000 -0.010440
#
#
# Mechanical properties :
#
#
# Convention : Reuss Voigt Hill
#
# Bulk Modulus (GPa) = 18.64457 47.36509 33.00483
# Shear Modulus (GPa) = 15.48464 -11.63531 1.92466
#
# Velocity S-wave (km/s) = 2.94994 -2.55713 1.04002
# Velocity P-wave (km/s) = 4.69903 4.23084 4.47107
#
# Compressibility (1/GPa) = 0.05363493
#
# Stress axis : x y z
#
# Youngs Moduli (GPa) = 17.40101 73.87923 7.41984
#
# Poissons Ratio (x) = 0.57834 0.41048
# Poissons Ratio (y) = 0.13622 0.09587
# Poissons Ratio (z) = 0.96266 0.95457
#
# Static dielectric constant tensor:
#      x y z
#    x 1.603710 0.000000 0.000000 
#    y 0.000000 1.600250 0.000000 
#    z 0.000000 0.000000 1.638630 
# 
# From -- ./inp_files/15535.got.cif
#   From: 2010.05.17/outbox.ucp.g08.bks.cvg/sg47_8_cif.got.tgz:15535.got - 2010.06.11 16:36:43.
