data_PCOD9389757
_publ_section_title
;
Structure prediction by ZEFSAII (Michael W. Deem and Ramdas Pophale) SiO2 
 PCOD9389757
Probable space group: P N N N
;
_chemical_formula_sum "Si O2"
_cell_formula_units_Z 40
_cell_length_a 14.345722
_cell_length_b 16.554870
_cell_length_c 8.971581
_cell_angle_alpha 90.000000
_cell_angle_beta 90.000000
_cell_angle_gamma 90.000000
_cell_volume 2130.674792
_symmetry_space_group_name_H-M "P N N N"
_symmetry_group_IT_number 48
_space_group.IT_coordinate_system_code '2'
_symmetry_cell_setting 'orthorhombic'
loop_
_space_group_symop_operation_xyz
x,y,z
1/2-x,1/2-y,z
x,1/2-y,1/2-z
1/2-x,y,1/2-z
-x,-y,-z
1/2+x,1/2+y,-z
-x,1/2+y,1/2+z
1/2+x,-y,1/2+z
loop_
_atom_site_type_symbol
_atom_site_label
_atom_site_fract_x
_atom_site_fract_y
_atom_site_fract_z
Si Si1 0.648719 0.787199 0.481620
Si Si2 0.397990 0.136906 0.832783
Si Si3 0.726228 0.019551 0.087600
Si Si4 0.930779 0.456936 0.883000
Si Si5 0.590568 0.958142 0.579429
O O1 0.750000 0.750000 0.523952
O O2 0.648275 0.826694 0.315622
O O3 0.592288 0.704814 0.459042
O O4 0.603163 0.860624 0.572154
O O5 0.332644 0.062835 0.881735
O O6 0.502874 0.108032 0.803377
O O7 0.750000 0.055036 0.250000
O O8 0.820820 0.995046 0.006488
O O9 0.658988 0.069519 0.977609
O O10 0.903584 0.517155 0.751538
O O11 0.000000 0.500000 0.000000
O O12 0.500000 0.000000 0.500000
#
# Coordination Sequence:
#
# PCOD9389757 Si02
#       5
#     8   8   8   8   8
#     4  11  19  32  63  92 130 160 202 257 328 395
#     4  10  18  35  59  91 125 163 203 260 328 393
#     4  11  19  36  58  84 118 159 208 257 315 381
#     4  10  22  37  55  84 126 165 212 262 315 384
#     4  12  21  35  58  94 124 162 209 259 319 392
#
# _framework density 18.773395000000001
#
# number of rings (size 3 to 8) (size 9 to 14) (size 15 to 20)
#    0.000    1.200    6.000    3.000    0.000    0.000 
#    0.000    4.000    0.000    1.200    0.000    4.200 
#    0.000    0.000    0.000    0.000    0.000    0.000 
#
# Total GULP energy -222702.559316 kJ/mol
# GULP energy per Si atom -5567.563983 kJ/mol
# Density = 1.873067 g / cm^3
# Si number density = 18.773395 Si / 1000 Ang^3
#
#
#
# Elastic Constant Matrix: (Units=GPa)
#
#
# Indices 1 2 3 4 5 6 
#
# 1 108.0088 19.4833 23.3655 0.0000 0.0000 0.0000
# 2 19.4833 52.4885 6.5451 0.0000 0.0000 0.0000
# 3 23.3655 6.5451 96.7661 0.0000 0.0000 0.0000
# 4 0.0000 0.0000 0.0000 20.5642 0.0000 0.0000
# 5 0.0000 0.0000 0.0000 0.0000 23.0767 0.0000
# 6 0.0000 0.0000 0.0000 0.0000 0.0000 27.2316
#
#
#
# Elastic Compliance Matrix: (Units=1/GPa)
#
#
# Indices 1 2 3 4 5 6 
#
# 1 0.010394 -0.003575 -0.002268 0.000000 0.000000 0.000000
# 2 -0.003575 0.020444 -0.000519 0.000000 0.000000 0.000000
# 3 -0.002268 -0.000519 0.010917 0.000000 0.000000 0.000000
# 4 0.000000 0.000000 0.000000 0.048628 0.000000 0.000000
# 5 0.000000 0.000000 0.000000 0.000000 0.043334 0.000000
# 6 0.000000 0.000000 0.000000 0.000000 0.000000 0.036722
#
#
# Mechanical properties :
#
#
# Convention : Reuss Voigt Hill
#
# Bulk Modulus (GPa) = 34.44814 39.56125 37.00469
# Shear Modulus (GPa) = 25.92814 28.03247 26.98031
#
# Velocity S-wave (km/s) = 3.72036 3.86839 3.79510
# Velocity P-wave (km/s) = 6.06993 6.40869 6.24161
#
# Compressibility (1/GPa) = 0.02902915
#
# Stress axis : x y z
#
# Youngs Moduli (GPa) = 96.20854 48.91481 91.60056
#
# Poissons Ratio (x) = 0.17489 0.20775
# Poissons Ratio (y) = 0.34398 0.04758
# Poissons Ratio (z) = 0.21820 0.02541
#
# Static dielectric constant tensor:
#      x y z
#    x 1.706480 0.000000 0.000000 
#    y 0.000000 1.721510 0.000000 
#    z 0.000000 0.000000 1.724910 
# 
# From -- ./inp_files/12561.got.cif
#   From: 2010.05.17/outbox.cif.g08.bks.cpg/sg48_7_cif.got.tgz:12561.got - 2010.06.03 20:39:00.
