data_PCOD9389219
_publ_section_title
;
Structure prediction by ZEFSAII (Michael W. Deem and Ramdas Pophale) SiO2 
 PCOD9389219
Probable space group: P M M M
;
_chemical_formula_sum "Si O2"
_cell_formula_units_Z 64
_cell_length_a 21.000000
_cell_length_b 21.000000
_cell_length_c 9.000000
_cell_angle_alpha 90.000000
_cell_angle_beta 90.000000
_cell_angle_gamma 90.000000
_cell_volume 3969.000000
_symmetry_space_group_name_H-M "P M M M"
_symmetry_group_IT_number 47
_symmetry_cell_setting 'orthorhombic'
loop_
_space_group_symop_operation_xyz
x,y,z
-x,-y,z
x,-y,-z
-x,y,-z
-x,-y,-z
x,y,-z
-x,y,z
x,-y,z
loop_
_atom_site_type_symbol
_atom_site_label
_atom_site_fract_x
_atom_site_fract_y
_atom_site_fract_z
Si Si1 0.891588 0.429334 0.677984
Si Si2 0.759806 0.602336 0.824844
Si Si3 0.928976 0.296618 0.820258
Si Si4 0.335679 0.189411 0.819488
Si Si5 0.572260 0.706569 0.321315
Si Si6 0.206839 0.750495 0.175763
Si Si7 0.373620 0.570275 0.677931
Si Si8 0.573146 0.926398 0.180631
O O1 0.895095 0.422488 0.500000
O O2 0.916964 0.500000 0.716668
O O3 0.818556 0.426094 0.733314
O O4 0.923123 0.367961 0.754565
O O5 0.764988 0.679019 0.807891
O O6 0.693229 0.578321 0.761798
O O7 0.766601 0.587955 0.000000
O O8 0.866509 0.256431 0.767794
O O9 0.000000 0.271559 0.784195
O O10 0.924170 0.301356 0.000000
O O11 0.377745 0.248105 0.759945
O O12 0.262229 0.201582 0.768053
O O13 0.373437 0.125006 0.772552
O O14 0.335256 0.190810 0.000000
O O15 0.579255 0.713584 0.500000
O O16 0.500000 0.723962 0.280733
O O17 0.584752 0.632274 0.285248
O O18 0.200863 0.763850 0.000000
O O19 0.362313 0.572640 0.500000
O O20 0.400796 0.500000 0.711561
O O21 0.500000 0.909916 0.226700
O O22 0.585643 0.000000 0.225944
O O23 0.573081 0.925793 0.000000
#
# Coordination Sequence:
#
# PCOD9389219 Si02
#       8
#     8   8   8   8   8   8   8   8
#     4  10  20  31  43  61  85 111 141 178 222 277
#     4  10  18  30  46  64  85 108 139 184 232 276
#     4   9  18  32  47  62  84 113 143 180 227 276
#     4  10  17  29  50  71  91 117 151 190 227 265
#     4  10  21  34  46  63  88 116 149 190 232 276
#     4   8  15  27  44  66  86 105 138 182 221 260
#     4  10  20  32  45  60  80 109 146 188 236 284
#     4   8  14  24  40  67 100 128 153 182 220 267
#
# _framework density 16.124969
#
# number of rings (size 3 to 8) (size 9 to 14) (size 15 to 20)
#    0.000    2.625    1.250    2.625    0.000    4.250 
#    0.000    2.500    0.000    0.375    0.000    3.500 
#    0.000    0.500    0.000    7.000    0.000    0.000 
#
# Total GULP energy -356497.865281 kJ/mol
# GULP energy per Si atom -5570.279145 kJ/mol
# Density = 1.608827 g / cm^3
# Si number density = 16.124969 Si / 1000 Ang^3
#
#
#
# Elastic Constant Matrix: (Units=GPa)
#
#
# Indices 1 2 3 4 5 6 
#
# 1 123.3308 50.2296 9.2743 0.0000 0.0000 0.0000
# 2 50.2296 78.8498 9.4923 0.0000 0.0000 0.0000
# 3 9.2743 9.4923 8.3600 0.0000 0.0000 0.0000
# 4 0.0000 0.0000 0.0000 11.0201 0.0000 0.0000
# 5 0.0000 0.0000 0.0000 0.0000 15.4520 0.0000
# 6 0.0000 0.0000 0.0000 0.0000 0.0000 16.1423
#
#
#
# Elastic Compliance Matrix: (Units=1/GPa)
#
#
# Indices 1 2 3 4 5 6 
#
# 1 0.011125 -0.006488 -0.004975 0.000000 0.000000 0.000000
# 2 -0.006488 0.018474 -0.013779 0.000000 0.000000 0.000000
# 3 -0.004975 -0.013779 0.140781 0.000000 0.000000 0.000000
# 4 0.000000 0.000000 0.000000 0.090743 0.000000 0.000000
# 5 0.000000 0.000000 0.000000 0.000000 0.064717 0.000000
# 6 0.000000 0.000000 0.000000 0.000000 0.000000 0.061949
#
#
# Mechanical properties :
#
#
# Convention : Reuss Voigt Hill
#
# Bulk Modulus (GPa) = 8.34048 38.72590 23.53319
# Shear Modulus (GPa) = 10.45506 17.95917 14.20711
#
# Velocity S-wave (km/s) = 2.54909 3.34091 2.97149
# Velocity P-wave (km/s) = 3.72121 6.24103 5.13799
#
# Compressibility (1/GPa) = 0.11989718
#
# Stress axis : x y z
#
# Youngs Moduli (GPa) = 89.88984 54.13000 7.10322
#
# Poissons Ratio (x) = 0.35119 0.03534
# Poissons Ratio (y) = 0.58319 0.09787
# Poissons Ratio (z) = 0.44719 0.74584
#
# Static dielectric constant tensor:
#      x y z
#    x 1.571220 0.000000 0.000000 
#    y 0.000000 1.545740 0.000000 
#    z 0.000000 0.000000 1.530010 
# 
# From -- ./inp_files/11821.got.cif
#   From: 2010.05.17/outbox.ucp.g08.bks.cvg/sg47_6_cif.got.tgz:11821.got - 2010.06.11 16:36:43.
