data_PCOD9389305
_publ_section_title
;
Structure prediction by ZEFSAII (Michael W. Deem and Ramdas Pophale) SiO2 
 PCOD9389305
Probable space group: P M M M
;
_chemical_formula_sum "Si O2"
_cell_formula_units_Z 40
_cell_length_a 9.000000
_cell_length_b 9.000000
_cell_length_c 27.000000
_cell_angle_alpha 90.000000
_cell_angle_beta 90.000000
_cell_angle_gamma 90.000000
_cell_volume 2187.000000
_symmetry_space_group_name_H-M "P M M M"
_symmetry_group_IT_number 47
_symmetry_cell_setting 'orthorhombic'
loop_
_space_group_symop_operation_xyz
x,y,z
-x,-y,z
x,-y,-z
-x,y,-z
-x,-y,-z
x,y,-z
-x,y,z
x,-y,z
loop_
_atom_site_type_symbol
_atom_site_label
_atom_site_fract_x
_atom_site_fract_y
_atom_site_fract_z
Si Si1 0.181338 0.172526 0.500000
Si Si2 0.818476 0.670628 0.000000
Si Si3 0.827376 0.818377 0.393063
Si Si4 0.820879 0.329780 0.200602
Si Si5 0.670751 0.820904 0.706870
Si Si6 0.181446 0.829582 0.899625
O O1 0.226168 0.236984 0.446919
O O2 0.000000 0.171735 0.500000
O O3 0.229296 0.000000 0.500000
O O4 0.769486 0.751916 0.950135
O O5 0.772386 0.500000 0.000000
O O6 0.000000 0.673233 0.000000
O O7 0.734117 0.769981 0.345985
O O8 0.000000 0.777443 0.386377
O O9 0.823209 0.000000 0.394949
O O10 0.772251 0.500000 0.202673
O O11 0.763629 0.242848 0.248001
O O12 0.769514 0.255159 0.149552
O O13 0.000000 0.326554 0.200526
O O14 0.500000 0.777563 0.712170
O O15 0.680260 0.000000 0.707724
O O16 0.000000 0.827121 0.899828
O O17 0.228299 0.000000 0.898164
#
# Coordination Sequence:
#
# PCOD9389305 Si02
#       6
#     4   4   8   8   8   8
#     4   7  10  18  35  61  90 119 152 189 230 276
#     4   9  15  23  37  61  96 131 158 189 232 281
#     4   8  13  23  41  64  91 123 157 193 233 278
#     4  10  20  33  49  69  92 121 160 203 245 289
#     4  10  20  32  46  67  95 126 160 197 239 288
#     4   9  16  26  42  65  93 124 157 194 238 286
#
# _framework density 18.289895000000001
#
# number of rings (size 3 to 8) (size 9 to 14) (size 15 to 20)
#    0.000    3.000    0.000    3.300    0.000    6.000 
#    0.000    0.500    0.000    3.000    0.000    1.400 
#    0.000   11.200    0.000    0.000    0.000    0.000 
#
# Total GULP energy -222814.978014 kJ/mol
# GULP energy per Si atom -5570.374450 kJ/mol
# Density = 1.824827 g / cm^3
# Si number density = 18.289895 Si / 1000 Ang^3
#
#
#
# Elastic Constant Matrix: (Units=GPa)
#
#
# Indices 1 2 3 4 5 6 
#
# 1 3.8484 16.9991 21.1644 0.0000 0.0000 0.0000
# 2 16.9991 21.7808 29.9337 0.0000 0.0000 0.0000
# 3 21.1644 29.9337 160.9515 0.0000 0.0000 0.0000
# 4 0.0000 0.0000 0.0000 -81.0949 0.0000 0.0000
# 5 0.0000 0.0000 0.0000 0.0000 -14.6762 0.0000
# 6 0.0000 0.0000 0.0000 0.0000 0.0000 7.1124
#
#
#
# Elastic Compliance Matrix: (Units=1/GPa)
#
#
# Indices 1 2 3 4 5 6 
#
# 1 -0.105720 0.085175 -0.001939 0.000000 0.000000 0.000000
# 2 0.085175 -0.006947 -0.009908 0.000000 0.000000 0.000000
# 3 -0.001939 -0.009908 0.008311 0.000000 0.000000 0.000000
# 4 0.000000 0.000000 0.000000 -0.012331 0.000000 0.000000
# 5 0.000000 0.000000 0.000000 0.000000 -0.068137 0.000000
# 6 0.000000 0.000000 0.000000 0.000000 0.000000 0.140600
#
#
# Mechanical properties :
#
#
# Convention : Reuss Voigt Hill
#
# Bulk Modulus (GPa) = 23.64093 35.86388 29.75241
# Shear Modulus (GPa) = -28.28378 -9.83283 -19.05830
#
# Velocity S-wave (km/s) = -3.93672 -2.32116 -3.23152
# Velocity P-wave (km/s) = 2.77667 3.53093 1.54233
#
# Compressibility (1/GPa) = 0.04229952
#
# Stress axis : x y z
#
# Youngs Moduli (GPa) = -9.45897 -143.95292 120.32614
#
# Poissons Ratio (x) = 12.26117 0.23333
# Poissons Ratio (y) = 0.80567 1.19221
# Poissons Ratio (z) = -0.01834 -1.42631
#
# Static dielectric constant tensor:
#      x y z
#    x 1.608420 0.000000 0.000000 
#    y 0.000000 1.617530 0.000000 
#    z 0.000000 0.000000 1.637190 
# 
# From -- ./inp_files/33104.got.cif
#   From: 2010.05.17/outbox.ucp.g08.bks.cvg/sg47_17_cif.got.tgz:33104.got - 2010.06.11 16:36:43.
