data_PCOD9389282
_publ_section_title
;
Structure prediction by ZEFSAII (Michael W. Deem and Ramdas Pophale) SiO2 
 PCOD9389282
Probable space group: P M M M
;
_chemical_formula_sum "Si O2"
_cell_formula_units_Z 56
_cell_length_a 21.000000
_cell_length_b 9.000000
_cell_length_c 15.000000
_cell_angle_alpha 90.000000
_cell_angle_beta 90.000000
_cell_angle_gamma 90.000000
_cell_volume 2835.000000
_symmetry_space_group_name_H-M "P M M M"
_symmetry_group_IT_number 47
_symmetry_cell_setting 'orthorhombic'
loop_
_space_group_symop_operation_xyz
x,y,z
-x,-y,z
x,-y,-z
-x,y,-z
-x,-y,-z
x,y,-z
-x,y,z
x,-y,z
loop_
_atom_site_type_symbol
_atom_site_label
_atom_site_fract_x
_atom_site_fract_y
_atom_site_fract_z
Si Si1 0.929698 0.824188 0.218401
Si Si2 0.179702 0.673177 0.103797
Si Si3 0.574195 0.000000 0.601070
Si Si4 0.317570 0.178623 0.101783
Si Si5 0.575820 0.500000 0.393249
Si Si6 0.899199 0.675522 0.600957
Si Si7 0.643013 0.242318 0.709226
Si Si8 0.765692 0.828459 0.399365
O O1 0.874571 0.739590 0.166043
O O2 0.929745 0.768020 0.319974
O O3 0.000000 0.794679 0.179823
O O4 0.917883 0.000000 0.215586
O O5 0.191149 0.500000 0.125207
O O6 0.245453 0.762858 0.111904
O O7 0.159967 0.683086 0.000000
O O8 0.595896 0.872826 0.665622
O O9 0.500000 0.000000 0.588991
O O10 0.602510 0.000000 0.500000
O O11 0.356558 0.247378 0.184118
O O12 0.319064 0.000000 0.111484
O O13 0.337936 0.215432 0.000000
O O14 0.500000 0.500000 0.372116
O O15 0.580259 0.500000 0.500000
O O16 0.616173 0.625602 0.347113
O O17 0.919633 0.713822 0.500000
O O18 0.909289 0.500000 0.613891
O O19 0.824506 0.717131 0.606982
O O20 0.713761 0.201779 0.675539
O O21 0.738382 0.813263 0.500000
O O22 0.788037 0.000000 0.390959
#
# Coordination Sequence:
#
# PCOD9389282 Si02
#       8
#     8   8   4   8   4   8   8   8
#     4  11  24  40  59  83 115 159 206 247 294 358
#     4  10  22  40  65  95 124 154 192 244 306 362
#     4  11  22  38  61  87 119 159 207 254 296 356
#     4  10  21  39  64  96 128 159 200 251 306 364
#     4  11  26  44  61  87 125 165 205 250 302 364
#     4  10  22  38  57  83 116 155 199 251 307 359
#     4  12  22  37  61  89 119 162 204 250 306 358
#     4  10  19  32  54  85 117 148 190 245 305 370
#
# _framework density 19.753086
#
# number of rings (size 3 to 8) (size 9 to 14) (size 15 to 20)
#    0.000    1.429    1.429    3.857    2.000    4.571 
#    0.000    2.857    0.000    2.571    0.000    0.000 
#    0.000    0.000    0.000    0.000    0.000    0.000 
#
# Total GULP energy -312069.237893 kJ/mol
# GULP energy per Si atom -5572.664962 kJ/mol
# Density = 1.970813 g / cm^3
# Si number density = 19.753086 Si / 1000 Ang^3
#
#
#
# Elastic Constant Matrix: (Units=GPa)
#
#
# Indices 1 2 3 4 5 6 
#
# 1 51.2266 2.4920 36.5842 0.0000 0.0000 0.0000
# 2 2.4920 51.6944 9.6741 0.0000 0.0000 0.0000
# 3 36.5842 9.6741 114.9313 0.0000 0.0000 0.0000
# 4 0.0000 0.0000 0.0000 27.1428 0.0000 0.0000
# 5 0.0000 0.0000 0.0000 0.0000 -25.6798 0.0000
# 6 0.0000 0.0000 0.0000 0.0000 0.0000 -21.6010
#
#
#
# Elastic Compliance Matrix: (Units=1/GPa)
#
#
# Indices 1 2 3 4 5 6 
#
# 1 0.025269 0.000292 -0.008068 0.000000 0.000000 0.000000
# 2 0.000292 0.019657 -0.001747 0.000000 0.000000 0.000000
# 3 -0.008068 -0.001747 0.011416 0.000000 0.000000 0.000000
# 4 0.000000 0.000000 0.000000 0.036842 0.000000 0.000000
# 5 0.000000 0.000000 0.000000 0.000000 -0.038941 0.000000
# 6 0.000000 0.000000 0.000000 0.000000 0.000000 -0.046294
#
#
# Mechanical properties :
#
#
# Convention : Reuss Voigt Hill
#
# Bulk Modulus (GPa) = 26.81337 35.03922 30.92629
# Shear Modulus (GPa) = 126.81284 7.24587 67.02935
#
# Velocity S-wave (km/s) = 8.02112 1.91734 5.83158
# Velocity P-wave (km/s) = 9.96936 4.76221 7.81239
#
# Compressibility (1/GPa) = 0.03729483
#
# Stress axis : x y z
#
# Youngs Moduli (GPa) = 39.57456 50.87135 87.59575
#
# Poissons Ratio (x) = -0.01484 0.70672
# Poissons Ratio (y) = -0.01154 0.15307
# Poissons Ratio (z) = 0.31929 0.08890
#
# Static dielectric constant tensor:
#      x y z
#    x 1.676420 0.000000 0.000000 
#    y 0.000000 1.622480 0.000000 
#    z 0.000000 0.000000 1.700560 
# 
# From -- ./inp_files/25172.got.cif
#   From: 2010.05.17/outbox.ucp.g08.bks.cvg/sg47_13_cif.got.tgz:25172.got - 2010.06.11 16:36:43.
