data_PCOD9389856
_publ_section_title
;
Structure prediction by ZEFSAII (Michael W. Deem and Ramdas Pophale) SiO2 
 PCOD9389856
Probable space group: P N N N
;
_chemical_formula_sum "Si O2"
_cell_formula_units_Z 48
_cell_length_a 31.538343
_cell_length_b 16.381405
_cell_length_c 5.288717
_cell_angle_alpha 90.000000
_cell_angle_beta 90.000000
_cell_angle_gamma 90.000000
_cell_volume 2732.375284
_symmetry_space_group_name_H-M "P N N N"
_symmetry_group_IT_number 48
_space_group.IT_coordinate_system_code '2'
_symmetry_cell_setting 'orthorhombic'
loop_
_space_group_symop_operation_xyz
x,y,z
1/2-x,1/2-y,z
x,1/2-y,1/2-z
1/2-x,y,1/2-z
-x,-y,-z
1/2+x,1/2+y,-z
-x,1/2+y,1/2+z
1/2+x,-y,1/2+z
loop_
_atom_site_type_symbol
_atom_site_label
_atom_site_fract_x
_atom_site_fract_y
_atom_site_fract_z
Si Si1 0.849670 0.651603 0.749119
Si Si2 0.201633 0.151284 0.757697
Si Si3 0.070901 0.723993 0.997842
Si Si4 0.978183 0.794242 0.001385
Si Si5 0.951869 0.035298 0.499210
Si Si6 0.927354 0.549750 0.507902
O O1 0.856905 0.750000 0.750000
O O2 0.815380 0.631368 0.534655
O O3 0.890433 0.605848 0.631223
O O4 0.830189 0.628371 0.025136
O O5 0.203043 0.250000 0.750000
O O6 0.250000 0.120991 0.750000
O O7 0.095662 0.750000 0.750000
O O8 0.053472 0.632284 0.972376
O O9 0.028403 0.780062 0.005430
O O10 0.094598 0.750000 0.250000
O O11 0.962013 0.750000 0.750000
O O12 0.966995 0.888265 0.002651
O O13 0.959961 0.750000 0.250000
O O14 0.934640 0.016690 0.777834
O O15 0.000000 0.000000 0.500000
O O16 0.926272 0.989877 0.271627
#
# Coordination Sequence:
#
# PCOD9389856 Si02
#       6
#     8   8   8   8   8   8
#     4  10  20  32  49  72  99 133 167 203 251 296
#     4   9  17  31  50  72  97 127 167 206 234 279
#     4  10  19  34  50  65  83 113 160 207 248 296
#     4  10  19  32  47  62  84 118 156 202 250 290
#     4  12  23  35  50  69  92 124 165 214 265 305
#     4  12  23  35  49  71  99 125 163 214 265 301
#
# _framework density 17.567132999999998
#
# number of rings (size 3 to 8) (size 9 to 14) (size 15 to 20)
#    0.000    1.500    0.000    8.500    0.000    4.000 
#    0.000    0.000    0.000    0.000    0.000    0.000 
#    0.000    0.000    0.000    0.000    0.000  175.000 
#
# Total GULP energy -267478.476385 kJ/mol
# GULP energy per Si atom -5572.468258 kJ/mol
# Density = 1.752715 g / cm^3
# Si number density = 17.567133 Si / 1000 Ang^3
#
#
#
# Elastic Constant Matrix: (Units=GPa)
#
#
# Indices 1 2 3 4 5 6 
#
# 1 46.6675 4.0203 5.9533 0.0000 0.0000 0.0000
# 2 4.0203 61.8970 26.9780 0.0000 0.0000 0.0000
# 3 5.9533 26.9780 147.8406 0.0000 0.0000 0.0000
# 4 0.0000 0.0000 0.0000 29.3754 0.0000 0.0000
# 5 0.0000 0.0000 0.0000 0.0000 32.2375 0.0000
# 6 0.0000 0.0000 0.0000 0.0000 0.0000 6.0311
#
#
#
# Elastic Compliance Matrix: (Units=1/GPa)
#
#
# Indices 1 2 3 4 5 6 
#
# 1 0.021609 -0.001113 -0.000667 0.000000 0.000000 0.000000
# 2 -0.001113 0.017609 -0.003169 0.000000 0.000000 0.000000
# 3 -0.000667 -0.003169 0.007369 0.000000 0.000000 0.000000
# 4 0.000000 0.000000 0.000000 0.034042 0.000000 0.000000
# 5 0.000000 0.000000 0.000000 0.000000 0.031020 0.000000
# 6 0.000000 0.000000 0.000000 0.000000 0.000000 0.165808
#
#
# Mechanical properties :
#
#
# Convention : Reuss Voigt Hill
#
# Bulk Modulus (GPa) = 27.25493 36.70092 31.97792
# Shear Modulus (GPa) = 16.68978 28.15902 22.42440
#
# Velocity S-wave (km/s) = 3.08564 4.00801 3.57669
# Velocity P-wave (km/s) = 5.31445 6.50815 5.94136
#
# Compressibility (1/GPa) = 0.03669062
#
# Stress axis : x y z
#
# Youngs Moduli (GPa) = 46.27670 56.78860 135.70187
#
# Poissons Ratio (x) = 0.06319 0.09053
# Poissons Ratio (y) = 0.05150 0.42997
# Poissons Ratio (z) = 0.03087 0.17994
#
# Static dielectric constant tensor:
#      x y z
#    x 1.627830 0.000000 0.000000 
#    y 0.000000 1.612890 0.000000 
#    z 0.000000 0.000000 1.782810 
# 
# From -- ./inp_files/7009.got.cif
#   From: 2010.05.17/outbox.cif.g08.bks.cpg/sg48_4_cif.got.tgz:7009.got - 2010.06.03 20:39:00.
