data_PCOD9389466
_publ_section_title
;
Structure prediction by ZEFSAII (Michael W. Deem and Ramdas Pophale) SiO2 
 PCOD9389466
Probable space group: P M M M
;
_chemical_formula_sum "Si O2"
_cell_formula_units_Z 44
_cell_length_a 9.000000
_cell_length_b 9.000000
_cell_length_c 30.000000
_cell_angle_alpha 90.000000
_cell_angle_beta 90.000000
_cell_angle_gamma 90.000000
_cell_volume 2430.000000
_symmetry_space_group_name_H-M "P M M M"
_symmetry_group_IT_number 47
_symmetry_cell_setting 'orthorhombic'
loop_
_space_group_symop_operation_xyz
x,y,z
-x,-y,z
x,-y,-z
-x,y,-z
-x,-y,-z
x,y,-z
-x,y,z
x,-y,z
loop_
_atom_site_type_symbol
_atom_site_label
_atom_site_fract_x
_atom_site_fract_y
_atom_site_fract_z
Si Si1 0.323447 0.176725 0.771407
Si Si2 0.823238 0.176647 0.680828
Si Si3 0.175597 0.677583 0.590300
Si Si4 0.322734 0.675937 0.861832
Si Si5 0.824650 0.680068 0.048325
Si Si6 0.671201 0.681203 0.500000
O O1 0.500000 0.202939 0.768760
O O2 0.249643 0.233516 0.726187
O O3 0.266052 0.249229 0.816764
O O4 0.298878 0.000000 0.773911
O O5 0.766140 0.251205 0.635735
O O6 0.000000 0.201575 0.683378
O O7 0.797388 0.000000 0.678015
O O8 0.194038 0.500000 0.593003
O O9 0.251900 0.732706 0.545308
O O10 0.000000 0.708842 0.587084
O O11 0.500000 0.696096 0.863882
O O12 0.292570 0.500000 0.859201
O O13 0.254067 0.736599 0.907463
O O14 0.807438 0.500000 0.048259
O O15 0.000000 0.710061 0.050788
O O16 0.768684 0.733343 0.000000
O O17 0.682054 0.500000 0.500000
O O18 0.500000 0.721828 0.500000
#
# Coordination Sequence:
#
# PCOD9389466 Si02
#       6
#     8   8   8   8   8   4
#     4   9  18  32  47  62  85 118 148 174 213 263
#     4   9  18  32  48  66  88 114 146 182 217 255
#     4   9  17  30  48  68  90 117 147 178 214 256
#     4   9  17  28  43  65  89 111 141 181 217 250
#     4   8  14  25  41  62  88 115 141 172 214 260
#     4   9  17  29  46  69  94 118 146 179 214 254
#
# _framework density 18.106995999999999
#
# number of rings (size 3 to 8) (size 9 to 14) (size 15 to 20)
#    0.000    3.182    0.000    0.818    0.000    3.636 
#    0.000    2.273    0.000    3.273    0.000    3.818 
#    0.000    0.000    0.000    0.000    0.000    0.000 
#
# Total GULP energy -244993.132724 kJ/mol
# GULP energy per Si atom -5568.025744 kJ/mol
# Density = 1.806578 g / cm^3
# Si number density = 18.106996 Si / 1000 Ang^3
#
#
#
# Elastic Constant Matrix: (Units=GPa)
#
#
# Indices 1 2 3 4 5 6 
#
# 1 3.1303 40.1481 71.1696 0.0000 0.0000 0.0000
# 2 40.1481 -15.1823 41.7298 0.0000 0.0000 0.0000
# 3 71.1696 41.7298 249.2267 0.0000 0.0000 0.0000
# 4 0.0000 0.0000 0.0000 87.1174 0.0000 0.0000
# 5 0.0000 0.0000 0.0000 0.0000 39.2868 0.0000
# 6 0.0000 0.0000 0.0000 0.0000 0.0000 9.1340
#
#
#
# Elastic Compliance Matrix: (Units=1/GPa)
#
#
# Indices 1 2 3 4 5 6 
#
# 1 0.053309 0.067886 -0.026590 0.000000 0.000000 0.000000
# 2 0.067886 0.041343 -0.026308 0.000000 0.000000 0.000000
# 3 -0.026590 -0.026308 0.016010 0.000000 0.000000 0.000000
# 4 0.000000 0.000000 0.000000 0.011479 0.000000 0.000000
# 5 0.000000 0.000000 0.000000 0.000000 0.025454 0.000000
# 6 0.000000 0.000000 0.000000 0.000000 0.000000 0.109482
#
#
# Mechanical properties :
#
#
# Convention : Reuss Voigt Hill
#
# Bulk Modulus (GPa) = 7.11040 60.36332 33.73686
# Shear Modulus (GPa) = 18.24959 32.71611 25.48285
#
# Velocity S-wave (km/s) = 3.17815 4.25528 3.75553
# Velocity P-wave (km/s) = 4.17168 7.58635 6.12191
#
# Compressibility (1/GPa) = 0.14063912
#
# Stress axis : x y z
#
# Youngs Moduli (GPa) = 18.75857 24.18809 62.45952
#
# Poissons Ratio (x) = -1.64204 1.66078
# Poissons Ratio (y) = -1.27345 1.64319
# Poissons Ratio (z) = 0.49878 0.63634
#
# Static dielectric constant tensor:
#      x y z
#    x 1.608770 0.000000 0.000000 
#    y 0.000000 1.610850 0.000000 
#    z 0.000000 0.000000 1.642490 
# 
# From -- ./inp_files/2070.got.cif
#   From: 2010.05.17/outbox.ucp.g08.bks.cvg/sg47_2_cif.got.tgz:2070.got - 2010.06.11 16:36:43.
