data_PCOD9389986
_publ_section_title
;
Structure prediction by ZEFSAII (Michael W. Deem and Ramdas Pophale) SiO2 
 PCOD9389986
Probable space group: P N N N
;
_chemical_formula_sum "Si O2"
_cell_formula_units_Z 40
_cell_length_a 15.509864
_cell_length_b 15.260959
_cell_length_c 7.448864
_cell_angle_alpha 90.000000
_cell_angle_beta 90.000000
_cell_angle_gamma 90.000000
_cell_volume 1763.111834
_symmetry_space_group_name_H-M "P N N N"
_symmetry_group_IT_number 48
_space_group.IT_coordinate_system_code '2'
_symmetry_cell_setting 'orthorhombic'
loop_
_space_group_symop_operation_xyz
x,y,z
1/2-x,1/2-y,z
x,1/2-y,1/2-z
1/2-x,y,1/2-z
-x,-y,-z
1/2+x,1/2+y,-z
-x,1/2+y,1/2+z
1/2+x,-y,1/2+z
loop_
_atom_site_type_symbol
_atom_site_label
_atom_site_fract_x
_atom_site_fract_y
_atom_site_fract_z
Si Si1 0.925157 0.429424 0.465569
Si Si2 0.586875 0.052900 0.034714
Si Si3 0.233779 0.473811 0.536048
Si Si4 0.971583 0.239334 0.457015
Si Si5 0.839595 0.718359 0.458889
O O1 0.911068 0.433382 0.250279
O O2 0.831518 0.454240 0.538249
O O3 0.951522 0.334451 0.537382
O O4 0.000000 0.500000 0.500000
O O5 0.572557 0.152510 0.965136
O O6 0.669554 0.996568 0.968659
O O7 0.500000 0.000000 0.000000
O O8 0.250000 0.476640 0.750000
O O9 0.175991 0.385315 0.517790
O O10 0.944424 0.250000 0.250000
O O11 0.075681 0.237074 0.461609
O O12 0.750000 0.750000 0.539723
O O13 0.841343 0.750000 0.250000
#
# Coordination Sequence:
#
# PCOD9389986 Si02
#       5
#     8   8   8   8   8
#     4  10  20  37  59  81 113 151 191 232 283 344
#     4  10  22  37  56  83 118 147 188 237 286 337
#     4  10  19  35  57  84 110 148 194 234 276 338
#     4  10  22  37  54  84 118 149 181 235 296 337
#     4  11  20  32  58  85 110 142 197 240 280 329
#
# _framework density 22.687161
#
# number of rings (size 3 to 8) (size 9 to 14) (size 15 to 20)
#    0.000    1.800    4.000    1.200    2.800    1.200 
#    0.000    5.000    0.000    0.000    0.000    4.200 
#    0.000    0.000    0.000    0.000    0.000    0.000 
#
# Total GULP energy -222787.955450 kJ/mol
# GULP energy per Si atom -5569.698886 kJ/mol
# Density = 2.263552 g / cm^3
# Si number density = 22.687161 Si / 1000 Ang^3
#
#
#
# Elastic Constant Matrix: (Units=GPa)
#
#
# Indices 1 2 3 4 5 6 
#
# 1 99.0873 18.2401 -25.9670 0.0000 0.0000 0.0000
# 2 18.2401 120.8426 -13.6284 0.0000 0.0000 0.0000
# 3 -25.9670 -13.6284 54.7751 0.0000 0.0000 0.0000
# 4 0.0000 0.0000 0.0000 8.6502 0.0000 0.0000
# 5 0.0000 0.0000 0.0000 0.0000 1.6221 0.0000
# 6 0.0000 0.0000 0.0000 0.0000 0.0000 15.2198
#
#
#
# Elastic Compliance Matrix: (Units=1/GPa)
#
#
# Indices 1 2 3 4 5 6 
#
# 1 0.011683 -0.001172 0.005247 0.000000 0.000000 0.000000
# 2 -0.001172 0.008632 0.001592 0.000000 0.000000 0.000000
# 3 0.005247 0.001592 0.021140 0.000000 0.000000 0.000000
# 4 0.000000 0.000000 0.000000 0.115605 0.000000 0.000000
# 5 0.000000 0.000000 0.000000 0.000000 0.616490 0.000000
# 6 0.000000 0.000000 0.000000 0.000000 0.000000 0.065704
#
#
# Mechanical properties :
#
#
# Convention : Reuss Voigt Hill
#
# Bulk Modulus (GPa) = 18.94327 25.77716 22.36021
# Shear Modulus (GPa) = 5.91356 24.83576 15.37466
#
# Velocity S-wave (km/s) = 1.61624 3.31222 2.60606
# Velocity P-wave (km/s) = 3.44251 5.10043 4.35117
#
# Compressibility (1/GPa) = 0.05278919
#
# Stress axis : x y z
#
# Youngs Moduli (GPa) = 85.59588 115.85284 47.30371
#
# Poissons Ratio (x) = 0.13574 -0.24820
# Poissons Ratio (y) = 0.10029 -0.07531
# Poissons Ratio (z) = -0.44911 -0.18446
#
# Static dielectric constant tensor:
#      x y z
#    x 1.536810 0.000000 0.000000 
#    y 0.000000 2.100070 0.000000 
#    z 0.000000 0.000000 1.790110 
# 
# From -- ./inp_files/10707.got.cif
#   From: 2010.05.17/outbox.cif.g08.bks.cpg/sg48_6_cif.got.tgz:10707.got - 2010.06.03 20:39:00.
