data_PCOD9389752
_publ_section_title
;
Structure prediction by ZEFSAII (Michael W. Deem and Ramdas Pophale) SiO2 
 PCOD9389752
Probable space group: P N N N
;
_chemical_formula_sum "Si O2"
_cell_formula_units_Z 24
_cell_length_a 7.207248
_cell_length_b 5.726572
_cell_length_c 23.267915
_cell_angle_alpha 90.000000
_cell_angle_beta 90.000000
_cell_angle_gamma 90.000000
_cell_volume 960.332574
_symmetry_space_group_name_H-M "P N N N"
_symmetry_group_IT_number 48
_space_group.IT_coordinate_system_code '2'
_symmetry_cell_setting 'orthorhombic'
loop_
_space_group_symop_operation_xyz
x,y,z
1/2-x,1/2-y,z
x,1/2-y,1/2-z
1/2-x,y,1/2-z
-x,-y,-z
1/2+x,1/2+y,-z
-x,1/2+y,1/2+z
1/2+x,-y,1/2+z
loop_
_atom_site_type_symbol
_atom_site_label
_atom_site_fract_x
_atom_site_fract_y
_atom_site_fract_z
Si Si1 0.023010 0.113112 0.421487
Si Si2 0.750000 0.750000 0.360442
Si Si3 0.250000 0.750000 0.485707
Si Si4 0.956785 0.141838 0.191689
O O1 0.926424 0.261963 0.471805
O O2 0.053730 0.262761 0.364812
O O3 0.864841 0.925277 0.401166
O O4 0.195730 0.969570 0.446284
O O5 0.905322 0.627850 0.319630
O O6 0.750000 0.250000 0.190100
O O7 0.038113 0.250000 0.250000
#
# Coordination Sequence:
#
# PCOD9389752 Si02
#       4
#     8   4   4   8
#     4  10  20  36  54  84 116 160 199 261 317 385
#     4  10  18  35  58  84 108 154 205 248 324 374
#     4  10  20  38  53  79 130 152 200 258 318 388
#     4   9  18  33  55  84 114 146 203 262 313 378
#
# _framework density 24.991340999999998
#
# number of rings (size 3 to 8) (size 9 to 14) (size 15 to 20)
#    0.000    2.333    5.000    0.000    0.000   12.000 
#    0.000    0.000    0.000    6.000    0.000    0.000 
#    0.000    0.000    0.000    0.000    0.000    0.000 
#
# Total GULP energy -134065.000714 kJ/mol
# GULP energy per Si atom -5586.041696 kJ/mol
# Density = 2.493446 g / cm^3
# Si number density = 24.991341 Si / 1000 Ang^3
#
#
#
# Elastic Constant Matrix: (Units=GPa)
#
#
# Indices 1 2 3 4 5 6 
#
# 1 117.8784 47.3803 61.1555 0.0000 0.0000 0.0000
# 2 47.3803 108.9059 87.9112 0.0000 0.0000 0.0000
# 3 61.1555 87.9112 243.7112 0.0000 0.0000 0.0000
# 4 0.0000 0.0000 0.0000 25.2643 0.0000 0.0000
# 5 0.0000 0.0000 0.0000 0.0000 -0.0690 0.0000
# 6 0.0000 0.0000 0.0000 0.0000 0.0000 46.0703
#
#
#
# Elastic Compliance Matrix: (Units=1/GPa)
#
#
# Indices 1 2 3 4 5 6 
#
# 1 0.010613 -0.003481 -0.001407 0.000000 0.000000 0.000000
# 2 -0.003481 0.014096 -0.004211 0.000000 0.000000 0.000000
# 3 -0.001407 -0.004211 0.005975 0.000000 0.000000 0.000000
# 4 0.000000 0.000000 0.000000 0.039582 0.000000 0.000000
# 5 0.000000 0.000000 0.000000 0.000000-14.495531 0.000000
# 6 0.000000 0.000000 0.000000 0.000000 0.000000 0.021706
#
#
# Mechanical properties :
#
#
# Convention : Reuss Voigt Hill
#
# Bulk Modulus (GPa) = 80.09682 95.93217 88.01450
# Shear Modulus (GPa) = -0.34768 32.52302 16.08767
#
# Velocity S-wave (km/s) = -0.37339 3.61137 2.53994
# Velocity P-wave (km/s) = 5.65097 7.47387 6.62542
#
# Compressibility (1/GPa) = 0.01248489
#
# Stress axis : x y z
#
# Youngs Moduli (GPa) = 94.22711 70.94179 167.35150
#
# Poissons Ratio (x) = 0.24695 0.23553
# Poissons Ratio (y) = 0.32801 0.70475
# Poissons Ratio (z) = 0.13262 0.29875
#
# Static dielectric constant tensor:
#      x y z
#    x 2.054280 0.000000 0.000000 
#    y 0.000000 2.154510 0.000000 
#    z 0.000000 0.000000 1.984870 
# 
# From -- ./inp_files/729.got.cif
#   From: 2010.05.17/outbox.cif.g08.bks.cpg/sg48_1_cif.got.tgz:729.got - 2010.06.03 20:39:00.
