data_PCOD9389542
_publ_section_title
;
Structure prediction by ZEFSAII (Michael W. Deem and Ramdas Pophale) SiO2 
 PCOD9389542
Probable space group: P N N N
;
_chemical_formula_sum "Si O2"
_cell_formula_units_Z 58
_cell_length_a 18.921965
_cell_length_b 14.765484
_cell_length_c 9.096285
_cell_angle_alpha 90.000000
_cell_angle_beta 90.000000
_cell_angle_gamma 90.000000
_cell_volume 2541.428999
_symmetry_space_group_name_H-M "P N N N"
_symmetry_group_IT_number 48
_space_group.IT_coordinate_system_code '2'
_symmetry_cell_setting 'orthorhombic'
loop_
_space_group_symop_operation_xyz
x,y,z
1/2-x,1/2-y,z
x,1/2-y,1/2-z
1/2-x,y,1/2-z
-x,-y,-z
1/2+x,1/2+y,-z
-x,1/2+y,1/2+z
1/2+x,-y,1/2+z
loop_
_atom_site_type_symbol
_atom_site_label
_atom_site_fract_x
_atom_site_fract_y
_atom_site_fract_z
Si Si1 0.334002 0.555195 0.917922
Si Si2 0.898293 0.259467 0.417015
Si Si3 0.750000 0.750000 0.250000
Si Si4 0.491733 0.348603 0.741231
Si Si5 0.360511 0.354224 0.956888
Si Si6 0.438266 0.485428 0.377686
Si Si7 0.167289 0.572235 0.926492
Si Si8 0.441622 0.294159 0.427255
O O1 0.374612 0.643637 0.975900
O O2 0.345092 0.458371 0.994511
O O3 0.251088 0.577117 0.925938
O O4 0.354322 0.548031 0.742618
O O5 0.869691 0.250000 0.250000
O O6 0.867453 0.166615 0.481309
O O7 0.982291 0.252105 0.410884
O O8 0.700479 0.685970 0.149017
O O9 0.529160 0.250000 0.750000
O O10 0.434387 0.358488 0.867831
O O11 0.542287 0.434717 0.733841
O O12 0.445302 0.336692 0.592034
O O13 0.377984 0.276511 0.075923
O O14 0.500000 0.500000 0.500000
O O15 0.364596 0.500600 0.460411
O O16 0.441338 0.382631 0.324752
#
# Coordination Sequence:
#
# PCOD9389542 Si02
#       8
#     8   8   2   8   8   8   8   8
#     4  10  21  31  48  74 112 142 170 211 279 327
#     4  10  20  33  51  72 103 140 182 219 254 316
#     4  12  20  32  52  80 120 136 158 208 272 340
#     4   9  17  32  49  74 104 134 173 219 264 300
#     4  11  22  32  51  80 116 138 166 216 278 325
#     4  10  17  28  54  72 100 139 182 215 256 312
#     4  10  18  32  50  76 106 141 177 215 265 334
#     4  10  19  33  48  76 106 136 180 213 264 315
#
# _framework density 22.821808000000001
#
# number of rings (size 3 to 8) (size 9 to 14) (size 15 to 20)
#    0.000    1.931    4.828    2.897    3.862    2.207 
#    0.000    0.000    0.000    0.000    0.000    7.241 
#    0.000    0.000    0.000    0.000    0.000    0.000 
#
# Total GULP energy -323708.018442 kJ/mol
# GULP energy per Si atom -5581.172732 kJ/mol
# Density = 2.276986 g / cm^3
# Si number density = 22.821808 Si / 1000 Ang^3
#
#
#
# Elastic Constant Matrix: (Units=GPa)
#
#
# Indices 1 2 3 4 5 6 
#
# 1 92.7391 63.7303 8.9207 0.0000 0.0000 0.0000
# 2 63.7303 199.2885 10.2852 0.0000 0.0000 0.0000
# 3 8.9207 10.2852 30.6024 0.0000 0.0000 0.0000
# 4 0.0000 0.0000 0.0000 26.9446 0.0000 0.0000
# 5 0.0000 0.0000 0.0000 0.0000 28.3167 0.0000
# 6 0.0000 0.0000 0.0000 0.0000 0.0000 30.7246
#
#
#
# Elastic Compliance Matrix: (Units=1/GPa)
#
#
# Indices 1 2 3 4 5 6 
#
# 1 0.014024 -0.004349 -0.002626 0.000000 0.000000 0.000000
# 2 -0.004349 0.006455 -0.000902 0.000000 0.000000 0.000000
# 3 -0.002626 -0.000902 0.033746 0.000000 0.000000 0.000000
# 4 0.000000 0.000000 0.000000 0.037113 0.000000 0.000000
# 5 0.000000 0.000000 0.000000 0.000000 0.035315 0.000000
# 6 0.000000 0.000000 0.000000 0.000000 0.000000 0.032547
#
#
# Mechanical properties :
#
#
# Convention : Reuss Voigt Hill
#
# Bulk Modulus (GPa) = 25.99386 54.27804 40.13595
# Shear Modulus (GPa) = 26.62704 33.17679 29.90192
#
# Velocity S-wave (km/s) = 3.41946 3.81692 3.62364
# Velocity P-wave (km/s) = 5.19662 6.57725 5.92727
#
# Compressibility (1/GPa) = 0.03847063
#
# Stress axis : x y z
#
# Youngs Moduli (GPa) = 71.30419 154.91272 29.63332
#
# Poissons Ratio (x) = 0.67376 0.07783
# Poissons Ratio (y) = 0.31012 0.02672
# Poissons Ratio (z) = 0.18727 0.13969
#
# Static dielectric constant tensor:
#      x y z
#    x 1.782420 0.000000 0.000000 
#    y 0.000000 1.947490 0.000000 
#    z 0.000000 0.000000 1.979080 
# 
# From -- ./inp_files/22296.got.cif
#   From: 2010.05.17/outbox.cif.g08.bks.cpg/sg48_12_cif.got.tgz:22296.got - 2010.06.03 20:39:00.
