data_PCOD9389931
_publ_section_title
;
Structure prediction by ZEFSAII (Michael W. Deem and Ramdas Pophale) SiO2 
 PCOD9389931
Probable space group: P N N N
;
_chemical_formula_sum "Si O2"
_cell_formula_units_Z 60
_cell_length_a 18.267149
_cell_length_b 11.407014
_cell_length_c 12.458548
_cell_angle_alpha 90.000000
_cell_angle_beta 90.000000
_cell_angle_gamma 90.000000
_cell_volume 2596.032801
_symmetry_space_group_name_H-M "P N N N"
_symmetry_group_IT_number 48
_space_group.IT_coordinate_system_code '2'
_symmetry_cell_setting 'orthorhombic'
loop_
_space_group_symop_operation_xyz
x,y,z
1/2-x,1/2-y,z
x,1/2-y,1/2-z
1/2-x,y,1/2-z
-x,-y,-z
1/2+x,1/2+y,-z
-x,1/2+y,1/2+z
1/2+x,-y,1/2+z
loop_
_atom_site_type_symbol
_atom_site_label
_atom_site_fract_x
_atom_site_fract_y
_atom_site_fract_z
Si Si1 0.664259 0.030278 0.413139
Si Si2 0.075106 0.953562 0.550916
Si Si3 0.467859 0.787132 0.580761
Si Si4 0.114951 0.412131 0.374996
Si Si5 0.036544 0.845938 0.168257
Si Si6 0.123205 0.116689 0.730847
Si Si7 0.250000 0.059030 0.250000
Si Si8 0.716244 0.125135 0.935289
O O1 0.598380 0.122986 0.401104
O O2 0.734464 0.093795 0.461144
O O3 0.641102 0.933098 0.502408
O O4 0.673129 0.966914 0.301437
O O5 0.051377 0.842023 0.622502
O O6 0.132561 0.891071 0.470852
O O7 0.113406 0.060485 0.613623
O O8 0.000000 0.000000 0.500000
O O9 0.543956 0.832241 0.627086
O O10 0.477331 0.793064 0.450034
O O11 0.089348 0.543202 0.341268
O O12 0.180751 0.374109 0.298737
O O13 0.067705 0.750000 0.250000
O O14 0.959039 0.885723 0.218008
O O15 0.147146 0.250000 0.750000
O O16 0.272182 0.972981 0.153684
O O17 0.750000 0.250000 0.899190
#
# Coordination Sequence:
#
# PCOD9389931 Si02
#       8
#     8   8   8   8   8   8   4   8
#     4  10  20  41  69  99 138 187 241 286 370 434
#     4  12  28  43  69 113 148 186 245 317 371 433
#     4  11  20  41  68 101 146 188 234 303 364 430
#     4  10  20  37  64 104 140 189 238 292 353 437
#     4  10  19  33  65  98 136 182 239 294 342 423
#     4  11  23  43  69 102 133 187 242 293 358 433
#     4  10  25  38  74 105 148 200 236 292 372 450
#     4  11  24  47  69 108 152 185 241 309 374 440
#
# _framework density 23.112189000000001
#
# number of rings (size 3 to 8) (size 9 to 14) (size 15 to 20)
#    0.000    1.333    4.000    2.600    3.733    1.067 
#    0.000    2.000    0.000    0.800    0.000    0.000 
#    0.000    0.000    0.000    0.000    0.000    0.000 
#
# Total GULP energy -335621.357810 kJ/mol
# GULP energy per Si atom -5593.689297 kJ/mol
# Density = 2.305958 g / cm^3
# Si number density = 23.112189 Si / 1000 Ang^3
#
#
#
# Elastic Constant Matrix: (Units=GPa)
#
#
# Indices 1 2 3 4 5 6 
#
# 1 136.6521 30.3590 30.6459 0.0000 0.0000 0.0000
# 2 30.3590 96.1680 28.1061 0.0000 0.0000 0.0000
# 3 30.6459 28.1061 70.7972 0.0000 0.0000 0.0000
# 4 0.0000 0.0000 0.0000 19.7264 0.0000 0.0000
# 5 0.0000 0.0000 0.0000 0.0000 34.6406 0.0000
# 6 0.0000 0.0000 0.0000 0.0000 0.0000 20.8927
#
#
#
# Elastic Compliance Matrix: (Units=1/GPa)
#
#
# Indices 1 2 3 4 5 6 
#
# 1 0.008369 -0.001791 -0.002912 0.000000 0.000000 0.000000
# 2 -0.001791 0.012147 -0.004047 0.000000 0.000000 0.000000
# 3 -0.002912 -0.004047 0.016992 0.000000 0.000000 0.000000
# 4 0.000000 0.000000 0.000000 0.050693 0.000000 0.000000
# 5 0.000000 0.000000 0.000000 0.000000 0.028868 0.000000
# 6 0.000000 0.000000 0.000000 0.000000 0.000000 0.047864
#
#
# Mechanical properties :
#
#
# Convention : Reuss Voigt Hill
#
# Bulk Modulus (GPa) = 49.97933 53.53769 51.75851
# Shear Modulus (GPa) = 26.44101 29.35235 27.89668
#
# Velocity S-wave (km/s) = 3.38602 3.56756 3.47798
# Velocity P-wave (km/s) = 6.07934 6.33913 6.21060
#
# Compressibility (1/GPa) = 0.02000827
#
# Stress axis : x y z
#
# Youngs Moduli (GPa) = 119.49305 82.32767 58.85209
#
# Poissons Ratio (x) = 0.14744 0.17135
# Poissons Ratio (y) = 0.21401 0.23817
# Poissons Ratio (z) = 0.34791 0.33317
#
# Static dielectric constant tensor:
#      x y z
#    x 1.915250 0.000000 0.000000 
#    y 0.000000 1.888330 0.000000 
#    z 0.000000 0.000000 1.915010 
# 
# From -- ./inp_files/22925.got.cif
#   From: 2010.05.17/outbox.cif.g08.bks.cpg/sg48_12_cif.got.tgz:22925.got - 2010.06.03 20:39:00.
