data_PCOD9389293
_publ_section_title
;
Structure prediction by ZEFSAII (Michael W. Deem and Ramdas Pophale) SiO2 
 PCOD9389293
Probable space group: P M M M
;
_chemical_formula_sum "Si O2"
_cell_formula_units_Z 64
_cell_length_a 15.000000
_cell_length_b 24.000000
_cell_length_c 9.000000
_cell_angle_alpha 90.000000
_cell_angle_beta 90.000000
_cell_angle_gamma 90.000000
_cell_volume 3240.000000
_symmetry_space_group_name_H-M "P M M M"
_symmetry_group_IT_number 47
_symmetry_cell_setting 'orthorhombic'
loop_
_space_group_symop_operation_xyz
x,y,z
-x,-y,z
x,-y,-z
-x,y,-z
-x,-y,-z
x,y,-z
-x,y,z
x,-y,z
loop_
_atom_site_type_symbol
_atom_site_label
_atom_site_fract_x
_atom_site_fract_y
_atom_site_fract_z
Si Si1 0.270950 0.066063 0.170743
Si Si2 0.271756 0.437426 0.823609
Si Si3 0.095770 0.432337 0.674645
Si Si4 0.098715 0.115060 0.327135
Si Si5 0.601693 0.144360 0.320912
Si Si6 0.095132 0.249896 0.325879
Si Si7 0.286516 0.750246 0.322870
Si Si8 0.604851 0.659933 0.169329
O O1 0.180090 0.091651 0.234948
O O2 0.354996 0.088045 0.262875
O O3 0.264613 0.000000 0.179374
O O4 0.282062 0.083044 0.000000
O O5 0.282859 0.500000 0.765541
O O6 0.183280 0.411132 0.753971
O O7 0.356905 0.400414 0.794400
O O8 0.258572 0.440338 0.000000
O O9 0.100687 0.420404 0.500000
O O10 0.095738 0.500000 0.690978
O O11 0.000000 0.412226 0.731536
O O12 0.109900 0.099054 0.500000
O O13 0.098691 0.182368 0.323870
O O14 0.000000 0.096549 0.277314
O O15 0.601706 0.145207 0.500000
O O16 0.500000 0.153396 0.271188
O O17 0.669226 0.192639 0.267756
O O18 0.093359 0.267187 0.500000
O O19 0.189919 0.265961 0.259003
O O20 0.000000 0.267345 0.259565
O O21 0.275295 0.756541 0.500000
O O22 0.355216 0.702754 0.284246
O O23 0.500000 0.660713 0.172662
O O24 0.634043 0.674090 0.000000
#
# Coordination Sequence:
#
# PCOD9389293 Si02
#       8
#     8   8   8   8   8   8   8   8
#     4  11  24  38  52  76 113 151 183 221 271 327
#     4   9  18  33  53  76 103 140 184 223 261 309
#     4   8  14  26  46  73 104 136 170 210 257 308
#     4   9  17  33  58  83 107 140 183 226 266 314
#     4  10  21  38  60  83 104 133 180 233 279 323
#     4   8  14  28  54  84 109 134 167 209 257 309
#     4  10  19  35  60  85 109 136 171 218 266 318
#     4  10  22  38  54  76 107 140 176 222 273 320
#
# _framework density 19.753086
#
# number of rings (size 3 to 8) (size 9 to 14) (size 15 to 20)
#    0.000    2.625    1.250    1.875    0.000    4.250 
#    0.000    5.625    0.000    2.625    0.000    2.625 
#    0.000    0.000    0.000    0.000    0.000    0.000 
#
# Total GULP energy -356555.189395 kJ/mol
# GULP energy per Si atom -5571.174834 kJ/mol
# Density = 1.970813 g / cm^3
# Si number density = 19.753086 Si / 1000 Ang^3
#
#
#
# Elastic Constant Matrix: (Units=GPa)
#
#
# Indices 1 2 3 4 5 6 
#
# 1 116.6129 20.7289 19.0025 0.0000 0.0000 0.0000
# 2 20.7289 27.4307 9.4354 0.0000 0.0000 0.0000
# 3 19.0025 9.4354 -11.7844 0.0000 0.0000 0.0000
# 4 0.0000 0.0000 0.0000 13.4855 0.0000 0.0000
# 5 0.0000 0.0000 0.0000 0.0000 7.1259 0.0000
# 6 0.0000 0.0000 0.0000 0.0000 0.0000 10.0967
#
#
#
# Elastic Compliance Matrix: (Units=1/GPa)
#
#
# Indices 1 2 3 4 5 6 
#
# 1 0.009064 -0.009312 0.007160 0.000000 0.000000 0.000000
# 2 -0.009312 0.038151 0.015530 0.000000 0.000000 0.000000
# 3 0.007160 0.015530 -0.060879 0.000000 0.000000 0.000000
# 4 0.000000 0.000000 0.000000 0.074154 0.000000 0.000000
# 5 0.000000 0.000000 0.000000 0.000000 0.140334 0.000000
# 6 0.000000 0.000000 0.000000 0.000000 0.000000 0.099043
#
#
# Mechanical properties :
#
#
# Convention : Reuss Voigt Hill
#
# Bulk Modulus (GPa) = 76.38659 25.62143 51.00401
# Shear Modulus (GPa) = 18.01964 11.68110 14.85037
#
# Velocity S-wave (km/s) = 3.02362 2.43442 2.74487
# Velocity P-wave (km/s) = 7.13753 4.57175 5.99355
#
# Compressibility (1/GPa) = 0.01309130
#
# Stress axis : x y z
#
# Youngs Moduli (GPa) = 110.32631 26.21183 -16.42616
#
# Poissons Ratio (x) = 0.24409 0.11761
# Poissons Ratio (y) = 1.02739 0.25510
# Poissons Ratio (z) = -0.78991 -0.40707
#
# Static dielectric constant tensor:
#      x y z
#    x 1.722460 0.000000 0.000000 
#    y 0.000000 1.758140 0.000000 
#    z 0.000000 0.000000 1.671630 
# 
# From -- ./inp_files/7854.got.cif
#   From: 2010.05.17/outbox.ucp.g08.bks.cvg/sg47_4_cif.got.tgz:7854.got - 2010.06.11 16:36:43.
