data_PCOD9389395
_publ_section_title
;
Structure prediction by ZEFSAII (Michael W. Deem and Ramdas Pophale) SiO2 
 PCOD9389395
Probable space group: P M M M
;
_chemical_formula_sum "Si O2"
_cell_formula_units_Z 48
_cell_length_a 9.000000
_cell_length_b 15.000000
_cell_length_c 18.000000
_cell_angle_alpha 90.000000
_cell_angle_beta 90.000000
_cell_angle_gamma 90.000000
_cell_volume 2430.000000
_symmetry_space_group_name_H-M "P M M M"
_symmetry_group_IT_number 47
_symmetry_cell_setting 'orthorhombic'
loop_
_space_group_symop_operation_xyz
x,y,z
-x,-y,z
x,-y,-z
-x,y,-z
-x,-y,-z
x,y,-z
-x,y,z
x,-y,z
loop_
_atom_site_type_symbol
_atom_site_label
_atom_site_fract_x
_atom_site_fract_y
_atom_site_fract_z
Si Si1 0.329331 0.107131 0.692898
Si Si2 0.673226 0.647797 0.000000
Si Si3 0.836577 0.894059 0.163559
Si Si4 0.821143 0.759885 0.415875
Si Si5 0.825987 0.173490 0.000000
Si Si6 0.667709 0.394193 0.160788
Si Si7 0.178494 0.603053 0.310214
O O1 0.500000 0.129878 0.680448
O O2 0.280166 0.136874 0.775529
O O3 0.230792 0.157214 0.632948
O O4 0.313198 0.000000 0.687327
O O5 0.701055 0.751915 0.000000
O O6 0.737143 0.618417 0.920797
O O7 0.500000 0.619315 0.000000
O O8 0.000000 0.855655 0.181095
O O9 0.844408 0.000000 0.172260
O O10 0.806539 0.877224 0.077306
O O11 0.766122 0.764896 0.500000
O O12 0.771335 0.669662 0.374494
O O13 0.000000 0.758430 0.417386
O O14 0.000000 0.205833 0.000000
O O15 0.500000 0.355909 0.160800
O O16 0.655452 0.500000 0.169853
O O17 0.760147 0.362988 0.231183
O O18 0.224435 0.500000 0.322478
O O19 0.000000 0.603841 0.307102
#
# Coordination Sequence:
#
# PCOD9389395 Si02
#       7
#     8   4   8   8   4   8   8
#     4  10  22  39  59  84 114 148 186 230 280 330
#     4  10  21  33  47  73 107 144 184 225 267 315
#     4   9  18  35  57  78 104 142 185 226 270 322
#     4  10  22  39  60  86 114 146 183 224 275 337
#     4  10  21  33  49  77 109 142 180 225 271 317
#     4   9  18  34  54  74 101 142 187 226 267 317
#     4   9  19  36  58  84 113 144 181 227 277 328
#
# _framework density 19.753086
#
# number of rings (size 3 to 8) (size 9 to 14) (size 15 to 20)
#    0.000    2.500    0.000    1.000    2.333    6.000 
#    0.000    3.333    0.000    5.000    0.000    3.500 
#    0.000    0.000    0.000    0.000    0.000    0.000 
#
# Total GULP energy -267403.260335 kJ/mol
# GULP energy per Si atom -5570.901257 kJ/mol
# Density = 1.970813 g / cm^3
# Si number density = 19.753086 Si / 1000 Ang^3
#
#
#
# Elastic Constant Matrix: (Units=GPa)
#
#
# Indices 1 2 3 4 5 6 
#
# 1 6.5462 20.4205 33.0427 0.0000 0.0000 0.0000
# 2 20.4205 15.0634 11.4015 0.0000 0.0000 0.0000
# 3 33.0427 11.4015 136.0159 0.0000 0.0000 0.0000
# 4 0.0000 0.0000 0.0000 29.2041 0.0000 0.0000
# 5 0.0000 0.0000 0.0000 0.0000 70.5893 0.0000
# 6 0.0000 0.0000 0.0000 0.0000 0.0000 17.2003
#
#
#
# Elastic Compliance Matrix: (Units=1/GPa)
#
#
# Indices 1 2 3 4 5 6 
#
# 1 -0.042437 0.053094 0.005859 0.000000 0.000000 0.000000
# 2 0.053094 0.004455 -0.013272 0.000000 0.000000 0.000000
# 3 0.005859 -0.013272 0.007041 0.000000 0.000000 0.000000
# 4 0.000000 0.000000 0.000000 0.034242 0.000000 0.000000
# 5 0.000000 0.000000 0.000000 0.000000 0.014166 0.000000
# 6 0.000000 0.000000 0.000000 0.000000 0.000000 0.058138
#
#
# Mechanical properties :
#
#
# Convention : Reuss Voigt Hill
#
# Bulk Modulus (GPa) = 16.55031 31.92832 24.23932
# Shear Modulus (GPa) = 1140.54554 29.58278 585.06416
#
# Velocity S-wave (km/s) = 24.05524 3.87412 17.22881
# Velocity P-wave (km/s) = 27.92734 6.01752 20.20083
#
# Compressibility (1/GPa) = 0.06042184
#
# Stress axis : x y z
#
# Youngs Moduli (GPa) = -23.56442 224.48091 142.01854
#
# Poissons Ratio (x) = -11.91869 -0.83204
# Poissons Ratio (y) = 1.25114 1.88484
# Poissons Ratio (z) = 0.13806 2.97926
#
# Static dielectric constant tensor:
#      x y z
#    x 1.722560 0.000000 0.000000 
#    y 0.000000 1.706660 0.000000 
#    z 0.000000 0.000000 1.737050 
# 
# From -- ./inp_files/26483.got.cif
#   From: 2010.05.17/outbox.ucp.g08.bks.cvg/sg47_14_cif.got.tgz:26483.got - 2010.06.11 16:36:43.
