data_PCOD9389673
_publ_section_title
;
Structure prediction by ZEFSAII (Michael W. Deem and Ramdas Pophale) SiO2 
 PCOD9389673
Probable space group: P N N N
;
_chemical_formula_sum "Si O2"
_cell_formula_units_Z 44
_cell_length_a 5.630408
_cell_length_b 24.608900
_cell_length_c 13.808130
_cell_angle_alpha 90.000000
_cell_angle_beta 90.000000
_cell_angle_gamma 90.000000
_cell_volume 1913.228912
_symmetry_space_group_name_H-M "P N N N"
_symmetry_group_IT_number 48
_space_group.IT_coordinate_system_code '2'
_symmetry_cell_setting 'orthorhombic'
loop_
_space_group_symop_operation_xyz
x,y,z
1/2-x,1/2-y,z
x,1/2-y,1/2-z
1/2-x,y,1/2-z
-x,-y,-z
1/2+x,1/2+y,-z
-x,1/2+y,1/2+z
1/2+x,-y,1/2+z
loop_
_atom_site_type_symbol
_atom_site_label
_atom_site_fract_x
_atom_site_fract_y
_atom_site_fract_z
Si Si1 0.250000 0.160479 0.250000
Si Si2 0.010454 0.305007 0.439598
Si Si3 0.251950 0.001520 0.560441
Si Si4 0.127824 0.611578 0.872525
Si Si5 0.814888 0.619195 0.063670
Si Si6 0.498895 0.772832 0.111314
O O1 0.317866 0.193418 0.346338
O O2 0.472903 0.123156 0.221781
O O3 0.090222 0.345983 0.526518
O O4 0.782391 0.335204 0.395970
O O5 0.997444 0.248565 0.498269
O O6 0.244431 0.061293 0.609352
O O7 0.500000 0.000000 0.500000
O O8 0.254292 0.946847 0.624187
O O9 0.000000 0.000000 0.500000
O O10 0.945945 0.608167 0.962371
O O11 0.978411 0.662382 0.119521
O O12 0.250000 0.750000 0.148573
O O13 0.750000 0.750000 0.148795
#
# Coordination Sequence:
#
# PCOD9389673 Si02
#       6
#     4   8   8   8   8   8
#     4  10  22  32  47  68  92 136 175 218 250 298
#     4  10  18  32  48  63  93 129 171 206 251 303
#     4  10  19  31  52  73  92 122 165 215 260 316
#     4  10  18  32  48  66  95 125 171 212 255 307
#     4   9  18  31  48  70  92 120 169 204 258 308
#     4  10  19  31  50  66  93 126 161 203 252 301
#
# _framework density 22.997772999999999
#
# number of rings (size 3 to 8) (size 9 to 14) (size 15 to 20)
#    0.000    2.182    3.636    0.545    0.000    0.000 
#    0.000   11.364    0.000    0.000    0.000    0.000 
#    0.000    0.000    0.000    0.818    7.636    0.364 
#
# Total GULP energy -245029.424616 kJ/mol
# GULP energy per Si atom -5568.850559 kJ/mol
# Density = 2.294543 g / cm^3
# Si number density = 22.997773 Si / 1000 Ang^3
#
#
#
# Elastic Constant Matrix: (Units=GPa)
#
#
# Indices 1 2 3 4 5 6 
#
# 1 141.8183 44.8921 23.8530 0.0000 0.0000 0.0000
# 2 44.8921 188.2658 28.4284 0.0000 0.0000 0.0000
# 3 23.8530 28.4284 75.9532 0.0000 0.0000 0.0000
# 4 0.0000 0.0000 0.0000 12.4769 0.0000 0.0000
# 5 0.0000 0.0000 0.0000 0.0000 -143.5206 0.0000
# 6 0.0000 0.0000 0.0000 0.0000 0.0000 25.4790
#
#
#
# Elastic Compliance Matrix: (Units=1/GPa)
#
#
# Indices 1 2 3 4 5 6 
#
# 1 0.007871 -0.001594 -0.001875 0.000000 0.000000 0.000000
# 2 -0.001594 0.005953 -0.001727 0.000000 0.000000 0.000000
# 3 -0.001875 -0.001727 0.014402 0.000000 0.000000 0.000000
# 4 0.000000 0.000000 0.000000 0.080148 0.000000 0.000000
# 5 0.000000 0.000000 0.000000 0.000000 -0.006968 0.000000
# 6 0.000000 0.000000 0.000000 0.000000 0.000000 0.039248
#
#
# Mechanical properties :
#
#
# Convention : Reuss Voigt Hill
#
# Bulk Modulus (GPa) = 56.07873 66.70938 61.39405
# Shear Modulus (GPa) = 31.84900 -0.52203 15.66348
#
# Velocity S-wave (km/s) = 3.72543 -0.47695 2.61260
# Velocity P-wave (km/s) = 6.55305 5.36345 5.98786
#
# Compressibility (1/GPa) = 0.01783207
#
# Stress axis : x y z
#
# Youngs Moduli (GPa) = 127.04557 167.99640 69.43694
#
# Poissons Ratio (x) = 0.26774 0.13022
# Poissons Ratio (y) = 0.20247 0.11995
# Poissons Ratio (z) = 0.23827 0.29021
#
# Static dielectric constant tensor:
#      x y z
#    x 2.031930 0.000000 0.000000 
#    y 0.000000 1.979570 0.000000 
#    z 0.000000 0.000000 1.868240 
# 
# From -- ./inp_files/29524.got.cif
#   From: 2010.05.17/outbox.cif.g08.bks.cpg/sg48_15_cif.got.tgz:29524.got - 2010.06.03 20:39:00.
