data_PCOD9389840
_publ_section_title
;
Structure prediction by ZEFSAII (Michael W. Deem and Ramdas Pophale) SiO2 
 PCOD9389840
Probable space group: P N N N
;
_chemical_formula_sum "Si O2"
_cell_formula_units_Z 48
_cell_length_a 5.165011
_cell_length_b 18.217661
_cell_length_c 21.510597
_cell_angle_alpha 90.000000
_cell_angle_beta 90.000000
_cell_angle_gamma 90.000000
_cell_volume 2024.027137
_symmetry_space_group_name_H-M "P N N N"
_symmetry_group_IT_number 48
_space_group.IT_coordinate_system_code '2'
_symmetry_cell_setting 'orthorhombic'
loop_
_space_group_symop_operation_xyz
x,y,z
1/2-x,1/2-y,z
x,1/2-y,1/2-z
1/2-x,y,1/2-z
-x,-y,-z
1/2+x,1/2+y,-z
-x,1/2+y,1/2+z
1/2+x,-y,1/2+z
loop_
_atom_site_type_symbol
_atom_site_label
_atom_site_fract_x
_atom_site_fract_y
_atom_site_fract_z
Si Si1 0.846268 0.423573 0.014052
Si Si2 0.329209 0.581162 0.657811
Si Si3 0.750871 0.165208 0.673489
Si Si4 0.353061 0.173127 0.492428
Si Si5 0.147928 0.327155 0.346063
Si Si6 0.744861 0.586407 0.320545
O O1 0.763926 0.432451 0.085551
O O2 0.591870 0.380327 0.985874
O O3 0.085818 0.369714 0.009025
O O4 0.000000 0.500000 0.000000
O O5 0.615029 0.615537 0.660662
O O6 0.304234 0.499693 0.683851
O O7 0.109148 0.636562 0.682377
O O8 0.750000 0.250000 0.654878
O O9 0.750000 0.164237 0.750000
O O10 0.510920 0.115728 0.652668
O O11 0.004674 0.125731 0.647963
O O12 0.250000 0.250000 0.522026
O O13 0.418429 0.188470 0.419094
O O14 0.250000 0.250000 0.320731
O O15 0.750000 0.614824 0.250000
#
# Coordination Sequence:
#
# PCOD9389840 Si02
#       6
#     8   8   8   8   8   8
#     4  10  19  31  49  73  98 125 157 199 245 290
#     4  10  19  31  49  72  97 126 158 197 244 290
#     4   9  17  30  49  72  95 122 161 204 240 278
#     4   9  17  30  49  72  95 122 161 203 240 280
#     4   9  17  30  49  71  94 123 162 203 238 278
#     4  10  19  31  49  72  98 127 159 200 245 289
#
# _framework density 23.7151
#
# number of rings (size 3 to 8) (size 9 to 14) (size 15 to 20)
#    0.000    2.500    0.000    3.000    0.000    6.000 
#    0.000    0.000    0.000    7.000    0.000    0.000 
#    0.000    0.000    0.000    0.000    0.000    0.000 
#
# Total GULP energy -267482.645226 kJ/mol
# GULP energy per Si atom -5572.555109 kJ/mol
# Density = 2.366112 g / cm^3
# Si number density = 23.715100 Si / 1000 Ang^3
#
#
#
# Elastic Constant Matrix: (Units=GPa)
#
#
# Indices 1 2 3 4 5 6 
#
# 1 101.7936 18.7008 -0.1972 0.0000 0.0000 0.0000
# 2 18.7008 116.1794 -0.2979 0.0000 0.0000 0.0000
# 3 -0.1972 -0.2979 53.1733 0.0000 0.0000 0.0000
# 4 0.0000 0.0000 0.0000 -45.1491 0.0000 0.0000
# 5 0.0000 0.0000 0.0000 0.0000 -49.6586 0.0000
# 6 0.0000 0.0000 0.0000 0.0000 0.0000 33.0294
#
#
#
# Elastic Compliance Matrix: (Units=1/GPa)
#
#
# Indices 1 2 3 4 5 6 
#
# 1 0.010123 -0.001629 0.000028 0.000000 0.000000 0.000000
# 2 -0.001629 0.008870 0.000044 0.000000 0.000000 0.000000
# 3 0.000028 0.000044 0.018807 0.000000 0.000000 0.000000
# 4 0.000000 0.000000 0.000000 -0.022149 0.000000 0.000000
# 5 0.000000 0.000000 0.000000 0.000000 -0.020137 0.000000
# 6 0.000000 0.000000 0.000000 0.000000 0.000000 0.030276
#
#
# Mechanical properties :
#
#
# Convention : Reuss Voigt Hill
#
# Bulk Modulus (GPa) = 28.83088 34.17310 31.50199
# Shear Modulus (GPa) = 123.56108 4.50705 64.03407
#
# Velocity S-wave (km/s) = 7.22602 1.38008 5.20192
# Velocity P-wave (km/s) = 9.04456 4.12076 7.02797
#
# Compressibility (1/GPa) = 0.03468503
#
# Stress axis : x y z
#
# Youngs Moduli (GPa) = 98.78304 112.74255 53.17235
#
# Poissons Ratio (x) = 0.18370 -0.00151
# Poissons Ratio (y) = 0.16096 -0.00232
# Poissons Ratio (z) = -0.00281 -0.00492
#
# Static dielectric constant tensor:
#      x y z
#    x 1.864420 0.000000 0.000000 
#    y 0.000000 2.006190 0.000000 
#    z 0.000000 0.000000 2.050350 
# 
# From -- ./inp_files/7012.got.cif
#   From: 2010.05.17/outbox.cif.g08.bks.cpg/sg48_4_cif.got.tgz:7012.got - 2010.06.03 20:39:00.
