data_PCOD9389322
_publ_section_title
;
Structure prediction by ZEFSAII (Michael W. Deem and Ramdas Pophale) SiO2 
 PCOD9389322
Probable space group: P M M M
;
_chemical_formula_sum "Si O2"
_cell_formula_units_Z 40
_cell_length_a 9.000000
_cell_length_b 9.000000
_cell_length_c 27.000000
_cell_angle_alpha 90.000000
_cell_angle_beta 90.000000
_cell_angle_gamma 90.000000
_cell_volume 2187.000000
_symmetry_space_group_name_H-M "P M M M"
_symmetry_group_IT_number 47
_symmetry_cell_setting 'orthorhombic'
loop_
_space_group_symop_operation_xyz
x,y,z
-x,-y,z
x,-y,-z
-x,y,-z
-x,-y,-z
x,y,-z
-x,y,z
x,-y,z
loop_
_atom_site_type_symbol
_atom_site_label
_atom_site_fract_x
_atom_site_fract_y
_atom_site_fract_z
Si Si1 0.323832 0.827672 0.146851
Si Si2 0.673108 0.678315 0.445692
Si Si3 0.821055 0.828813 0.353631
Si Si4 0.826633 0.678402 0.945473
Si Si5 0.827655 0.181252 0.753686
O O1 0.500000 0.822750 0.148373
O O2 0.263725 0.743533 0.099485
O O3 0.260216 0.767279 0.198459
O O4 0.275999 0.000000 0.143002
O O5 0.726693 0.729110 0.500000
O O6 0.500000 0.720925 0.441045
O O7 0.679528 0.500000 0.445160
O O8 0.763550 0.740729 0.400251
O O9 0.770556 0.768690 0.300019
O O10 0.000000 0.827614 0.352120
O O11 0.772639 0.000000 0.358328
O O12 0.819124 0.500000 0.944453
O O13 0.000000 0.719887 0.940508
O O14 0.774591 0.728190 0.000000
O O15 0.000000 0.222588 0.759205
O O16 0.821614 0.000000 0.751932
#
# Coordination Sequence:
#
# PCOD9389322 Si02
#       5
#     8   8   8   8   8
#     4  10  20  32  49  76 105 130 160 199 241 287
#     4   9  19  35  51  68  95 131 167 201 239 286
#     4   9  18  32  51  76 101 124 157 202 246 288
#     4   9  19  36  55  73  95 127 167 206 243 286
#     4   8  15  30  50  70  96 130 163 196 238 286
#
# _framework density 18.289895000000001
#
# number of rings (size 3 to 8) (size 9 to 14) (size 15 to 20)
#    0.000    3.000    0.000    3.000    0.000    4.800 
#    0.000    9.000    0.000    1.200    0.000    0.000 
#    0.000    0.000    0.000    0.000    0.000    0.000 
#
# Total GULP energy -222811.299663 kJ/mol
# GULP energy per Si atom -5570.282492 kJ/mol
# Density = 1.824827 g / cm^3
# Si number density = 18.289895 Si / 1000 Ang^3
#
#
#
# Elastic Constant Matrix: (Units=GPa)
#
#
# Indices 1 2 3 4 5 6 
#
# 1 16.1416 18.9820 55.8853 0.0000 0.0000 0.0000
# 2 18.9820 7.1154 37.5721 0.0000 0.0000 0.0000
# 3 55.8853 37.5721 189.4529 0.0000 0.0000 0.0000
# 4 0.0000 0.0000 0.0000 36.8225 0.0000 0.0000
# 5 0.0000 0.0000 0.0000 0.0000 52.1974 0.0000
# 6 0.0000 0.0000 0.0000 0.0000 0.0000 17.0375
#
#
#
# Elastic Compliance Matrix: (Units=1/GPa)
#
#
# Indices 1 2 3 4 5 6 
#
# 1 0.005393 0.126835 -0.026745 0.000000 0.000000 0.000000
# 2 0.126835 0.005517 -0.038508 0.000000 0.000000 0.000000
# 3 -0.026745 -0.038508 0.020804 0.000000 0.000000 0.000000
# 4 0.000000 0.000000 0.000000 0.027157 0.000000 0.000000
# 5 0.000000 0.000000 0.000000 0.000000 0.019158 0.000000
# 6 0.000000 0.000000 0.000000 0.000000 0.000000 0.058694
#
#
# Mechanical properties :
#
#
# Convention : Reuss Voigt Hill
#
# Bulk Modulus (GPa) = 6.45666 48.62097 27.53881
# Shear Modulus (GPa) = 76.70515 27.89619 52.30067
#
# Velocity S-wave (km/s) = 6.48302 3.90965 5.35327
# Velocity P-wave (km/s) = 7.71863 6.85724 7.30065
#
# Compressibility (1/GPa) = 0.15487892
#
# Stress axis : x y z
#
# Youngs Moduli (GPa) = 185.43517 181.26461 48.06658
#
# Poissons Ratio (x) = -22.99077 1.28552
# Poissons Ratio (y) = -23.51974 1.85096
# Poissons Ratio (z) = 4.95939 6.98019
#
# Static dielectric constant tensor:
#      x y z
#    x 1.609910 0.000000 0.000000 
#    y 0.000000 1.625300 0.000000 
#    z 0.000000 0.000000 1.640250 
# 
# From -- ./inp_files/1354.got.cif
#   From: 2010.05.17/outbox.ucp.g08.bks.cvg/sg47_1_cif.got.tgz:1354.got - 2010.06.11 16:36:43.
