data_PCOD9389841
_publ_section_title
;
Structure prediction by ZEFSAII (Michael W. Deem and Ramdas Pophale) SiO2 
 PCOD9389841
Probable space group: P N N N
;
_chemical_formula_sum "Si O2"
_cell_formula_units_Z 48
_cell_length_a 15.099532
_cell_length_b 20.778308
_cell_length_c 8.525594
_cell_angle_alpha 90.000000
_cell_angle_beta 90.000000
_cell_angle_gamma 90.000000
_cell_volume 2674.843107
_symmetry_space_group_name_H-M "P N N N"
_symmetry_group_IT_number 48
_space_group.IT_coordinate_system_code '2'
_symmetry_cell_setting 'orthorhombic'
loop_
_space_group_symop_operation_xyz
x,y,z
1/2-x,1/2-y,z
x,1/2-y,1/2-z
1/2-x,y,1/2-z
-x,-y,-z
1/2+x,1/2+y,-z
-x,1/2+y,1/2+z
1/2+x,-y,1/2+z
loop_
_atom_site_type_symbol
_atom_site_label
_atom_site_fract_x
_atom_site_fract_y
_atom_site_fract_z
Si Si1 0.226395 0.324959 0.925742
Si Si2 0.387759 0.551894 0.608586
Si Si3 0.958750 0.069598 0.042701
Si Si4 0.786232 0.052331 0.923575
Si Si5 0.078496 0.411442 0.024559
Si Si6 0.643178 0.590184 0.885192
O O1 0.250000 0.250000 0.930751
O O2 0.250000 0.348605 0.750000
O O3 0.126331 0.348460 0.957749
O O4 0.285543 0.358511 0.059810
O O5 0.409520 0.563348 0.790206
O O6 0.291335 0.570878 0.544392
O O7 0.394914 0.475765 0.569894
O O8 0.471822 0.586759 0.526304
O O9 0.047970 0.110536 0.044111
O O10 0.879053 0.089799 0.932066
O O11 0.000000 0.000000 0.000000
O O12 0.750000 0.057346 0.750000
O O13 0.816634 0.977673 0.945591
O O14 0.117492 0.419547 0.202117
#
# Coordination Sequence:
#
# PCOD9389841 Si02
#       6
#     8   8   8   8   8   8
#     4  11  24  36  52  76 103 143 185 218 259 308
#     4  10  19  31  49  73 103 134 169 214 261 316
#     4   9  21  29  45  72  99 137 170 203 263 316
#     4  11  18  29  47  74 103 134 169 201 253 319
#     4  10  20  33  50  72 100 137 174 217 260 310
#     4  10  19  35  48  70 102 134 177 217 248 315
#
# _framework density 17.944977000000002
#
# number of rings (size 3 to 8) (size 9 to 14) (size 15 to 20)
#    0.000    1.833    3.333    1.000    7.000    1.333 
#    0.000    0.000    0.000    0.000    0.000    1.167 
#    0.000    9.333    0.000    0.000    0.000    0.000 
#
# Total GULP energy -267248.930987 kJ/mol
# GULP energy per Si atom -5567.686062 kJ/mol
# Density = 1.790413 g / cm^3
# Si number density = 17.944977 Si / 1000 Ang^3
#
#
#
# Elastic Constant Matrix: (Units=GPa)
#
#
# Indices 1 2 3 4 5 6 
#
# 1 156.9171 17.1024 34.9704 0.0000 0.0000 0.0000
# 2 17.1024 33.9358 4.4905 0.0000 0.0000 0.0000
# 3 34.9704 4.4905 31.9289 0.0000 0.0000 0.0000
# 4 0.0000 0.0000 0.0000 13.5956 0.0000 0.0000
# 5 0.0000 0.0000 0.0000 0.0000 31.8592 0.0000
# 6 0.0000 0.0000 0.0000 0.0000 0.0000 18.9045
#
#
#
# Elastic Compliance Matrix: (Units=1/GPa)
#
#
# Indices 1 2 3 4 5 6 
#
# 1 0.008760 -0.003205 -0.009144 0.000000 0.000000 0.000000
# 2 -0.003205 0.031199 -0.000878 0.000000 0.000000 0.000000
# 3 -0.009144 -0.000878 0.041458 0.000000 0.000000 0.000000
# 4 0.000000 0.000000 0.000000 0.073553 0.000000 0.000000
# 5 0.000000 0.000000 0.000000 0.000000 0.031388 0.000000
# 6 0.000000 0.000000 0.000000 0.000000 0.000000 0.052897
#
#
# Mechanical properties :
#
#
# Convention : Reuss Voigt Hill
#
# Bulk Modulus (GPa) = 18.19376 37.32316 27.75846
# Shear Modulus (GPa) = 17.60389 23.95309 20.77849
#
# Velocity S-wave (km/s) = 3.13548 3.65747 3.40648
# Velocity P-wave (km/s) = 4.82379 6.21932 5.56547
#
# Compressibility (1/GPa) = 0.05496391
#
# Stress axis : x y z
#
# Youngs Moduli (GPa) = 114.15806 32.05266 24.12106
#
# Poissons Ratio (x) = 0.10272 0.22055
# Poissons Ratio (y) = 0.36584 0.02117
# Poissons Ratio (z) = 1.04380 0.02814
#
# Static dielectric constant tensor:
#      x y z
#    x 1.714740 0.000000 0.000000 
#    y 0.000000 1.591900 0.000000 
#    z 0.000000 0.000000 1.694320 
# 
# From -- ./inp_files/12983.got.cif
#   From: 2010.05.17/outbox.cif.g08.bks.cpg/sg48_7_cif.got.tgz:12983.got - 2010.06.03 20:39:00.
