data_PCOD9389885
_publ_section_title
;
Structure prediction by ZEFSAII (Michael W. Deem and Ramdas Pophale) SiO2 
 PCOD9389885
Probable space group: P N N N
;
_chemical_formula_sum "Si O2"
_cell_formula_units_Z 52
_cell_length_a 14.847383
_cell_length_b 17.527783
_cell_length_c 11.889992
_cell_angle_alpha 90.000000
_cell_angle_beta 90.000000
_cell_angle_gamma 90.000000
_cell_volume 3094.271818
_symmetry_space_group_name_H-M "P N N N"
_symmetry_group_IT_number 48
_space_group.IT_coordinate_system_code '2'
_symmetry_cell_setting 'orthorhombic'
loop_
_space_group_symop_operation_xyz
x,y,z
1/2-x,1/2-y,z
x,1/2-y,1/2-z
1/2-x,y,1/2-z
-x,-y,-z
1/2+x,1/2+y,-z
-x,1/2+y,1/2+z
1/2+x,-y,1/2+z
loop_
_atom_site_type_symbol
_atom_site_label
_atom_site_fract_x
_atom_site_fract_y
_atom_site_fract_z
Si Si1 0.944214 0.891817 0.936080
Si Si2 0.168743 0.811597 0.550047
Si Si3 0.250000 0.911733 0.750000
Si Si4 0.151643 0.406369 0.201848
Si Si5 0.032759 0.272341 0.118709
Si Si6 0.281477 0.931900 0.125536
Si Si7 0.632415 0.029260 0.441981
O O1 0.907106 0.917894 0.814395
O O2 0.926776 0.801947 0.942304
O O3 0.900584 0.944289 0.031301
O O4 0.049319 0.912408 0.939030
O O5 0.250000 0.750000 0.535700
O O6 0.196555 0.859265 0.661388
O O7 0.166501 0.866626 0.441633
O O8 0.067519 0.783378 0.571093
O O9 0.315604 0.962009 0.674230
O O10 0.250000 0.380291 0.250000
O O11 0.099558 0.345029 0.124508
O O12 0.167565 0.487363 0.141555
O O13 0.022331 0.250000 0.250000
O O14 0.250000 0.908580 0.250000
O O15 0.196746 0.947809 0.044773
#
# Coordination Sequence:
#
# PCOD9389885 Si02
#       7
#     8   8   4   8   8   8   8
#     4  10  19  33  56  80 107 143 186 228 277 337
#     4  11  21  35  57  83 115 142 181 241 288 336
#     4  10  19  32  56  82 107 138 180 230 279 322
#     4  10  19  36  55  84 114 145 189 234 280 340
#     4  10  20  32  53  85 112 141 183 239 293 324
#     4  10  20  37  56  81 113 149 185 225 286 349
#     4  10  19  34  56  82 107 145 185 229 277 338
#
# _framework density 16.805246
#
# number of rings (size 3 to 8) (size 9 to 14) (size 15 to 20)
#    0.000    1.846    3.077    4.846    0.000    3.692 
#    0.000    0.000    0.000    0.000    0.000    6.462 
#    0.000    0.000    0.000    0.000    0.000    0.000 
#
# Total GULP energy -289776.254196 kJ/mol
# GULP energy per Si atom -5572.620273 kJ/mol
# Density = 1.676700 g / cm^3
# Si number density = 16.805246 Si / 1000 Ang^3
#
#
#
# Elastic Constant Matrix: (Units=GPa)
#
#
# Indices 1 2 3 4 5 6 
#
# 1 65.2208 39.1230 27.7756 0.0000 0.0000 0.0000
# 2 39.1230 92.3157 49.5705 0.0000 0.0000 0.0000
# 3 27.7756 49.5705 83.4374 0.0000 0.0000 0.0000
# 4 0.0000 0.0000 0.0000 26.0805 0.0000 0.0000
# 5 0.0000 0.0000 0.0000 0.0000 30.6266 0.0000
# 6 0.0000 0.0000 0.0000 0.0000 0.0000 15.4540
#
#
#
# Elastic Compliance Matrix: (Units=1/GPa)
#
#
# Indices 1 2 3 4 5 6 
#
# 1 0.020905 -0.007523 -0.002490 0.000000 0.000000 0.000000
# 2 -0.007523 0.018614 -0.008554 0.000000 0.000000 0.000000
# 3 -0.002490 -0.008554 0.017896 0.000000 0.000000 0.000000
# 4 0.000000 0.000000 0.000000 0.038343 0.000000 0.000000
# 5 0.000000 0.000000 0.000000 0.000000 0.032651 0.000000
# 6 0.000000 0.000000 0.000000 0.000000 0.000000 0.064708
#
#
# Mechanical properties :
#
#
# Convention : Reuss Voigt Hill
#
# Bulk Modulus (GPa) = 49.30614 52.65689 50.98151
# Shear Modulus (GPa) = 21.09597 22.73254 21.91425
#
# Velocity S-wave (km/s) = 3.54689 3.68190 3.61503
# Velocity P-wave (km/s) = 6.79539 7.03398 6.91571
#
# Compressibility (1/GPa) = 0.02028145
#
# Stress axis : x y z
#
# Youngs Moduli (GPa) = 47.83451 53.72354 55.87799
#
# Poissons Ratio (x) = 0.40414 0.13914
# Poissons Ratio (y) = 0.35984 0.47800
# Poissons Ratio (z) = 0.11911 0.45957
#
# Static dielectric constant tensor:
#      x y z
#    x 1.596970 0.000000 0.000000 
#    y 0.000000 1.603080 0.000000 
#    z 0.000000 0.000000 1.537140 
# 
# From -- ./inp_files/21497.got.cif
#   From: 2010.05.17/outbox.cif.g08.bks.cpg/sg48_11_cif.got.tgz:21497.got - 2010.06.03 20:39:00.
