data_PCOD9389642
_publ_section_title
;
Structure prediction by ZEFSAII (Michael W. Deem and Ramdas Pophale) SiO2 
 PCOD9389642
Probable space group: P N N N
;
_chemical_formula_sum "Si O2"
_cell_formula_units_Z 48
_cell_length_a 15.286969
_cell_length_b 25.058277
_cell_length_c 5.475502
_cell_angle_alpha 90.000000
_cell_angle_beta 90.000000
_cell_angle_gamma 90.000000
_cell_volume 2097.473741
_symmetry_space_group_name_H-M "P N N N"
_symmetry_group_IT_number 48
_space_group.IT_coordinate_system_code '2'
_symmetry_cell_setting 'orthorhombic'
loop_
_space_group_symop_operation_xyz
x,y,z
1/2-x,1/2-y,z
x,1/2-y,1/2-z
1/2-x,y,1/2-z
-x,-y,-z
1/2+x,1/2+y,-z
-x,1/2+y,1/2+z
1/2+x,-y,1/2+z
loop_
_atom_site_type_symbol
_atom_site_label
_atom_site_fract_x
_atom_site_fract_y
_atom_site_fract_z
Si Si1 0.913253 0.684119 0.853079
Si Si2 0.880972 0.308266 0.177219
Si Si3 0.094653 0.640313 0.318628
Si Si4 0.845660 0.917558 0.830429
Si Si5 0.890311 0.667622 0.350474
Si Si6 0.948549 0.483812 0.749711
O O1 0.914178 0.619044 0.819666
O O2 0.013901 0.699719 0.856751
O O3 0.861220 0.692004 0.099398
O O4 0.629228 0.699600 0.903071
O O5 0.846395 0.250000 0.250000
O O6 0.866680 0.346429 0.412921
O O7 0.856387 0.332720 0.912950
O O8 0.078861 0.577888 0.264959
O O9 0.996015 0.664765 0.335032
O O10 0.750000 0.902094 0.750000
O O11 0.864586 0.978032 0.774409
O O12 0.858851 0.893073 0.100792
O O13 0.000000 0.500000 0.500000
O O14 0.000000 0.500000 0.000000
#
# Coordination Sequence:
#
# PCOD9389642 Si02
#       6
#     8   8   8   8   8   8
#     4   8  16  30  43  67  95 126 165 207 254 300
#     4  10  18  31  51  73  99 132 175 226 271 306
#     4  10  18  31  47  74 102 133 172 213 268 310
#     4  10  21  33  52  77 107 142 181 212 257 321
#     4   8  15  29  44  64  96 126 166 200 245 298
#     4  12  21  35  54  76 110 146 180 213 269 329
#
# _framework density 22.884671999999998
#
# number of rings (size 3 to 8) (size 9 to 14) (size 15 to 20)
#    1.000    1.333    1.667    3.500    0.000    0.667 
#    0.000    0.000    0.000    0.500    0.000    0.000 
#   10.000    4.000    0.000    0.000    0.000    0.000 
#
# Total GULP energy -267288.419609 kJ/mol
# GULP energy per Si atom -5568.508742 kJ/mol
# Density = 2.283259 g / cm^3
# Si number density = 22.884672 Si / 1000 Ang^3
#
#
#
# Elastic Constant Matrix: (Units=GPa)
#
#
# Indices 1 2 3 4 5 6 
#
# 1 43.5162 3.7999 8.3340 0.0000 0.0000 0.0000
# 2 3.7999 104.1720 69.3995 0.0000 0.0000 0.0000
# 3 8.3340 69.3995 239.5585 0.0000 0.0000 0.0000
# 4 0.0000 0.0000 0.0000 31.0879 0.0000 0.0000
# 5 0.0000 0.0000 0.0000 0.0000 2.3873 0.0000
# 6 0.0000 0.0000 0.0000 0.0000 0.0000 -4.2334
#
#
#
# Elastic Compliance Matrix: (Units=1/GPa)
#
#
# Indices 1 2 3 4 5 6 
#
# 1 0.023146 -0.000381 -0.000695 0.000000 0.000000 0.000000
# 2 -0.000381 0.011902 -0.003435 0.000000 0.000000 0.000000
# 3 -0.000695 -0.003435 0.005194 0.000000 0.000000 0.000000
# 4 0.000000 0.000000 0.000000 0.032167 0.000000 0.000000
# 5 0.000000 0.000000 0.000000 0.000000 0.418892 0.000000
# 6 0.000000 0.000000 0.000000 0.000000 0.000000 -0.236218
#
#
# Mechanical properties :
#
#
# Convention : Reuss Voigt Hill
#
# Bulk Modulus (GPa) = 32.03099 61.14595 46.58847
# Shear Modulus (GPa) = 18.21427 26.22925 22.22176
#
# Velocity S-wave (km/s) = 2.82426 3.38916 3.11952
# Velocity P-wave (km/s) = 4.96612 6.48786 5.77731
#
# Compressibility (1/GPa) = 0.03121976
#
# Stress axis : x y z
#
# Youngs Moduli (GPa) = 43.20348 84.02271 192.54831
#
# Poissons Ratio (x) = 0.03205 0.13377
# Poissons Ratio (y) = 0.01648 0.66132
# Poissons Ratio (z) = 0.03001 0.28858
#
# Static dielectric constant tensor:
#      x y z
#    x 1.833480 0.000000 0.000000 
#    y 0.000000 1.842520 0.000000 
#    z 0.000000 0.000000 2.051720 
# 
# From -- ./inp_files/4524.got.cif
#   From: 2010.05.17/outbox.cif.g08.bks.cpg/sg48_3_cif.got.tgz:4524.got - 2010.06.03 20:39:00.
