data_PCOD9389484
_publ_section_title
;
Structure prediction by ZEFSAII (Michael W. Deem and Ramdas Pophale) SiO2 
 PCOD9389484
Probable space group: P N N N
;
_chemical_formula_sum "Si O2"
_cell_formula_units_Z 48
_cell_length_a 10.999159
_cell_length_b 27.988214
_cell_length_c 7.777460
_cell_angle_alpha 90.000000
_cell_angle_beta 90.000000
_cell_angle_gamma 90.000000
_cell_volume 2394.266297
_symmetry_space_group_name_H-M "P N N N"
_symmetry_group_IT_number 48
_space_group.IT_coordinate_system_code '2'
_symmetry_cell_setting 'orthorhombic'
loop_
_space_group_symop_operation_xyz
x,y,z
1/2-x,1/2-y,z
x,1/2-y,1/2-z
1/2-x,y,1/2-z
-x,-y,-z
1/2+x,1/2+y,-z
-x,1/2+y,1/2+z
1/2+x,-y,1/2+z
loop_
_atom_site_type_symbol
_atom_site_label
_atom_site_fract_x
_atom_site_fract_y
_atom_site_fract_z
Si Si1 0.869898 0.482155 0.056485
Si Si2 0.372061 0.271003 0.052567
Si Si3 0.378516 0.875227 0.850725
Si Si4 0.373767 0.022443 0.557461
Si Si5 0.121928 0.732051 0.950797
Si Si6 0.629515 0.881104 0.632112
O O1 0.867157 0.424954 0.049439
O O2 0.865841 0.504037 0.248241
O O3 0.748194 0.501960 0.968146
O O4 0.000000 0.500000 0.000000
O O5 0.250000 0.250000 0.971726
O O6 0.374587 0.250000 0.250000
O O7 0.500083 0.255091 0.973667
O O8 0.361378 0.327660 0.060947
O O9 0.250000 0.870733 0.750000
O O10 0.390015 0.825177 0.950115
O O11 0.501231 0.881722 0.736607
O O12 0.375057 0.078413 0.513983
O O13 0.500000 0.000000 0.500000
O O14 0.250000 0.750000 0.025149
O O15 0.124280 0.750000 0.750000
O O16 0.750000 0.889084 0.750000
#
# Coordination Sequence:
#
# PCOD9389484 Si02
#       6
#     8   8   8   8   8   8
#     4  11  24  41  56  78 115 155 196 242 281 342
#     4  10  16  28  43  75 116 134 175 221 276 344
#     4  12  18  32  53  77 111 145 176 229 287 333
#     4  11  23  38  56  84 111 147 198 239 283 345
#     4  10  16  25  45  75 111 136 165 220 285 336
#     4  12  20  31  54  81 113 149 179 228 296 340
#
# _framework density 20.047896000000001
#
# number of rings (size 3 to 8) (size 9 to 14) (size 15 to 20)
#    0.000    1.000   10.000    1.000    0.000    0.000 
#    0.000    0.000    0.000    0.000    0.000    8.167 
#    0.000    2.667    0.000    0.000    0.000    0.000 
#
# Total GULP energy -267520.460619 kJ/mol
# GULP energy per Si atom -5573.342930 kJ/mol
# Density = 2.000227 g / cm^3
# Si number density = 20.047896 Si / 1000 Ang^3
#
#
#
# Elastic Constant Matrix: (Units=GPa)
#
#
# Indices 1 2 3 4 5 6 
#
# 1 209.5284 38.6851 18.3623 0.0000 0.0000 0.0000
# 2 38.6851 205.0661 16.3686 0.0000 0.0000 0.0000
# 3 18.3623 16.3686 24.0794 0.0000 0.0000 0.0000
# 4 0.0000 0.0000 0.0000 -7.0087 0.0000 0.0000
# 5 0.0000 0.0000 0.0000 0.0000 10.5169 0.0000
# 6 0.0000 0.0000 0.0000 0.0000 0.0000 41.1541
#
#
#
# Elastic Compliance Matrix: (Units=1/GPa)
#
#
# Indices 1 2 3 4 5 6 
#
# 1 0.005209 -0.000704 -0.003494 0.000000 0.000000 0.000000
# 2 -0.000704 0.005251 -0.003033 0.000000 0.000000 0.000000
# 3 -0.003494 -0.003033 0.046255 0.000000 0.000000 0.000000
# 4 0.000000 0.000000 0.000000 -0.142679 0.000000 0.000000
# 5 0.000000 0.000000 0.000000 0.000000 0.095085 0.000000
# 6 0.000000 0.000000 0.000000 0.000000 0.000000 0.024299
#
#
# Mechanical properties :
#
#
# Convention : Reuss Voigt Hill
#
# Bulk Modulus (GPa) = 23.66617 65.05621 44.36119
# Shear Modulus (GPa) = 80.68976 33.28298 56.98637
#
# Velocity S-wave (km/s) = 6.35105 4.07894 5.33730
# Velocity P-wave (km/s) = 8.10010 7.39625 7.75616
#
# Compressibility (1/GPa) = 0.04225441
#
# Stress axis : x y z
#
# Youngs Moduli (GPa) = 191.98554 190.42767 21.61915
#
# Poissons Ratio (x) = 0.13401 0.07553
# Poissons Ratio (y) = 0.13511 0.06557
# Poissons Ratio (z) = 0.67073 0.57758
#
# Static dielectric constant tensor:
#      x y z
#    x 1.864130 0.000000 0.000000 
#    y 0.000000 1.719560 0.000000 
#    z 0.000000 0.000000 1.718580 
# 
# From -- ./inp_files/11259.got.cif
#   From: 2010.05.17/outbox.cif.g08.bks.cpg/sg48_6_cif.got.tgz:11259.got - 2010.06.03 20:39:00.
