data_PCOD9389111
_publ_section_title
;
Structure prediction by ZEFSAII (Michael W. Deem and Ramdas Pophale) SiO2 
 PCOD9389111
Probable space group: P M M M
;
_chemical_formula_sum "Si O2"
_cell_formula_units_Z 52
_cell_length_a 9.767523
_cell_length_b 36.903041
_cell_length_c 7.932419
_cell_angle_alpha 90.000000
_cell_angle_beta 90.000000
_cell_angle_gamma 90.000000
_cell_volume 2859.250754
_symmetry_space_group_name_H-M "P M M M"
_symmetry_group_IT_number 47
_symmetry_cell_setting 'orthorhombic'
loop_
_space_group_symop_operation_xyz
x,y,z
-x,-y,z
x,-y,-z
-x,y,-z
-x,-y,-z
x,y,-z
-x,y,z
x,-y,z
loop_
_atom_site_type_symbol
_atom_site_label
_atom_site_fract_x
_atom_site_fract_y
_atom_site_fract_z
Si Si1 0.843146 0.813344 0.796910
Si Si2 0.342362 0.747077 0.796407
Si Si3 0.341707 0.040451 0.294129
Si Si4 0.667053 0.590606 0.186898
Si Si5 0.659956 0.668384 0.700503
Si Si6 0.843290 0.106634 0.703284
Si Si7 0.332778 0.541674 0.500000
O O1 0.748277 0.780663 0.735469
O O2 0.791607 0.853402 0.750578
O O3 0.000000 0.810121 0.734605
O O4 0.846776 0.811204 0.000000
O O5 0.500000 0.750020 0.735627
O O6 0.283166 0.707843 0.745239
O O7 0.345656 0.748032 0.000000
O O8 0.339071 0.040812 0.500000
O O9 0.500000 0.045215 0.244196
O O10 0.248327 0.073412 0.234285
O O11 0.296687 0.000000 0.242047
O O12 0.500000 0.591937 0.195757
O O13 0.716394 0.631835 0.217005
O O14 0.711451 0.563852 0.334845
O O15 0.704621 0.578259 0.000000
O O16 0.663725 0.663187 0.500000
O O17 0.500000 0.670557 0.754069
O O18 0.846019 0.104713 0.500000
O O19 0.000000 0.103659 0.764805
O O20 0.288294 0.500000 0.500000
O O21 0.500000 0.541535 0.500000
#
# Coordination Sequence:
#
# PCOD9389111 Si02
#       7
#     8   8   8   8   8   8   4
#     4   9  18  32  46  59  82 116 145 169 208 262
#     4   9  17  28  42  61  81 102 136 179 214 249
#     4   8  14  25  41  62  87 111 134 165 209 256
#     4   9  15  23  35  49  69 101 138 178 227 276
#     4   9  15  24  38  56  78 101 129 170 219 266
#     4   9  17  28  43  63  83 104 135 173 206 241
#     4   9  16  24  32  46  70 100 141 189 229 273
#
# _framework density 18.186584
#
# number of rings (size 3 to 8) (size 9 to 14) (size 15 to 20)
#    0.000    3.154    0.769    0.923    0.000    3.692 
#    0.000    3.077    0.000    0.462    0.000    3.231 
#    0.000    0.000    0.000    0.000    0.000    1.538 
#
# Total GULP energy -289628.873482 kJ/mol
# GULP energy per Si atom -5569.786029 kJ/mol
# Density = 1.814519 g / cm^3
# Si number density = 18.186584 Si / 1000 Ang^3
#
#
#
# Elastic Constant Matrix: (Units=GPa)
#
#
# Indices 1 2 3 4 5 6 
#
# 1 24.6765 51.1617 14.9705 0.0000 0.0000 0.0000
# 2 51.1617 192.2872 50.0432 0.0000 0.0000 0.0000
# 3 14.9705 50.0432 47.5298 0.0000 0.0000 0.0000
# 4 0.0000 0.0000 0.0000 151.4128 0.0000 0.0000
# 5 0.0000 0.0000 0.0000 0.0000 4.4517 0.0000
# 6 0.0000 0.0000 0.0000 0.0000 0.0000 -7.4047
#
#
#
# Elastic Compliance Matrix: (Units=1/GPa)
#
#
# Indices 1 2 3 4 5 6 
#
# 1 0.091037 -0.023085 -0.004368 0.000000 0.000000 0.000000
# 2 -0.023085 0.013017 -0.006435 0.000000 0.000000 0.000000
# 3 -0.004368 -0.006435 0.029190 0.000000 0.000000 0.000000
# 4 0.000000 0.000000 0.000000 0.006604 0.000000 0.000000
# 5 0.000000 0.000000 0.000000 0.000000 0.224634 0.000000
# 6 0.000000 0.000000 0.000000 0.000000 0.000000 -0.135049
#
#
# Mechanical properties :
#
#
# Convention : Reuss Voigt Hill
#
# Bulk Modulus (GPa) = 15.27444 55.20492 35.23968
# Shear Modulus (GPa) = 15.67237 39.57984 27.62610
#
# Velocity S-wave (km/s) = 2.93875 4.67017 3.90171
# Velocity P-wave (km/s) = 4.46452 7.71371 6.30211
#
# Compressibility (1/GPa) = 0.06546886
#
# Stress axis : x y z
#
# Youngs Moduli (GPa) = 10.98456 76.81971 34.25821
#
# Poissons Ratio (x) = 1.77341 0.14963
# Poissons Ratio (y) = 0.25358 0.22044
# Poissons Ratio (z) = 0.04798 0.49431
#
# Static dielectric constant tensor:
#      x y z
#    x 1.607990 0.000000 0.000000 
#    y 0.000000 1.633130 0.000000 
#    z 0.000000 0.000000 1.651320 
# 
# From -- ./inp_files/4551.got.cif
#   From: 2010.05.17/outbox.cif.g08.bks.cpg/sg47_3_cif.got.tgz:4551.got - 2010.06.03 20:15:42.
