data_PCOD9389423
_publ_section_title
;
Structure prediction by ZEFSAII (Michael W. Deem and Ramdas Pophale) SiO2 
 PCOD9389423
Probable space group: P M M M
;
_chemical_formula_sum "Si O2"
_cell_formula_units_Z 48
_cell_length_a 9.000000
_cell_length_b 9.000000
_cell_length_c 30.000000
_cell_angle_alpha 90.000000
_cell_angle_beta 90.000000
_cell_angle_gamma 90.000000
_cell_volume 2430.000000
_symmetry_space_group_name_H-M "P M M M"
_symmetry_group_IT_number 47
_symmetry_cell_setting 'orthorhombic'
loop_
_space_group_symop_operation_xyz
x,y,z
-x,-y,z
x,-y,-z
-x,y,-z
-x,-y,-z
x,y,-z
-x,y,z
x,-y,z
loop_
_atom_site_type_symbol
_atom_site_label
_atom_site_fract_x
_atom_site_fract_y
_atom_site_fract_z
Si Si1 0.329052 0.175423 0.217905
Si Si2 0.324714 0.832873 0.375258
Si Si3 0.178389 0.169216 0.949689
Si Si4 0.829294 0.670048 0.446853
Si Si5 0.671315 0.325417 0.870459
Si Si6 0.823739 0.666802 0.702695
O O1 0.500000 0.228228 0.223487
O O2 0.265718 0.245856 0.173023
O O3 0.236508 0.223667 0.260104
O O4 0.331548 0.000000 0.213423
O O5 0.500000 0.825638 0.368463
O O6 0.279475 0.786441 0.424651
O O7 0.244343 0.716623 0.343718
O O8 0.274542 0.000000 0.364933
O O9 0.242542 0.280701 0.914286
O O10 0.000000 0.173183 0.949163
O O11 0.223952 0.000000 0.938587
O O12 0.227770 0.201755 0.000000
O O13 0.825316 0.678462 0.500000
O O14 0.791272 0.500000 0.434356
O O15 0.000000 0.697753 0.432608
O O16 0.500000 0.276271 0.875427
O O17 0.674020 0.500000 0.863251
O O18 0.776400 0.500000 0.714359
O O19 0.000000 0.671671 0.700198
#
# Coordination Sequence:
#
# PCOD9389423 Si02
#       6
#     8   8   8   8   8   8
#     4  10  21  38  60  84 110 142 181 223 269 323
#     4  11  24  39  56  82 115 149 186 228 274 325
#     4   9  19  36  56  78 106 142 184 228 274 324
#     4   9  19  37  60  85 113 146 186 231 277 326
#     4  10  21  36  55  81 112 145 181 222 270 324
#     4  11  24  40  59  84 112 143 182 226 272 325
#
# _framework density 19.753086
#
# number of rings (size 3 to 8) (size 9 to 14) (size 15 to 20)
#    0.000    2.000    0.000    4.000    0.000   11.333 
#    0.000    5.000    0.000    0.000    0.000    0.000 
#    0.000    0.000    0.000    0.000    0.000    0.000 
#
# Total GULP energy -267886.770197 kJ/mol
# GULP energy per Si atom -5580.974379 kJ/mol
# Density = 1.970813 g / cm^3
# Si number density = 19.753086 Si / 1000 Ang^3
#
#
#
# Elastic Constant Matrix: (Units=GPa)
#
#
# Indices 1 2 3 4 5 6 
#
# 1 13.5137 19.5621 19.1205 0.0000 0.0000 0.0000
# 2 19.5621 19.5310 37.5429 0.0000 0.0000 0.0000
# 3 19.1205 37.5429 50.5702 0.0000 0.0000 0.0000
# 4 0.0000 0.0000 0.0000 31.0218 0.0000 0.0000
# 5 0.0000 0.0000 0.0000 0.0000 25.8167 0.0000
# 6 0.0000 0.0000 0.0000 0.0000 0.0000 25.9273
#
#
#
# Elastic Compliance Matrix: (Units=1/GPa)
#
#
# Indices 1 2 3 4 5 6 
#
# 1 0.102687 0.066081 -0.087884 0.000000 0.000000 0.000000
# 2 0.066081 -0.077372 0.032455 0.000000 0.000000 0.000000
# 3 -0.087884 0.032455 0.028909 0.000000 0.000000 0.000000
# 4 0.000000 0.000000 0.000000 0.032235 0.000000 0.000000
# 5 0.000000 0.000000 0.000000 0.000000 0.038735 0.000000
# 6 0.000000 0.000000 0.000000 0.000000 0.000000 0.038569
#
#
# Mechanical properties :
#
#
# Convention : Reuss Voigt Hill
#
# Bulk Modulus (GPa) = 13.23995 26.22954 19.73474
# Shear Modulus (GPa) = 29.82690 17.04580 23.43635
#
# Velocity S-wave (km/s) = 3.89007 2.94078 3.44825
# Velocity P-wave (km/s) = 5.18596 4.98382 5.08589
#
# Compressibility (1/GPa) = 0.07552901
#
# Stress axis : x y z
#
# Youngs Moduli (GPa) = 9.73830 -12.92451 34.59174
#
# Poissons Ratio (x) = 0.85407 3.04006
# Poissons Ratio (y) = -0.64352 -1.12269
# Poissons Ratio (z) = 0.85584 0.41947
#
# Static dielectric constant tensor:
#      x y z
#    x 1.668120 0.000000 0.000000 
#    y 0.000000 1.693070 0.000000 
#    z 0.000000 0.000000 1.735960 
# 
# From -- ./inp_files/2463.got.cif
#   From: 2010.05.17/outbox.ucp.g08.bks.cvg/sg47_2_cif.got.tgz:2463.got - 2010.06.11 16:36:43.
