data_PCOD9389882
_publ_section_title
;
Structure prediction by ZEFSAII (Michael W. Deem and Ramdas Pophale) SiO2 
 PCOD9389882
Probable space group: P N N N
;
_chemical_formula_sum "Si O2"
_cell_formula_units_Z 56
_cell_length_a 20.239775
_cell_length_b 13.725839
_cell_length_c 12.126759
_cell_angle_alpha 90.000000
_cell_angle_beta 90.000000
_cell_angle_gamma 90.000000
_cell_volume 3368.909367
_symmetry_space_group_name_H-M "P N N N"
_symmetry_group_IT_number 48
_space_group.IT_coordinate_system_code '2'
_symmetry_cell_setting 'orthorhombic'
loop_
_space_group_symop_operation_xyz
x,y,z
1/2-x,1/2-y,z
x,1/2-y,1/2-z
1/2-x,y,1/2-z
-x,-y,-z
1/2+x,1/2+y,-z
-x,1/2+y,1/2+z
1/2+x,-y,1/2+z
loop_
_atom_site_type_symbol
_atom_site_label
_atom_site_fract_x
_atom_site_fract_y
_atom_site_fract_z
Si Si1 0.495620 0.543780 0.166722
Si Si2 0.144566 0.502922 0.938769
Si Si3 0.957658 0.960108 0.603912
Si Si4 0.627225 0.637532 0.232258
Si Si5 0.917748 0.110956 0.039405
Si Si6 0.438077 0.691990 0.636001
Si Si7 0.284589 0.974241 0.634860
O O1 0.468271 0.524294 0.287968
O O2 0.555592 0.621228 0.176029
O O3 0.532626 0.446327 0.122460
O O4 0.439088 0.571549 0.080024
O O5 0.127303 0.420485 0.848174
O O6 0.111025 0.601919 0.889847
O O7 0.222612 0.516446 0.944680
O O8 0.114800 0.469573 0.054718
O O9 0.989142 0.855579 0.632269
O O10 0.000000 0.000000 0.500000
O O11 0.641819 0.750000 0.250000
O O12 0.681981 0.578443 0.162761
O O13 0.930267 0.225463 0.044464
O O14 0.844286 0.088103 0.084067
O O15 0.425080 0.750000 0.750000
O O16 0.250000 0.938857 0.750000
#
# Coordination Sequence:
#
# PCOD9389882 Si02
#       7
#     8   8   8   8   8   8   8
#     4  10  19  36  52  81 115 134 184 236 272 332
#     4  10  21  34  52  77 112 145 186 222 280 339
#     4  10  19  34  53  78 111 146 178 223 280 337
#     4  10  19  32  55  77 105 147 184 232 285 330
#     4  10  21  33  56  83 108 143 180 230 288 321
#     4  11  18  33  56  82 110 141 180 230 283 338
#     4   9  19  37  51  76 112 145 184 233 271 337
#
# _framework density 16.622589999999999
#
# number of rings (size 3 to 8) (size 9 to 14) (size 15 to 20)
#    0.000    2.000    4.286    1.714    2.000    3.143 
#    0.000    3.571    0.000    0.000    0.000    4.000 
#    0.000    0.000    0.000    0.000    0.000    0.000 
#
# Total GULP energy -311913.965306 kJ/mol
# GULP energy per Si atom -5569.892238 kJ/mol
# Density = 1.658476 g / cm^3
# Si number density = 16.622590 Si / 1000 Ang^3
#
#
#
# Elastic Constant Matrix: (Units=GPa)
#
#
# Indices 1 2 3 4 5 6 
#
# 1 118.2652 26.5296 49.6080 0.0000 0.0000 0.0000
# 2 26.5296 92.3010 27.1558 0.0000 0.0000 0.0000
# 3 49.6080 27.1558 90.1047 0.0000 0.0000 0.0000
# 4 0.0000 0.0000 0.0000 15.3770 0.0000 0.0000
# 5 0.0000 0.0000 0.0000 0.0000 35.7241 0.0000
# 6 0.0000 0.0000 0.0000 0.0000 0.0000 6.4705
#
#
#
# Elastic Compliance Matrix: (Units=1/GPa)
#
#
# Indices 1 2 3 4 5 6 
#
# 1 0.011191 -0.001540 -0.005697 0.000000 0.000000 0.000000
# 2 -0.001540 0.012100 -0.002799 0.000000 0.000000 0.000000
# 3 -0.005697 -0.002799 0.015078 0.000000 0.000000 0.000000
# 4 0.000000 0.000000 0.000000 0.065032 0.000000 0.000000
# 5 0.000000 0.000000 0.000000 0.000000 0.027992 0.000000
# 6 0.000000 0.000000 0.000000 0.000000 0.000000 0.154547
#
#
# Mechanical properties :
#
#
# Convention : Reuss Voigt Hill
#
# Bulk Modulus (GPa) = 54.65339 56.36197 55.50768
# Shear Modulus (GPa) = 16.01989 24.67282 20.34636
#
# Velocity S-wave (km/s) = 3.10779 3.85683 3.50239
# Velocity P-wave (km/s) = 6.76965 7.33580 7.05841
#
# Compressibility (1/GPa) = 0.01829713
#
# Stress axis : x y z
#
# Youngs Moduli (GPa) = 89.35922 82.64270 66.32095
#
# Poissons Ratio (x) = 0.12730 0.37783
# Poissons Ratio (y) = 0.13765 0.18561
# Poissons Ratio (z) = 0.50907 0.23129
#
# Static dielectric constant tensor:
#      x y z
#    x 1.599450 0.000000 0.000000 
#    y 0.000000 1.564680 0.000000 
#    z 0.000000 0.000000 1.580150 
# 
# From -- ./inp_files/22887.got.cif
#   From: 2010.05.17/outbox.cif.g08.bks.cpg/sg48_12_cif.got.tgz:22887.got - 2010.06.03 20:39:00.
