data_PCOD9389695
_publ_section_title
;
Structure prediction by ZEFSAII (Michael W. Deem and Ramdas Pophale) SiO2 
 PCOD9389695
Probable space group: P N N N
;
_chemical_formula_sum "Si O2"
_cell_formula_units_Z 48
_cell_length_a 14.677944
_cell_length_b 16.948938
_cell_length_c 8.643902
_cell_angle_alpha 90.000000
_cell_angle_beta 90.000000
_cell_angle_gamma 90.000000
_cell_volume 2150.391585
_symmetry_space_group_name_H-M "P N N N"
_symmetry_group_IT_number 48
_space_group.IT_coordinate_system_code '2'
_symmetry_cell_setting 'orthorhombic'
loop_
_space_group_symop_operation_xyz
x,y,z
1/2-x,1/2-y,z
x,1/2-y,1/2-z
1/2-x,y,1/2-z
-x,-y,-z
1/2+x,1/2+y,-z
-x,1/2+y,1/2+z
1/2+x,-y,1/2+z
loop_
_atom_site_type_symbol
_atom_site_label
_atom_site_fract_x
_atom_site_fract_y
_atom_site_fract_z
Si Si1 0.092357 0.884657 0.450457
Si Si2 0.070934 0.046497 0.365640
Si Si3 0.287837 0.909377 0.574637
Si Si4 0.056516 0.780521 0.931359
Si Si5 0.361150 0.176434 0.363795
Si Si6 0.259370 0.417938 0.571322
O O1 0.200401 0.887860 0.472377
O O2 0.071280 0.792632 0.453096
O O3 0.028021 0.918648 0.591112
O O4 0.068902 0.953430 0.327637
O O5 0.116140 0.099367 0.236612
O O6 0.139368 0.059145 0.512663
O O7 0.250000 0.900166 0.750000
O O8 0.371280 0.850700 0.549542
O O9 0.301571 0.002685 0.549498
O O10 0.064692 0.750000 0.750000
O O11 0.953458 0.807270 0.956287
O O12 0.349044 0.250000 0.250000
O O13 0.277446 0.153479 0.469911
O O14 0.250000 0.397907 0.750000
#
# Coordination Sequence:
#
# PCOD9389695 Si02
#       6
#     8   8   8   8   8   8
#     4  10  19  33  57  91 130 167 216 262 323 383
#     4  10  20  38  61  88 130 175 215 263 319 396
#     4  10  18  32  58  93 132 160 205 264 325 387
#     4  11  19  33  60 100 128 166 219 267 320 393
#     4  11  22  42  66  94 123 172 231 262 322 402
#     4  10  24  41  62  95 126 166 215 277 339 378
#
# _framework density 22.321515999999999
#
# number of rings (size 3 to 8) (size 9 to 14) (size 15 to 20)
#    0.000    1.667    5.000    1.000    0.000    2.000 
#    0.000    1.667    0.000    3.000    0.000    7.000 
#    0.000    0.000    0.000    0.000    0.000    0.000 
#
# Total GULP energy -267925.475112 kJ/mol
# GULP energy per Si atom -5581.780732 kJ/mol
# Density = 2.227071 g / cm^3
# Si number density = 22.321516 Si / 1000 Ang^3
#
#
#
# Elastic Constant Matrix: (Units=GPa)
#
#
# Indices 1 2 3 4 5 6 
#
# 1 114.4887 45.5706 4.9398 0.0000 0.0000 0.0000
# 2 45.5706 152.7851 40.1248 0.0000 0.0000 0.0000
# 3 4.9398 40.1248 26.4672 0.0000 0.0000 0.0000
# 4 0.0000 0.0000 0.0000 -45.3053 0.0000 0.0000
# 5 0.0000 0.0000 0.0000 0.0000 -0.5581 0.0000
# 6 0.0000 0.0000 0.0000 0.0000 0.0000 31.9015
#
#
#
# Elastic Compliance Matrix: (Units=1/GPa)
#
#
# Indices 1 2 3 4 5 6 
#
# 1 0.010225 -0.004235 0.004511 0.000000 0.000000 0.000000
# 2 -0.004235 0.012629 -0.018355 0.000000 0.000000 0.000000
# 3 0.004511 -0.018355 0.064767 0.000000 0.000000 0.000000
# 4 0.000000 0.000000 0.000000 -0.022072 0.000000 0.000000
# 5 0.000000 0.000000 0.000000 0.000000 -1.791867 0.000000
# 6 0.000000 0.000000 0.000000 0.000000 0.000000 0.031347
#
#
# Mechanical properties :
#
#
# Convention : Reuss Voigt Hill
#
# Bulk Modulus (GPa) = 19.43087 52.77905 36.10496
# Shear Modulus (GPa) = -3.04570 10.74800 3.85115
#
# Velocity S-wave (km/s) = -1.16937 2.19671 1.31494
# Velocity P-wave (km/s) = 2.62691 5.48911 4.30296
#
# Compressibility (1/GPa) = 0.05146451
#
# Stress axis : x y z
#
# Youngs Moduli (GPa) = 97.79575 79.18554 15.44004
#
# Poissons Ratio (x) = 0.33533 -0.06966
# Poissons Ratio (y) = 0.41413 0.28340
# Poissons Ratio (z) = -0.44119 1.45343
#
# Static dielectric constant tensor:
#      x y z
#    x 1.805000 0.000000 0.000000 
#    y 0.000000 1.847350 0.000000 
#    z 0.000000 0.000000 1.850010 
# 
# From -- ./inp_files/12774.got.cif
#   From: 2010.05.17/outbox.cif.g08.bks.cpg/sg48_7_cif.got.tgz:12774.got - 2010.06.03 20:39:00.
