data_PCOD9389506
_publ_section_title
;
Structure prediction by ZEFSAII (Michael W. Deem and Ramdas Pophale) SiO2 
 PCOD9389506
Probable space group: P N N N
;
_chemical_formula_sum "Si O2"
_cell_formula_units_Z 44
_cell_length_a 8.694667
_cell_length_b 14.938500
_cell_length_c 21.767858
_cell_angle_alpha 90.000000
_cell_angle_beta 90.000000
_cell_angle_gamma 90.000000
_cell_volume 2827.324396
_symmetry_space_group_name_H-M "P N N N"
_symmetry_group_IT_number 48
_space_group.IT_coordinate_system_code '2'
_symmetry_cell_setting 'orthorhombic'
loop_
_space_group_symop_operation_xyz
x,y,z
1/2-x,1/2-y,z
x,1/2-y,1/2-z
1/2-x,y,1/2-z
-x,-y,-z
1/2+x,1/2+y,-z
-x,1/2+y,1/2+z
1/2+x,-y,1/2+z
loop_
_atom_site_type_symbol
_atom_site_label
_atom_site_fract_x
_atom_site_fract_y
_atom_site_fract_z
Si Si1 0.909536 0.916258 0.865294
Si Si2 0.699515 0.647313 0.523144
Si Si3 0.365584 0.006066 0.550402
Si Si4 0.750000 0.609175 0.750000
Si Si5 0.017594 0.723940 0.815109
Si Si6 0.349602 0.838294 0.937819
O O1 0.840903 0.945972 0.800500
O O2 0.040397 0.984054 0.887750
O O3 0.973780 0.815822 0.850678
O O4 0.780610 0.900869 0.917945
O O5 0.750000 0.750000 0.523028
O O6 0.768168 0.594765 0.464439
O O7 0.516072 0.650638 0.530843
O O8 0.250405 0.923303 0.544677
O O9 0.500000 0.000000 0.500000
O O10 0.633106 0.669598 0.708817
O O11 0.090692 0.750000 0.750000
O O12 0.115196 0.668777 0.864435
O O13 0.250000 0.750000 0.954131
#
# Coordination Sequence:
#
# PCOD9389506 Si02
#       6
#     8   8   8   4   8   8
#     4  10  16  32  48  73 103 141 170 205 253 317
#     4  11  19  34  52  70  99 143 178 218 262 295
#     4  10  22  34  47  69 102 141 180 218 253 304
#     4  10  17  28  52  74 106 151 168 195 256 334
#     4  10  18  28  49  75 109 142 169 190 250 327
#     4  12  20  32  49  74 106 141 176 210 256 310
#
# _framework density 15.562417
#
# number of rings (size 3 to 8) (size 9 to 14) (size 15 to 20)
#    0.000    1.455    5.455    4.091    0.000    0.364 
#    0.000    0.000    0.000    0.000    0.000    0.000 
#    0.000   13.091    3.273    0.000    0.000    0.000 
#
# Total GULP energy -244964.917886 kJ/mol
# GULP energy per Si atom -5567.384497 kJ/mol
# Density = 1.552700 g / cm^3
# Si number density = 15.562417 Si / 1000 Ang^3
#
#
#
# Elastic Constant Matrix: (Units=GPa)
#
#
# Indices 1 2 3 4 5 6 
#
# 1 123.1541 37.6966 42.6558 0.0000 0.0000 0.0000
# 2 37.6966 43.2468 34.2473 0.0000 0.0000 0.0000
# 3 42.6558 34.2473 73.0576 0.0000 0.0000 0.0000
# 4 0.0000 0.0000 0.0000 24.3665 0.0000 0.0000
# 5 0.0000 0.0000 0.0000 0.0000 39.0785 0.0000
# 6 0.0000 0.0000 0.0000 0.0000 0.0000 28.1143
#
#
#
# Elastic Compliance Matrix: (Units=1/GPa)
#
#
# Indices 1 2 3 4 5 6 
#
# 1 0.011530 -0.007506 -0.003214 0.000000 0.000000 0.000000
# 2 -0.007506 0.041660 -0.015147 0.000000 0.000000 0.000000
# 3 -0.003214 -0.015147 0.022665 0.000000 0.000000 0.000000
# 4 0.000000 0.000000 0.000000 0.041040 0.000000 0.000000
# 5 0.000000 0.000000 0.000000 0.000000 0.025590 0.000000
# 6 0.000000 0.000000 0.000000 0.000000 0.000000 0.035569
#
#
# Mechanical properties :
#
#
# Convention : Reuss Voigt Hill
#
# Bulk Modulus (GPa) = 41.45449 52.07308 46.76378
# Shear Modulus (GPa) = 21.02359 26.63577 23.82968
#
# Velocity S-wave (km/s) = 3.67947 4.14157 3.91734
# Velocity P-wave (km/s) = 6.68930 7.51023 7.11162
#
# Compressibility (1/GPa) = 0.02412284
#
# Stress axis : x y z
#
# Youngs Moduli (GPa) = 86.72680 24.00358 44.12141
#
# Poissons Ratio (x) = 0.18016 0.14180
# Poissons Ratio (y) = 0.65094 0.66831
# Poissons Ratio (z) = 0.27872 0.36358
#
# Static dielectric constant tensor:
#      x y z
#    x 1.593820 0.000000 0.000000 
#    y 0.000000 1.503640 0.000000 
#    z 0.000000 0.000000 1.549640 
# 
# From -- ./inp_files/30195.got.cif
#   From: 2010.05.17/outbox.cif.g08.bks.cpg/sg48_16_cif.got.tgz:30195.got - 2010.06.03 20:39:00.
