data_PCOD9389424
_publ_section_title
;
Structure prediction by ZEFSAII (Michael W. Deem and Ramdas Pophale) SiO2 
 PCOD9389424
Probable space group: P M M M
;
_chemical_formula_sum "Si O2"
_cell_formula_units_Z 64
_cell_length_a 15.000000
_cell_length_b 9.000000
_cell_length_c 24.000000
_cell_angle_alpha 90.000000
_cell_angle_beta 90.000000
_cell_angle_gamma 90.000000
_cell_volume 3240.000000
_symmetry_space_group_name_H-M "P M M M"
_symmetry_group_IT_number 47
_symmetry_cell_setting 'orthorhombic'
loop_
_space_group_symop_operation_xyz
x,y,z
-x,-y,z
x,-y,-z
-x,y,-z
-x,-y,-z
x,y,-z
-x,y,z
x,-y,z
loop_
_atom_site_type_symbol
_atom_site_label
_atom_site_fract_x
_atom_site_fract_y
_atom_site_fract_z
Si Si1 0.104953 0.675842 0.934871
Si Si2 0.285414 0.677392 0.759653
Si Si3 0.282205 0.821539 0.440259
Si Si4 0.904568 0.676015 0.718950
Si Si5 0.098232 0.325455 0.584930
Si Si6 0.739553 0.829044 0.872191
Si Si7 0.599860 0.334435 0.066261
Si Si8 0.397000 0.820951 0.664337
O O1 0.121321 0.500000 0.926111
O O2 0.166388 0.769352 0.894297
O O3 0.000000 0.702375 0.926292
O O4 0.125156 0.707693 0.000000
O O5 0.286918 0.500000 0.754041
O O6 0.186809 0.736588 0.742853
O O7 0.296725 0.730118 0.821953
O O8 0.357374 0.748168 0.719212
O O9 0.321186 0.776405 0.500000
O O10 0.181676 0.763923 0.436877
O O11 0.338418 0.767226 0.387883
O O12 0.281538 0.000000 0.437910
O O13 0.906003 0.500000 0.732568
O O14 0.900451 0.686473 0.652119
O O15 0.000000 0.739844 0.737756
O O16 0.107351 0.500000 0.571140
O O17 0.000000 0.275653 0.566337
O O18 0.667491 0.794722 0.919312
O O19 0.744340 0.000000 0.856697
O O20 0.500000 0.310943 0.088845
O O21 0.631358 0.500000 0.084398
O O22 0.593758 0.341164 0.000000
O O23 0.500000 0.784418 0.656192
O O24 0.389248 0.000000 0.668106
#
# Coordination Sequence:
#
# PCOD9389424 Si02
#       8
#     8   8   8   8   8   8   8   8
#     4   9  19  38  63  88 117 159 209 253 291 336
#     4  11  22  38  61  84 109 146 191 237 284 338
#     4  10  21  36  56  84 117 150 185 228 278 337
#     4   8  15  30  54  81 105 133 174 222 269 318
#     4   9  17  32  55  82 112 146 184 224 268 321
#     4  12  25  37  54  85 124 158 190 234 289 349
#     4   9  19  38  63  87 111 143 187 238 287 337
#     4  10  22  41  62  82 109 145 186 236 293 349
#
# _framework density 19.753086
#
# number of rings (size 3 to 8) (size 9 to 14) (size 15 to 20)
#    0.000    2.250    1.250    3.375    0.000    4.750 
#    0.000    5.000    0.000    1.125    0.000    1.750 
#    0.000    0.000    0.000    0.000    0.000    0.000 
#
# Total GULP energy -356898.375318 kJ/mol
# GULP energy per Si atom -5576.537114 kJ/mol
# Density = 1.970813 g / cm^3
# Si number density = 19.753086 Si / 1000 Ang^3
#
#
#
# Elastic Constant Matrix: (Units=GPa)
#
#
# Indices 1 2 3 4 5 6 
#
# 1 83.4634 31.7508 40.1696 0.0000 0.0000 0.0000
# 2 31.7508 10.4324 15.7298 0.0000 0.0000 0.0000
# 3 40.1696 15.7298 58.4204 0.0000 0.0000 0.0000
# 4 0.0000 0.0000 0.0000 105.5200 0.0000 0.0000
# 5 0.0000 0.0000 0.0000 0.0000 -43.9492 0.0000
# 6 0.0000 0.0000 0.0000 0.0000 0.0000 3.9955
#
#
#
# Elastic Compliance Matrix: (Units=1/GPa)
#
#
# Indices 1 2 3 4 5 6 
#
# 1 -0.067207 0.227036 -0.014919 0.000000 0.000000 0.000000
# 2 0.227036 -0.605606 0.006951 0.000000 0.000000 0.000000
# 3 -0.014919 0.006951 0.025504 0.000000 0.000000 0.000000
# 4 0.000000 0.000000 0.000000 0.009477 0.000000 0.000000
# 5 0.000000 0.000000 0.000000 0.000000 -0.022754 0.000000
# 6 0.000000 0.000000 0.000000 0.000000 0.000000 0.250283
#
#
# Mechanical properties :
#
#
# Convention : Reuss Voigt Hill
#
# Bulk Modulus (GPa) = -4.78077 36.40185 15.81054
# Shear Modulus (GPa) = -5.44565 17.42433 5.98934
#
# Velocity S-wave (km/s) = -1.66218 2.97325 1.74318
# Velocity P-wave (km/s) = 2.47170 5.50049 3.47463
#
# Compressibility (1/GPa) = -0.20917130
#
# Stress axis : x y z
#
# Youngs Moduli (GPa) = -14.87951 -1.65124 39.20966
#
# Poissons Ratio (x) = 0.37489 0.58497
# Poissons Ratio (y) = 3.37819 -0.27256
# Poissons Ratio (z) = -0.22199 0.01148
#
# Static dielectric constant tensor:
#      x y z
#    x 1.709910 0.000000 0.000000 
#    y 0.000000 1.673860 0.000000 
#    z 0.000000 0.000000 1.732590 
# 
# From -- ./inp_files/12722.got.cif
#   From: 2010.05.17/outbox.ucp.g08.bks.cvg/sg47_7_cif.got.tgz:12722.got - 2010.06.11 16:36:43.
