data_PCOD9389623
_publ_section_title
;
Structure prediction by ZEFSAII (Michael W. Deem and Ramdas Pophale) SiO2 
 PCOD9389623
Probable space group: P N N N
;
_chemical_formula_sum "Si O2"
_cell_formula_units_Z 60
_cell_length_a 9.605149
_cell_length_b 11.688074
_cell_length_c 22.069232
_cell_angle_alpha 90.000000
_cell_angle_beta 90.000000
_cell_angle_gamma 90.000000
_cell_volume 2477.617609
_symmetry_space_group_name_H-M "P N N N"
_symmetry_group_IT_number 48
_space_group.IT_coordinate_system_code '2'
_symmetry_cell_setting 'orthorhombic'
loop_
_space_group_symop_operation_xyz
x,y,z
1/2-x,1/2-y,z
x,1/2-y,1/2-z
1/2-x,y,1/2-z
-x,-y,-z
1/2+x,1/2+y,-z
-x,1/2+y,1/2+z
1/2+x,-y,1/2+z
loop_
_atom_site_type_symbol
_atom_site_label
_atom_site_fract_x
_atom_site_fract_y
_atom_site_fract_z
Si Si1 0.750000 0.750000 0.962995
Si Si2 0.671365 0.103465 0.484145
Si Si3 0.035797 0.400407 0.586669
Si Si4 0.960253 0.180592 0.457071
Si Si5 0.830440 0.923660 0.859099
Si Si6 0.750601 0.580508 0.320232
Si Si7 0.520431 0.520857 0.657805
Si Si8 0.931756 0.367142 0.281525
O O1 0.606693 0.795918 0.991613
O O2 0.799964 0.852335 0.919543
O O3 0.586260 0.145850 0.543049
O O4 0.836222 0.114519 0.491598
O O5 0.611391 0.198884 0.438097
O O6 0.625838 0.980498 0.459629
O O7 0.146137 0.352248 0.634436
O O8 0.940578 0.478705 0.628869
O O9 0.990927 0.110079 0.396374
O O10 0.687293 0.983940 0.840476
O O11 0.921856 0.841773 0.816237
O O12 0.750000 0.618847 0.250000
O O13 0.596984 0.576697 0.349968
O O14 0.815632 0.447400 0.315613
O O15 0.480026 0.557517 0.725038
O O16 0.886073 0.250000 0.250000
#
# Coordination Sequence:
#
# PCOD9389623 Si02
#       8
#     4   8   8   8   8   8   8   8
#     4  10  18  30  45  66  96 130 169 226 268 300
#     4  10  20  32  52  65  93 133 180 214 255 310
#     4  10  19  35  47  69  94 134 176 211 259 319
#     4  10  19  32  49  69  90 131 175 221 258 303
#     4  10  19  30  44  62  97 133 172 209 256 303
#     4   9  19  32  46  69  96 131 170 221 260 313
#     4  10  19  28  43  67  95 128 172 211 256 296
#     4  10  19  27  41  63  93 132 171 213 245 293
#
# _framework density 24.216812999999998
#
# number of rings (size 3 to 8) (size 9 to 14) (size 15 to 20)
#    0.000    2.133    2.667    2.000    1.867    2.933 
#    0.000    4.000    0.000    0.000    0.000    0.000 
#    0.000    0.000    0.000  130.200    6.667    3.200 
#
# Total GULP energy -334166.663454 kJ/mol
# GULP energy per Si atom -5569.444391 kJ/mol
# Density = 2.416169 g / cm^3
# Si number density = 24.216813 Si / 1000 Ang^3
#
#
#
# Elastic Constant Matrix: (Units=GPa)
#
#
# Indices 1 2 3 4 5 6 
#
# 1 249.6117 21.0026 49.8230 0.0000 0.0000 0.0000
# 2 21.0026 35.4752 -4.3010 0.0000 0.0000 0.0000
# 3 49.8230 -4.3010 73.6014 0.0000 0.0000 0.0000
# 4 0.0000 0.0000 0.0000 -4.1975 0.0000 0.0000
# 5 0.0000 0.0000 0.0000 0.0000 48.0434 0.0000
# 6 0.0000 0.0000 0.0000 0.0000 0.0000 13.0433
#
#
#
# Elastic Compliance Matrix: (Units=1/GPa)
#
#
# Indices 1 2 3 4 5 6 
#
# 1 0.005009 -0.003401 -0.003589 0.000000 0.000000 0.000000
# 2 -0.003401 0.030699 0.004096 0.000000 0.000000 0.000000
# 3 -0.003589 0.004096 0.016256 0.000000 0.000000 0.000000
# 4 0.000000 0.000000 0.000000 -0.238239 0.000000 0.000000
# 5 0.000000 0.000000 0.000000 0.000000 0.020815 0.000000
# 6 0.000000 0.000000 0.000000 0.000000 0.000000 0.076667
#
#
# Mechanical properties :
#
#
# Convention : Reuss Voigt Hill
#
# Bulk Modulus (GPa) = 21.65672 54.63749 38.14711
# Shear Modulus (GPa) = -73.94883 30.85543 -21.54670
#
# Velocity S-wave (km/s) = -5.53195 3.57337 -2.98609
# Velocity P-wave (km/s) = 5.64278 6.29572 1.97422
#
# Compressibility (1/GPa) = 0.04617504
#
# Stress axis : x y z
#
# Youngs Moduli (GPa) = 199.64933 32.57486 61.51665
#
# Poissons Ratio (x) = 0.11077 0.22080
# Poissons Ratio (y) = 0.67892 -0.25196
# Poissons Ratio (z) = 0.71660 -0.13342
#
# Static dielectric constant tensor:
#      x y z
#    x 2.011480 0.000000 0.000000 
#    y 0.000000 2.063970 0.000000 
#    z 0.000000 0.000000 2.055170 
# 
# From -- ./inp_files/36041.got.cif
#   From: 2010.05.17/outbox.cif.g08.bks.cpg/sg48_19_cif.got.tgz:36041.got - 2010.06.03 20:39:00.
