data_PCOD9389903
_publ_section_title
;
Structure prediction by ZEFSAII (Michael W. Deem and Ramdas Pophale) SiO2 
 PCOD9389903
Probable space group: P N N N
;
_chemical_formula_sum "Si O2"
_cell_formula_units_Z 58
_cell_length_a 22.478003
_cell_length_b 8.924511
_cell_length_c 13.538924
_cell_angle_alpha 90.000000
_cell_angle_beta 90.000000
_cell_angle_gamma 90.000000
_cell_volume 2715.978354
_symmetry_space_group_name_H-M "P N N N"
_symmetry_group_IT_number 48
_space_group.IT_coordinate_system_code '2'
_symmetry_cell_setting 'orthorhombic'
loop_
_space_group_symop_operation_xyz
x,y,z
1/2-x,1/2-y,z
x,1/2-y,1/2-z
1/2-x,y,1/2-z
-x,-y,-z
1/2+x,1/2+y,-z
-x,1/2+y,1/2+z
1/2+x,-y,1/2+z
loop_
_atom_site_type_symbol
_atom_site_label
_atom_site_fract_x
_atom_site_fract_y
_atom_site_fract_z
Si Si1 0.444938 0.925126 0.744891
Si Si2 0.849528 0.576907 0.137818
Si Si3 0.250000 0.250000 0.750000
Si Si4 0.842896 0.080272 0.718272
Si Si5 0.560298 0.660819 0.070443
Si Si6 0.784971 0.552181 0.945767
Si Si7 0.032181 0.856660 0.347478
Si Si8 0.841731 0.875156 0.912016
O O1 0.456647 0.750000 0.750000
O O2 0.380369 0.961651 0.789471
O O3 0.448341 0.015618 0.640735
O O4 0.490046 0.005763 0.820195
O O5 0.791526 0.648944 0.183585
O O6 0.895022 0.716907 0.121096
O O7 0.826902 0.507468 0.035775
O O8 0.839931 0.250000 0.750000
O O9 0.901842 0.078096 0.648184
O O10 0.787269 0.050110 0.649303
O O11 0.848372 0.965056 0.809612
O O12 0.497972 0.753479 0.067910
O O13 0.596065 0.621057 0.971027
O O14 0.816590 0.705197 0.903923
O O15 0.715381 0.562084 0.973443
O O16 0.030548 0.750000 0.250000
#
# Coordination Sequence:
#
# PCOD9389903 Si02
#       8
#     8   8   2   8   8   8   8   8
#     4  10  19  33  54  86 122 148 186 252 316 357
#     4  10  19  33  59  84 114 155 198 244 293 367
#     4  12  16  32  66  84 110 164 214 228 306 372
#     4  11  23  40  59  84 122 163 200 248 312 366
#     4   9  17  38  60  86 114 154 207 254 297 365
#     4  10  22  38  58  88 119 152 211 253 293 361
#     4   8  18  38  60  80 111 158 206 248 297 366
#     4  10  21  38  62  85 113 158 208 253 298 359
#
# _framework density 21.355103
#
# number of rings (size 3 to 8) (size 9 to 14) (size 15 to 20)
#    0.000    2.207    1.379    3.310    0.000    4.414 
#    0.000   14.138    0.000    1.655    0.000    0.000 
#    0.000    0.000    0.000    0.000    0.000    0.000 
#
# Total GULP energy -323311.181888 kJ/mol
# GULP energy per Si atom -5574.330722 kJ/mol
# Density = 2.130650 g / cm^3
# Si number density = 21.355103 Si / 1000 Ang^3
#
#
#
# Elastic Constant Matrix: (Units=GPa)
#
#
# Indices 1 2 3 4 5 6 
#
# 1 61.2395 16.2388 12.4735 0.0000 0.0000 0.0000
# 2 16.2388 59.9056 14.6938 0.0000 0.0000 0.0000
# 3 12.4735 14.6938 58.2115 0.0000 0.0000 0.0000
# 4 0.0000 0.0000 0.0000 14.2600 0.0000 0.0000
# 5 0.0000 0.0000 0.0000 0.0000 19.4782 0.0000
# 6 0.0000 0.0000 0.0000 0.0000 0.0000 8.9568
#
#
#
# Elastic Compliance Matrix: (Units=1/GPa)
#
#
# Indices 1 2 3 4 5 6 
#
# 1 0.018012 -0.004196 -0.002801 0.000000 0.000000 0.000000
# 2 -0.004196 0.018772 -0.003839 0.000000 0.000000 0.000000
# 3 -0.002801 -0.003839 0.018748 0.000000 0.000000 0.000000
# 4 0.000000 0.000000 0.000000 0.070126 0.000000 0.000000
# 5 0.000000 0.000000 0.000000 0.000000 0.051340 0.000000
# 6 0.000000 0.000000 0.000000 0.000000 0.000000 0.111647
#
#
# Mechanical properties :
#
#
# Convention : Reuss Voigt Hill
#
# Bulk Modulus (GPa) = 29.53255 29.57431 29.55343
# Shear Modulus (GPa) = 15.54709 17.60236 16.57473
#
# Velocity S-wave (km/s) = 2.70112 2.87412 2.78897
# Velocity P-wave (km/s) = 4.85669 4.98929 4.92343
#
# Compressibility (1/GPa) = 0.03386094
#
# Stress axis : x y z
#
# Youngs Moduli (GPa) = 55.51749 53.27078 53.33913
#
# Poissons Ratio (x) = 0.22351 0.14938
# Poissons Ratio (y) = 0.23294 0.20479
# Poissons Ratio (z) = 0.15548 0.20453
#
# Static dielectric constant tensor:
#      x y z
#    x 1.801280 0.000000 0.000000 
#    y 0.000000 1.803790 0.000000 
#    z 0.000000 0.000000 1.802950 
# 
# From -- ./inp_files/28617.got.cif
#   From: 2010.05.17/outbox.cif.g08.bks.cpg/sg48_15_cif.got.tgz:28617.got - 2010.06.03 20:39:00.
