data_PCOD9389518
_publ_section_title
;
Structure prediction by ZEFSAII (Michael W. Deem and Ramdas Pophale) SiO2 
 PCOD9389518
Probable space group: P N N N
;
_chemical_formula_sum "Si O2"
_cell_formula_units_Z 38
_cell_length_a 8.853056
_cell_length_b 24.174818
_cell_length_c 8.446978
_cell_angle_alpha 90.000000
_cell_angle_beta 90.000000
_cell_angle_gamma 90.000000
_cell_volume 1807.830827
_symmetry_space_group_name_H-M "P N N N"
_symmetry_group_IT_number 48
_space_group.IT_coordinate_system_code '2'
_symmetry_cell_setting 'orthorhombic'
loop_
_space_group_symop_operation_xyz
x,y,z
1/2-x,1/2-y,z
x,1/2-y,1/2-z
1/2-x,y,1/2-z
-x,-y,-z
1/2+x,1/2+y,-z
-x,1/2+y,1/2+z
1/2+x,-y,1/2+z
loop_
_atom_site_type_symbol
_atom_site_label
_atom_site_fract_x
_atom_site_fract_y
_atom_site_fract_z
Si Si1 0.498469 0.168338 0.805737
Si Si2 0.319125 0.021251 0.415084
Si Si3 0.750000 0.577894 0.250000
Si Si4 0.750000 0.750000 0.250000
Si Si5 0.853136 0.074232 0.101688
Si Si6 0.787179 0.187993 0.991634
O O1 0.403794 0.114364 0.758088
O O2 0.363740 0.211096 0.847243
O O3 0.624519 0.163097 0.939866
O O4 0.598300 0.191137 0.658150
O O5 0.250000 0.039051 0.250000
O O6 0.259281 0.047233 0.580223
O O7 0.489172 0.042568 0.390112
O O8 0.292342 0.955434 0.442175
O O9 0.750000 0.060289 0.250000
O O10 0.862885 0.140381 0.096207
O O11 0.750000 0.250000 0.048595
#
# Coordination Sequence:
#
# PCOD9389518 Si02
#       6
#     8   8   4   2   8   8
#     4  10  20  34  64  95 135 170 229 280 337 397
#     4  11  26  46  70 102 137 178 227 286 350 406
#     4  11  22  43  68 104 133 172 227 286 336 412
#     4  10  16  34  56  96 130 174 222 294 322 402
#     4  11  26  45  66  98 138 178 230 282 344 418
#     4  11  21  39  62  97 133 181 228 278 332 414
#
# _framework density 21.019665
#
# number of rings (size 3 to 8) (size 9 to 14) (size 15 to 20)
#    0.000    1.263    5.263    0.632    5.895    1.263 
#    0.000    0.000    0.000    0.000    0.000    0.000 
#    0.000    0.000    0.000    0.000    0.000    0.000 
#
# Total GULP energy -211617.066532 kJ/mol
# GULP energy per Si atom -5568.870172 kJ/mol
# Density = 2.097182 g / cm^3
# Si number density = 21.019665 Si / 1000 Ang^3
#
#
#
# Elastic Constant Matrix: (Units=GPa)
#
#
# Indices 1 2 3 4 5 6 
#
# 1 101.9187 36.2813 33.0470 0.0000 0.0000 0.0000
# 2 36.2813 129.3714 33.4475 0.0000 0.0000 0.0000
# 3 33.0470 33.4475 97.5019 0.0000 0.0000 0.0000
# 4 0.0000 0.0000 0.0000 22.5260 0.0000 0.0000
# 5 0.0000 0.0000 0.0000 0.0000 18.5709 0.0000
# 6 0.0000 0.0000 0.0000 0.0000 0.0000 30.2842
#
#
#
# Elastic Compliance Matrix: (Units=1/GPa)
#
#
# Indices 1 2 3 4 5 6 
#
# 1 0.011704 -0.002476 -0.003117 0.000000 0.000000 0.000000
# 2 -0.002476 0.009006 -0.002250 0.000000 0.000000 0.000000
# 3 -0.003117 -0.002250 0.012085 0.000000 0.000000 0.000000
# 4 0.000000 0.000000 0.000000 0.044393 0.000000 0.000000
# 5 0.000000 0.000000 0.000000 0.000000 0.053848 0.000000
# 6 0.000000 0.000000 0.000000 0.000000 0.000000 0.033021
#
#
# Mechanical properties :
#
#
# Convention : Reuss Voigt Hill
#
# Bulk Modulus (GPa) = 58.45591 59.37151 58.91371
# Shear Modulus (GPa) = 26.96202 29.34398 28.15300
#
# Velocity S-wave (km/s) = 3.58537 3.74040 3.66370
# Velocity P-wave (km/s) = 6.70897 6.85282 6.78128
#
# Compressibility (1/GPa) = 0.01710691
#
# Stress axis : x y z
#
# Youngs Moduli (GPa) = 85.44005 111.03841 82.74913
#
# Poissons Ratio (x) = 0.27497 0.25797
# Poissons Ratio (y) = 0.21158 0.18619
# Poissons Ratio (z) = 0.26636 0.24985
#
# Static dielectric constant tensor:
#      x y z
#    x 1.788970 0.000000 0.000000 
#    y 0.000000 1.839690 0.000000 
#    z 0.000000 0.000000 1.853980 
# 
# From -- ./inp_files/9057.got.cif
#   From: 2010.05.17/outbox.cif.g08.bks.cpg/sg48_5_cif.got.tgz:9057.got - 2010.06.03 20:39:00.
