data_PCOD9389076
_publ_section_title
;
Structure prediction by ZEFSAII (Michael W. Deem and Ramdas Pophale) SiO2 
 PCOD9389076
Probable space group: P M M M
;
_chemical_formula_sum "Si O2"
_cell_formula_units_Z 44
_cell_length_a 7.532657
_cell_length_b 31.389246
_cell_length_c 10.098006
_cell_angle_alpha 90.000000
_cell_angle_beta 90.000000
_cell_angle_gamma 90.000000
_cell_volume 2387.617208
_symmetry_space_group_name_H-M "P M M M"
_symmetry_group_IT_number 47
_symmetry_cell_setting 'orthorhombic'
loop_
_space_group_symop_operation_xyz
x,y,z
-x,-y,z
x,-y,-z
-x,y,-z
-x,-y,-z
x,y,-z
-x,y,z
x,-y,z
loop_
_atom_site_type_symbol
_atom_site_label
_atom_site_fract_x
_atom_site_fract_y
_atom_site_fract_z
Si Si1 0.287070 0.379017 0.849415
Si Si2 0.797311 0.114418 0.661191
Si Si3 0.787271 0.717370 0.849238
Si Si4 0.500000 0.951199 0.338316
Si Si5 0.716743 0.548135 0.348005
Si Si6 0.217114 0.790605 0.347782
O O1 0.500000 0.383433 0.854984
O O2 0.249580 0.330857 0.804071
O O3 0.220106 0.415434 0.751254
O O4 0.218777 0.383359 0.000000
O O5 0.799142 0.114762 0.500000
O O6 0.670497 0.076294 0.703477
O O7 0.731795 0.161802 0.697674
O O8 0.000000 0.108764 0.705757
O O9 0.721224 0.753405 0.749301
O O10 0.000000 0.722024 0.854907
O O11 0.718835 0.721760 0.000000
O O12 0.500000 0.951941 0.500000
O O13 0.500000 0.000000 0.293485
O O14 0.770942 0.555852 0.500000
O O15 0.500000 0.548687 0.346973
O O16 0.770171 0.500000 0.310596
O O17 0.273887 0.784009 0.500000
O O18 0.000000 0.790758 0.349210
#
# Coordination Sequence:
#
# PCOD9389076 Si02
#       6
#     8   8   8   4   8   8
#     4   9  17  28  41  59  83 106 130 166 209 250
#     4   8  14  25  39  55  80 113 146 183 224 264
#     4   9  17  29  44  61  83 111 140 171 209 253
#     4   9  16  24  36  58  87 117 149 183 222 271
#     4   8  14  25  41  60  81 105 134 170 209 246
#     4   8  14  26  43  60  80 109 142 173 208 252
#
# _framework density 18.428415999999999
#
# number of rings (size 3 to 8) (size 9 to 14) (size 15 to 20)
#    0.000    3.545    0.000    1.636    0.000    1.455 
#    1.636    3.636    0.000    0.545    0.000    3.818 
#    0.000    1.455    0.000    7.091    0.000    7.273 
#
# Total GULP energy -245142.718006 kJ/mol
# GULP energy per Si atom -5571.425409 kJ/mol
# Density = 1.838647 g / cm^3
# Si number density = 18.428416 Si / 1000 Ang^3
#
#
#
# Elastic Constant Matrix: (Units=GPa)
#
#
# Indices 1 2 3 4 5 6 
#
# 1 56.7060 38.0767 17.3458 0.0000 0.0000 0.0000
# 2 38.0767 218.0019 91.4301 0.0000 0.0000 0.0000
# 3 17.3458 91.4301 54.4065 0.0000 0.0000 0.0000
# 4 0.0000 0.0000 0.0000 -9.7993 0.0000 0.0000
# 5 0.0000 0.0000 0.0000 0.0000 2.0571 0.0000
# 6 0.0000 0.0000 0.0000 0.0000 0.0000 23.3387
#
#
#
# Elastic Compliance Matrix: (Units=1/GPa)
#
#
# Indices 1 2 3 4 5 6 
#
# 1 0.020025 -0.002778 -0.001716 0.000000 0.000000 0.000000
# 2 -0.002778 0.015924 -0.025875 0.000000 0.000000 0.000000
# 3 -0.001716 -0.025875 0.062411 0.000000 0.000000 0.000000
# 4 0.000000 0.000000 0.000000 -0.102048 0.000000 0.000000
# 5 0.000000 0.000000 0.000000 0.000000 0.486110 0.000000
# 6 0.000000 0.000000 0.000000 0.000000 0.000000 0.042847
#
#
# Mechanical properties :
#
#
# Convention : Reuss Voigt Hill
#
# Bulk Modulus (GPa) = 26.58056 69.20217 47.89137
# Shear Modulus (GPa) = 8.35354 15.27008 11.81181
#
# Velocity S-wave (km/s) = 2.13139 2.88169 2.53446
# Velocity P-wave (km/s) = 4.52902 6.97894 5.88293
#
# Compressibility (1/GPa) = 0.03762148
#
# Stress axis : x y z
#
# Youngs Moduli (GPa) = 49.93743 62.79660 16.02288
#
# Poissons Ratio (x) = 0.17444 0.02750
# Poissons Ratio (y) = 0.13872 0.41460
# Poissons Ratio (z) = 0.08570 1.62488
#
# Static dielectric constant tensor:
#      x y z
#    x 1.704810 0.000000 0.000000 
#    y 0.000000 1.622160 0.000000 
#    z 0.000000 0.000000 1.616390 
# 
# From -- ./inp_files/2095.got.cif
#   From: 2010.05.17/outbox.cif.g08.bks.cpg/sg47_2_cif.got.tgz:2095.got - 2010.06.03 20:15:42.
