data_PCOD9389022
_publ_section_title
;
Structure prediction by ZEFSAII (Michael W. Deem and Ramdas Pophale) SiO2 
 PCOD9389022
Probable space group: P M M M
;
_chemical_formula_sum "Si O2"
_cell_formula_units_Z 52
_cell_length_a 19.275895
_cell_length_b 19.718906
_cell_length_c 7.559321
_cell_angle_alpha 90.000000
_cell_angle_beta 90.000000
_cell_angle_gamma 90.000000
_cell_volume 2873.294598
_symmetry_space_group_name_H-M "P M M M"
_symmetry_group_IT_number 47
_symmetry_cell_setting 'orthorhombic'
loop_
_space_group_symop_operation_xyz
x,y,z
-x,-y,z
x,-y,-z
-x,y,-z
-x,-y,-z
x,y,-z
-x,y,z
x,-y,z
loop_
_atom_site_type_symbol
_atom_site_label
_atom_site_fract_x
_atom_site_fract_y
_atom_site_fract_z
Si Si1 0.000000 0.082208 0.800840
Si Si2 0.844729 0.076315 0.708397
Si Si3 0.850498 0.575926 0.788331
Si Si4 0.711431 0.341630 0.286800
Si Si5 0.215303 0.789981 0.706099
Si Si6 0.578344 0.578074 0.284127
Si Si7 0.077035 0.710027 0.785053
O O1 0.925359 0.099216 0.721793
O O2 0.000000 0.000000 0.801385
O O3 0.000000 0.108857 0.000000
O O4 0.829954 0.071659 0.500000
O O5 0.795856 0.135213 0.784768
O O6 0.838561 0.000000 0.783561
O O7 0.858084 0.500000 0.716514
O O8 0.774418 0.606840 0.752218
O O9 0.905015 0.632967 0.728443
O O10 0.858040 0.572078 0.000000
O O11 0.707558 0.336620 0.500000
O O12 0.733538 0.267299 0.217554
O O13 0.639211 0.372608 0.222166
O O14 0.234166 0.798439 0.500000
O O15 0.139466 0.755428 0.715275
O O16 0.579063 0.578862 0.500000
O O17 0.500000 0.595975 0.229035
O O18 0.592052 0.500000 0.231587
O O19 0.000000 0.730480 0.729560
O O20 0.079859 0.712826 0.000000
#
# Coordination Sequence:
#
# PCOD9389022 Si02
#       7
#     4   8   8   8   8   8   8
#     4   9  17  27  39  57  77  95 120 157 198 235
#     4   9  17  29  42  55  74 100 128 157 193 237
#     4   9  17  28  41  56  74  98 128 160 193 228
#     4   9  16  27  42  59  79 101 127 158 190 226
#     4   9  18  29  41  57  75  98 127 159 194 231
#     4   8  13  21  36  60  85 105 125 151 185 224
#     4   9  18  30  41  54  72  96 127 161 197 233
#
# _framework density 18.097693
#
# number of rings (size 3 to 8) (size 9 to 14) (size 15 to 20)
#    0.000    3.154    0.000    1.154    1.077    3.077 
#    0.000    1.538    0.000    0.462    0.000    6.462 
#    0.000    0.615    0.000    8.615    0.000    0.000 
#
# Total GULP energy -289753.975068 kJ/mol
# GULP energy per Si atom -5572.191828 kJ/mol
# Density = 1.805650 g / cm^3
# Si number density = 18.097693 Si / 1000 Ang^3
#
#
#
# Elastic Constant Matrix: (Units=GPa)
#
#
# Indices 1 2 3 4 5 6 
#
# 1 76.8175 30.4370 -5.3678 0.0000 0.0000 0.0000
# 2 30.4370 107.8811 0.8318 0.0000 0.0000 0.0000
# 3 -5.3678 0.8318 42.0661 0.0000 0.0000 0.0000
# 4 0.0000 0.0000 0.0000 12.6005 0.0000 0.0000
# 5 0.0000 0.0000 0.0000 0.0000 5.7204 0.0000
# 6 0.0000 0.0000 0.0000 0.0000 0.0000 10.5251
#
#
#
# Elastic Compliance Matrix: (Units=1/GPa)
#
#
# Indices 1 2 3 4 5 6 
#
# 1 0.014818 -0.004196 0.001974 0.000000 0.000000 0.000000
# 2 -0.004196 0.010459 -0.000742 0.000000 0.000000 0.000000
# 3 0.001974 -0.000742 0.024039 0.000000 0.000000 0.000000
# 4 0.000000 0.000000 0.000000 0.079362 0.000000 0.000000
# 5 0.000000 0.000000 0.000000 0.000000 0.174812 0.000000
# 6 0.000000 0.000000 0.000000 0.000000 0.000000 0.095011
#
#
# Mechanical properties :
#
#
# Convention : Reuss Voigt Hill
#
# Bulk Modulus (GPa) = 23.04824 30.95186 27.00005
# Shear Modulus (GPa) = 11.93624 19.16012 15.54818
#
# Velocity S-wave (km/s) = 2.57095 3.25730 2.93426
# Velocity P-wave (km/s) = 4.64501 5.59343 5.14114
#
# Compressibility (1/GPa) = 0.04338726
#
# Stress axis : x y z
#
# Youngs Moduli (GPa) = 67.48391 95.61130 41.59968
#
# Poissons Ratio (x) = 0.40118 -0.08211
# Poissons Ratio (y) = 0.28316 0.03088
# Poissons Ratio (z) = -0.13320 0.07097
#
# Static dielectric constant tensor:
#      x y z
#    x 1.593960 0.000000 0.000000 
#    y 0.000000 1.685140 0.000000 
#    z 0.000000 0.000000 1.677770 
# 
# From -- ./inp_files/9835.got.cif
#   From: 2010.05.17/outbox.cif.g08.bks.cpg/sg47_5_cif.got.tgz:9835.got - 2010.06.03 20:15:42.
