data_PCOD9389503
_publ_section_title
;
Structure prediction by ZEFSAII (Michael W. Deem and Ramdas Pophale) SiO2 
 PCOD9389503
Probable space group: P N N N
;
_chemical_formula_sum "Si O2"
_cell_formula_units_Z 58
_cell_length_a 11.312775
_cell_length_b 17.662923
_cell_length_c 14.940104
_cell_angle_alpha 90.000000
_cell_angle_beta 90.000000
_cell_angle_gamma 90.000000
_cell_volume 2985.281887
_symmetry_space_group_name_H-M "P N N N"
_symmetry_group_IT_number 48
_space_group.IT_coordinate_system_code '2'
_symmetry_cell_setting 'orthorhombic'
loop_
_space_group_symop_operation_xyz
x,y,z
1/2-x,1/2-y,z
x,1/2-y,1/2-z
1/2-x,y,1/2-z
-x,-y,-z
1/2+x,1/2+y,-z
-x,1/2+y,1/2+z
1/2+x,-y,1/2+z
loop_
_atom_site_type_symbol
_atom_site_label
_atom_site_fract_x
_atom_site_fract_y
_atom_site_fract_z
Si Si1 0.814694 0.642891 0.659836
Si Si2 0.657422 0.426029 0.997527
Si Si3 0.817968 0.556736 0.983163
Si Si4 0.125888 0.968623 0.200193
Si Si5 0.442961 0.804868 0.609554
Si Si6 0.152953 0.694221 0.041158
Si Si7 0.020042 0.565355 0.125841
Si Si8 0.250000 0.750000 0.750000
O O1 0.750000 0.665285 0.750000
O O2 0.726237 0.627329 0.576144
O O3 0.863315 0.557824 0.680844
O O4 0.923489 0.698441 0.642523
O O5 0.702715 0.510127 0.014425
O O6 0.618416 0.425692 0.893990
O O7 0.771275 0.371111 0.007955
O O8 0.566309 0.387413 0.063173
O O9 0.894075 0.499959 0.917854
O O10 0.901175 0.567691 0.068284
O O11 0.250000 0.947220 0.250000
O O12 0.021378 0.952463 0.269578
O O13 0.416235 0.742533 0.533021
O O14 0.341486 0.795054 0.685160
O O15 0.250000 0.750000 0.082820
O O16 0.076119 0.647903 0.110322
#
# Coordination Sequence:
#
# PCOD9389503 Si02
#       8
#     8   8   8   8   8   8   8   2
#     4  10  20  38  55  87 120 149 203 248 305 365
#     4   9  17  35  56  78 115 148 195 244 298 347
#     4   9  18  30  56  85 112 155 195 244 309 348
#     4  10  16  31  54  88 116 141 191 261 295 346
#     4  11  23  38  57  77 121 164 192 251 295 370
#     4   9  17  34  51  76 111 149 196 228 288 354
#     4  10  17  31  56  82 116 156 190 260 290 351
#     4  12  24  40  54  80 110 160 212 238 298 356
#
# _framework density 19.428650000000001
#
# number of rings (size 3 to 8) (size 9 to 14) (size 15 to 20)
#    0.000    2.207    7.586    0.000    0.000    4.414 
#    0.000    7.241    0.000    2.483    0.000    0.000 
#    0.000   11.034    0.000    0.000    0.000    0.000 
#
# Total GULP energy -323165.566874 kJ/mol
# GULP energy per Si atom -5571.820119 kJ/mol
# Density = 1.938443 g / cm^3
# Si number density = 19.428650 Si / 1000 Ang^3
#
#
#
# Elastic Constant Matrix: (Units=GPa)
#
#
# Indices 1 2 3 4 5 6 
#
# 1 76.2056 24.5706 55.8287 0.0000 0.0000 0.0000
# 2 24.5706 50.7864 30.3237 0.0000 0.0000 0.0000
# 3 55.8287 30.3237 113.3005 0.0000 0.0000 0.0000
# 4 0.0000 0.0000 0.0000 21.1521 0.0000 0.0000
# 5 0.0000 0.0000 0.0000 0.0000 35.3914 0.0000
# 6 0.0000 0.0000 0.0000 0.0000 0.0000 19.8485
#
#
#
# Elastic Compliance Matrix: (Units=1/GPa)
#
#
# Indices 1 2 3 4 5 6 
#
# 1 0.021495 -0.004850 -0.009293 0.000000 0.000000 0.000000
# 2 -0.004850 0.024530 -0.004175 0.000000 0.000000 0.000000
# 3 -0.009293 -0.004175 0.014523 0.000000 0.000000 0.000000
# 4 0.000000 0.000000 0.000000 0.047277 0.000000 0.000000
# 5 0.000000 0.000000 0.000000 0.000000 0.028255 0.000000
# 6 0.000000 0.000000 0.000000 0.000000 0.000000 0.050382
#
#
# Mechanical properties :
#
#
# Convention : Reuss Voigt Hill
#
# Bulk Modulus (GPa) = 41.82406 51.30426 46.56416
# Shear Modulus (GPa) = 21.63863 23.91637 22.77750
#
# Velocity S-wave (km/s) = 3.34091 3.51235 3.42770
# Velocity P-wave (km/s) = 6.03788 6.55077 6.29955
#
# Compressibility (1/GPa) = 0.02390968
#
# Stress axis : x y z
#
# Youngs Moduli (GPa) = 46.52334 40.76669 68.85724
#
# Poissons Ratio (x) = 0.19773 0.63991
# Poissons Ratio (y) = 0.22565 0.28749
# Poissons Ratio (z) = 0.43236 0.17021
#
# Static dielectric constant tensor:
#      x y z
#    x 1.741650 0.000000 0.000000 
#    y 0.000000 1.710820 0.000000 
#    z 0.000000 0.000000 1.691640 
# 
# From -- ./inp_files/26683.got.cif
#   From: 2010.05.17/outbox.cif.g08.bks.cpg/sg48_14_cif.got.tgz:26683.got - 2010.06.03 20:39:00.
