data_PCOD9389456
_publ_section_title
;
Structure prediction by ZEFSAII (Michael W. Deem and Ramdas Pophale) SiO2 
 PCOD9389456
Probable space group: P M M M
;
_chemical_formula_sum "Si O2"
_cell_formula_units_Z 64
_cell_length_a 15.000000
_cell_length_b 9.000000
_cell_length_c 24.000000
_cell_angle_alpha 90.000000
_cell_angle_beta 90.000000
_cell_angle_gamma 90.000000
_cell_volume 3240.000000
_symmetry_space_group_name_H-M "P M M M"
_symmetry_group_IT_number 47
_symmetry_cell_setting 'orthorhombic'
loop_
_space_group_symop_operation_xyz
x,y,z
-x,-y,z
x,-y,-z
-x,y,-z
-x,-y,-z
x,y,-z
-x,y,z
x,-y,z
loop_
_atom_site_type_symbol
_atom_site_label
_atom_site_fract_x
_atom_site_fract_y
_atom_site_fract_z
Si Si1 0.096491 0.825308 0.432230
Si Si2 0.098732 0.828770 0.233307
Si Si3 0.597985 0.680792 0.345401
Si Si4 0.719545 0.332341 0.934318
Si Si5 0.279212 0.676247 0.755779
Si Si6 0.900828 0.827757 0.901581
Si Si7 0.602120 0.177254 0.149654
Si Si8 0.273592 0.678514 0.563370
O O1 0.095628 0.810165 0.500000
O O2 0.182329 0.739823 0.411061
O O3 0.000000 0.771529 0.412067
O O4 0.103911 0.000000 0.420214
O O5 0.178121 0.725059 0.251506
O O6 0.099159 0.826226 0.165747
O O7 0.000000 0.784800 0.252111
O O8 0.114392 0.000000 0.250119
O O9 0.500000 0.738856 0.335236
O O10 0.594318 0.500000 0.345315
O O11 0.665175 0.724245 0.297643
O O12 0.640202 0.727610 0.403331
O O13 0.713635 0.500000 0.911339
O O14 0.817090 0.266406 0.921239
O O15 0.641686 0.233161 0.908445
O O16 0.709567 0.337299 0.000000
O O17 0.285416 0.500000 0.762741
O O18 0.327591 0.755752 0.806942
O O19 0.000000 0.777389 0.919861
O O20 0.889980 0.000000 0.918961
O O21 0.500000 0.227360 0.159327
O O22 0.604080 0.000000 0.152824
O O23 0.279410 0.728995 0.500000
O O24 0.269252 0.500000 0.564181
#
# Coordination Sequence:
#
# PCOD9389456 Si02
#       8
#     8   8   8   8   8   8   8   8
#     4   8  14  26  45  69  99 136 174 211 257 314
#     4   9  18  34  57  84 114 146 179 218 266 322
#     4   9  19  35  53  77 110 143 176 221 276 327
#     4  11  24  39  56  83 117 149 183 227 276 325
#     4  11  21  35  59  86 111 141 178 223 275 329
#     4   9  18  34  57  83 112 149 188 224 267 321
#     4  11  24  41  61  83 107 140 184 231 278 329
#     4   9  17  30  51  78 105 138 182 226 266 312
#
# _framework density 19.753086
#
# number of rings (size 3 to 8) (size 9 to 14) (size 15 to 20)
#    0.000    2.375    1.250    2.625    0.000    4.000 
#    0.000    8.125    0.000    5.625    0.000    1.750 
#    0.000    0.000    0.000    0.000    0.000    0.000 
#
# Total GULP energy -356847.067290 kJ/mol
# GULP energy per Si atom -5575.735426 kJ/mol
# Density = 1.970813 g / cm^3
# Si number density = 19.753086 Si / 1000 Ang^3
#
#
#
# Elastic Constant Matrix: (Units=GPa)
#
#
# Indices 1 2 3 4 5 6 
#
# 1 115.0842 42.2304 36.1589 0.0000 0.0000 0.0000
# 2 42.2304 33.2027 15.4433 0.0000 0.0000 0.0000
# 3 36.1589 15.4433 35.6468 0.0000 0.0000 0.0000
# 4 0.0000 0.0000 0.0000 -150.6871 0.0000 0.0000
# 5 0.0000 0.0000 0.0000 0.0000 24.5223 0.0000
# 6 0.0000 0.0000 0.0000 0.0000 0.0000 -11.7396
#
#
#
# Elastic Compliance Matrix: (Units=1/GPa)
#
#
# Indices 1 2 3 4 5 6 
#
# 1 0.019310 -0.019348 -0.011205 0.000000 0.000000 0.000000
# 2 -0.019348 0.057105 -0.005114 0.000000 0.000000 0.000000
# 3 -0.011205 -0.005114 0.041634 0.000000 0.000000 0.000000
# 4 0.000000 0.000000 0.000000 -0.006636 0.000000 0.000000
# 5 0.000000 0.000000 0.000000 0.000000 0.040779 0.000000
# 6 0.000000 0.000000 0.000000 0.000000 0.000000 -0.085182
#
#
# Mechanical properties :
#
#
# Convention : Reuss Voigt Hill
#
# Bulk Modulus (GPa) = 21.40598 41.28876 31.34737
# Shear Modulus (GPa) = 32.48532 -21.57413 5.45560
#
# Velocity S-wave (km/s) = 4.05973 -3.30842 1.66370
# Velocity P-wave (km/s) = 5.73023 2.52065 4.42658
#
# Compressibility (1/GPa) = 0.04671592
#
# Stress axis : x y z
#
# Youngs Moduli (GPa) = 51.78752 17.51148 24.01874
#
# Poissons Ratio (x) = 0.33882 0.26913
# Poissons Ratio (y) = 1.00200 0.12282
# Poissons Ratio (z) = 0.58027 0.08955
#
# Static dielectric constant tensor:
#      x y z
#    x 1.698590 0.000000 0.000000 
#    y 0.000000 1.679570 0.000000 
#    z 0.000000 0.000000 1.748210 
# 
# From -- ./inp_files/32759.got.cif
#   From: 2010.05.17/outbox.ucp.g08.bks.cvg/sg47_17_cif.got.tgz:32759.got - 2010.06.11 16:36:43.
