data_PCOD9389777
_publ_section_title
;
Structure prediction by ZEFSAII (Michael W. Deem and Ramdas Pophale) SiO2 
 PCOD9389777
Probable space group: P N N N
;
_chemical_formula_sum "Si O2"
_cell_formula_units_Z 32
_cell_length_a 15.651704
_cell_length_b 11.720810
_cell_length_c 9.002341
_cell_angle_alpha 90.000000
_cell_angle_beta 90.000000
_cell_angle_gamma 90.000000
_cell_volume 1651.485297
_symmetry_space_group_name_H-M "P N N N"
_symmetry_group_IT_number 48
_space_group.IT_coordinate_system_code '2'
_symmetry_cell_setting 'orthorhombic'
loop_
_space_group_symop_operation_xyz
x,y,z
1/2-x,1/2-y,z
x,1/2-y,1/2-z
1/2-x,y,1/2-z
-x,-y,-z
1/2+x,1/2+y,-z
-x,1/2+y,1/2+z
1/2+x,-y,1/2+z
loop_
_atom_site_type_symbol
_atom_site_label
_atom_site_fract_x
_atom_site_fract_y
_atom_site_fract_z
Si Si1 0.984681 0.750000 0.750000
Si Si2 0.279048 0.584298 0.923008
Si Si3 0.387765 0.815710 0.988314
Si Si4 0.421705 0.089904 0.506462
Si Si5 0.507564 0.750000 0.250000
O O1 0.931815 0.672450 0.635746
O O2 0.048063 0.671405 0.849612
O O3 0.250000 0.584764 0.750000
O O4 0.338365 0.695238 0.957313
O O5 0.188500 0.595587 0.004512
O O6 0.334231 0.477975 0.975327
O O7 0.445276 0.811170 0.133282
O O8 0.436802 0.164432 0.653343
O O9 0.500000 0.000000 0.500000
#
# Coordination Sequence:
#
# PCOD9389777 Si02
#       5
#     4   8   8   8   4
#     4  10  18  37  66  94 127 164 216 262 313 392
#     4  11  19  35  66  91 122 163 210 268 327 371
#     4  10  18  36  64  95 121 154 213 272 319 371
#     4  11  21  40  63  93 131 171 211 266 326 374
#     4  10  22  37  65  96 126 160 218 272 313 390
#
# _framework density 19.376495999999999
#
# number of rings (size 3 to 8) (size 9 to 14) (size 15 to 20)
#    0.000    1.500    7.500    0.750    0.000    2.000 
#    0.000   11.875    0.000    3.000    0.000    0.000 
#    0.000    0.000    0.000    0.000    0.000    0.000 
#
# Total GULP energy -178621.548927 kJ/mol
# GULP energy per Si atom -5581.923404 kJ/mol
# Density = 1.933239 g / cm^3
# Si number density = 19.376496 Si / 1000 Ang^3
#
#
#
# Elastic Constant Matrix: (Units=GPa)
#
#
# Indices 1 2 3 4 5 6 
#
# 1 121.9316 66.2711 55.2079 0.0000 0.0000 0.0000
# 2 66.2711 96.2258 51.8863 0.0000 0.0000 0.0000
# 3 55.2079 51.8863 117.3687 0.0000 0.0000 0.0000
# 4 0.0000 0.0000 0.0000 14.3054 0.0000 0.0000
# 5 0.0000 0.0000 0.0000 0.0000 11.4368 0.0000
# 6 0.0000 0.0000 0.0000 0.0000 0.0000 49.9882
#
#
#
# Elastic Compliance Matrix: (Units=1/GPa)
#
#
# Indices 1 2 3 4 5 6 
#
# 1 0.013880 -0.007929 -0.003024 0.000000 0.000000 0.000000
# 2 -0.007929 0.018174 -0.004305 0.000000 0.000000 0.000000
# 3 -0.003024 -0.004305 0.011846 0.000000 0.000000 0.000000
# 4 0.000000 0.000000 0.000000 0.069904 0.000000 0.000000
# 5 0.000000 0.000000 0.000000 0.000000 0.087437 0.000000
# 6 0.000000 0.000000 0.000000 0.000000 0.000000 0.020005
#
#
# Mechanical properties :
#
#
# Convention : Reuss Voigt Hill
#
# Bulk Modulus (GPa) = 74.71115 75.80631 75.25873
# Shear Modulus (GPa) = 19.51442 25.95678 22.73560
#
# Velocity S-wave (km/s) = 3.17696 3.66403 3.42915
# Velocity P-wave (km/s) = 7.21794 7.55698 7.38940
#
# Compressibility (1/GPa) = 0.01338488
#
# Stress axis : x y z
#
# Youngs Moduli (GPa) = 72.04824 55.02403 84.42008
#
# Poissons Ratio (x) = 0.43626 0.25526
# Poissons Ratio (y) = 0.57124 0.36342
# Poissons Ratio (z) = 0.21785 0.23687
#
# Static dielectric constant tensor:
#      x y z
#    x 1.667830 0.000000 0.000000 
#    y 0.000000 1.697380 0.000000 
#    z 0.000000 0.000000 1.723480 
# 
# From -- ./inp_files/10196.got.cif
#   From: 2010.05.17/outbox.cif.g08.bks.cpg/sg48_6_cif.got.tgz:10196.got - 2010.06.03 20:39:00.
