data_PCOD9389110
_publ_section_title
;
Structure prediction by ZEFSAII (Michael W. Deem and Ramdas Pophale) SiO2 
 PCOD9389110
Probable space group: P M M M
;
_chemical_formula_sum "Si O2"
_cell_formula_units_Z 48
_cell_length_a 7.436844
_cell_length_b 18.852363
_cell_length_c 15.990461
_cell_angle_alpha 90.000000
_cell_angle_beta 90.000000
_cell_angle_gamma 90.000000
_cell_volume 2241.895935
_symmetry_space_group_name_H-M "P M M M"
_symmetry_group_IT_number 47
_symmetry_cell_setting 'orthorhombic'
loop_
_space_group_symop_operation_xyz
x,y,z
-x,-y,z
x,-y,-z
-x,y,-z
-x,-y,-z
x,y,-z
-x,y,z
x,-y,z
loop_
_atom_site_type_symbol
_atom_site_label
_atom_site_fract_x
_atom_site_fract_y
_atom_site_fract_z
Si Si1 0.296083 0.716716 0.319927
Si Si2 0.780827 0.580461 0.000000
Si Si3 0.716705 0.576417 0.598982
Si Si4 0.218349 0.305493 0.133765
Si Si5 0.285154 0.872668 0.717024
Si Si6 0.784742 0.145688 0.091084
Si Si7 0.279963 0.000000 0.402414
O O1 0.500000 0.725957 0.353076
O O2 0.209946 0.650992 0.368145
O O3 0.299127 0.690528 0.224897
O O4 0.213617 0.795272 0.310923
O O5 0.726635 0.628010 0.078660
O O6 0.717180 0.500000 0.000000
O O7 0.000000 0.578724 0.000000
O O8 0.744555 0.575144 0.500000
O O9 0.500000 0.577570 0.613773
O O10 0.782168 0.500000 0.633187
O O11 0.270172 0.228624 0.096901
O O12 0.000000 0.305049 0.138985
O O13 0.500000 0.869137 0.708827
O O14 0.257196 0.885926 0.816743
O O15 0.221548 0.932434 0.652858
O O16 0.000000 0.143405 0.087341
O O17 0.719565 0.117255 0.000000
O O18 0.500000 0.000000 0.403472
O O19 0.223612 0.000000 0.500000
#
# Coordination Sequence:
#
# PCOD9389110 Si02
#       7
#     8   4   8   8   8   8   4
#     4   9  17  28  44  68  92 113 146 191 229 265
#     4   9  16  26  41  61  85 116 157 196 222 259
#     4   8  14  25  41  61  86 116 147 181 225 273
#     4   9  16  28  44  62  86 118 154 186 221 268
#     4   9  18  31  48  73  98 121 156 196 235 281
#     4   9  16  29  50  71  93 125 160 192 231 278
#     4   9  18  34  54  73  98 130 157 189 238 289
#
# _framework density 21.410450000000001
#
# number of rings (size 3 to 8) (size 9 to 14) (size 15 to 20)
#    0.000    3.167    0.833    0.500    0.000    1.667 
#    0.000    4.583    0.000    4.500    0.000    5.833 
#    0.000    0.000    0.000    0.000    0.000    0.000 
#
# Total GULP energy -267298.223739 kJ/mol
# GULP energy per Si atom -5568.712995 kJ/mol
# Density = 2.136172 g / cm^3
# Si number density = 21.410450 Si / 1000 Ang^3
#
#
#
# Elastic Constant Matrix: (Units=GPa)
#
#
# Indices 1 2 3 4 5 6 
#
# 1 65.0249 8.1100 6.5105 0.0000 0.0000 0.0000
# 2 8.1100 146.6695 101.6313 0.0000 0.0000 0.0000
# 3 6.5105 101.6313 130.6210 0.0000 0.0000 0.0000
# 4 0.0000 0.0000 0.0000 34.6052 0.0000 0.0000
# 5 0.0000 0.0000 0.0000 0.0000 22.8167 0.0000
# 6 0.0000 0.0000 0.0000 0.0000 0.0000 -7.4211
#
#
#
# Elastic Compliance Matrix: (Units=1/GPa)
#
#
# Indices 1 2 3 4 5 6 
#
# 1 0.015489 -0.000698 -0.000229 0.000000 0.000000 0.000000
# 2 -0.000698 0.014826 -0.011500 0.000000 0.000000 0.000000
# 3 -0.000229 -0.011500 0.016615 0.000000 0.000000 0.000000
# 4 0.000000 0.000000 0.000000 0.028897 0.000000 0.000000
# 5 0.000000 0.000000 0.000000 0.000000 0.043828 0.000000
# 6 0.000000 0.000000 0.000000 0.000000 0.000000 -0.134750
#
#
# Mechanical properties :
#
#
# Convention : Reuss Voigt Hill
#
# Bulk Modulus (GPa) = 45.30026 63.86878 54.58452
# Shear Modulus (GPa) = 292.10535 25.07107 158.58821
#
# Velocity S-wave (km/s) = 11.69305 3.42566 8.61576
# Velocity P-wave (km/s) = 14.26559 6.74850 11.15906
#
# Compressibility (1/GPa) = 0.02207493
#
# Stress axis : x y z
#
# Youngs Moduli (GPa) = 64.56331 67.45075 60.18563
#
# Poissons Ratio (x) = 0.04705 0.01380
# Poissons Ratio (y) = 0.04504 0.69216
# Poissons Ratio (z) = 0.01480 0.77572
#
# Static dielectric constant tensor:
#      x y z
#    x 1.829180 0.000000 0.000000 
#    y 0.000000 1.808580 0.000000 
#    z 0.000000 0.000000 1.759830 
# 
# From -- ./inp_files/21109.got.cif
#   From: 2010.05.17/outbox.cif.g08.bks.cpg/sg47_11_cif.got.tgz:21109.got - 2010.06.03 20:15:42.
