data_PCOD9389735
_publ_section_title
;
Structure prediction by ZEFSAII (Michael W. Deem and Ramdas Pophale) SiO2 
 PCOD9389735
Probable space group: P N N N
;
_chemical_formula_sum "Si O2"
_cell_formula_units_Z 58
_cell_length_a 9.507613
_cell_length_b 11.419316
_cell_length_c 28.682627
_cell_angle_alpha 90.000000
_cell_angle_beta 90.000000
_cell_angle_gamma 90.000000
_cell_volume 3114.085355
_symmetry_space_group_name_H-M "P N N N"
_symmetry_group_IT_number 48
_space_group.IT_coordinate_system_code '2'
_symmetry_cell_setting 'orthorhombic'
loop_
_space_group_symop_operation_xyz
x,y,z
1/2-x,1/2-y,z
x,1/2-y,1/2-z
1/2-x,y,1/2-z
-x,-y,-z
1/2+x,1/2+y,-z
-x,1/2+y,1/2+z
1/2+x,-y,1/2+z
loop_
_atom_site_type_symbol
_atom_site_label
_atom_site_fract_x
_atom_site_fract_y
_atom_site_fract_z
Si Si1 0.597381 0.793851 0.919808
Si Si2 0.250000 0.750000 0.250000
Si Si3 0.152195 0.648951 0.489669
Si Si4 0.902102 0.144619 0.664093
Si Si5 0.645155 0.390171 0.888877
Si Si6 0.405084 0.999364 0.890906
Si Si7 0.902898 0.437341 0.416778
Si Si8 0.608575 0.686729 0.472013
O O1 0.750000 0.750000 0.903104
O O2 0.489539 0.684108 0.918436
O O3 0.516296 0.895063 0.893354
O O4 0.621633 0.840322 0.972932
O O5 0.145805 0.821438 0.284183
O O6 0.250000 0.750000 0.511663
O O7 0.214968 0.610667 0.440437
O O8 0.129893 0.548726 0.527620
O O9 0.013158 0.715980 0.472880
O O10 0.769892 0.069422 0.644789
O O11 0.898267 0.263918 0.632556
O O12 0.046757 0.080166 0.652358
O O13 0.509453 0.470029 0.894878
O O14 0.419689 0.079431 0.937643
O O15 0.247181 0.948207 0.891720
O O16 0.750000 0.750000 0.455555
#
# Coordination Sequence:
#
# PCOD9389735 Si02
#       8
#     8   2   8   8   8   8   8   8
#     4  10  22  37  49  73 115 167 216 238 270 317
#     4   8  20  44  64  98 106 132 180 242 304 366
#     4  11  18  32  46  70 111 155 207 239 271 314
#     4  10  21  37  66  83 112 137 187 245 294 359
#     4  10  18  35  53  79 104 156 196 237 278 340
#     4  12  21  34  54  81 111 153 192 250 293 340
#     4  11  23  31  50  77 121 155 198 243 283 324
#     4  10  20  32  48  73 110 158 205 249 274 323
#
# _framework density 18.625052
#
# number of rings (size 3 to 8) (size 9 to 14) (size 15 to 20)
#    0.000    1.655    2.759    4.552    0.000    3.310 
#    0.000    0.000    0.000    6.621    0.000   12.069 
#    0.000   22.069    0.000    0.000    0.000    0.000 
#
# Total GULP energy -323446.125980 kJ/mol
# GULP energy per Si atom -5576.657344 kJ/mol
# Density = 1.858266 g / cm^3
# Si number density = 18.625052 Si / 1000 Ang^3
#
#
#
# Elastic Constant Matrix: (Units=GPa)
#
#
# Indices 1 2 3 4 5 6 
#
# 1 136.0616 50.2663 39.0231 0.0000 0.0000 0.0000
# 2 50.2663 74.5248 30.3200 0.0000 0.0000 0.0000
# 3 39.0231 30.3200 78.5125 0.0000 0.0000 0.0000
# 4 0.0000 0.0000 0.0000 17.8338 0.0000 0.0000
# 5 0.0000 0.0000 0.0000 0.0000 17.7721 0.0000
# 6 0.0000 0.0000 0.0000 0.0000 0.0000 34.5604
#
#
#
# Elastic Compliance Matrix: (Units=1/GPa)
#
#
# Indices 1 2 3 4 5 6 
#
# 1 0.010315 -0.005780 -0.002895 0.000000 0.000000 0.000000
# 2 -0.005780 0.019158 -0.004526 0.000000 0.000000 0.000000
# 3 -0.002895 -0.004526 0.015923 0.000000 0.000000 0.000000
# 4 0.000000 0.000000 0.000000 0.056073 0.000000 0.000000
# 5 0.000000 0.000000 0.000000 0.000000 0.056268 0.000000
# 6 0.000000 0.000000 0.000000 0.000000 0.000000 0.028935
#
#
# Mechanical properties :
#
#
# Convention : Reuss Voigt Hill
#
# Bulk Modulus (GPa) = 52.64317 58.70198 55.67257
# Shear Modulus (GPa) = 22.78887 25.33256 24.06072
#
# Velocity S-wave (km/s) = 3.50174 3.69200 3.59813
# Velocity P-wave (km/s) = 6.68398 7.05412 6.87155
#
# Compressibility (1/GPa) = 0.01899582
#
# Stress axis : x y z
#
# Youngs Moduli (GPa) = 96.94495 52.19755 62.80041
#
# Poissons Ratio (x) = 0.30169 0.18180
# Poissons Ratio (y) = 0.56031 0.28422
# Poissons Ratio (z) = 0.28065 0.23623
#
# Static dielectric constant tensor:
#      x y z
#    x 1.719770 0.000000 0.000000 
#    y 0.000000 1.708550 0.000000 
#    z 0.000000 0.000000 1.645730 
# 
# From -- ./inp_files/38805.got.cif
#   From: 2010.05.17/outbox.cif.g08.bks.cpg/sg48_20_cif.got.tgz:38805.got - 2010.06.03 20:39:00.
