data_PCOD9389799
_publ_section_title
;
Structure prediction by ZEFSAII (Michael W. Deem and Ramdas Pophale) SiO2 
 PCOD9389799
Probable space group: P N N N
;
_chemical_formula_sum "Si O2"
_cell_formula_units_Z 46
_cell_length_a 12.559569
_cell_length_b 8.839142
_cell_length_c 21.340330
_cell_angle_alpha 90.000000
_cell_angle_beta 90.000000
_cell_angle_gamma 90.000000
_cell_volume 2369.114103
_symmetry_space_group_name_H-M "P N N N"
_symmetry_group_IT_number 48
_space_group.IT_coordinate_system_code '2'
_symmetry_cell_setting 'orthorhombic'
loop_
_space_group_symop_operation_xyz
x,y,z
1/2-x,1/2-y,z
x,1/2-y,1/2-z
1/2-x,y,1/2-z
-x,-y,-z
1/2+x,1/2+y,-z
-x,1/2+y,1/2+z
1/2+x,-y,1/2+z
loop_
_atom_site_type_symbol
_atom_site_label
_atom_site_fract_x
_atom_site_fract_y
_atom_site_fract_z
Si Si1 0.226753 0.425242 0.076568
Si Si2 0.250000 0.250000 0.750000
Si Si3 0.903667 0.130012 0.860271
Si Si4 0.627181 0.496837 0.172272
Si Si5 0.486386 0.561479 0.426671
Si Si6 0.776630 0.927344 0.429753
Si Si7 0.750000 0.250000 0.750000
Si Si8 0.750000 0.250000 0.250000
O O1 0.250000 0.250000 0.085807
O O2 0.319687 0.528338 0.102721
O O3 0.109012 0.462986 0.101821
O O4 0.222365 0.461356 0.002857
O O5 0.322858 0.357319 0.792568
O O6 0.947958 0.267800 0.905536
O O7 0.834735 0.178764 0.799561
O O8 0.004020 0.030871 0.837967
O O9 0.684869 0.484986 0.105414
O O10 0.670377 0.355052 0.210466
O O11 0.500000 0.500000 0.500000
O O12 0.606287 0.544126 0.401362
O O13 0.750000 0.750000 0.424656
#
# Coordination Sequence:
#
# PCOD9389799 Si02
#       8
#     8   2   8   8   8   8   2   2
#     4  10  23  41  61  97 136 167 219 278 339 406
#     4  10  18  38  68  88 124 164 232 264 322 418
#     4  12  23  44  69  94 132 184 229 277 344 416
#     4  11  22  42  66  95 126 177 219 282 339 405
#     4  10  20  40  68  99 133 170 221 279 337 416
#     4  10  19  38  66  96 123 164 218 268 340 410
#     4  12  26  44  68  98 132 190 250 274 326 452
#     4  10  28  46  54 104 140 162 232 296 342 390
#
# _framework density 19.416540000000001
#
# number of rings (size 3 to 8) (size 9 to 14) (size 15 to 20)
#    0.000    1.391    4.348    0.522    0.000    3.478 
#    9.391    0.000    0.000    0.000    0.000    0.000 
#    0.000    0.000    0.000    0.000    0.000    0.000 
#
# Total GULP energy -256149.224212 kJ/mol
# GULP energy per Si atom -5568.461396 kJ/mol
# Density = 1.937235 g / cm^3
# Si number density = 19.416540 Si / 1000 Ang^3
#
#
#
# Elastic Constant Matrix: (Units=GPa)
#
#
# Indices 1 2 3 4 5 6 
#
# 1 212.1205 65.4401 47.4439 0.0000 0.0000 0.0000
# 2 65.4401 88.3731 53.0091 0.0000 0.0000 0.0000
# 3 47.4439 53.0091 66.1624 0.0000 0.0000 0.0000
# 4 0.0000 0.0000 0.0000 7.0878 0.0000 0.0000
# 5 0.0000 0.0000 0.0000 0.0000 29.2404 0.0000
# 6 0.0000 0.0000 0.0000 0.0000 0.0000 -19.5152
#
#
#
# Elastic Compliance Matrix: (Units=1/GPa)
#
#
# Indices 1 2 3 4 5 6 
#
# 1 0.006184 -0.003695 -0.001474 0.000000 0.000000 0.000000
# 2 -0.003695 0.023993 -0.016574 0.000000 0.000000 0.000000
# 3 -0.001474 -0.016574 0.029450 0.000000 0.000000 0.000000
# 4 0.000000 0.000000 0.000000 0.141087 0.000000 0.000000
# 5 0.000000 0.000000 0.000000 0.000000 0.034199 0.000000
# 6 0.000000 0.000000 0.000000 0.000000 0.000000 -0.051242
#
#
# Mechanical properties :
#
#
# Convention : Reuss Voigt Hill
#
# Bulk Modulus (GPa) = 61.95050 77.60468 69.77759
# Shear Modulus (GPa) = 21.50192 16.74681 19.12437
#
# Velocity S-wave (km/s) = 3.33138 2.94003 3.14180
# Velocity P-wave (km/s) = 6.83906 7.18193 7.01259
#
# Compressibility (1/GPa) = 0.01614192
#
# Stress axis : x y z
#
# Youngs Moduli (GPa) = 161.71009 41.67820 33.95579
#
# Poissons Ratio (x) = 0.15400 0.05005
# Poissons Ratio (y) = 0.59753 0.56277
# Poissons Ratio (z) = 0.23834 0.69076
#
# Static dielectric constant tensor:
#      x y z
#    x 1.566460 0.000000 0.000000 
#    y 0.000000 1.686350 0.000000 
#    z 0.000000 0.000000 1.861050 
# 
# From -- ./inp_files/35893.got.cif
#   From: 2010.05.17/outbox.cif.g08.bks.cpg/sg48_18_cif.got.tgz:35893.got - 2010.06.03 20:39:00.
