data_PCOD9389061
_publ_section_title
;
Structure prediction by ZEFSAII (Michael W. Deem and Ramdas Pophale) SiO2 
 PCOD9389061
Probable space group: P M M M
;
_chemical_formula_sum "Si O2"
_cell_formula_units_Z 52
_cell_length_a 13.940920
_cell_length_b 27.216776
_cell_length_c 9.423599
_cell_angle_alpha 90.000000
_cell_angle_beta 90.000000
_cell_angle_gamma 90.000000
_cell_volume 3575.566926
_symmetry_space_group_name_H-M "P M M M"
_symmetry_group_IT_number 47
_symmetry_cell_setting 'orthorhombic'
loop_
_space_group_symop_operation_xyz
x,y,z
-x,-y,z
x,-y,-z
-x,y,-z
-x,-y,-z
x,y,-z
-x,y,z
x,-y,z
loop_
_atom_site_type_symbol
_atom_site_label
_atom_site_fract_x
_atom_site_fract_y
_atom_site_fract_z
Si Si1 0.110888 0.852533 0.169941
Si Si2 0.886967 0.651079 0.170022
Si Si3 0.883608 0.554404 0.665777
Si Si4 0.610585 0.000000 0.672872
Si Si5 0.717433 0.099513 0.669739
Si Si6 0.610633 0.798605 0.669342
Si Si7 0.782112 0.248809 0.169975
O O1 0.183989 0.888285 0.250380
O O2 0.146391 0.796841 0.200649
O O3 0.000000 0.858841 0.210559
O O4 0.118765 0.859465 0.000000
O O5 0.851832 0.601275 0.244561
O O6 0.829037 0.699619 0.212817
O O7 0.000000 0.658013 0.203983
O O8 0.880079 0.645839 0.000000
O O9 0.858511 0.559948 0.500000
O O10 0.851299 0.500000 0.713987
O O11 0.000000 0.554008 0.673651
O O12 0.666855 0.950852 0.715629
O O13 0.500000 0.000000 0.721089
O O14 0.608052 0.000000 0.500000
O O15 0.734022 0.097331 0.500000
O O16 0.646850 0.145700 0.696450
O O17 0.618239 0.790572 0.500000
O O18 0.500000 0.792919 0.711068
O O19 0.683321 0.763336 0.751566
O O20 0.767808 0.249540 0.000000
#
# Coordination Sequence:
#
# PCOD9389061 Si02
#       7
#     8   8   8   4   8   8   8
#     4   9  17  30  46  61  82 114 144 168 200 242
#     4   9  16  25  38  57  81 108 138 172 205 235
#     4   8  14  24  36  51  75 108 142 172 202 237
#     4   9  16  28  48  69  86 106 133 167 210 255
#     4   9  17  29  46  67  86 105 134 170 204 242
#     4   9  17  29  44  62  84 107 131 163 204 247
#     4   9  17  28  42  61  83 107 138 172 203 240
#
# _framework density 14.543148
#
# number of rings (size 3 to 8) (size 9 to 14) (size 15 to 20)
#    0.000    3.154    0.000    1.385    0.000    5.231 
#    0.000    2.308    0.000    6.923    0.000    0.000 
#    0.000    0.615    0.000    6.769    0.000    5.231 
#
# Total GULP energy -289514.268860 kJ/mol
# GULP energy per Si atom -5567.582093 kJ/mol
# Density = 1.451005 g / cm^3
# Si number density = 14.543148 Si / 1000 Ang^3
#
#
#
# Elastic Constant Matrix: (Units=GPa)
#
#
# Indices 1 2 3 4 5 6 
#
# 1 118.1721 72.6346 40.1298 0.0000 0.0000 0.0000
# 2 72.6346 141.2294 44.9024 0.0000 0.0000 0.0000
# 3 40.1298 44.9024 20.2498 0.0000 0.0000 0.0000
# 4 0.0000 0.0000 0.0000 23.4483 0.0000 0.0000
# 5 0.0000 0.0000 0.0000 0.0000 21.8204 0.0000
# 6 0.0000 0.0000 0.0000 0.0000 0.0000 15.9561
#
#
#
# Elastic Compliance Matrix: (Units=1/GPa)
#
#
# Indices 1 2 3 4 5 6 
#
# 1 0.031029 0.012177 -0.088493 0.000000 0.000000 0.000000
# 2 0.012177 0.028782 -0.087955 0.000000 0.000000 0.000000
# 3 -0.088493 -0.087955 0.419787 0.000000 0.000000 0.000000
# 4 0.000000 0.000000 0.000000 0.042647 0.000000 0.000000
# 5 0.000000 0.000000 0.000000 0.000000 0.045829 0.000000
# 6 0.000000 0.000000 0.000000 0.000000 0.000000 0.062672
#
#
# Mechanical properties :
#
#
# Convention : Reuss Voigt Hill
#
# Bulk Modulus (GPa) = 6.62003 66.10945 36.36474
# Shear Modulus (GPa) = 4.95226 20.37724 12.66475
#
# Velocity S-wave (km/s) = 1.84733 3.74727 2.95420
# Velocity P-wave (km/s) = 3.01861 8.01741 6.05767
#
# Compressibility (1/GPa) = 0.15105680
#
# Stress axis : x y z
#
# Youngs Moduli (GPa) = 32.22831 34.74377 2.38216
#
# Poissons Ratio (x) = -0.42309 0.21081
# Poissons Ratio (y) = -0.39246 0.20952
# Poissons Ratio (z) = 2.85199 3.05588
#
# Static dielectric constant tensor:
#      x y z
#    x 1.456810 0.000000 0.000000 
#    y 0.000000 1.480100 0.000000 
#    z 0.000000 0.000000 1.482470 
# 
# From -- ./inp_files/7701.got.cif
#   From: 2010.05.17/outbox.cif.g08.bks.cpg/sg47_4_cif.got.tgz:7701.got - 2010.06.03 20:15:42.
