data_PCOD9389200
_publ_section_title
;
Structure prediction by ZEFSAII (Michael W. Deem and Ramdas Pophale) SiO2 
 PCOD9389200
Probable space group: P M M M
;
_chemical_formula_sum "Si O2"
_cell_formula_units_Z 44
_cell_length_a 7.458908
_cell_length_b 15.165508
_cell_length_c 18.486471
_cell_angle_alpha 90.000000
_cell_angle_beta 90.000000
_cell_angle_gamma 90.000000
_cell_volume 2091.155010
_symmetry_space_group_name_H-M "P M M M"
_symmetry_group_IT_number 47
_symmetry_cell_setting 'orthorhombic'
loop_
_space_group_symop_operation_xyz
x,y,z
-x,-y,z
x,-y,-z
-x,y,-z
-x,-y,-z
x,y,-z
-x,y,z
x,-y,z
loop_
_atom_site_type_symbol
_atom_site_label
_atom_site_fract_x
_atom_site_fract_y
_atom_site_fract_z
Si Si1 0.294850 0.851527 0.199153
Si Si2 0.286455 0.201995 0.641689
Si Si3 0.719276 0.000000 0.085792
Si Si4 0.217095 0.654991 0.180586
Si Si5 0.719486 0.101418 0.500000
Si Si6 0.215079 0.402701 0.340366
Si Si7 0.780785 0.500000 0.919654
O O1 0.500000 0.881311 0.210353
O O2 0.215382 0.835468 0.280723
O O3 0.222932 0.916896 0.136847
O O4 0.290746 0.752076 0.170189
O O5 0.500000 0.190211 0.646421
O O6 0.218372 0.148887 0.572908
O O7 0.260292 0.306776 0.627293
O O8 0.500000 0.000000 0.082053
O O9 0.776832 0.000000 0.000000
O O10 0.271020 0.612737 0.257236
O O11 0.275909 0.587528 0.120518
O O12 0.000000 0.661386 0.181602
O O13 0.500000 0.105616 0.500000
O O14 0.771032 0.000000 0.500000
O O15 0.280418 0.500000 0.365771
O O16 0.000000 0.407371 0.342828
O O17 0.000000 0.500000 0.917904
O O18 0.718024 0.500000 0.000000
#
# Coordination Sequence:
#
# PCOD9389200 Si02
#       7
#     8   8   4   8   4   8   4
#     4   9  18  31  49  71  93 121 160 198 231 279
#     4   9  18  31  49  75  99 122 156 199 241 279
#     4   9  18  32  49  68  94 128 159 191 237 289
#     4   9  16  29  47  67  92 123 158 195 234 278
#     4   9  18  32  52  75 100 126 155 197 246 287
#     4   9  16  29  50  71  94 128 164 193 228 278
#     4   9  16  26  43  67  93 122 157 194 234 283
#
# _framework density 21.041003
#
# number of rings (size 3 to 8) (size 9 to 14) (size 15 to 20)
#    0.000    3.000    0.909    0.000    1.273    1.091 
#    0.000    1.818    0.000    4.909    0.000    0.000 
#    0.000    0.000    0.000    0.000    0.000    0.000 
#
# Total GULP energy -244997.281406 kJ/mol
# GULP energy per Si atom -5568.120032 kJ/mol
# Density = 2.099311 g / cm^3
# Si number density = 21.041003 Si / 1000 Ang^3
#
#
#
# Elastic Constant Matrix: (Units=GPa)
#
#
# Indices 1 2 3 4 5 6 
#
# 1 59.5748 2.5765 5.5004 0.0000 0.0000 0.0000
# 2 2.5765 184.7719 123.2469 0.0000 0.0000 0.0000
# 3 5.5004 123.2469 145.2750 0.0000 0.0000 0.0000
# 4 0.0000 0.0000 0.0000 42.3725 0.0000 0.0000
# 5 0.0000 0.0000 0.0000 0.0000 -0.0609 0.0000
# 6 0.0000 0.0000 0.0000 0.0000 0.0000 20.3140
#
#
#
# Elastic Compliance Matrix: (Units=1/GPa)
#
#
# Indices 1 2 3 4 5 6 
#
# 1 0.016860 0.000439 -0.001011 0.000000 0.000000 0.000000
# 2 0.000439 0.012478 -0.010603 0.000000 0.000000 0.000000
# 3 -0.001011 -0.010603 0.015917 0.000000 0.000000 0.000000
# 4 0.000000 0.000000 0.000000 0.023600 0.000000 0.000000
# 5 0.000000 0.000000 0.000000 0.000000-16.429670 0.000000
# 6 0.000000 0.000000 0.000000 0.000000 0.000000 0.049227
#
#
# Mechanical properties :
#
#
# Convention : Reuss Voigt Hill
#
# Bulk Modulus (GPa) = 43.65669 72.47436 58.06552
# Shear Modulus (GPa) = -0.30710 29.74499 14.71895
#
# Velocity S-wave (km/s) = -0.38245 3.76396 2.64774
# Velocity P-wave (km/s) = 4.53855 7.30814 6.08306
#
# Compressibility (1/GPa) = 0.02290600
#
# Stress axis : x y z
#
# Youngs Moduli (GPa) = 59.31209 80.13931 62.82633
#
# Poissons Ratio (x) = -0.03520 0.06352
# Poissons Ratio (y) = -0.02605 0.66614
# Poissons Ratio (z) = 0.05997 0.84970
#
# Static dielectric constant tensor:
#      x y z
#    x 1.817190 0.000000 0.000000 
#    y 0.000000 1.714050 0.000000 
#    z 0.000000 0.000000 1.750900 
# 
# From -- ./inp_files/24388.got.cif
#   From: 2010.05.17/outbox.cif.g08.bks.cpg/sg47_13_cif.got.tgz:24388.got - 2010.06.03 20:15:42.
