data_PCOD9389451
_publ_section_title
;
Structure prediction by ZEFSAII (Michael W. Deem and Ramdas Pophale) SiO2 
 PCOD9389451
Probable space group: P M M M
;
_chemical_formula_sum "Si O2"
_cell_formula_units_Z 29
_cell_length_a 15.000000
_cell_length_b 9.000000
_cell_length_c 12.000000
_cell_angle_alpha 90.000000
_cell_angle_beta 90.000000
_cell_angle_gamma 90.000000
_cell_volume 1620.000000
_symmetry_space_group_name_H-M "P M M M"
_symmetry_group_IT_number 47
_symmetry_cell_setting 'orthorhombic'
loop_
_space_group_symop_operation_xyz
x,y,z
-x,-y,z
x,-y,-z
-x,y,-z
-x,-y,-z
x,y,-z
-x,y,z
x,-y,z
loop_
_atom_site_type_symbol
_atom_site_label
_atom_site_fract_x
_atom_site_fract_y
_atom_site_fract_z
Si Si1 0.160091 0.677494 0.266607
Si Si2 0.500000 0.000000 0.500000
Si Si3 0.892665 0.178815 0.500000
Si Si4 0.000000 0.176721 0.132338
Si Si5 0.657740 0.322512 0.131371
Si Si6 0.500000 0.835750 0.262266
O O1 0.148459 0.500000 0.279345
O O2 0.151373 0.752594 0.388541
O O3 0.249977 0.704479 0.196666
O O4 0.083705 0.748143 0.190870
O O5 0.500000 0.128875 0.396498
O O6 0.000000 0.211016 0.500000
O O7 0.882656 0.000000 0.500000
O O8 0.000000 0.000000 0.153369
O O9 0.000000 0.201199 0.000000
O O10 0.642861 0.500000 0.128668
O O11 0.584200 0.248242 0.210245
O O12 0.657970 0.273594 0.000000
O O13 0.500000 0.000000 0.210924
#
# Coordination Sequence:
#
# PCOD9389451 Si02
#       6
#     8   1   4   4   8   4
#     4  11  23  39  62  90 122 161 211 262 310 372
#     4   8  24  44  60  92 132 158 206 258 296 364
#     4  11  23  40  61  86 123 167 212 259 317 377
#     4  11  23  38  57  84 123 165 205 257 320 377
#     4  10  22  41  65  96 128 161 206 258 315 377
#     4  10  22  42  66  90 129 165 205 252 309 364
#
# _framework density 17.901235
#
# number of rings (size 3 to 8) (size 9 to 14) (size 15 to 20)
#    0.414    1.103    1.379    3.310    0.000    8.276 
#    2.483    2.759    0.000    0.000    0.000    0.000 
#    0.000    0.000    0.000    0.000    0.000    0.000 
#
# Total GULP energy -161455.604355 kJ/mol
# GULP energy per Si atom -5567.434633 kJ/mol
# Density = 1.786049 g / cm^3
# Si number density = 17.901235 Si / 1000 Ang^3
#
#
#
# Elastic Constant Matrix: (Units=GPa)
#
#
# Indices 1 2 3 4 5 6 
#
# 1 135.7057 88.4293 97.1274 0.0000 0.0000 0.0000
# 2 88.4293 73.1694 83.9327 0.0000 0.0000 0.0000
# 3 97.1274 83.9327 206.8096 0.0000 0.0000 0.0000
# 4 0.0000 0.0000 0.0000 42.5799 0.0000 0.0000
# 5 0.0000 0.0000 0.0000 0.0000 29.6957 0.0000
# 6 0.0000 0.0000 0.0000 0.0000 0.0000 45.6775
#
#
#
# Elastic Compliance Matrix: (Units=1/GPa)
#
#
# Indices 1 2 3 4 5 6 
#
# 1 0.034885 -0.043720 0.001360 0.000000 0.000000 0.000000
# 2 -0.043720 0.080366 -0.012083 0.000000 0.000000 0.000000
# 3 0.001360 -0.012083 0.009100 0.000000 0.000000 0.000000
# 4 0.000000 0.000000 0.000000 0.023485 0.000000 0.000000
# 5 0.000000 0.000000 0.000000 0.000000 0.033675 0.000000
# 6 0.000000 0.000000 0.000000 0.000000 0.000000 0.021893
#
#
# Mechanical properties :
#
#
# Convention : Reuss Voigt Hill
#
# Bulk Modulus (GPa) = 64.66373 106.07373 85.36873
# Shear Modulus (GPa) = 15.75079 33.33698 24.54389
#
# Velocity S-wave (km/s) = 2.96948 4.32009 3.70682
# Velocity P-wave (km/s) = 6.92517 9.17975 8.13099
#
# Compressibility (1/GPa) = 0.01546462
#
# Stress axis : x y z
#
# Youngs Moduli (GPa) = 28.66595 12.44312 109.88612
#
# Poissons Ratio (x) = 0.54402 -0.14947
# Poissons Ratio (y) = 1.25328 1.32775
# Poissons Ratio (z) = -0.03899 0.15035
#
# Static dielectric constant tensor:
#      x y z
#    x 1.691760 0.000000 0.000000 
#    y 0.000000 1.605980 0.000000 
#    z 0.000000 0.000000 1.585810 
# 
# From -- ./inp_files/17024.got.cif
#   From: 2010.05.17/outbox.ucp.g08.bks.cvg/sg47_9_cif.got.tgz:17024.got - 2010.06.11 16:36:43.
