data_PCOD9389389
_publ_section_title
;
Structure prediction by ZEFSAII (Michael W. Deem and Ramdas Pophale) SiO2 
 PCOD9389389
Probable space group: P M M M
;
_chemical_formula_sum "Si O2"
_cell_formula_units_Z 48
_cell_length_a 9.000000
_cell_length_b 30.000000
_cell_length_c 9.000000
_cell_angle_alpha 90.000000
_cell_angle_beta 90.000000
_cell_angle_gamma 90.000000
_cell_volume 2430.000000
_symmetry_space_group_name_H-M "P M M M"
_symmetry_group_IT_number 47
_symmetry_cell_setting 'orthorhombic'
loop_
_space_group_symop_operation_xyz
x,y,z
-x,-y,z
x,-y,-z
-x,y,-z
-x,-y,-z
x,y,-z
-x,y,z
x,-y,z
loop_
_atom_site_type_symbol
_atom_site_label
_atom_site_fract_x
_atom_site_fract_y
_atom_site_fract_z
Si Si1 0.820687 0.916312 0.171217
Si Si2 0.172663 0.583987 0.324453
Si Si3 0.175642 0.240953 0.172351
Si Si4 0.322702 0.162867 0.672335
Si Si5 0.326587 0.335664 0.171285
Si Si6 0.167391 0.052647 0.500000
Si Si7 0.672253 0.500000 0.177457
O O1 0.763267 0.866870 0.206149
O O2 0.768948 0.937776 0.331895
O O3 0.000000 0.920012 0.170011
O O4 0.774085 0.929915 0.000000
O O5 0.179693 0.575768 0.500000
O O6 0.265712 0.627240 0.280434
O O7 0.244091 0.542875 0.239149
O O8 0.000000 0.590039 0.282682
O O9 0.270728 0.212166 0.287194
O O10 0.227489 0.291707 0.184784
O O11 0.000000 0.235837 0.199983
O O12 0.204840 0.227514 0.000000
O O13 0.282706 0.151396 0.500000
O O14 0.500000 0.157353 0.686429
O O15 0.500000 0.325256 0.197266
O O16 0.314101 0.351840 0.000000
O O17 0.000000 0.073110 0.500000
O O18 0.154803 0.000000 0.500000
O O19 0.500000 0.500000 0.225891
O O20 0.675116 0.500000 0.000000
#
# Coordination Sequence:
#
# PCOD9389389 Si02
#       7
#     8   8   8   8   8   4   4
#     4  10  20  35  58  86 116 154 198 243 297 357
#     4  11  24  40  59  85 116 149 187 231 281 338
#     4  10  21  37  58  84 113 148 191 237 288 345
#     4  11  23  37  55  81 114 153 196 242 294 350
#     4  10  21  38  60  85 114 150 192 236 284 341
#     4   9  18  34  57  87 123 157 193 245 301 352
#     4  11  24  41  62  88 114 143 184 231 282 340
#
# _framework density 19.753086
#
# number of rings (size 3 to 8) (size 9 to 14) (size 15 to 20)
#    0.000    1.667    0.833    3.500    0.000   11.333 
#    0.000    1.667    0.000    1.000    0.000    1.167 
#    0.000    0.000    0.000    0.000    0.000    0.000 
#
# Total GULP energy -267607.735062 kJ/mol
# GULP energy per Si atom -5575.161147 kJ/mol
# Density = 1.970813 g / cm^3
# Si number density = 19.753086 Si / 1000 Ang^3
#
#
#
# Elastic Constant Matrix: (Units=GPa)
#
#
# Indices 1 2 3 4 5 6 
#
# 1 24.6258 -4.4573 13.2062 0.0000 0.0000 0.0000
# 2 -4.4573 47.3034 28.2877 0.0000 0.0000 0.0000
# 3 13.2062 28.2877 110.7708 0.0000 0.0000 0.0000
# 4 0.0000 0.0000 0.0000 31.0040 0.0000 0.0000
# 5 0.0000 0.0000 0.0000 0.0000 27.4641 0.0000
# 6 0.0000 0.0000 0.0000 0.0000 0.0000 39.1721
#
#
#
# Elastic Compliance Matrix: (Units=1/GPa)
#
#
# Indices 1 2 3 4 5 6 
#
# 1 0.046465 0.009077 -0.007858 0.000000 0.000000 0.000000
# 2 0.009077 0.026724 -0.007907 0.000000 0.000000 0.000000
# 3 -0.007858 -0.007907 0.011984 0.000000 0.000000 0.000000
# 4 0.000000 0.000000 0.000000 0.032254 0.000000 0.000000
# 5 0.000000 0.000000 0.000000 0.000000 0.036411 0.000000
# 6 0.000000 0.000000 0.000000 0.000000 0.000000 0.025528
#
#
# Mechanical properties :
#
#
# Convention : Reuss Voigt Hill
#
# Bulk Modulus (GPa) = 13.92804 28.53036 21.22920
# Shear Modulus (GPa) = 23.07636 29.23894 26.15765
#
# Velocity S-wave (km/s) = 3.42166 3.85154 3.64295
# Velocity P-wave (km/s) = 4.76201 5.85269 5.33529
#
# Compressibility (1/GPa) = 0.07179763
#
# Stress axis : x y z
#
# Youngs Moduli (GPa) = 21.52178 37.42000 83.44760
#
# Poissons Ratio (x) = -0.33967 0.65570
# Poissons Ratio (y) = -0.19536 0.65979
# Poissons Ratio (z) = 0.16911 0.29587
#
# Static dielectric constant tensor:
#      x y z
#    x 1.683440 0.000000 0.000000 
#    y 0.000000 1.648800 0.000000 
#    z 0.000000 0.000000 1.711440 
# 
# From -- ./inp_files/2708.got.cif
#   From: 2010.05.17/outbox.ucp.g08.bks.cvg/sg47_2_cif.got.tgz:2708.got - 2010.06.11 16:36:43.
