data_PCOD9389694
_publ_section_title
;
Structure prediction by ZEFSAII (Michael W. Deem and Ramdas Pophale) SiO2 
 PCOD9389694
Probable space group: P N N N
;
_chemical_formula_sum "Si O2"
_cell_formula_units_Z 40
_cell_length_a 26.157765
_cell_length_b 5.031065
_cell_length_c 13.870640
_cell_angle_alpha 90.000000
_cell_angle_beta 90.000000
_cell_angle_gamma 90.000000
_cell_volume 1825.395864
_symmetry_space_group_name_H-M "P N N N"
_symmetry_group_IT_number 48
_space_group.IT_coordinate_system_code '2'
_symmetry_cell_setting 'orthorhombic'
loop_
_space_group_symop_operation_xyz
x,y,z
1/2-x,1/2-y,z
x,1/2-y,1/2-z
1/2-x,y,1/2-z
-x,-y,-z
1/2+x,1/2+y,-z
-x,1/2+y,1/2+z
1/2+x,-y,1/2+z
loop_
_atom_site_type_symbol
_atom_site_label
_atom_site_fract_x
_atom_site_fract_y
_atom_site_fract_z
Si Si1 0.655145 0.354948 0.969517
Si Si2 0.550442 0.373896 0.455502
Si Si3 0.307634 0.165813 0.137423
Si Si4 0.559240 0.617800 0.161720
Si Si5 0.824759 0.491970 0.311783
O O1 0.654509 0.637465 0.917679
O O2 0.682494 0.133589 0.901203
O O3 0.597449 0.250415 0.985563
O O4 0.681710 0.420835 0.074057
O O5 0.500000 0.500000 0.500000
O O6 0.573783 0.629475 0.402435
O O7 0.532387 0.126476 0.389639
O O8 0.250000 0.250000 0.109769
O O9 0.312417 0.250000 0.250000
O O10 0.529266 0.750000 0.250000
O O11 0.613332 0.502379 0.195352
O O12 0.805398 0.250000 0.250000
O O13 0.807840 0.750000 0.250000
#
# Coordination Sequence:
#
# PCOD9389694 Si02
#       5
#     8   8   8   8   8
#     4  11  21  39  65  92 123 165 208 262 327 387
#     4  11  22  36  56  86 123 158 197 249 314 382
#     4  11  24  43  67  93 122 164 222 278 329 387
#     4  10  18  33  54  79 110 153 205 245 283 355
#     4  10  18  32  58  91 118 150 195 240 292 364
#
# _framework density 21.913056000000001
#
# number of rings (size 3 to 8) (size 9 to 14) (size 15 to 20)
#    0.000    1.400    0.000   10.800    0.000    1.600 
#    0.000    4.000    0.000   10.200    0.000    1.400 
#    0.000    0.000    0.000    0.000    0.000    0.000 
#
# Total GULP energy -222879.200959 kJ/mol
# GULP energy per Si atom -5571.980024 kJ/mol
# Density = 2.186318 g / cm^3
# Si number density = 21.913056 Si / 1000 Ang^3
#
#
#
# Elastic Constant Matrix: (Units=GPa)
#
#
# Indices 1 2 3 4 5 6 
#
# 1 48.1390 -7.2888 21.2943 0.0000 0.0000 0.0000
# 2 -7.2888 141.5804 43.6717 0.0000 0.0000 0.0000
# 3 21.2943 43.6717 99.9215 0.0000 0.0000 0.0000
# 4 0.0000 0.0000 0.0000 59.4256 0.0000 0.0000
# 5 0.0000 0.0000 0.0000 0.0000 -3.7500 0.0000
# 6 0.0000 0.0000 0.0000 0.0000 0.0000 -92.5710
#
#
#
# Elastic Compliance Matrix: (Units=1/GPa)
#
#
# Indices 1 2 3 4 5 6 
#
# 1 0.024182 0.003276 -0.006585 0.000000 0.000000 0.000000
# 2 0.003276 0.008608 -0.004460 0.000000 0.000000 0.000000
# 3 -0.006585 -0.004460 0.013361 0.000000 0.000000 0.000000
# 4 0.000000 0.000000 0.000000 0.016828 0.000000 0.000000
# 5 0.000000 0.000000 0.000000 0.000000 -0.266669 0.000000
# 6 0.000000 0.000000 0.000000 0.000000 0.000000 -0.010803
#
#
# Mechanical properties :
#
#
# Convention : Reuss Voigt Hill
#
# Bulk Modulus (GPa) = 32.66717 44.99949 38.83333
# Shear Modulus (GPa) = -26.48995 8.08519 -9.20238
#
# Velocity S-wave (km/s) = -3.48065 1.92293 -2.05149
# Velocity P-wave (km/s) = 1.10146 5.05077 3.48547
#
# Compressibility (1/GPa) = 0.03061178
#
# Stress axis : x y z
#
# Youngs Moduli (GPa) = 41.35254 116.17645 74.84643
#
# Poissons Ratio (x) = -0.38063 0.49290
# Poissons Ratio (y) = -0.13548 0.33383
# Poissons Ratio (z) = 0.27232 0.51818
#
# Static dielectric constant tensor:
#      x y z
#    x 1.767040 0.000000 0.000000 
#    y 0.000000 -1.240610 0.000000 
#    z 0.000000 0.000000 2.051360 
# 
# From -- ./inp_files/23508.got.cif
#   From: 2010.05.17/outbox.cif.g08.bks.cpg/sg48_12_cif.got.tgz:23508.got - 2010.06.03 20:39:00.
