data_PCOD9389544
_publ_section_title
;
Structure prediction by ZEFSAII (Michael W. Deem and Ramdas Pophale) SiO2 
 PCOD9389544
Probable space group: P N N N
;
_chemical_formula_sum "Si O2"
_cell_formula_units_Z 56
_cell_length_a 14.578514
_cell_length_b 9.081899
_cell_length_c 22.137170
_cell_angle_alpha 90.000000
_cell_angle_beta 90.000000
_cell_angle_gamma 90.000000
_cell_volume 2930.974407
_symmetry_space_group_name_H-M "P N N N"
_symmetry_group_IT_number 48
_space_group.IT_coordinate_system_code '2'
_symmetry_cell_setting 'orthorhombic'
loop_
_space_group_symop_operation_xyz
x,y,z
1/2-x,1/2-y,z
x,1/2-y,1/2-z
1/2-x,y,1/2-z
-x,-y,-z
1/2+x,1/2+y,-z
-x,1/2+y,1/2+z
1/2+x,-y,1/2+z
loop_
_atom_site_type_symbol
_atom_site_label
_atom_site_fract_x
_atom_site_fract_y
_atom_site_fract_z
Si Si1 0.750000 0.750000 0.631019
Si Si2 0.163225 0.652586 0.853867
Si Si3 0.744996 0.924314 0.427773
Si Si4 0.033244 0.750000 0.750000
Si Si5 0.696503 0.478906 0.556709
Si Si6 0.892251 0.183783 0.921998
Si Si7 0.423253 0.065523 0.343445
Si Si8 0.930537 0.371934 0.443710
O O1 0.693203 0.632669 0.591498
O O2 0.675507 0.855129 0.662612
O O3 0.250000 0.750000 0.835169
O O4 0.202721 0.494948 0.871213
O O5 0.091571 0.665644 0.800524
O O6 0.122567 0.733220 0.913702
O O7 0.750000 0.750000 0.427211
O O8 0.799245 0.982166 0.486591
O O9 0.641920 0.993573 0.432359
O O10 0.977726 0.626077 0.713488
O O11 0.794354 0.398432 0.568227
O O12 0.622897 0.358546 0.577569
O O13 0.922667 0.108712 0.859141
O O14 0.945466 0.148066 0.984676
O O15 0.477112 0.116872 0.404475
#
# Coordination Sequence:
#
# PCOD9389544 Si02
#       8
#     4   8   8   4   8   8   8   8
#     4  10  20  35  54  80 110 140 185 234 290 344
#     4   9  17  32  57  82 109 149 187 220 272 348
#     4  10  17  29  54  87 123 148 170 213 285 360
#     4  10  21  37  56  74 100 142 208 251 269 320
#     4   9  16  29  52  82 116 147 170 216 280 362
#     4   9  16  30  52  78 113 147 176 217 283 353
#     4  10  21  35  54  76 103 144 194 244 281 322
#     4   9  17  31  52  80 113 147 179 216 277 358
#
# _framework density 19.106273000000002
#
# number of rings (size 3 to 8) (size 9 to 14) (size 15 to 20)
#    0.000    2.571    2.143    0.643    0.000    0.286 
#    0.000    3.571    0.000   21.429    0.000    6.000 
#    0.000    0.000    0.000    0.000    0.000    0.000 
#
# Total GULP energy -311754.827134 kJ/mol
# GULP energy per Si atom -5567.050485 kJ/mol
# Density = 1.906279 g / cm^3
# Si number density = 19.106273 Si / 1000 Ang^3
#
#
#
# Elastic Constant Matrix: (Units=GPa)
#
#
# Indices 1 2 3 4 5 6 
#
# 1 47.7664 19.2651 25.5183 0.0000 0.0000 0.0000
# 2 19.2651 130.8653 42.6764 0.0000 0.0000 0.0000
# 3 25.5183 42.6764 90.6482 0.0000 0.0000 0.0000
# 4 0.0000 0.0000 0.0000 -0.1855 0.0000 0.0000
# 5 0.0000 0.0000 0.0000 0.0000 9.7419 0.0000
# 6 0.0000 0.0000 0.0000 0.0000 0.0000 12.8647
#
#
#
# Elastic Compliance Matrix: (Units=1/GPa)
#
#
# Indices 1 2 3 4 5 6 
#
# 1 0.024933 -0.001632 -0.006250 0.000000 0.000000 0.000000
# 2 -0.001632 0.009134 -0.003841 0.000000 0.000000 0.000000
# 3 -0.006250 -0.003841 0.014599 0.000000 0.000000 0.000000
# 4 0.000000 0.000000 0.000000 -5.390767 0.000000 0.000000
# 5 0.000000 0.000000 0.000000 0.000000 0.102650 0.000000
# 6 0.000000 0.000000 0.000000 0.000000 0.000000 0.077732
#
#
# Mechanical properties :
#
#
# Convention : Reuss Voigt Hill
#
# Bulk Modulus (GPa) = 39.65166 49.35548 44.50357
# Shear Modulus (GPa) = -0.97468 16.60555 7.81543
#
# Velocity S-wave (km/s) = -0.71501 2.95127 2.02469
# Velocity P-wave (km/s) = 4.48515 6.12385 5.36741
#
# Compressibility (1/GPa) = 0.02521962
#
# Stress axis : x y z
#
# Youngs Moduli (GPa) = 40.10809 109.47789 68.49573
#
# Poissons Ratio (x) = 0.17868 0.42812
# Poissons Ratio (y) = 0.06546 0.26308
# Poissons Ratio (z) = 0.25069 0.42049
#
# Static dielectric constant tensor:
#      x y z
#    x 1.720670 0.000000 0.000000 
#    y 0.000000 1.736310 0.000000 
#    z 0.000000 0.000000 1.659610 
# 
# From -- ./inp_files/34510.got.cif
#   From: 2010.05.17/outbox.cif.g08.bks.cpg/sg48_18_cif.got.tgz:34510.got - 2010.06.03 20:39:00.
