data_PCOD9389307
_publ_section_title
;
Structure prediction by ZEFSAII (Michael W. Deem and Ramdas Pophale) SiO2 
 PCOD9389307
Probable space group: P M M M
;
_chemical_formula_sum "Si O2"
_cell_formula_units_Z 52
_cell_length_a 9.000000
_cell_length_b 12.000000
_cell_length_c 27.000000
_cell_angle_alpha 90.000000
_cell_angle_beta 90.000000
_cell_angle_gamma 90.000000
_cell_volume 2916.000000
_symmetry_space_group_name_H-M "P M M M"
_symmetry_group_IT_number 47
_symmetry_cell_setting 'orthorhombic'
loop_
_space_group_symop_operation_xyz
x,y,z
-x,-y,z
x,-y,-z
-x,y,-z
-x,-y,-z
x,y,-z
-x,y,z
x,-y,z
loop_
_atom_site_type_symbol
_atom_site_label
_atom_site_fract_x
_atom_site_fract_y
_atom_site_fract_z
Si Si1 0.677596 0.373422 0.680754
Si Si2 0.664722 0.366249 0.150114
Si Si3 0.830811 0.000000 0.771660
Si Si4 0.169831 0.000000 0.652937
Si Si5 0.676706 0.794993 0.400190
Si Si6 0.177319 0.868422 0.500000
Si Si7 0.824615 0.240478 0.231325
Si Si8 0.831283 0.635495 0.944276
O O1 0.500000 0.372515 0.688827
O O2 0.730668 0.500000 0.686374
O O3 0.705535 0.321920 0.626832
O O4 0.750918 0.291886 0.720260
O O5 0.500000 0.327848 0.164552
O O6 0.663195 0.500000 0.150759
O O7 0.787513 0.324221 0.187639
O O8 0.711902 0.328094 0.095639
O O9 0.836933 0.000000 0.711935
O O10 0.762175 0.119168 0.783911
O O11 0.000000 0.000000 0.791705
O O12 0.255625 0.892210 0.633875
O O13 0.000000 0.000000 0.633446
O O14 0.500000 0.810121 0.404779
O O15 0.755223 0.810220 0.452194
O O16 0.000000 0.862694 0.500000
O O17 0.219298 0.000000 0.500000
O O18 0.000000 0.228500 0.240055
O O19 0.829831 0.500000 0.944788
O O20 0.000000 0.668162 0.930628
O O21 0.800807 0.673018 0.000000
#
# Coordination Sequence:
#
# PCOD9389307 Si02
#       8
#     8   8   4   4   8   4   8   8
#     4  10  22  39  56  77 107 139 170 206 251 302
#     4  10  20  32  46  70 106 142 174 211 256 304
#     4   9  20  35  52  76 104 132 165 212 261 301
#     4  11  19  34  56  79 109 136 163 210 263 304
#     4  11  22  36  57  83 107 135 172 210 250 304
#     4  11  23  37  56  81 109 139 166 207 263 304
#     4  11  21  35  54  76 102 135 174 213 255 304
#     4   8  14  26  45  69  97 131 173 217 257 301
#
# _framework density 17.832647000000001
#
# number of rings (size 3 to 8) (size 9 to 14) (size 15 to 20)
#    0.000    1.923    2.308    2.769    0.000    4.308 
#    0.000    3.462    0.000    2.308    0.000    0.538 
#    0.000    4.308    0.000    0.000    0.000    0.000 
#
# Total GULP energy -289809.030239 kJ/mol
# GULP energy per Si atom -5573.250582 kJ/mol
# Density = 1.779206 g / cm^3
# Si number density = 17.832647 Si / 1000 Ang^3
#
#
#
# Elastic Constant Matrix: (Units=GPa)
#
#
# Indices 1 2 3 4 5 6 
#
# 1 27.8062 30.6316 20.7462 0.0000 0.0000 0.0000
# 2 30.6316 66.4073 14.5805 0.0000 0.0000 0.0000
# 3 20.7462 14.5805 53.9219 0.0000 0.0000 0.0000
# 4 0.0000 0.0000 0.0000 2.7452 0.0000 0.0000
# 5 0.0000 0.0000 0.0000 0.0000 22.6208 0.0000
# 6 0.0000 0.0000 0.0000 0.0000 0.0000 15.1935
#
#
#
# Elastic Compliance Matrix: (Units=1/GPa)
#
#
# Indices 1 2 3 4 5 6 
#
# 1 0.102030 -0.040871 -0.028204 0.000000 0.000000 0.000000
# 2 -0.040871 0.032381 0.006969 0.000000 0.000000 0.000000
# 3 -0.028204 0.006969 0.027512 0.000000 0.000000 0.000000
# 4 0.000000 0.000000 0.000000 0.364272 0.000000 0.000000
# 5 0.000000 0.000000 0.000000 0.000000 0.044207 0.000000
# 6 0.000000 0.000000 0.000000 0.000000 0.000000 0.065818
#
#
# Mechanical properties :
#
#
# Convention : Reuss Voigt Hill
#
# Bulk Modulus (GPa) = 26.51711 31.11691 28.81701
# Shear Modulus (GPa) = 6.46829 13.59036 10.02933
#
# Velocity S-wave (km/s) = 1.90659 2.76362 2.37410
# Velocity P-wave (km/s) = 4.44399 5.26030 4.86928
#
# Compressibility (1/GPa) = 0.03771149
#
# Stress axis : x y z
#
# Youngs Moduli (GPa) = 9.80106 30.88245 36.34736
#
# Poissons Ratio (x) = 1.26219 1.02514
# Poissons Ratio (y) = 0.40058 -0.25331
# Poissons Ratio (z) = 0.27643 -0.21522
#
# Static dielectric constant tensor:
#      x y z
#    x 1.618620 0.000000 0.000000 
#    y 0.000000 1.626320 0.000000 
#    z 0.000000 0.000000 1.633290 
# 
# From -- ./inp_files/33322.got.cif
#   From: 2010.05.17/outbox.ucp.g08.bks.cvg/sg47_17_cif.got.tgz:33322.got - 2010.06.11 16:36:43.
