data_PCOD9389660
_publ_section_title
;
Structure prediction by ZEFSAII (Michael W. Deem and Ramdas Pophale) SiO2 
 PCOD9389660
Probable space group: P N N N
;
_chemical_formula_sum "Si O2"
_cell_formula_units_Z 38
_cell_length_a 10.335806
_cell_length_b 9.294147
_cell_length_c 17.431933
_cell_angle_alpha 90.000000
_cell_angle_beta 90.000000
_cell_angle_gamma 90.000000
_cell_volume 1674.555070
_symmetry_space_group_name_H-M "P N N N"
_symmetry_group_IT_number 48
_space_group.IT_coordinate_system_code '2'
_symmetry_cell_setting 'orthorhombic'
loop_
_space_group_symop_operation_xyz
x,y,z
1/2-x,1/2-y,z
x,1/2-y,1/2-z
1/2-x,y,1/2-z
-x,-y,-z
1/2+x,1/2+y,-z
-x,1/2+y,1/2+z
1/2+x,-y,1/2+z
loop_
_atom_site_type_symbol
_atom_site_label
_atom_site_fract_x
_atom_site_fract_y
_atom_site_fract_z
Si Si1 0.134470 0.835456 0.372412
Si Si2 0.559168 0.737757 0.488968
Si Si3 0.750000 0.250000 0.133114
Si Si4 0.235455 0.003043 0.986450
Si Si5 0.987128 0.885529 0.656156
Si Si6 0.750000 0.750000 0.750000
O O1 0.250000 0.750000 0.332492
O O2 0.045675 0.733292 0.424047
O O3 0.205413 0.930493 0.438074
O O4 0.038935 0.945085 0.329683
O O5 0.659061 0.618990 0.455855
O O6 0.622223 0.888739 0.509659
O O7 0.511907 0.659003 0.566026
O O8 0.705802 0.381606 0.076594
O O9 0.626791 0.181062 0.177754
O O10 0.855249 0.824138 0.693749
#
# Coordination Sequence:
#
# PCOD9389660 Si02
#       6
#     8   8   4   8   8   2
#     4  11  19  35  60  95 131 164 198 258 329 393
#     4  10  19  34  60  93 134 161 199 257 333 405
#     4  12  20  37  64  90 126 157 214 274 320 386
#     4  10  18  31  54  93 131 163 194 249 331 393
#     4  11  23  41  61  89 124 172 216 264 313 381
#     4  12  28  46  62  84 124 174 232 266 310 394
#
# _framework density 22.692595000000001
#
# number of rings (size 3 to 8) (size 9 to 14) (size 15 to 20)
#    0.000    1.263    5.263    3.789    0.000    5.474 
#    0.000    0.526    0.000    0.000    0.000    0.000 
#    0.000    0.000    0.000    0.000    0.000    0.000 
#
# Total GULP energy -211705.137121 kJ/mol
# GULP energy per Si atom -5571.187819 kJ/mol
# Density = 2.264095 g / cm^3
# Si number density = 22.692595 Si / 1000 Ang^3
#
#
#
# Elastic Constant Matrix: (Units=GPa)
#
#
# Indices 1 2 3 4 5 6 
#
# 1 121.9857 33.1423 7.6766 0.0000 0.0000 0.0000
# 2 33.1423 87.1218 3.4309 0.0000 0.0000 0.0000
# 3 7.6766 3.4309 43.2856 0.0000 0.0000 0.0000
# 4 0.0000 0.0000 0.0000 68.6632 0.0000 0.0000
# 5 0.0000 0.0000 0.0000 0.0000 -17.3785 0.0000
# 6 0.0000 0.0000 0.0000 0.0000 0.0000 56.6623
#
#
#
# Elastic Compliance Matrix: (Units=1/GPa)
#
#
# Indices 1 2 3 4 5 6 
#
# 1 0.009222 -0.003455 -0.001362 0.000000 0.000000 0.000000
# 2 -0.003455 0.012808 -0.000403 0.000000 0.000000 0.000000
# 3 -0.001362 -0.000403 0.023376 0.000000 0.000000 0.000000
# 4 0.000000 0.000000 0.000000 0.014564 0.000000 0.000000
# 5 0.000000 0.000000 0.000000 0.000000 -0.057542 0.000000
# 6 0.000000 0.000000 0.000000 0.000000 0.000000 0.017648
#
#
# Mechanical properties :
#
#
# Convention : Reuss Voigt Hill
#
# Bulk Modulus (GPa) = 28.59724 37.87695 33.23709
# Shear Modulus (GPa) = 118.56909 35.46561 77.01735
#
# Velocity S-wave (km/s) = 7.23627 3.95761 5.83207
# Velocity P-wave (km/s) = 9.08006 6.13279 7.74786
#
# Compressibility (1/GPa) = 0.03496841
#
# Stress axis : x y z
#
# Youngs Moduli (GPa) = 108.43721 78.07509 42.77933
#
# Poissons Ratio (x) = 0.26971 0.05825
# Poissons Ratio (y) = 0.37460 0.01722
# Poissons Ratio (z) = 0.14766 0.03143
#
# Static dielectric constant tensor:
#      x y z
#    x 1.985470 0.000000 0.000000 
#    y 0.000000 1.899880 0.000000 
#    z 0.000000 0.000000 1.830870 
# 
# From -- ./inp_files/34000.got.cif
#   From: 2010.05.17/outbox.cif.g08.bks.cpg/sg48_17_cif.got.tgz:34000.got - 2010.06.03 20:39:00.
