data_PCOD9389854
_publ_section_title
;
Structure prediction by ZEFSAII (Michael W. Deem and Ramdas Pophale) SiO2 
 PCOD9389854
Probable space group: P N N N
;
_chemical_formula_sum "Si O2"
_cell_formula_units_Z 48
_cell_length_a 14.525634
_cell_length_b 16.562517
_cell_length_c 9.817322
_cell_angle_alpha 90.000000
_cell_angle_beta 90.000000
_cell_angle_gamma 90.000000
_cell_volume 2361.861734
_symmetry_space_group_name_H-M "P N N N"
_symmetry_group_IT_number 48
_space_group.IT_coordinate_system_code '2'
_symmetry_cell_setting 'orthorhombic'
loop_
_space_group_symop_operation_xyz
x,y,z
1/2-x,1/2-y,z
x,1/2-y,1/2-z
1/2-x,y,1/2-z
-x,-y,-z
1/2+x,1/2+y,-z
-x,1/2+y,1/2+z
1/2+x,-y,1/2+z
loop_
_atom_site_type_symbol
_atom_site_label
_atom_site_fract_x
_atom_site_fract_y
_atom_site_fract_z
Si Si1 0.553522 0.117495 0.006145
Si Si2 0.401950 0.451666 0.997870
Si Si3 0.755029 0.427680 0.087307
Si Si4 0.454007 0.157539 0.269049
Si Si5 0.517271 0.842755 0.280101
Si Si6 0.113912 0.803116 0.979821
O O1 0.640983 0.061817 0.036108
O O2 0.478958 0.116454 0.126479
O O3 0.595859 0.208196 0.014823
O O4 0.508456 0.111834 0.858331
O O5 0.317202 0.510657 0.977576
O O6 0.409799 0.390987 0.870071
O O7 0.500000 0.500000 0.000000
O O8 0.393820 0.398818 0.134356
O O9 0.750000 0.434331 0.250000
O O10 0.713019 0.340232 0.046504
O O11 0.420419 0.250000 0.250000
O O12 0.549309 0.166310 0.355506
O O13 0.545296 0.750000 0.250000
O O14 0.427949 0.835758 0.378302
#
# Coordination Sequence:
#
# PCOD9389854 Si02
#       6
#     8   8   8   8   8   8
#     4  10  19  31  56  87 116 148 195 229 282 359
#     4  11  20  38  58  81 122 157 191 242 300 346
#     4  12  21  33  54  85 118 156 189 229 293 355
#     4   9  17  33  57  84 115 157 192 230 288 354
#     4   9  19  36  58  86 116 153 190 236 297 354
#     4   9  17  32  53  82 122 153 175 217 291 363
#
# _framework density 20.322952000000001
#
# number of rings (size 3 to 8) (size 9 to 14) (size 15 to 20)
#    0.000    2.000    5.000    1.500    0.000    1.333 
#    0.000    5.833    0.000    0.500    0.000    2.333 
#    0.000    0.000    0.000    0.000    0.000    0.000 
#
# Total GULP energy -267965.767418 kJ/mol
# GULP energy per Si atom -5582.620155 kJ/mol
# Density = 2.027670 g / cm^3
# Si number density = 20.322952 Si / 1000 Ang^3
#
#
#
# Elastic Constant Matrix: (Units=GPa)
#
#
# Indices 1 2 3 4 5 6 
#
# 1 33.8332 31.8929 31.0609 0.0000 0.0000 0.0000
# 2 31.8929 84.6334 38.6060 0.0000 0.0000 0.0000
# 3 31.0609 38.6060 155.1922 0.0000 0.0000 0.0000
# 4 0.0000 0.0000 0.0000 20.5495 0.0000 0.0000
# 5 0.0000 0.0000 0.0000 0.0000 8.3788 0.0000
# 6 0.0000 0.0000 0.0000 0.0000 0.0000 8.1880
#
#
#
# Elastic Compliance Matrix: (Units=1/GPa)
#
#
# Indices 1 2 3 4 5 6 
#
# 1 0.050421 -0.016240 -0.006052 0.000000 0.000000 0.000000
# 2 -0.016240 0.018559 -0.001366 0.000000 0.000000 0.000000
# 3 -0.006052 -0.001366 0.007995 0.000000 0.000000 0.000000
# 4 0.000000 0.000000 0.000000 0.048663 0.000000 0.000000
# 5 0.000000 0.000000 0.000000 0.000000 0.119349 0.000000
# 6 0.000000 0.000000 0.000000 0.000000 0.000000 0.122130
#
#
# Mechanical properties :
#
#
# Convention : Reuss Voigt Hill
#
# Bulk Modulus (GPa) = 33.71695 52.97538 43.34617
# Shear Modulus (GPa) = 11.78360 18.89653 15.34006
#
# Velocity S-wave (km/s) = 2.41055 3.05259 2.75037
# Velocity P-wave (km/s) = 4.93703 6.20869 5.60901
#
# Compressibility (1/GPa) = 0.02965867
#
# Stress axis : x y z
#
# Youngs Moduli (GPa) = 19.83288 53.88287 125.08240
#
# Poissons Ratio (x) = 0.87506 0.75696
# Poissons Ratio (y) = 0.32209 0.17091
# Poissons Ratio (z) = 0.12002 0.07362
#
# Static dielectric constant tensor:
#      x y z
#    x 1.671260 0.000000 0.000000 
#    y 0.000000 1.833300 0.000000 
#    z 0.000000 0.000000 1.720670 
# 
# From -- ./inp_files/12771.got.cif
#   From: 2010.05.17/outbox.cif.g08.bks.cpg/sg48_7_cif.got.tgz:12771.got - 2010.06.03 20:39:00.
