data_PCOD9389690
_publ_section_title
;
Structure prediction by ZEFSAII (Michael W. Deem and Ramdas Pophale) SiO2 
 PCOD9389690
Probable space group: P N N N
;
_chemical_formula_sum "Si O2"
_cell_formula_units_Z 60
_cell_length_a 11.021583
_cell_length_b 22.262576
_cell_length_c 10.731836
_cell_angle_alpha 90.000000
_cell_angle_beta 90.000000
_cell_angle_gamma 90.000000
_cell_volume 2633.258034
_symmetry_space_group_name_H-M "P N N N"
_symmetry_group_IT_number 48
_space_group.IT_coordinate_system_code '2'
_symmetry_cell_setting 'orthorhombic'
loop_
_space_group_symop_operation_xyz
x,y,z
1/2-x,1/2-y,z
x,1/2-y,1/2-z
1/2-x,y,1/2-z
-x,-y,-z
1/2+x,1/2+y,-z
-x,1/2+y,1/2+z
1/2+x,-y,1/2+z
loop_
_atom_site_type_symbol
_atom_site_label
_atom_site_fract_x
_atom_site_fract_y
_atom_site_fract_z
Si Si1 0.159731 0.111463 0.134749
Si Si2 0.575841 0.428782 0.426505
Si Si3 0.673428 0.809278 0.015747
Si Si4 0.976220 0.315672 0.207647
Si Si5 0.250000 0.616067 0.250000
Si Si6 0.990569 0.625194 0.173848
Si Si7 0.393200 0.010017 0.714194
Si Si8 0.814738 0.478216 0.544370
O O1 0.250000 0.121462 0.250000
O O2 0.040923 0.148865 0.177316
O O3 0.160055 0.040730 0.110967
O O4 0.228730 0.139335 0.016462
O O5 0.610602 0.365383 0.359141
O O6 0.490160 0.410877 0.540511
O O7 0.532000 0.470022 0.313325
O O8 0.680585 0.467802 0.489107
O O9 0.750000 0.750000 0.021483
O O10 0.601020 0.822166 0.142147
O O11 0.578300 0.804112 0.899687
O O12 0.930142 0.250000 0.250000
O O13 0.129568 0.646549 0.193603
O O14 0.187443 0.574549 0.355056
O O15 0.941088 0.577714 0.273903
O O16 0.250000 0.009972 0.750000
O O17 0.396729 0.979505 0.579162
#
# Coordination Sequence:
#
# PCOD9389690 Si02
#       8
#     8   8   8   8   4   8   8   8
#     4  10  19  30  52  85 126 166 203 268 336 395
#     4   9  20  35  57  85 126 173 213 263 340 408
#     4  10  18  32  56  87 121 167 215 269 340 393
#     4  10  19  32  53  87 126 165 220 279 333 403
#     4  10  22  38  56  90 131 177 220 252 328 406
#     4  10  21  36  59  86 131 174 210 265 323 407
#     4  10  20  35  58  88 129 166 212 271 338 398
#     4  10  20  37  57  87 131 170 218 269 329 412
#
# _framework density 22.78546
#
# number of rings (size 3 to 8) (size 9 to 14) (size 15 to 20)
#    0.000    2.133    2.000    2.000    1.867    2.667 
#    0.000    0.000    0.000    7.200    0.000    0.000 
#    0.000   17.067    0.000    0.000    0.000    0.000 
#
# Total GULP energy -334551.935118 kJ/mol
# GULP energy per Si atom -5575.865585 kJ/mol
# Density = 2.273360 g / cm^3
# Si number density = 22.785460 Si / 1000 Ang^3
#
#
#
# Elastic Constant Matrix: (Units=GPa)
#
#
# Indices 1 2 3 4 5 6 
#
# 1 72.3764 16.8290 22.1632 0.0000 0.0000 0.0000
# 2 16.8290 42.9308 -7.0049 0.0000 0.0000 0.0000
# 3 22.1632 -7.0049 64.6463 0.0000 0.0000 0.0000
# 4 0.0000 0.0000 0.0000 324.0159 0.0000 0.0000
# 5 0.0000 0.0000 0.0000 0.0000 24.9023 0.0000
# 6 0.0000 0.0000 0.0000 0.0000 0.0000 14.3159
#
#
#
# Elastic Compliance Matrix: (Units=1/GPa)
#
#
# Indices 1 2 3 4 5 6 
#
# 1 0.017854 -0.008142 -0.007003 0.000000 0.000000 0.000000
# 2 -0.008142 0.027425 0.005763 0.000000 0.000000 0.000000
# 3 -0.007003 0.005763 0.018494 0.000000 0.000000 0.000000
# 4 0.000000 0.000000 0.000000 0.003086 0.000000 0.000000
# 5 0.000000 0.000000 0.000000 0.000000 0.040157 0.000000
# 6 0.000000 0.000000 0.000000 0.000000 0.000000 0.069852
#
#
# Mechanical properties :
#
#
# Convention : Reuss Voigt Hill
#
# Bulk Modulus (GPa) = 22.21741 27.10313 24.66027
# Shear Modulus (GPa) = 23.73756 82.51124 53.12440
#
# Velocity S-wave (km/s) = 3.23117 6.02419 4.83380
# Velocity P-wave (km/s) = 4.86749 7.76586 6.48078
#
# Compressibility (1/GPa) = 0.04500974
#
# Stress axis : x y z
#
# Youngs Moduli (GPa) = 56.00880 36.46282 54.07081
#
# Poissons Ratio (x) = 0.29687 0.37868
# Poissons Ratio (y) = 0.45601 -0.31161
# Poissons Ratio (z) = 0.39225 -0.21014
#
# Static dielectric constant tensor:
#      x y z
#    x 1.887880 0.000000 0.000000 
#    y 0.000000 1.866790 0.000000 
#    z 0.000000 0.000000 1.931250 
# 
# From -- ./inp_files/20306.got.cif
#   From: 2010.05.17/outbox.cif.g08.bks.cpg/sg48_11_cif.got.tgz:20306.got - 2010.06.03 20:39:00.
