data_PCOD9389101
_publ_section_title
;
Structure prediction by ZEFSAII (Michael W. Deem and Ramdas Pophale) SiO2 
 PCOD9389101
Probable space group: P M M M
;
_chemical_formula_sum "Si O2"
_cell_formula_units_Z 44
_cell_length_a 31.880950
_cell_length_b 7.751982
_cell_length_c 9.523368
_cell_angle_alpha 90.000000
_cell_angle_beta 90.000000
_cell_angle_gamma 90.000000
_cell_volume 2353.610411
_symmetry_space_group_name_H-M "P M M M"
_symmetry_group_IT_number 47
_symmetry_cell_setting 'orthorhombic'
loop_
_space_group_symop_operation_xyz
x,y,z
-x,-y,z
x,-y,-z
-x,y,-z
-x,-y,-z
x,y,-z
-x,y,z
x,-y,z
loop_
_atom_site_type_symbol
_atom_site_label
_atom_site_fract_x
_atom_site_fract_y
_atom_site_fract_z
Si Si1 0.693540 0.206223 0.339577
Si Si2 0.953514 0.789263 0.837308
Si Si3 0.611835 0.796610 0.168265
Si Si4 0.125182 0.793769 0.340166
Si Si5 0.547772 0.500000 0.170580
Si Si6 0.784469 0.704786 0.660146
O O1 0.691562 0.275701 0.500000
O O2 0.654180 0.261910 0.246841
O O3 0.739488 0.246316 0.277596
O O4 0.690716 0.000000 0.347858
O O5 0.914267 0.726686 0.747107
O O6 0.000000 0.736297 0.787238
O O7 0.953001 0.000000 0.834561
O O8 0.949257 0.738563 0.000000
O O9 0.573956 0.670613 0.210537
O O10 0.603942 0.000000 0.199051
O O11 0.617577 0.782388 0.000000
O O12 0.124986 0.724744 0.500000
O O13 0.171217 0.760641 0.275930
O O14 0.120582 0.000000 0.348204
O O15 0.500000 0.500000 0.222258
O O16 0.546186 0.500000 0.000000
O O17 0.784061 0.778361 0.500000
O O18 0.785502 0.500000 0.651983
#
# Coordination Sequence:
#
# PCOD9389101 Si02
#       6
#     8   8   8   8   4   8
#     4   9  17  30  49  71  94 123 159 195 232 279
#     4   8  14  25  41  61  84 109 138 174 218 267
#     4   9  18  32  50  73 100 128 160 202 247 287
#     4   9  16  26  42  63  85 108 138 180 222 258
#     4   9  18  32  51  75 101 131 167 205 244 287
#     4   9  17  28  43  64  89 118 150 183 221 269
#
# _framework density 18.694685
#
# number of rings (size 3 to 8) (size 9 to 14) (size 15 to 20)
#    0.000    3.182    0.000    1.091    1.273    2.909 
#    0.000    4.545    0.000    7.636    0.000    6.364 
#    0.000    0.000    0.000    0.000    0.000    0.000 
#
# Total GULP energy -245003.080160 kJ/mol
# GULP energy per Si atom -5568.251822 kJ/mol
# Density = 1.865213 g / cm^3
# Si number density = 18.694685 Si / 1000 Ang^3
#
#
#
# Elastic Constant Matrix: (Units=GPa)
#
#
# Indices 1 2 3 4 5 6 
#
# 1 228.4835 43.4967 58.7831 0.0000 0.0000 0.0000
# 2 43.4967 46.8541 17.4037 0.0000 0.0000 0.0000
# 3 58.7831 17.4037 28.1232 0.0000 0.0000 0.0000
# 4 0.0000 0.0000 0.0000 6.0472 0.0000 0.0000
# 5 0.0000 0.0000 0.0000 0.0000 26.3559 0.0000
# 6 0.0000 0.0000 0.0000 0.0000 0.0000 92.8089
#
#
#
# Elastic Compliance Matrix: (Units=1/GPa)
#
#
# Indices 1 2 3 4 5 6 
#
# 1 0.009596 -0.001893 -0.018886 0.000000 0.000000 0.000000
# 2 -0.001893 0.028087 -0.013424 0.000000 0.000000 0.000000
# 3 -0.018886 -0.013424 0.083340 0.000000 0.000000 0.000000
# 4 0.000000 0.000000 0.000000 0.165365 0.000000 0.000000
# 5 0.000000 0.000000 0.000000 0.000000 0.037942 0.000000
# 6 0.000000 0.000000 0.000000 0.000000 0.000000 0.010775
#
#
# Mechanical properties :
#
#
# Convention : Reuss Voigt Hill
#
# Bulk Modulus (GPa) = 19.00530 60.31421 39.65975
# Shear Modulus (GPa) = 11.87511 37.29423 24.58467
#
# Velocity S-wave (km/s) = 2.52308 4.47129 3.63031
# Velocity P-wave (km/s) = 4.32159 7.68045 6.23159
#
# Compressibility (1/GPa) = 0.05261691
#
# Stress axis : x y z
#
# Youngs Moduli (GPa) = 104.21062 35.60413 11.99907
#
# Poissons Ratio (x) = 0.06741 0.22661
# Poissons Ratio (y) = 0.19730 0.16107
# Poissons Ratio (z) = 1.96810 0.47794
#
# Static dielectric constant tensor:
#      x y z
#    x 1.666280 0.000000 0.000000 
#    y 0.000000 1.668920 0.000000 
#    z 0.000000 0.000000 1.646440 
# 
# From -- ./inp_files/2117.got.cif
#   From: 2010.05.17/outbox.cif.g08.bks.cpg/sg47_2_cif.got.tgz:2117.got - 2010.06.03 20:15:42.
