data_PCOD9389190
_publ_section_title
;
Structure prediction by ZEFSAII (Michael W. Deem and Ramdas Pophale) SiO2 
 PCOD9389190
Probable space group: P M M M
;
_chemical_formula_sum "Si O2"
_cell_formula_units_Z 44
_cell_length_a 18.363195
_cell_length_b 7.403721
_cell_length_c 15.254771
_cell_angle_alpha 90.000000
_cell_angle_beta 90.000000
_cell_angle_gamma 90.000000
_cell_volume 2073.977226
_symmetry_space_group_name_H-M "P M M M"
_symmetry_group_IT_number 47
_symmetry_cell_setting 'orthorhombic'
loop_
_space_group_symop_operation_xyz
x,y,z
-x,-y,z
x,-y,-z
-x,y,-z
-x,-y,-z
x,y,-z
-x,y,z
x,-y,z
loop_
_atom_site_type_symbol
_atom_site_label
_atom_site_fract_x
_atom_site_fract_y
_atom_site_fract_z
Si Si1 0.858216 0.217470 0.295232
Si Si2 0.688037 0.280411 0.146502
Si Si3 0.419818 0.279721 0.000000
Si Si4 0.000000 0.220701 0.600070
Si Si5 0.693609 0.714607 0.657221
Si Si6 0.849700 0.207541 0.903037
Si Si7 0.413191 0.721197 0.500000
O O1 0.927048 0.278628 0.350763
O O2 0.781704 0.259039 0.344437
O O3 0.866823 0.285933 0.194199
O O4 0.859205 0.000000 0.288299
O O5 0.694068 0.500000 0.147492
O O6 0.622713 0.224935 0.085786
O O7 0.676962 0.216857 0.245309
O O8 0.762238 0.210680 0.103995
O O9 0.420484 0.500000 0.000000
O O10 0.500000 0.211534 0.000000
O O11 0.000000 0.278881 0.500000
O O12 0.000000 0.000000 0.601077
O O13 0.683229 0.500000 0.656577
O O14 0.637159 0.780639 0.583225
O O15 0.875994 0.000000 0.903372
O O16 0.869849 0.284102 0.000000
O O17 0.414783 0.500000 0.500000
O O18 0.500000 0.775299 0.500000
#
# Coordination Sequence:
#
# PCOD9389190 Si02
#       7
#     8   8   4   4   8   8   4
#     4   9  18  32  50  72  96 125 159 194 232 278
#     4   9  16  27  43  63  87 117 153 189 225 267
#     4   9  16  24  37  61  89 112 143 190 232 265
#     4   9  18  32  50  72  98 125 157 195 234 278
#     4   9  18  31  49  71  94 123 160 197 234 281
#     4   9  16  27  45  67  91 118 149 185 227 271
#     4   9  18  32  49  70  97 126 156 195 243 289
#
# _framework density 21.215275999999999
#
# number of rings (size 3 to 8) (size 9 to 14) (size 15 to 20)
#    0.000    3.000    0.909    0.000    1.273    0.727 
#    0.000    4.545    0.000    5.455    0.000    5.091 
#    0.000    5.818    0.000    0.000    0.000    0.000 
#
# Total GULP energy -245012.909092 kJ/mol
# GULP energy per Si atom -5568.475207 kJ/mol
# Density = 2.116699 g / cm^3
# Si number density = 21.215276 Si / 1000 Ang^3
#
#
#
# Elastic Constant Matrix: (Units=GPa)
#
#
# Indices 1 2 3 4 5 6 
#
# 1 149.1071 -6.1507 111.0295 0.0000 0.0000 0.0000
# 2 -6.1507 71.7597 3.4357 0.0000 0.0000 0.0000
# 3 111.0295 3.4357 183.0108 0.0000 0.0000 0.0000
# 4 0.0000 0.0000 0.0000 1.9992 0.0000 0.0000
# 5 0.0000 0.0000 0.0000 0.0000 34.8009 0.0000
# 6 0.0000 0.0000 0.0000 0.0000 0.0000 14.6811
#
#
#
# Elastic Compliance Matrix: (Units=1/GPa)
#
#
# Indices 1 2 3 4 5 6 
#
# 1 0.012376 0.001422 -0.007535 0.000000 0.000000 0.000000
# 2 0.001422 0.014111 -0.001127 0.000000 0.000000 0.000000
# 3 -0.007535 -0.001127 0.010057 0.000000 0.000000 0.000000
# 4 0.000000 0.000000 0.000000 0.500209 0.000000 0.000000
# 5 0.000000 0.000000 0.000000 0.000000 0.028735 0.000000
# 6 0.000000 0.000000 0.000000 0.000000 0.000000 0.068115
#
#
# Mechanical properties :
#
#
# Convention : Reuss Voigt Hill
#
# Bulk Modulus (GPa) = 45.32620 68.94519 57.13569
# Shear Modulus (GPa) = 7.62849 30.00044 18.81446
#
# Velocity S-wave (km/s) = 1.89830 3.76453 2.98121
# Velocity P-wave (km/s) = 5.12016 7.17384 6.23217
#
# Compressibility (1/GPa) = 0.02206230
#
# Stress axis : x y z
#
# Youngs Moduli (GPa) = 80.80147 70.86563 99.43639
#
# Poissons Ratio (x) = -0.10074 0.74925
# Poissons Ratio (y) = -0.11486 0.11210
# Poissons Ratio (z) = 0.60884 0.07989
#
# Static dielectric constant tensor:
#      x y z
#    x 1.722300 0.000000 0.000000 
#    y 0.000000 1.836540 0.000000 
#    z 0.000000 0.000000 1.776880 
# 
# From -- ./inp_files/9090.got.cif
#   From: 2010.05.17/outbox.cif.g08.bks.cpg/sg47_5_cif.got.tgz:9090.got - 2010.06.03 20:15:42.
