data_PCOD9389225
_publ_section_title
;
Structure prediction by ZEFSAII (Michael W. Deem and Ramdas Pophale) SiO2 
 PCOD9389225
Probable space group: P M M M
;
_chemical_formula_sum "Si O2"
_cell_formula_units_Z 64
_cell_length_a 9.000000
_cell_length_b 15.000000
_cell_length_c 30.000000
_cell_angle_alpha 90.000000
_cell_angle_beta 90.000000
_cell_angle_gamma 90.000000
_cell_volume 4050.000000
_symmetry_space_group_name_H-M "P M M M"
_symmetry_group_IT_number 47
_symmetry_cell_setting 'orthorhombic'
loop_
_space_group_symop_operation_xyz
x,y,z
-x,-y,z
x,-y,-z
-x,y,-z
-x,-y,-z
x,y,-z
-x,y,z
x,-y,z
loop_
_atom_site_type_symbol
_atom_site_label
_atom_site_fract_x
_atom_site_fract_y
_atom_site_fract_z
Si Si1 0.175173 0.895642 0.314142
Si Si2 0.322618 0.102821 0.590859
Si Si3 0.176549 0.605233 0.367215
Si Si4 0.818406 0.896029 0.146900
Si Si5 0.820892 0.728168 0.450159
Si Si6 0.677980 0.395880 0.271631
Si Si7 0.175232 0.107910 0.951703
Si Si8 0.179246 0.772121 0.229760
O O1 0.267772 0.878275 0.358716
O O2 0.215078 0.832916 0.272949
O O3 0.000000 0.881905 0.324323
O O4 0.193833 0.000000 0.301879
O O5 0.500000 0.110219 0.588320
O O6 0.246385 0.174903 0.559383
O O7 0.280966 0.000000 0.580833
O O8 0.196514 0.500000 0.376526
O O9 0.225378 0.663263 0.409673
O O10 0.260625 0.625902 0.321240
O O11 0.000000 0.620957 0.359989
O O12 0.766080 0.866519 0.097288
O O13 0.774114 0.828138 0.185964
O O14 0.000000 0.896876 0.146078
O O15 0.774448 0.000000 0.154986
O O16 0.778837 0.697384 0.500000
O O17 0.000000 0.733098 0.448607
O O18 0.500000 0.389294 0.271379
O O19 0.718333 0.500000 0.262585
O O20 0.747329 0.323976 0.237860
O O21 0.000000 0.131460 0.952130
O O22 0.182310 0.000000 0.951560
O O23 0.238491 0.137752 0.000000
O O24 0.000000 0.762283 0.228242
#
# Coordination Sequence:
#
# PCOD9389225 Si02
#       8
#     8   8   8   8   8   8   8   8
#     4   9  17  29  45  65  89 116 144 172 205 249
#     4  10  21  35  49  65  86 114 148 182 212 242
#     4   9  18  34  55  75  93 112 135 166 205 251
#     4   8  13  21  34  56  88 122 153 183 215 254
#     4  10  21  35  51  72  94 114 137 166 204 250
#     4  10  21  35  49  65  86 113 144 177 214 256
#     4   7   9  14  26  46  76 116 155 184 211 247
#     4  10  18  27  43  66  90 116 145 178 216 255
#
# _framework density 15.802469
#
# number of rings (size 3 to 8) (size 9 to 14) (size 15 to 20)
#    0.000    2.875    0.000    3.000    0.000    7.750 
#    0.000    2.500    0.000    1.125    0.000    2.625 
#    0.000    1.000    0.000    9.375    0.000    3.750 
#
# Total GULP energy -356567.899153 kJ/mol
# GULP energy per Si atom -5571.373424 kJ/mol
# Density = 1.576650 g / cm^3
# Si number density = 15.802469 Si / 1000 Ang^3
#
#
#
# Elastic Constant Matrix: (Units=GPa)
#
#
# Indices 1 2 3 4 5 6 
#
# 1 10.4919 19.8731 19.3557 0.0000 0.0000 0.0000
# 2 19.8731 74.8131 62.8913 0.0000 0.0000 0.0000
# 3 19.3557 62.8913 105.2207 0.0000 0.0000 0.0000
# 4 0.0000 0.0000 0.0000 19.6142 0.0000 0.0000
# 5 0.0000 0.0000 0.0000 0.0000 -3.7078 0.0000
# 6 0.0000 0.0000 0.0000 0.0000 0.0000 18.0476
#
#
#
# Elastic Compliance Matrix: (Units=1/GPa)
#
#
# Indices 1 2 3 4 5 6 
#
# 1 0.196899 -0.043927 -0.009965 0.000000 0.000000 0.000000
# 2 -0.043927 0.036665 -0.013835 0.000000 0.000000 0.000000
# 3 -0.009965 -0.013835 0.019606 0.000000 0.000000 0.000000
# 4 0.000000 0.000000 0.000000 0.050983 0.000000 0.000000
# 5 0.000000 0.000000 0.000000 0.000000 -0.269702 0.000000
# 6 0.000000 0.000000 0.000000 0.000000 0.000000 0.055409
#
#
# Mechanical properties :
#
#
# Convention : Reuss Voigt Hill
#
# Bulk Modulus (GPa) = 8.49488 43.86287 26.17887
# Shear Modulus (GPa) = 18.89976 12.68450 15.79213
#
# Velocity S-wave (km/s) = 3.46208 2.83625 3.16467
# Velocity P-wave (km/s) = 4.62262 6.20830 5.47319
#
# Compressibility (1/GPa) = 0.11771797
#
# Stress axis : x y z
#
# Youngs Moduli (GPa) = 5.07873 27.27378 51.00477
#
# Poissons Ratio (x) = 1.19805 0.50826
# Poissons Ratio (y) = 0.22309 0.70563
# Poissons Ratio (z) = 0.05061 0.37732
#
# Static dielectric constant tensor:
#      x y z
#    x 1.524230 0.000000 0.000000 
#    y 0.000000 1.526110 0.000000 
#    z 0.000000 0.000000 1.549250 
# 
# From -- ./inp_files/22197.got.cif
#   From: 2010.05.17/outbox.ucp.g08.bks.cvg/sg47_12_cif.got.tgz:22197.got - 2010.06.11 16:36:43.
