data_PCOD9389296
_publ_section_title
;
Structure prediction by ZEFSAII (Michael W. Deem and Ramdas Pophale) SiO2 
 PCOD9389296
Probable space group: P M M M
;
_chemical_formula_sum "Si O2"
_cell_formula_units_Z 33
_cell_length_a 15.000000
_cell_length_b 9.000000
_cell_length_c 12.000000
_cell_angle_alpha 90.000000
_cell_angle_beta 90.000000
_cell_angle_gamma 90.000000
_cell_volume 1620.000000
_symmetry_space_group_name_H-M "P M M M"
_symmetry_group_IT_number 47
_symmetry_cell_setting 'orthorhombic'
loop_
_space_group_symop_operation_xyz
x,y,z
-x,-y,z
x,-y,-z
-x,y,-z
-x,-y,-z
x,y,-z
-x,y,z
x,-y,z
loop_
_atom_site_type_symbol
_atom_site_label
_atom_site_fract_x
_atom_site_fract_y
_atom_site_fract_z
Si Si1 0.095900 0.322654 0.755169
Si Si2 0.158599 0.677790 0.000000
Si Si3 0.255934 0.825947 0.373992
Si Si4 0.395046 0.658846 0.754067
Si Si5 0.500000 0.000000 0.000000
Si Si6 0.646053 0.259643 0.000000
O O1 0.099049 0.500000 0.742083
O O2 0.176222 0.252908 0.689178
O O3 0.000000 0.267505 0.715685
O O4 0.106735 0.293155 0.886630
O O5 0.182218 0.500000 0.000000
O O6 0.249024 0.771761 0.000000
O O7 0.264498 0.771384 0.500000
O O8 0.344704 0.790043 0.306085
O O9 0.239539 0.000000 0.375301
O O10 0.500000 0.672308 0.741084
O O11 0.364658 0.500000 0.706304
O O12 0.372550 0.658815 0.884304
O O13 0.577804 0.873795 0.000000
#
# Coordination Sequence:
#
# PCOD9389296 Si02
#       6
#     8   4   8   8   1   4
#     4  10  21  39  66  97 126 159 202 256 316 378
#     4  10  19  36  63  95 127 159 197 247 311 374
#     4  11  26  44  62  86 121 167 214 260 315 376
#     4  11  23  40  65  94 126 161 206 260 312 371
#     4  12  28  36  54 100 140 176 210 252 292 382
#     4  12  22  36  60  94 131 167 202 245 305 365
#
# _framework density 20.370370000000001
#
# number of rings (size 3 to 8) (size 9 to 14) (size 15 to 20)
#    0.000    1.212    3.636    2.182    1.697    6.303 
#    0.000    4.848    0.000    1.455    0.000    0.000 
#    0.000    0.000    0.000    0.000    0.000    0.000 
#
# Total GULP energy -183880.008414 kJ/mol
# GULP energy per Si atom -5572.121467 kJ/mol
# Density = 2.032401 g / cm^3
# Si number density = 20.370370 Si / 1000 Ang^3
#
#
#
# Elastic Constant Matrix: (Units=GPa)
#
#
# Indices 1 2 3 4 5 6 
#
# 1 90.1712 24.1816 32.6873 0.0000 0.0000 0.0000
# 2 24.1816 25.4130 37.7879 0.0000 0.0000 0.0000
# 3 32.6873 37.7879 102.5423 0.0000 0.0000 0.0000
# 4 0.0000 0.0000 0.0000 -65.7807 0.0000 0.0000
# 5 0.0000 0.0000 0.0000 0.0000 464.7366 0.0000
# 6 0.0000 0.0000 0.0000 0.0000 0.0000 57.4230
#
#
#
# Elastic Compliance Matrix: (Units=1/GPa)
#
#
# Indices 1 2 3 4 5 6 
#
# 1 0.014941 -0.015784 0.001054 0.000000 0.000000 0.000000
# 2 -0.015784 0.103724 -0.033192 0.000000 0.000000 0.000000
# 3 0.001054 -0.033192 0.021648 0.000000 0.000000 0.000000
# 4 0.000000 0.000000 0.000000 -0.015202 0.000000 0.000000
# 5 0.000000 0.000000 0.000000 0.000000 0.002152 0.000000
# 6 0.000000 0.000000 0.000000 0.000000 0.000000 0.017415
#
#
# Mechanical properties :
#
#
# Convention : Reuss Voigt Hill
#
# Bulk Modulus (GPa) = 22.48788 45.27110 33.87949
# Shear Modulus (GPa) = 19.58150 99.50709 59.54429
#
# Velocity S-wave (km/s) = 3.10381 6.99678 5.41242
# Velocity P-wave (km/s) = 4.88961 9.35658 7.46505
#
# Compressibility (1/GPa) = 0.04446840
#
# Stress axis : x y z
#
# Youngs Moduli (GPa) = 66.93062 9.64100 46.19440
#
# Poissons Ratio (x) = 0.15217 -0.04868
# Poissons Ratio (y) = 1.05643 1.53327
# Poissons Ratio (z) = -0.07054 0.32000
#
# Static dielectric constant tensor:
#      x y z
#    x 1.687220 0.000000 0.000000 
#    y 0.000000 1.691660 0.000000 
#    z 0.000000 0.000000 1.740120 
# 
# From -- ./inp_files/3450.got.cif
#   From: 2010.05.17/outbox.ucp.g08.bks.cvg/sg47_2_cif.got.tgz:3450.got - 2010.06.11 16:36:43.
