data_PCOD9389393
_publ_section_title
;
Structure prediction by ZEFSAII (Michael W. Deem and Ramdas Pophale) SiO2 
 PCOD9389393
Probable space group: P M M M
;
_chemical_formula_sum "Si O2"
_cell_formula_units_Z 56
_cell_length_a 21.000000
_cell_length_b 9.000000
_cell_length_c 15.000000
_cell_angle_alpha 90.000000
_cell_angle_beta 90.000000
_cell_angle_gamma 90.000000
_cell_volume 2835.000000
_symmetry_space_group_name_H-M "P M M M"
_symmetry_group_IT_number 47
_symmetry_cell_setting 'orthorhombic'
loop_
_space_group_symop_operation_xyz
x,y,z
-x,-y,z
x,-y,-z
-x,y,-z
-x,-y,-z
x,y,-z
-x,y,z
x,-y,z
loop_
_atom_site_type_symbol
_atom_site_label
_atom_site_fract_x
_atom_site_fract_y
_atom_site_fract_z
Si Si1 0.570954 0.324955 0.362898
Si Si2 0.703303 0.178020 0.406049
Si Si3 0.246168 0.176806 0.219332
Si Si4 0.077024 0.825972 0.600212
Si Si5 0.000000 0.318870 0.898636
Si Si6 0.880924 0.677120 0.219200
Si Si7 0.425838 0.164331 0.000000
Si Si8 0.375041 0.673180 0.168490
O O1 0.500000 0.272161 0.387249
O O2 0.574897 0.500000 0.385522
O O3 0.631858 0.241279 0.401423
O O4 0.582103 0.310973 0.256849
O O5 0.732714 0.221426 0.500000
O O6 0.744124 0.226554 0.322210
O O7 0.698758 0.000000 0.401238
O O8 0.184315 0.255948 0.183243
O O9 0.310971 0.232242 0.176583
O O10 0.240034 0.000000 0.215043
O O11 0.094962 0.777903 0.500000
O O12 0.106102 0.735875 0.681322
O O13 0.000000 0.816916 0.605917
O O14 0.094802 0.000000 0.609450
O O15 0.061574 0.272127 0.843530
O O16 0.000000 0.500000 0.900073
O O17 0.000000 0.266703 0.000000
O O18 0.878525 0.500000 0.219902
O O19 0.409807 0.260681 0.085089
O O20 0.500000 0.142562 0.000000
O O21 0.394628 0.000000 0.000000
O O22 0.359358 0.500000 0.159611
#
# Coordination Sequence:
#
# PCOD9389393 Si02
#       8
#     8   8   8   8   4   8   4   8
#     4   9  18  32  51  76 106 140 179 226 280 332
#     4   9  19  35  53  74 103 143 189 230 269 322
#     4  10  21  38  58  80 112 152 189 232 284 340
#     4   9  18  33  54  81 115 153 187 224 282 351
#     4   9  20  40  62  85 114 148 185 231 282 339
#     4  11  21  36  60  88 115 148 192 240 288 340
#     4  11  23  37  57  87 119 148 181 228 287 349
#     4  10  20  37  58  80 108 145 189 235 282 337
#
# _framework density 19.753086
#
# number of rings (size 3 to 8) (size 9 to 14) (size 15 to 20)
#    0.000    2.286    0.714    2.357    0.000    4.000 
#    1.286    3.571    0.000    3.000    0.000    0.000 
#    0.000    0.000    0.000    0.000    0.000    0.000 
#
# Total GULP energy -312339.839032 kJ/mol
# GULP energy per Si atom -5577.497126 kJ/mol
# Density = 1.970813 g / cm^3
# Si number density = 19.753086 Si / 1000 Ang^3
#
#
#
# Elastic Constant Matrix: (Units=GPa)
#
#
# Indices 1 2 3 4 5 6 
#
# 1 104.8398 15.0883 30.7716 0.0000 0.0000 0.0000
# 2 15.0883 10.7042 21.4016 0.0000 0.0000 0.0000
# 3 30.7716 21.4016 91.9752 0.0000 0.0000 0.0000
# 4 0.0000 0.0000 0.0000 17.1723 0.0000 0.0000
# 5 0.0000 0.0000 0.0000 0.0000 -36.3178 0.0000
# 6 0.0000 0.0000 0.0000 0.0000 0.0000 28.1589
#
#
#
# Elastic Compliance Matrix: (Units=1/GPa)
#
#
# Indices 1 2 3 4 5 6 
#
# 1 0.011967 -0.016574 -0.000147 0.000000 0.000000 0.000000
# 2 -0.016574 0.197650 -0.040446 0.000000 0.000000 0.000000
# 3 -0.000147 -0.040446 0.020333 0.000000 0.000000 0.000000
# 4 0.000000 0.000000 0.000000 0.058233 0.000000 0.000000
# 5 0.000000 0.000000 0.000000 0.000000 -0.027535 0.000000
# 6 0.000000 0.000000 0.000000 0.000000 0.000000 0.035513
#
#
# Mechanical properties :
#
#
# Convention : Reuss Voigt Hill
#
# Bulk Modulus (GPa) = 8.64933 38.00469 23.32701
# Shear Modulus (GPa) = 11.13501 11.15317 11.14409
#
# Velocity S-wave (km/s) = 2.37683 2.37877 2.37780
# Velocity P-wave (km/s) = 3.45263 5.17942 4.40154
#
# Compressibility (1/GPa) = 0.11561585
#
# Stress axis : x y z
#
# Youngs Moduli (GPa) = 83.56433 5.05945 49.18102
#
# Poissons Ratio (x) = 0.08386 0.00723
# Poissons Ratio (y) = 1.38500 1.98917
# Poissons Ratio (z) = 0.01229 0.20463
#
# Static dielectric constant tensor:
#      x y z
#    x 1.688950 0.000000 0.000000 
#    y 0.000000 1.665950 0.000000 
#    z 0.000000 0.000000 1.686540 
# 
# From -- ./inp_files/21612.got.cif
#   From: 2010.05.17/outbox.ucp.g08.bks.cvg/sg47_11_cif.got.tgz:21612.got - 2010.06.11 16:36:43.
