data_PCOD9389402
_publ_section_title
;
Structure prediction by ZEFSAII (Michael W. Deem and Ramdas Pophale) SiO2 
 PCOD9389402
Probable space group: P M M M
;
_chemical_formula_sum "Si O2"
_cell_formula_units_Z 44
_cell_length_a 9.000000
_cell_length_b 9.000000
_cell_length_c 30.000000
_cell_angle_alpha 90.000000
_cell_angle_beta 90.000000
_cell_angle_gamma 90.000000
_cell_volume 2430.000000
_symmetry_space_group_name_H-M "P M M M"
_symmetry_group_IT_number 47
_symmetry_cell_setting 'orthorhombic'
loop_
_space_group_symop_operation_xyz
x,y,z
-x,-y,z
x,-y,-z
-x,y,-z
-x,-y,-z
x,y,-z
-x,y,z
x,-y,z
loop_
_atom_site_type_symbol
_atom_site_label
_atom_site_fract_x
_atom_site_fract_y
_atom_site_fract_z
Si Si1 0.180413 0.824577 0.000000
Si Si2 0.677809 0.824218 0.726176
Si Si3 0.321118 0.672354 0.817745
Si Si4 0.824467 0.176556 0.634652
Si Si5 0.176039 0.821288 0.903004
Si Si6 0.675415 0.678277 0.549481
O O1 0.229793 0.764986 0.048155
O O2 0.000000 0.816086 0.000000
O O3 0.217204 0.000000 0.000000
O O4 0.500000 0.806103 0.722558
O O5 0.729675 0.744964 0.771244
O O6 0.750594 0.768178 0.680525
O O7 0.709511 0.000000 0.730339
O O8 0.500000 0.684548 0.818700
O O9 0.280067 0.500000 0.818546
O O10 0.257228 0.752274 0.861037
O O11 0.759722 0.250980 0.590627
O O12 0.000000 0.199149 0.636980
O O13 0.794218 0.000000 0.632046
O O14 0.000000 0.790389 0.899758
O O15 0.193556 0.000000 0.902347
O O16 0.726392 0.727229 0.500000
O O17 0.500000 0.712687 0.553002
O O18 0.690261 0.500000 0.551236
#
# Coordination Sequence:
#
# PCOD9389402 Si02
#       6
#     4   8   8   8   8   8
#     4   7  12  26  48  73  98 124 160 205 248 291
#     4   9  18  34  54  72  94 130 173 211 247 292
#     4  10  21  35  50  72 103 135 166 203 249 299
#     4  10  21  35  52  78 109 135 162 203 254 303
#     4   9  17  31  53  77  99 127 165 208 251 295
#     4   9  19  36  56  77 102 135 175 213 247 289
#
# _framework density 18.106995999999999
#
# number of rings (size 3 to 8) (size 9 to 14) (size 15 to 20)
#    0.000    2.818    0.000    2.727    0.000    5.091 
#    0.000    7.273    0.000    4.364    0.000    0.000 
#    0.000    0.000    0.000    0.000    0.000    0.000 
#
# Total GULP energy -245236.285494 kJ/mol
# GULP energy per Si atom -5573.551943 kJ/mol
# Density = 1.806578 g / cm^3
# Si number density = 18.106996 Si / 1000 Ang^3
#
#
#
# Elastic Constant Matrix: (Units=GPa)
#
#
# Indices 1 2 3 4 5 6 
#
# 1 -12.6077 29.1358 29.6227 0.0000 0.0000 0.0000
# 2 29.1358 15.4137 44.7843 0.0000 0.0000 0.0000
# 3 29.6227 44.7843 185.7906 0.0000 0.0000 0.0000
# 4 0.0000 0.0000 0.0000-1442.9561 0.0000 0.0000
# 5 0.0000 0.0000 0.0000 0.0000 39.5538 0.0000
# 6 0.0000 0.0000 0.0000 0.0000 0.0000 19.2397
#
#
#
# Elastic Compliance Matrix: (Units=1/GPa)
#
#
# Indices 1 2 3 4 5 6 
#
# 1 -0.008191 0.039010 -0.008097 0.000000 0.000000 0.000000
# 2 0.039010 0.030737 -0.013629 0.000000 0.000000 0.000000
# 3 -0.008097 -0.013629 0.009959 0.000000 0.000000 0.000000
# 4 0.000000 0.000000 0.000000 -0.000693 0.000000 0.000000
# 5 0.000000 0.000000 0.000000 0.000000 0.025282 0.000000
# 6 0.000000 0.000000 0.000000 0.000000 0.000000 0.051976
#
#
# Mechanical properties :
#
#
# Convention : Reuss Voigt Hill
#
# Bulk Modulus (GPa) = 14.90928 43.96471 29.43700
# Shear Modulus (GPa) = 51.62139 -271.16226 -109.77043
#
# Velocity S-wave (km/s) = 5.34518 -12.25074 -7.79454
# Velocity P-wave (km/s) = 6.80783 13.25799 8.04449
#
# Compressibility (1/GPa) = 0.06707230
#
# Stress axis : x y z
#
# Youngs Moduli (GPa) = -122.08162 32.53389 100.41507
#
# Poissons Ratio (x) = -1.26915 0.81309
# Poissons Ratio (y) = 4.76241 1.36855
# Poissons Ratio (z) = -0.98852 0.44340
#
# Static dielectric constant tensor:
#      x y z
#    x 1.606920 0.000000 0.000000 
#    y 0.000000 1.611620 0.000000 
#    z 0.000000 0.000000 1.623800 
# 
# From -- ./inp_files/2052.got.cif
#   From: 2010.05.17/outbox.ucp.g08.bks.cvg/sg47_2_cif.got.tgz:2052.got - 2010.06.11 16:36:43.
