data_PCOD9389158
_publ_section_title
;
Structure prediction by ZEFSAII (Michael W. Deem and Ramdas Pophale) SiO2 
 PCOD9389158
Probable space group: P M M M
;
_chemical_formula_sum "Si O2"
_cell_formula_units_Z 48
_cell_length_a 9.277722
_cell_length_b 34.172906
_cell_length_c 7.275667
_cell_angle_alpha 90.000000
_cell_angle_beta 90.000000
_cell_angle_gamma 90.000000
_cell_volume 2306.726371
_symmetry_space_group_name_H-M "P M M M"
_symmetry_group_IT_number 47
_symmetry_cell_setting 'orthorhombic'
loop_
_space_group_symop_operation_xyz
x,y,z
-x,-y,z
x,-y,-z
-x,y,-z
-x,-y,-z
x,y,-z
-x,y,z
x,-y,z
loop_
_atom_site_type_symbol
_atom_site_label
_atom_site_fract_x
_atom_site_fract_y
_atom_site_fract_z
Si Si1 0.666203 0.656027 0.275946
Si Si2 0.833730 0.421973 0.275942
Si Si3 0.170550 0.109766 0.282039
Si Si4 0.666288 0.500000 0.724055
Si Si5 0.833902 0.266014 0.724134
Si Si6 0.334156 0.188310 0.723835
Si Si7 0.174978 0.955681 0.000000
O O1 0.666171 0.656011 0.500000
O O2 0.500000 0.655518 0.217965
O O3 0.751123 0.617211 0.218093
O O4 0.747632 0.695388 0.218138
O O5 0.833821 0.421975 0.500000
O O6 0.749669 0.460932 0.218132
O O7 0.000000 0.422187 0.217986
O O8 0.189344 0.104774 0.500000
O O9 0.258245 0.147937 0.221317
O O10 0.215393 0.070796 0.174680
O O11 0.000000 0.116505 0.247650
O O12 0.500000 0.500000 0.782015
O O13 0.666171 0.500000 0.500000
O O14 0.833619 0.265978 0.500000
O O15 0.754532 0.226396 0.782856
O O16 0.000000 0.267074 0.781873
O O17 0.332756 0.188607 0.500000
O O18 0.500000 0.190233 0.781796
O O19 0.000000 0.958036 0.000000
O O20 0.230213 0.000000 0.000000
#
# Coordination Sequence:
#
# PCOD9389158 Si02
#       7
#     8   8   8   4   8   8   4
#     4   9  15  21  28  39  57  81 109 144 191 248
#     4   9  15  21  27  34  45  64  94 135 186 245
#     4   9  17  30  49  72  98 129 164 202 245 292
#     4   9  15  21  27  33  41  57  87 131 185 246
#     4   9  15  22  33  50  72  97 126 161 203 255
#     4   9  16  26  41  61  85 113 145 181 222 270
#     4   9  18  32  51  77 105 131 165 209 251 292
#
# _framework density 20.808709
#
# number of rings (size 3 to 8) (size 9 to 14) (size 15 to 20)
#    0.000    3.000    0.000    2.250    0.000    9.333 
#    0.000    2.083    0.000    1.000    0.000    2.333 
#    0.000    0.000    0.000    0.000    0.000    0.000 
#
# Total GULP energy -268191.684367 kJ/mol
# GULP energy per Si atom -5587.326758 kJ/mol
# Density = 2.076135 g / cm^3
# Si number density = 20.808709 Si / 1000 Ang^3
#
#
#
# Elastic Constant Matrix: (Units=GPa)
#
#
# Indices 1 2 3 4 5 6 
#
# 1 193.4167 141.2549 25.0403 0.0000 0.0000 0.0000
# 2 141.2549 260.8142 31.4727 0.0000 0.0000 0.0000
# 3 25.0403 31.4727 88.0651 0.0000 0.0000 0.0000
# 4 0.0000 0.0000 0.0000 -218.6369 0.0000 0.0000
# 5 0.0000 0.0000 0.0000 0.0000 -12.5749 0.0000
# 6 0.0000 0.0000 0.0000 0.0000 0.0000 -8.0840
#
#
#
# Elastic Compliance Matrix: (Units=1/GPa)
#
#
# Indices 1 2 3 4 5 6 
#
# 1 0.008609 -0.004564 -0.000817 0.000000 0.000000 0.000000
# 2 -0.004564 0.006427 -0.000999 0.000000 0.000000 0.000000
# 3 -0.000817 -0.000999 0.011944 0.000000 0.000000 0.000000
# 4 0.000000 0.000000 0.000000 -0.004574 0.000000 0.000000
# 5 0.000000 0.000000 0.000000 0.000000 -0.079523 0.000000
# 6 0.000000 0.000000 0.000000 0.000000 0.000000 -0.123701
#
#
# Mechanical properties :
#
#
# Convention : Reuss Voigt Hill
#
# Bulk Modulus (GPa) = 70.32111 104.20355 87.26233
# Shear Modulus (GPa) = -30.61514 -24.89064 -27.75289
#
# Velocity S-wave (km/s) = -3.83987 -3.46231 -3.65597
# Velocity P-wave (km/s) = 3.76935 5.84826 4.91986
#
# Compressibility (1/GPa) = 0.01422048
#
# Stress axis : x y z
#
# Youngs Moduli (GPa) = 116.15559 155.60411 83.72055
#
# Poissons Ratio (x) = 0.71019 0.06838
# Poissons Ratio (y) = 0.53014 0.08364
# Poissons Ratio (z) = 0.09488 0.15545
#
# Static dielectric constant tensor:
#      x y z
#    x 1.690550 0.000000 0.000000 
#    y 0.000000 1.683320 0.000000 
#    z 0.000000 0.000000 1.639870 
# 
# From -- ./inp_files/2749.got.cif
#   From: 2010.05.17/outbox.cif.g08.bks.cpg/sg47_2_cif.got.tgz:2749.got - 2010.06.03 20:15:42.
