data_PCOD9389653
_publ_section_title
;
Structure prediction by ZEFSAII (Michael W. Deem and Ramdas Pophale) SiO2 
 PCOD9389653
Probable space group: P N N N
;
_chemical_formula_sum "Si O2"
_cell_formula_units_Z 40
_cell_length_a 12.049106
_cell_length_b 18.451153
_cell_length_c 8.537366
_cell_angle_alpha 90.000000
_cell_angle_beta 90.000000
_cell_angle_gamma 90.000000
_cell_volume 1898.026341
_symmetry_space_group_name_H-M "P N N N"
_symmetry_group_IT_number 48
_space_group.IT_coordinate_system_code '2'
_symmetry_cell_setting 'orthorhombic'
loop_
_space_group_symop_operation_xyz
x,y,z
1/2-x,1/2-y,z
x,1/2-y,1/2-z
1/2-x,y,1/2-z
-x,-y,-z
1/2+x,1/2+y,-z
-x,1/2+y,1/2+z
1/2+x,-y,1/2+z
loop_
_atom_site_type_symbol
_atom_site_label
_atom_site_fract_x
_atom_site_fract_y
_atom_site_fract_z
Si Si1 0.521967 0.465536 0.745701
Si Si2 0.750000 0.750000 0.750000
Si Si3 0.456354 0.613404 0.572161
Si Si4 0.250000 0.250000 0.750000
Si Si5 0.169856 0.014505 0.976850
Si Si6 0.690596 0.650795 0.514160
Si Si7 0.250000 0.888973 0.750000
O O1 0.474779 0.535472 0.654613
O O2 0.552440 0.406330 0.613517
O O3 0.425795 0.446268 0.872428
O O4 0.622935 0.492703 0.854078
O O5 0.784354 0.690039 0.619226
O O6 0.571662 0.655253 0.595790
O O7 0.352003 0.649006 0.660396
O O8 0.319369 0.304170 0.643468
O O9 0.273126 0.068791 0.987200
O O10 0.203068 0.942211 0.885125
#
# Coordination Sequence:
#
# PCOD9389653 Si02
#       7
#     8   2   8   2   8   8   4
#     4   9  18  29  49  79 107 142 170 196 260 340
#     4  10  24  34  52  80  96 134 188 214 252 310
#     4  10  19  32  49  72 106 139 170 214 263 312
#     4  10  22  34  52  78 100 136 194 230 268 322
#     4  10  18  31  51  78 112 139 166 208 263 329
#     4  11  20  35  53  74 107 141 174 224 268 301
#     4  10  21  32  48  80 106 136 175 198 256 346
#
# _framework density 21.074522999999999
#
# number of rings (size 3 to 8) (size 9 to 14) (size 15 to 20)
#    0.000    2.000    0.000    6.600    0.000    2.400 
#    0.000    0.000    0.000    0.600    0.000    0.000 
#    0.000    3.200    0.000    0.000    0.000    0.000 
#
# Total GULP energy -222708.824369 kJ/mol
# GULP energy per Si atom -5567.720609 kJ/mol
# Density = 2.102656 g / cm^3
# Si number density = 21.074523 Si / 1000 Ang^3
#
#
#
# Elastic Constant Matrix: (Units=GPa)
#
#
# Indices 1 2 3 4 5 6 
#
# 1 122.9916 14.6935 41.6148 0.0000 0.0000 0.0000
# 2 14.6935 17.0797 12.0522 0.0000 0.0000 0.0000
# 3 41.6148 12.0522 116.7709 0.0000 0.0000 0.0000
# 4 0.0000 0.0000 0.0000 20.4213 0.0000 0.0000
# 5 0.0000 0.0000 0.0000 0.0000 34.4802 0.0000
# 6 0.0000 0.0000 0.0000 0.0000 0.0000 -4.9186
#
#
#
# Elastic Compliance Matrix: (Units=1/GPa)
#
#
# Indices 1 2 3 4 5 6 
#
# 1 0.009868 -0.006480 -0.002848 0.000000 0.000000 0.000000
# 2 -0.006480 0.067403 -0.004648 0.000000 0.000000 0.000000
# 3 -0.002848 -0.004648 0.010058 0.000000 0.000000 0.000000
# 4 0.000000 0.000000 0.000000 0.048969 0.000000 0.000000
# 5 0.000000 0.000000 0.000000 0.000000 0.029002 0.000000
# 6 0.000000 0.000000 0.000000 0.000000 0.000000 -0.203310
#
#
# Mechanical properties :
#
#
# Convention : Reuss Voigt Hill
#
# Bulk Modulus (GPa) = 16.84097 43.72926 30.28512
# Shear Modulus (GPa) = 513.58213 22.56201 268.07207
#
# Velocity S-wave (km/s) = 15.62777 3.27552 11.29062
# Velocity P-wave (km/s) = 18.26594 5.92455 13.57838
#
# Compressibility (1/GPa) = 0.05937899
#
# Stress axis : x y z
#
# Youngs Moduli (GPa) = 101.33292 14.83606 99.41866
#
# Poissons Ratio (x) = 0.09614 0.28315
# Poissons Ratio (y) = 0.65664 0.46205
# Poissons Ratio (z) = 0.28861 0.06895
#
# Static dielectric constant tensor:
#      x y z
#    x 1.947080 0.000000 0.000000 
#    y 0.000000 1.728080 0.000000 
#    z 0.000000 0.000000 1.795860 
# 
# From -- ./inp_files/11073.got.cif
#   From: 2010.05.17/outbox.cif.g08.bks.cpg/sg48_6_cif.got.tgz:11073.got - 2010.06.03 20:39:00.
