data_PCOD9389080
_publ_section_title
;
Structure prediction by ZEFSAII (Michael W. Deem and Ramdas Pophale) SiO2 
 PCOD9389080
Probable space group: P M M M
;
_chemical_formula_sum "Si O2"
_cell_formula_units_Z 52
_cell_length_a 9.952375
_cell_length_b 35.004006
_cell_length_c 7.583241
_cell_angle_alpha 90.000000
_cell_angle_beta 90.000000
_cell_angle_gamma 90.000000
_cell_volume 2641.796373
_symmetry_space_group_name_H-M "P M M M"
_symmetry_group_IT_number 47
_symmetry_cell_setting 'orthorhombic'
loop_
_space_group_symop_operation_xyz
x,y,z
-x,-y,z
x,-y,-z
-x,y,-z
-x,-y,-z
x,y,-z
-x,y,z
x,-y,z
loop_
_atom_site_type_symbol
_atom_site_label
_atom_site_fract_x
_atom_site_fract_y
_atom_site_fract_z
Si Si1 0.154470 0.543054 0.284516
Si Si2 0.653088 0.224126 0.211349
Si Si3 0.845406 0.068754 0.715147
Si Si4 0.655003 0.000000 0.284050
Si Si5 0.150906 0.845213 0.711370
Si Si6 0.652588 0.609556 0.708678
Si Si7 0.341881 0.306905 0.211340
O O1 0.155047 0.543718 0.500000
O O2 0.194473 0.500000 0.232184
O O3 0.252996 0.576169 0.219993
O O4 0.000000 0.549371 0.230449
O O5 0.500000 0.218880 0.277442
O O6 0.745719 0.188138 0.248232
O O7 0.708900 0.265451 0.274332
O O8 0.644203 0.227264 0.000000
O O9 0.844386 0.068193 0.500000
O O10 0.738911 0.037223 0.773197
O O11 0.812334 0.112010 0.773001
O O12 0.000000 0.060216 0.767225
O O13 0.500000 0.000000 0.227185
O O14 0.654141 0.000000 0.500000
O O15 0.144094 0.847697 0.500000
O O16 0.000000 0.836482 0.776461
O O17 0.641314 0.602900 0.500000
O O18 0.500000 0.609027 0.782204
O O19 0.712128 0.652238 0.728566
O O20 0.500000 0.306834 0.261007
O O21 0.333228 0.307586 0.000000
#
# Coordination Sequence:
#
# PCOD9389080 Si02
#       7
#     8   8   8   4   8   8   8
#     4   8  14  25  40  58  83 114 141 165 202 252
#     4   9  18  32  49  68  89 117 154 189 223 270
#     4   8  14  25  39  55  81 117 149 176 213 262
#     4   9  15  21  33  57  86 113 144 181 216 254
#     4   9  18  31  46  67  94 121 151 188 228 268
#     4   9  16  25  41  66  88 105 135 179 215 243
#     4   8  15  29  46  62  84 114 143 172 211 260
#
# _framework density 19.683577
#
# number of rings (size 3 to 8) (size 9 to 14) (size 15 to 20)
#    0.000    3.462    0.000    2.538    0.000    3.077 
#    0.000    5.385    0.000    3.692    0.000    3.769 
#    0.000    4.308    0.000    0.000    0.000    0.000 
#
# Total GULP energy -289619.135992 kJ/mol
# GULP energy per Si atom -5569.598769 kJ/mol
# Density = 1.963878 g / cm^3
# Si number density = 19.683577 Si / 1000 Ang^3
#
#
#
# Elastic Constant Matrix: (Units=GPa)
#
#
# Indices 1 2 3 4 5 6 
#
# 1 105.5420 126.7072 4.5818 0.0000 0.0000 0.0000
# 2 126.7072 220.6167 7.0327 0.0000 0.0000 0.0000
# 3 4.5818 7.0327 38.1026 0.0000 0.0000 0.0000
# 4 0.0000 0.0000 0.0000 40.6989 0.0000 0.0000
# 5 0.0000 0.0000 0.0000 0.0000 -12.6794 0.0000
# 6 0.0000 0.0000 0.0000 0.0000 0.0000 90.1209
#
#
#
# Elastic Compliance Matrix: (Units=1/GPa)
#
#
# Indices 1 2 3 4 5 6 
#
# 1 0.030523 -0.017516 -0.000437 0.000000 0.000000 0.000000
# 2 -0.017516 0.014612 -0.000591 0.000000 0.000000 0.000000
# 3 -0.000437 -0.000591 0.026407 0.000000 0.000000 0.000000
# 4 0.000000 0.000000 0.000000 0.024571 0.000000 0.000000
# 5 0.000000 0.000000 0.000000 0.000000 -0.078868 0.000000
# 6 0.000000 0.000000 0.000000 0.000000 0.000000 0.011096
#
#
# Mechanical properties :
#
#
# Convention : Reuss Voigt Hill
#
# Bulk Modulus (GPa) = 29.02533 71.21164 50.11849
# Shear Modulus (GPa) = 65.00831 38.69070 51.84951
#
# Velocity S-wave (km/s) = 5.75312 4.43836 5.13797
# Velocity P-wave (km/s) = 7.67523 7.90709 7.79202
#
# Compressibility (1/GPa) = 0.03445267
#
# Stress axis : x y z
#
# Youngs Moduli (GPa) = 32.76221 68.43790 37.86941
#
# Poissons Ratio (x) = 1.19878 0.01656
# Poissons Ratio (y) = 0.57388 0.02237
# Poissons Ratio (z) = 0.01433 0.04042
#
# Static dielectric constant tensor:
#      x y z
#    x 1.675040 0.000000 0.000000 
#    y 0.000000 1.712510 0.000000 
#    z 0.000000 0.000000 1.747800 
# 
# From -- ./inp_files/15458.got.cif
#   From: 2010.05.17/outbox.cif.g08.bks.cpg/sg47_8_cif.got.tgz:15458.got - 2010.06.03 20:15:42.
