data_PCOD9389156
_publ_section_title
;
Structure prediction by ZEFSAII (Michael W. Deem and Ramdas Pophale) SiO2 
 PCOD9389156
Probable space group: P M M M
;
_chemical_formula_sum "Si O2"
_cell_formula_units_Z 36
_cell_length_a 22.324056
_cell_length_b 7.347859
_cell_length_c 10.413382
_cell_angle_alpha 90.000000
_cell_angle_beta 90.000000
_cell_angle_gamma 90.000000
_cell_volume 1708.148867
_symmetry_space_group_name_H-M "P M M M"
_symmetry_group_IT_number 47
_symmetry_cell_setting 'orthorhombic'
loop_
_space_group_symop_operation_xyz
x,y,z
-x,-y,z
x,-y,-z
-x,y,-z
-x,-y,-z
x,y,-z
-x,y,z
x,-y,z
loop_
_atom_site_type_symbol
_atom_site_label
_atom_site_fract_x
_atom_site_fract_y
_atom_site_fract_z
Si Si1 0.097054 0.712820 0.854019
Si Si2 0.764985 0.780826 0.146762
Si Si3 0.430932 0.777564 0.500000
Si Si4 0.641660 0.222082 0.748928
Si Si5 0.000000 0.722607 0.350677
Si Si6 0.568763 0.778103 0.000000
O O1 0.082029 0.500000 0.864094
O O2 0.167331 0.727289 0.821823
O O3 0.056464 0.782401 0.737307
O O4 0.088088 0.788575 0.000000
O O5 0.710549 0.718940 0.236098
O O6 0.764025 0.000000 0.146321
O O7 0.752911 0.721171 0.000000
O O8 0.500000 0.718983 0.500000
O O9 0.394240 0.718727 0.624456
O O10 0.432077 0.000000 0.500000
O O11 0.642226 0.000000 0.747210
O O12 0.604719 0.278062 0.874223
O O13 0.000000 0.500000 0.356640
O O14 0.000000 0.782724 0.500000
O O15 0.500000 0.718529 0.000000
O O16 0.568130 0.000000 0.000000
#
# Coordination Sequence:
#
# PCOD9389156 Si02
#       6
#     8   8   4   8   4   4
#     4   9  17  30  50  72  91 114 148 184 216 255
#     4   9  16  28  45  65  91 121 149 178 218 265
#     4   9  16  24  34  52  81 114 145 180 222 263
#     4   9  15  24  36  53  80 113 145 177 216 260
#     4   9  17  31  50  71  94 118 144 181 224 258
#     4   9  14  20  34  54  75 104 143 182 216 253
#
# _framework density 21.075445999999999
#
# number of rings (size 3 to 8) (size 9 to 14) (size 15 to 20)
#    0.000    3.000    1.111    1.000    0.000    4.000 
#    2.000    0.556    0.000    3.333    0.000    0.000 
#    0.000    5.333    0.000    0.000    0.000    0.000 
#
# Total GULP energy -200866.802307 kJ/mol
# GULP energy per Si atom -5579.633397 kJ/mol
# Density = 2.102748 g / cm^3
# Si number density = 21.075446 Si / 1000 Ang^3
#
#
#
# Elastic Constant Matrix: (Units=GPa)
#
#
# Indices 1 2 3 4 5 6 
#
# 1 195.6999 0.6201 135.8213 0.0000 0.0000 0.0000
# 2 0.6201 76.8876 6.8235 0.0000 0.0000 0.0000
# 3 135.8213 6.8235 207.8414 0.0000 0.0000 0.0000
# 4 0.0000 0.0000 0.0000 -7.2520 0.0000 0.0000
# 5 0.0000 0.0000 0.0000 0.0000 8.7592 0.0000
# 6 0.0000 0.0000 0.0000 0.0000 0.0000 16.4457
#
#
#
# Elastic Compliance Matrix: (Units=1/GPa)
#
#
# Indices 1 2 3 4 5 6 
#
# 1 0.009368 0.000469 -0.006137 0.000000 0.000000 0.000000
# 2 0.000469 0.013067 -0.000736 0.000000 0.000000 0.000000
# 3 -0.006137 -0.000736 0.008846 0.000000 0.000000 0.000000
# 4 0.000000 0.000000 0.000000 -0.137894 0.000000 0.000000
# 5 0.000000 0.000000 0.000000 0.000000 0.114166 0.000000
# 6 0.000000 0.000000 0.000000 0.000000 0.000000 0.060806
#
#
# Mechanical properties :
#
#
# Convention : Reuss Voigt Hill
#
# Bulk Modulus (GPa) = 54.12978 85.21765 69.67371
# Shear Modulus (GPa) = 57.25742 26.06818 41.66280
#
# Velocity S-wave (km/s) = 5.21793 3.52077 4.45099
# Velocity P-wave (km/s) = 7.87667 7.55315 7.71661
#
# Compressibility (1/GPa) = 0.01847412
#
# Stress axis : x y z
#
# Youngs Moduli (GPa) = 106.75048 76.52582 113.04596
#
# Poissons Ratio (x) = -0.03590 0.69376
# Poissons Ratio (y) = -0.05008 0.08315
# Poissons Ratio (z) = 0.65513 0.05629
#
# Static dielectric constant tensor:
#      x y z
#    x 1.733150 0.000000 0.000000 
#    y 0.000000 1.831010 0.000000 
#    z 0.000000 0.000000 1.733010 
# 
# From -- ./inp_files/3981.got.cif
#   From: 2010.05.17/outbox.cif.g08.bks.cpg/sg47_2_cif.got.tgz:3981.got - 2010.06.03 20:15:42.
