data_PCOD9389161
_publ_section_title
;
Structure prediction by ZEFSAII (Michael W. Deem and Ramdas Pophale) SiO2 
 PCOD9389161
Probable space group: P M M M
;
_chemical_formula_sum "Si O2"
_cell_formula_units_Z 40
_cell_length_a 8.632523
_cell_length_b 28.274701
_cell_length_c 7.390044
_cell_angle_alpha 90.000000
_cell_angle_beta 90.000000
_cell_angle_gamma 90.000000
_cell_volume 1803.776769
_symmetry_space_group_name_H-M "P M M M"
_symmetry_group_IT_number 47
_symmetry_cell_setting 'orthorhombic'
loop_
_space_group_symop_operation_xyz
x,y,z
-x,-y,z
x,-y,-z
-x,y,-z
-x,-y,-z
x,y,-z
-x,y,z
x,-y,z
loop_
_atom_site_type_symbol
_atom_site_label
_atom_site_fract_x
_atom_site_fract_y
_atom_site_fract_z
Si Si1 0.682748 0.303901 0.214729
Si Si2 0.500000 0.944280 0.718937
Si Si3 0.182464 0.207148 0.210114
Si Si4 0.823443 0.900915 0.707102
Si Si5 0.316833 0.500000 0.784246
Si Si6 0.183164 0.401767 0.215315
O O1 0.500000 0.308821 0.229584
O O2 0.733592 0.253018 0.288559
O O3 0.757850 0.351725 0.289136
O O4 0.725456 0.301776 0.000000
O O5 0.500000 0.936263 0.500000
O O6 0.665099 0.923130 0.785944
O O7 0.500000 0.000000 0.753256
O O8 0.203078 0.155652 0.294325
O O9 0.000000 0.217880 0.216085
O O10 0.229935 0.201432 0.000000
O O11 0.832209 0.918111 0.500000
O O12 0.000000 0.908427 0.784219
O O13 0.500000 0.500000 0.765190
O O14 0.252173 0.549428 0.710978
O O15 0.277782 0.500000 0.000000
O O16 0.000000 0.403777 0.232583
O O17 0.223824 0.400991 0.000000
#
# Coordination Sequence:
#
# PCOD9389161 Si02
#       6
#     8   4   8   8   4   8
#     4   9  16  24  35  53  76 103 137 177 218 261
#     4   9  18  32  51  75  99 123 155 192 227 266
#     4   9  17  29  45  65  89 119 153 187 225 270
#     4   9  18  32  50  72  97 124 154 189 229 270
#     4   9  15  21  29  41  59  87 126 171 216 261
#     4   9  15  22  31  43  63  93 130 171 214 261
#
# _framework density 22.175692999999999
#
# number of rings (size 3 to 8) (size 9 to 14) (size 15 to 20)
#    0.000    3.000    0.000    1.500    1.400    6.400 
#    0.000    2.000    0.000    1.200    0.000    2.800 
#    0.000    0.000    0.000    0.900    0.000   19.600 
#
# Total GULP energy -223021.585376 kJ/mol
# GULP energy per Si atom -5575.539634 kJ/mol
# Density = 2.212522 g / cm^3
# Si number density = 22.175693 Si / 1000 Ang^3
#
#
#
# Elastic Constant Matrix: (Units=GPa)
#
#
# Indices 1 2 3 4 5 6 
#
# 1 -25.8185 57.1163 29.1183 0.0000 0.0000 0.0000
# 2 57.1163 111.6645 7.5106 0.0000 0.0000 0.0000
# 3 29.1183 7.5106 72.3987 0.0000 0.0000 0.0000
# 4 0.0000 0.0000 0.0000 -1.8097 0.0000 0.0000
# 5 0.0000 0.0000 0.0000 0.0000 -10.0057 0.0000
# 6 0.0000 0.0000 0.0000 0.0000 0.0000 52.3322
#
#
#
# Elastic Compliance Matrix: (Units=1/GPa)
#
#
# Indices 1 2 3 4 5 6 
#
# 1 -0.015644 0.007632 0.005500 0.000000 0.000000 0.000000
# 2 0.007632 0.005295 -0.003619 0.000000 0.000000 0.000000
# 3 0.005500 -0.003619 0.011976 0.000000 0.000000 0.000000
# 4 0.000000 0.000000 0.000000 -0.552582 0.000000 0.000000
# 5 0.000000 0.000000 0.000000 0.000000 -0.099943 0.000000
# 6 0.000000 0.000000 0.000000 0.000000 0.000000 0.019109
#
#
# Mechanical properties :
#
#
# Convention : Reuss Voigt Hill
#
# Bulk Modulus (GPa) = 48.41828 38.41499 43.41663
# Shear Modulus (GPa) = -7.76479 12.40332 2.31927
#
# Velocity S-wave (km/s) = -1.87326 2.36756 1.02378
# Velocity P-wave (km/s) = 4.14760 4.98341 4.58459
#
# Compressibility (1/GPa) = 0.02065336
#
# Stress axis : x y z
#
# Youngs Moduli (GPa) = -63.92030 188.85921 83.50294
#
# Poissons Ratio (x) = -1.44141 -0.45930
# Poissons Ratio (y) = 0.48785 0.30219
# Poissons Ratio (z) = 0.35158 0.68346
#
# Static dielectric constant tensor:
#      x y z
#    x 1.771060 0.000000 0.000000 
#    y 0.000000 1.954340 0.000000 
#    z 0.000000 0.000000 1.963460 
# 
# From -- ./inp_files/1704.got.cif
#   From: 2010.05.17/outbox.cif.g08.bks.cpg/sg47_1_cif.got.tgz:1704.got - 2010.06.03 20:15:42.
