data_PCOD9389087
_publ_section_title
;
Structure prediction by ZEFSAII (Michael W. Deem and Ramdas Pophale) SiO2 
 PCOD9389087
Probable space group: P M M M
;
_chemical_formula_sum "Si O2"
_cell_formula_units_Z 52
_cell_length_a 7.481001
_cell_length_b 9.964705
_cell_length_c 34.933952
_cell_angle_alpha 90.000000
_cell_angle_beta 90.000000
_cell_angle_gamma 90.000000
_cell_volume 2604.185270
_symmetry_space_group_name_H-M "P M M M"
_symmetry_group_IT_number 47
_symmetry_cell_setting 'orthorhombic'
loop_
_space_group_symop_operation_xyz
x,y,z
-x,-y,z
x,-y,-z
-x,y,-z
-x,-y,-z
x,y,-z
-x,y,z
x,-y,z
loop_
_atom_site_type_symbol
_atom_site_label
_atom_site_fract_x
_atom_site_fract_y
_atom_site_fract_z
Si Si1 0.781674 0.654538 0.191874
Si Si2 0.788225 0.152687 0.874899
Si Si3 0.286938 0.152917 0.567875
Si Si4 0.285159 0.156199 0.041134
Si Si5 0.781909 0.654305 0.722053
Si Si6 0.214746 0.847748 0.655048
Si Si7 0.719119 0.345230 0.500000
O O1 0.727232 0.500000 0.185723
O O2 0.717000 0.752932 0.158636
O O3 0.728177 0.695358 0.234936
O O4 0.000000 0.655095 0.191245
O O5 0.766312 0.212498 0.917606
O O6 0.000000 0.141818 0.868587
O O7 0.714702 0.000000 0.874298
O O8 0.500000 0.144577 0.562425
O O9 0.254773 0.195146 0.611658
O O10 0.221542 0.260297 0.537073
O O11 0.216475 0.000000 0.562834
O O12 0.500000 0.155972 0.040426
O O13 0.225186 0.000000 0.041756
O O14 0.224264 0.213822 0.000000
O O15 0.727557 0.500000 0.716124
O O16 0.718472 0.750001 0.688188
O O17 0.000000 0.655777 0.721610
O O18 0.000000 0.851994 0.658416
O O19 0.282237 0.000000 0.659551
O O20 0.777331 0.500000 0.500000
O O21 0.500000 0.347792 0.500000
#
# Coordination Sequence:
#
# PCOD9389087 Si02
#       7
#     8   8   8   8   8   8   4
#     4   8  14  25  40  58  82 111 138 163 198 245
#     4   9  16  24  38  63  86 100 125 170 211 235
#     4   9  17  30  47  64  84 112 141 167 202 250
#     4   8  14  25  40  57  79 108 137 162 195 244
#     4   8  14  25  41  60  82 110 141 168 197 239
#     4   9  17  28  43  65  89 110 136 172 209 241
#     4   9  17  29  46  67  86 106 140 181 210 236
#
# _framework density 19.967856000000001
#
# number of rings (size 3 to 8) (size 9 to 14) (size 15 to 20)
#    0.000    3.462    0.000    1.615    0.000    2.462 
#    0.000    5.000    0.000    4.154    0.000    9.692 
#    0.000    0.000    0.000    0.000    0.000    0.000 
#
# Total GULP energy -289726.706031 kJ/mol
# GULP energy per Si atom -5571.667424 kJ/mol
# Density = 1.992241 g / cm^3
# Si number density = 19.967856 Si / 1000 Ang^3
#
#
#
# Elastic Constant Matrix: (Units=GPa)
#
#
# Indices 1 2 3 4 5 6 
#
# 1 54.3662 5.0663 1.2537 0.0000 0.0000 0.0000
# 2 5.0663 93.7163 127.2360 0.0000 0.0000 0.0000
# 3 1.2537 127.2360 236.1367 0.0000 0.0000 0.0000
# 4 0.0000 0.0000 0.0000 2891.1084 0.0000 0.0000
# 5 0.0000 0.0000 0.0000 0.0000 22.9860 0.0000
# 6 0.0000 0.0000 0.0000 0.0000 0.0000 -0.1419
#
#
#
# Elastic Compliance Matrix: (Units=1/GPa)
#
#
# Indices 1 2 3 4 5 6 
#
# 1 0.018659 -0.003256 0.001656 0.000000 0.000000 0.000000
# 2 -0.003256 0.040316 -0.021706 0.000000 0.000000 0.000000
# 3 0.001656 -0.021706 0.015922 0.000000 0.000000 0.000000
# 4 0.000000 0.000000 0.000000 0.000346 0.000000 0.000000
# 5 0.000000 0.000000 0.000000 0.000000 0.043505 0.000000
# 6 0.000000 0.000000 0.000000 0.000000 0.000000 -7.047477
#
#
# Mechanical properties :
#
#
# Convention : Reuss Voigt Hill
#
# Bulk Modulus (GPa) = 35.35666 72.37014 53.86340
# Shear Modulus (GPa) = -0.72752 599.50136 299.38692
#
# Velocity S-wave (km/s) = -0.60426 17.34604 12.25806
# Velocity P-wave (km/s) = 4.15432 20.91655 15.07913
#
# Compressibility (1/GPa) = 0.02828321
#
# Stress axis : x y z
#
# Youngs Moduli (GPa) = 53.59328 24.80390 62.80707
#
# Poissons Ratio (x) = 0.08077 -0.10398
# Poissons Ratio (y) = 0.17453 1.36329
# Poissons Ratio (z) = -0.08873 0.53839
#
# Static dielectric constant tensor:
#      x y z
#    x 1.765450 0.000000 0.000000 
#    y 0.000000 1.681290 0.000000 
#    z 0.000000 0.000000 1.710930 
# 
# From -- ./inp_files/34502.got.cif
#   From: 2010.05.17/outbox.cif.g08.bks.cpg/sg47_18_cif.got.tgz:34502.got - 2010.06.03 20:15:42.
