data_PCOD9389091
_publ_section_title
;
Structure prediction by ZEFSAII (Michael W. Deem and Ramdas Pophale) SiO2 
 PCOD9389091
Probable space group: P M M M
;
_chemical_formula_sum "Si O2"
_cell_formula_units_Z 36
_cell_length_a 7.587748
_cell_length_b 9.292317
_cell_length_c 26.511307
_cell_angle_alpha 90.000000
_cell_angle_beta 90.000000
_cell_angle_gamma 90.000000
_cell_volume 1869.252864
_symmetry_space_group_name_H-M "P M M M"
_symmetry_group_IT_number 47
_symmetry_cell_setting 'orthorhombic'
loop_
_space_group_symop_operation_xyz
x,y,z
-x,-y,z
x,-y,-z
-x,y,-z
-x,-y,-z
x,y,-z
-x,y,z
x,-y,z
loop_
_atom_site_type_symbol
_atom_site_label
_atom_site_fract_x
_atom_site_fract_y
_atom_site_fract_z
Si Si1 0.293322 0.327595 0.363386
Si Si2 0.788161 0.667665 0.054230
Si Si3 0.284619 0.164792 0.738512
Si Si4 0.000000 0.674981 0.557391
Si Si5 0.709756 0.336099 0.835917
O O1 0.500000 0.296274 0.372348
O O2 0.276683 0.500000 0.356469
O O3 0.235577 0.249935 0.312014
O O4 0.171223 0.283604 0.410095
O O5 0.728612 0.500000 0.055208
O O6 0.737084 0.729699 0.108382
O O7 0.000000 0.667071 0.053268
O O8 0.727881 0.729093 0.000000
O O9 0.500000 0.165021 0.739657
O O10 0.222012 0.243905 0.789208
O O11 0.226737 0.000000 0.736818
O O12 0.000000 0.500000 0.555266
O O13 0.000000 0.728032 0.500000
O O14 0.500000 0.346919 0.829171
O O15 0.781559 0.500000 0.835290
#
# Coordination Sequence:
#
# PCOD9389091 Si02
#       5
#     8   8   8   4   8
#     4   9  17  31  52  75 100 132 166 199 238 284
#     4   8  14  25  40  59  85 115 146 183 229 280
#     4   9  17  30  48  68  93 125 157 193 239 287
#     4   9  18  32  51  79 109 131 160 203 242 279
#     4   9  16  26  43  67  91 114 146 191 237 281
#
# _framework density 19.259032999999999
#
# number of rings (size 3 to 8) (size 9 to 14) (size 15 to 20)
#    0.000    3.222    0.000    1.333    0.000    3.556 
#    2.000    5.000    0.000    2.000    0.000    7.778 
#    0.000    0.000    0.000    0.000    0.000    0.000 
#
# Total GULP energy -200548.620003 kJ/mol
# GULP energy per Si atom -5570.795000 kJ/mol
# Density = 1.921520 g / cm^3
# Si number density = 19.259033 Si / 1000 Ang^3
#
#
#
# Elastic Constant Matrix: (Units=GPa)
#
#
# Indices 1 2 3 4 5 6 
#
# 1 58.2715 22.4695 51.4383 0.0000 0.0000 0.0000
# 2 22.4695 40.2124 64.0496 0.0000 0.0000 0.0000
# 3 51.4383 64.0496 239.7407 0.0000 0.0000 0.0000
# 4 0.0000 0.0000 0.0000 -4.8707 0.0000 0.0000
# 5 0.0000 0.0000 0.0000 0.0000 30.7311 0.0000
# 6 0.0000 0.0000 0.0000 0.0000 0.0000 3.4099
#
#
#
# Elastic Compliance Matrix: (Units=1/GPa)
#
#
# Indices 1 2 3 4 5 6 
#
# 1 0.022759 -0.008598 -0.002586 0.000000 0.000000 0.000000
# 2 -0.008598 0.046537 -0.010588 0.000000 0.000000 0.000000
# 3 -0.002586 -0.010588 0.007555 0.000000 0.000000 0.000000
# 4 0.000000 0.000000 0.000000 -0.205311 0.000000 0.000000
# 5 0.000000 0.000000 0.000000 0.000000 0.032540 0.000000
# 6 0.000000 0.000000 0.000000 0.000000 0.000000 0.293260
#
#
# Mechanical properties :
#
#
# Convention : Reuss Voigt Hill
#
# Bulk Modulus (GPa) = 30.02434 68.23769 49.13102
# Shear Modulus (GPa) = 19.84229 19.20522 19.52375
#
# Velocity S-wave (km/s) = 3.21329 3.16128 3.18739
# Velocity P-wave (km/s) = 5.42130 6.98809 6.25396
#
# Compressibility (1/GPa) = 0.03330631
#
# Stress axis : x y z
#
# Youngs Moduli (GPa) = 43.93801 21.48837 132.36676
#
# Poissons Ratio (x) = 0.18476 0.34231
# Poissons Ratio (y) = 0.37779 1.40151
# Poissons Ratio (z) = 0.11363 0.22752
#
# Static dielectric constant tensor:
#      x y z
#    x 1.706200 0.000000 0.000000 
#    y 0.000000 1.640270 0.000000 
#    z 0.000000 0.000000 1.684820 
# 
# From -- ./inp_files/1426.got.cif
#   From: 2010.05.17/outbox.cif.g08.bks.cpg/sg47_1_cif.got.tgz:1426.got - 2010.06.03 20:15:42.
