data_PCOD9389741
_publ_section_title
;
Structure prediction by ZEFSAII (Michael W. Deem and Ramdas Pophale) SiO2 
 PCOD9389741
Probable space group: P N N N
;
_chemical_formula_sum "Si O2"
_cell_formula_units_Z 58
_cell_length_a 28.527266
_cell_length_b 5.027083
_cell_length_c 18.089363
_cell_angle_alpha 90.000000
_cell_angle_beta 90.000000
_cell_angle_gamma 90.000000
_cell_volume 2594.176264
_symmetry_space_group_name_H-M "P N N N"
_symmetry_group_IT_number 48
_space_group.IT_coordinate_system_code '2'
_symmetry_cell_setting 'orthorhombic'
loop_
_space_group_symop_operation_xyz
x,y,z
1/2-x,1/2-y,z
x,1/2-y,1/2-z
1/2-x,y,1/2-z
-x,-y,-z
1/2+x,1/2+y,-z
-x,1/2+y,1/2+z
1/2+x,-y,1/2+z
loop_
_atom_site_type_symbol
_atom_site_label
_atom_site_fract_x
_atom_site_fract_y
_atom_site_fract_z
Si Si1 0.870537 0.917612 0.373711
Si Si2 0.181940 0.920053 0.851703
Si Si3 0.942557 0.299074 0.931090
Si Si4 0.533173 0.324737 0.403703
Si Si5 0.789551 0.988058 0.977280
Si Si6 0.250000 0.250000 0.750000
Si Si7 0.841299 0.988940 0.544883
Si Si8 0.523332 0.508104 0.800340
O O1 0.837035 0.128881 0.332618
O O2 0.924323 0.995700 0.375984
O O3 0.851776 0.953758 0.457469
O O4 0.862052 0.619865 0.348923
O O5 0.220494 0.054526 0.801652
O O6 0.201121 0.945745 0.936111
O O7 0.891207 0.422334 0.924289
O O8 0.945571 0.069540 0.870701
O O9 0.985502 0.503479 0.914717
O O10 0.951550 0.209968 0.016143
O O11 0.523274 0.109660 0.341074
O O12 0.750000 0.750000 0.979539
O O13 0.827878 0.809933 0.933723
O O14 0.799994 0.287960 0.944980
O O15 0.517152 0.250000 0.750000
O O16 0.541020 0.750000 0.750000
#
# Coordination Sequence:
#
# PCOD9389741 Si02
#       8
#     8   8   8   8   8   2   8   8
#     4   9  21  39  55  84 110 147 202 264 315 360
#     4  10  22  37  54  76 108 149 207 260 307 369
#     4  10  22  41  66  97 122 173 218 265 319 390
#     4  10  22  42  68  90 128 170 218 266 324 394
#     4  10  18  35  55  82 116 156 184 251 324 362
#     4  12  24  42  56  78 104 166 220 270 298 386
#     4   9  20  33  59  86 118 147 201 252 303 373
#     4  12  25  42  59  89 128 172 206 257 314 380
#
# _framework density 22.357772000000001
#
# number of rings (size 3 to 8) (size 9 to 14) (size 15 to 20)
#    0.000    1.931    2.069    0.828    3.862    1.655 
#    3.724    0.000    0.000    0.000    0.000    0.000 
#    0.000    8.276    0.000    0.000    0.000    0.000 
#
# Total GULP energy -323626.258442 kJ/mol
# GULP energy per Si atom -5579.763077 kJ/mol
# Density = 2.230689 g / cm^3
# Si number density = 22.357772 Si / 1000 Ang^3
#
#
#
# Elastic Constant Matrix: (Units=GPa)
#
#
# Indices 1 2 3 4 5 6 
#
# 1 32.0721 -2.7348 3.2657 0.0000 0.0000 0.0000
# 2 -2.7348 111.0844 12.1687 0.0000 0.0000 0.0000
# 3 3.2657 12.1687 53.9242 0.0000 0.0000 0.0000
# 4 0.0000 0.0000 0.0000 15.0259 0.0000 0.0000
# 5 0.0000 0.0000 0.0000 0.0000 6.6896 0.0000
# 6 0.0000 0.0000 0.0000 0.0000 0.0000 21.9732
#
#
#
# Elastic Compliance Matrix: (Units=1/GPa)
#
#
# Indices 1 2 3 4 5 6 
#
# 1 0.031483 0.001009 -0.002134 0.000000 0.000000 0.000000
# 2 0.001009 0.009263 -0.002151 0.000000 0.000000 0.000000
# 3 -0.002134 -0.002151 0.019159 0.000000 0.000000 0.000000
# 4 0.000000 0.000000 0.000000 0.066552 0.000000 0.000000
# 5 0.000000 0.000000 0.000000 0.000000 0.149487 0.000000
# 6 0.000000 0.000000 0.000000 0.000000 0.000000 0.045510
#
#
# Mechanical properties :
#
#
# Convention : Reuss Voigt Hill
#
# Bulk Modulus (GPa) = 18.74359 24.71998 21.73179
# Shear Modulus (GPa) = 14.45962 21.02981 17.74471
#
# Velocity S-wave (km/s) = 2.54586 3.07025 2.82027
# Velocity P-wave (km/s) = 4.12839 4.86304 4.51069
#
# Compressibility (1/GPa) = 0.05335157
#
# Stress axis : x y z
#
# Youngs Moduli (GPa) = 31.76304 107.96020 52.19406
#
# Poissons Ratio (x) = -0.10892 0.11140
# Poissons Ratio (y) = -0.03205 0.11229
# Poissons Ratio (z) = 0.06779 0.23226
#
# Static dielectric constant tensor:
#      x y z
#    x 1.941080 0.000000 0.000000 
#    y 0.000000 1.924230 0.000000 
#    z 0.000000 0.000000 1.826890 
# 
# From -- ./inp_files/32421.got.cif
#   From: 2010.05.17/outbox.cif.g08.bks.cpg/sg48_17_cif.got.tgz:32421.got - 2010.06.03 20:39:00.
