data_PCOD9389370
_publ_section_title
;
Structure prediction by ZEFSAII (Michael W. Deem and Ramdas Pophale) SiO2 
 PCOD9389370
Probable space group: P M M M
;
_chemical_formula_sum "Si O2"
_cell_formula_units_Z 52
_cell_length_a 15.000000
_cell_length_b 9.000000
_cell_length_c 21.000000
_cell_angle_alpha 90.000000
_cell_angle_beta 90.000000
_cell_angle_gamma 90.000000
_cell_volume 2835.000000
_symmetry_space_group_name_H-M "P M M M"
_symmetry_group_IT_number 47
_symmetry_cell_setting 'orthorhombic'
loop_
_space_group_symop_operation_xyz
x,y,z
-x,-y,z
x,-y,-z
-x,y,-z
-x,-y,-z
x,y,-z
-x,y,z
x,-y,z
loop_
_atom_site_type_symbol
_atom_site_label
_atom_site_fract_x
_atom_site_fract_y
_atom_site_fract_z
Si Si1 0.816516 0.821728 0.071404
Si Si2 0.235239 0.824107 0.794156
Si Si3 0.597958 0.826188 0.602506
Si Si4 0.894845 0.678238 0.307068
Si Si5 0.399887 0.328932 0.264950
Si Si6 0.000000 0.334343 0.923444
Si Si7 0.800844 0.177296 0.429934
O O1 0.757865 0.779480 0.131673
O O2 0.912347 0.757623 0.090729
O O3 0.821069 0.000000 0.068273
O O4 0.793150 0.768130 0.000000
O O5 0.158318 0.743109 0.753627
O O6 0.328610 0.780839 0.763967
O O7 0.218794 0.000000 0.790295
O O8 0.500000 0.810418 0.570536
O O9 0.597085 0.713673 0.661113
O O10 0.693325 0.801003 0.570001
O O11 0.601033 0.000000 0.623868
O O12 0.887793 0.500000 0.306704
O O13 0.847120 0.741332 0.370751
O O14 0.000000 0.718126 0.305809
O O15 0.500000 0.310310 0.239329
O O16 0.372431 0.500000 0.256458
O O17 0.000000 0.500000 0.895349
O O18 0.000000 0.348655 0.000000
O O19 0.834851 0.223074 0.500000
O O20 0.815599 0.000000 0.422657
#
# Coordination Sequence:
#
# PCOD9389370 Si02
#       7
#     8   8   8   8   8   4   8
#     4   9  19  35  53  76 109 147 185 226 276 332
#     4  11  22  36  59  86 111 144 185 230 279 330
#     4   9  17  31  53  81 113 146 179 218 268 329
#     4  11  25  42  58  79 109 147 190 235 282 331
#     4  10  20  34  55  83 114 146 180 223 275 329
#     4   9  17  29  47  73 105 141 180 219 262 319
#     4  10  21  37  58  84 113 147 187 231 279 330
#
# _framework density 18.342151999999999
#
# number of rings (size 3 to 8) (size 9 to 14) (size 15 to 20)
#    0.000    2.077    1.538    1.615    1.077    5.231 
#    0.000    3.077    0.000    0.462    0.000    6.462 
#    0.000    0.000    0.000    0.000    0.000    0.000 
#
# Total GULP energy -289654.843487 kJ/mol
# GULP energy per Si atom -5570.285452 kJ/mol
# Density = 1.830040 g / cm^3
# Si number density = 18.342152 Si / 1000 Ang^3
#
#
#
# Elastic Constant Matrix: (Units=GPa)
#
#
# Indices 1 2 3 4 5 6 
#
# 1 67.2796 23.7516 38.4432 0.0000 0.0000 0.0000
# 2 23.7516 20.2581 35.7574 0.0000 0.0000 0.0000
# 3 38.4432 35.7574 111.5288 0.0000 0.0000 0.0000
# 4 0.0000 0.0000 0.0000 -1.4622 0.0000 0.0000
# 5 0.0000 0.0000 0.0000 0.0000 -72.6421 0.0000
# 6 0.0000 0.0000 0.0000 0.0000 0.0000 57.5870
#
#
#
# Elastic Compliance Matrix: (Units=1/GPa)
#
#
# Indices 1 2 3 4 5 6 
#
# 1 0.025522 -0.033162 0.001835 0.000000 0.000000 0.000000
# 2 -0.033162 0.156803 -0.038842 0.000000 0.000000 0.000000
# 3 0.001835 -0.038842 0.020787 0.000000 0.000000 0.000000
# 4 0.000000 0.000000 0.000000 -0.683878 0.000000 0.000000
# 5 0.000000 0.000000 0.000000 0.000000 -0.013766 0.000000
# 6 0.000000 0.000000 0.000000 0.000000 0.000000 0.017365
#
#
# Mechanical properties :
#
#
# Convention : Reuss Voigt Hill
#
# Bulk Modulus (GPa) = 15.93016 43.88564 29.90790
# Shear Modulus (GPa) = -15.82761 3.43750 -6.19506
#
# Velocity S-wave (km/s) = -2.94072 1.37046 -1.83979
# Velocity P-wave (km/s) = 1.68124 5.14609 3.43916
#
# Compressibility (1/GPa) = 0.06277403
#
# Stress axis : x y z
#
# Youngs Moduli (GPa) = 39.18202 6.37742 48.10666
#
# Poissons Ratio (x) = 0.21149 -0.08826
# Poissons Ratio (y) = 1.29934 1.86857
# Poissons Ratio (z) = -0.07189 0.24771
#
# Static dielectric constant tensor:
#      x y z
#    x 1.640870 0.000000 0.000000 
#    y 0.000000 1.616940 0.000000 
#    z 0.000000 0.000000 1.652430 
# 
# From -- ./inp_files/30913.got.cif
#   From: 2010.05.17/outbox.ucp.g08.bks.cvg/sg47_16_cif.got.tgz:30913.got - 2010.06.11 16:36:43.
