data_PCOD9389796
_publ_section_title
;
Structure prediction by ZEFSAII (Michael W. Deem and Ramdas Pophale) SiO2 
 PCOD9389796
Probable space group: P N N N
;
_chemical_formula_sum "Si O2"
_cell_formula_units_Z 44
_cell_length_a 8.752664
_cell_length_b 11.629261
_cell_length_c 16.166099
_cell_angle_alpha 90.000000
_cell_angle_beta 90.000000
_cell_angle_gamma 90.000000
_cell_volume 1645.498947
_symmetry_space_group_name_H-M "P N N N"
_symmetry_group_IT_number 48
_space_group.IT_coordinate_system_code '2'
_symmetry_cell_setting 'orthorhombic'
loop_
_space_group_symop_operation_xyz
x,y,z
1/2-x,1/2-y,z
x,1/2-y,1/2-z
1/2-x,y,1/2-z
-x,-y,-z
1/2+x,1/2+y,-z
-x,1/2+y,1/2+z
1/2+x,-y,1/2+z
loop_
_atom_site_type_symbol
_atom_site_label
_atom_site_fract_x
_atom_site_fract_y
_atom_site_fract_z
Si Si1 0.549917 0.062654 0.327658
Si Si2 0.388974 0.904791 0.111595
Si Si3 0.750000 0.546344 0.750000
Si Si4 0.823078 0.443737 0.066237
Si Si5 0.077925 0.296405 0.653016
Si Si6 0.854987 0.649513 0.523266
O O1 0.417392 0.105581 0.263595
O O2 0.724424 0.098656 0.354225
O O3 0.470119 0.094336 0.414068
O O4 0.565797 0.925390 0.313869
O O5 0.455743 0.803103 0.168749
O O6 0.264313 0.968397 0.167754
O O7 0.518068 0.003194 0.097284
O O8 0.339055 0.870664 0.018150
O O9 0.744194 0.555108 0.024245
O O10 0.250000 0.250000 0.666759
O O11 0.058775 0.298523 0.554161
O O12 0.750000 0.750000 0.561598
#
# Coordination Sequence:
#
# PCOD9389796 Si02
#       6
#     8   8   4   8   8   8
#     4  11  23  42  62  94 132 179 215 275 334 409
#     4  11  22  39  65  98 130 169 220 280 336 408
#     4  12  28  39  59  98 146 168 215 272 355 400
#     4  10  20  41  69  90 125 170 232 266 324 406
#     4  10  19  38  65  93 129 175 221 264 330 401
#     4  10  18  38  66  94 118 165 227 275 319 379
#
# _framework density 26.739606999999999
#
# number of rings (size 3 to 8) (size 9 to 14) (size 15 to 20)
#    0.000    1.455    7.273    2.182    0.000    2.909 
#    0.000    1.364    0.000    0.000    0.000    2.545 
#    0.000    0.000    0.000    0.000    0.000    0.000 
#
# Total GULP energy -245433.452958 kJ/mol
# GULP energy per Si atom -5578.033022 kJ/mol
# Density = 2.667875 g / cm^3
# Si number density = 26.739607 Si / 1000 Ang^3
#
#
#
# Elastic Constant Matrix: (Units=GPa)
#
#
# Indices 1 2 3 4 5 6 
#
# 1 101.9335 19.1354 6.3117 0.0000 0.0000 0.0000
# 2 19.1354 73.7902 7.2609 0.0000 0.0000 0.0000
# 3 6.3117 7.2609 112.2935 0.0000 0.0000 0.0000
# 4 0.0000 0.0000 0.0000 2.0503 0.0000 0.0000
# 5 0.0000 0.0000 0.0000 0.0000 -1.8092 0.0000
# 6 0.0000 0.0000 0.0000 0.0000 0.0000 67.8897
#
#
#
# Elastic Compliance Matrix: (Units=1/GPa)
#
#
# Indices 1 2 3 4 5 6 
#
# 1 0.010331 -0.002639 -0.000410 0.000000 0.000000 0.000000
# 2 -0.002639 0.014313 -0.000777 0.000000 0.000000 0.000000
# 3 -0.000410 -0.000777 0.008979 0.000000 0.000000 0.000000
# 4 0.000000 0.000000 0.000000 0.487736 0.000000 0.000000
# 5 0.000000 0.000000 0.000000 0.000000 -0.552717 0.000000
# 6 0.000000 0.000000 0.000000 0.000000 0.000000 0.014730
#
#
# Mechanical properties :
#
#
# Convention : Reuss Voigt Hill
#
# Bulk Modulus (GPa) = 38.50535 39.27038 38.88787
# Shear Modulus (GPa) = -15597.29867 30.64676 -7783.32596
#
# Velocity S-wave (km/s) = -76.45715 3.38911 -54.01023
# Velocity P-wave (km/s) = 88.20334 5.48022 62.24868
#
# Compressibility (1/GPa) = 0.02597042
#
# Stress axis : x y z
#
# Youngs Moduli (GPa) = 96.79546 69.86808 111.37677
#
# Poissons Ratio (x) = 0.18436 0.04567
# Poissons Ratio (y) = 0.25542 0.08656
# Poissons Ratio (z) = 0.03969 0.05430
#
# Static dielectric constant tensor:
#      x y z
#    x 2.247490 0.000000 0.000000 
#    y 0.000000 2.239490 0.000000 
#    z 0.000000 0.000000 2.243290 
# 
# From -- ./inp_files/30208.got.cif
#   From: 2010.05.17/outbox.cif.g08.bks.cpg/sg48_16_cif.got.tgz:30208.got - 2010.06.03 20:39:00.
