data_PCOD9389877
_publ_section_title
;
Structure prediction by ZEFSAII (Michael W. Deem and Ramdas Pophale) SiO2 
 PCOD9389877
Probable space group: P N N N
;
_chemical_formula_sum "Si O2"
_cell_formula_units_Z 40
_cell_length_a 20.860214
_cell_length_b 19.155209
_cell_length_c 5.240160
_cell_angle_alpha 90.000000
_cell_angle_beta 90.000000
_cell_angle_gamma 90.000000
_cell_volume 2093.872350
_symmetry_space_group_name_H-M "P N N N"
_symmetry_group_IT_number 48
_space_group.IT_coordinate_system_code '2'
_symmetry_cell_setting 'orthorhombic'
loop_
_space_group_symop_operation_xyz
x,y,z
1/2-x,1/2-y,z
x,1/2-y,1/2-z
1/2-x,y,1/2-z
-x,-y,-z
1/2+x,1/2+y,-z
-x,1/2+y,1/2+z
1/2+x,-y,1/2+z
loop_
_atom_site_type_symbol
_atom_site_label
_atom_site_fract_x
_atom_site_fract_y
_atom_site_fract_z
Si Si1 0.185860 0.908325 0.847655
Si Si2 0.051247 0.435771 0.032067
Si Si3 0.337261 0.826150 0.149992
Si Si4 0.020346 0.794738 0.491586
Si Si5 0.576555 0.985995 0.462738
O O1 0.250000 0.947970 0.750000
O O2 0.182614 0.847493 0.634328
O O3 0.119761 0.951641 0.854168
O O4 0.187418 0.878164 0.132519
O O5 0.097135 0.460668 0.258722
O O6 0.082223 0.428551 0.755256
O O7 0.000000 0.500000 0.000000
O O8 0.018925 0.361963 0.085760
O O9 0.319288 0.750000 0.250000
O O10 0.414410 0.825465 0.131270
O O11 0.992739 0.750000 0.250000
O O12 0.033745 0.750000 0.750000
O O13 0.500000 0.000000 0.500000
#
# Coordination Sequence:
#
# PCOD9389877 Si02
#       5
#     8   8   8   8   8
#     4  12  24  37  53  77 109 144 191 246 286 329
#     4  10  19  32  54  78 106 144 186 227 279 342
#     4  11  22  36  52  72 105 155 199 230 273 332
#     4  11  21  35  55  84 118 149 190 243 291 340
#     4  10  19  34  55  75 100 137 183 228 282 338
#
# _framework density 19.103362000000001
#
# number of rings (size 3 to 8) (size 9 to 14) (size 15 to 20)
#    0.000    1.200    0.000   10.800    0.000    2.400 
#    0.000    0.000    0.000    0.000    0.000    0.000 
#    0.000   12.000    0.000    0.000    0.000    0.000 
#
# Total GULP energy -222731.106668 kJ/mol
# GULP energy per Si atom -5568.277667 kJ/mol
# Density = 1.905988 g / cm^3
# Si number density = 19.103362 Si / 1000 Ang^3
#
#
#
# Elastic Constant Matrix: (Units=GPa)
#
#
# Indices 1 2 3 4 5 6 
#
# 1 67.7539 33.5295 21.8792 0.0000 0.0000 0.0000
# 2 33.5295 59.5631 27.7020 0.0000 0.0000 0.0000
# 3 21.8792 27.7020 157.5628 0.0000 0.0000 0.0000
# 4 0.0000 0.0000 0.0000 26.8734 0.0000 0.0000
# 5 0.0000 0.0000 0.0000 0.0000 25.2527 0.0000
# 6 0.0000 0.0000 0.0000 0.0000 0.0000 -3.8505
#
#
#
# Elastic Compliance Matrix: (Units=1/GPa)
#
#
# Indices 1 2 3 4 5 6 
#
# 1 0.020573 -0.011166 -0.000894 0.000000 0.000000 0.000000
# 2 -0.011166 0.024344 -0.002730 0.000000 0.000000 0.000000
# 3 -0.000894 -0.002730 0.006951 0.000000 0.000000 0.000000
# 4 0.000000 0.000000 0.000000 0.037211 0.000000 0.000000
# 5 0.000000 0.000000 0.000000 0.000000 0.039600 0.000000
# 6 0.000000 0.000000 0.000000 0.000000 0.000000 -0.259703
#
#
# Mechanical properties :
#
#
# Convention : Reuss Voigt Hill
#
# Bulk Modulus (GPa) = 44.86300 50.12236 47.49268
# Shear Modulus (GPa) = -53.18220 23.10640 -15.03790
#
# Velocity S-wave (km/s) = -5.28201 3.48163 -2.80873
# Velocity P-wave (km/s) = 3.69651 6.51588 3.79424
#
# Compressibility (1/GPa) = 0.02229008
#
# Stress axis : x y z
#
# Youngs Moduli (GPa) = 48.60632 41.07823 143.87083
#
# Poissons Ratio (x) = 0.45866 0.12858
# Poissons Ratio (y) = 0.54272 0.39270
# Poissons Ratio (z) = 0.04344 0.11213
#
# Static dielectric constant tensor:
#      x y z
#    x 1.714740 0.000000 0.000000 
#    y 0.000000 1.693740 0.000000 
#    z 0.000000 0.000000 1.676320 
# 
# From -- ./inp_files/5091.got.cif
#   From: 2010.05.17/outbox.cif.g08.bks.cpg/sg48_3_cif.got.tgz:5091.got - 2010.06.03 20:39:00.
