data_PCOD9389970
_publ_section_title
;
Structure prediction by ZEFSAII (Michael W. Deem and Ramdas Pophale) SiO2 
 PCOD9389970
Probable space group: P N N N
;
_chemical_formula_sum "Si O2"
_cell_formula_units_Z 58
_cell_length_a 27.737685
_cell_length_b 5.996935
_cell_length_c 18.324609
_cell_angle_alpha 90.000000
_cell_angle_beta 90.000000
_cell_angle_gamma 90.000000
_cell_volume 3048.135508
_symmetry_space_group_name_H-M "P N N N"
_symmetry_group_IT_number 48
_space_group.IT_coordinate_system_code '2'
_symmetry_cell_setting 'orthorhombic'
loop_
_space_group_symop_operation_xyz
x,y,z
1/2-x,1/2-y,z
x,1/2-y,1/2-z
1/2-x,y,1/2-z
-x,-y,-z
1/2+x,1/2+y,-z
-x,1/2+y,1/2+z
1/2+x,-y,1/2+z
loop_
_atom_site_type_symbol
_atom_site_label
_atom_site_fract_x
_atom_site_fract_y
_atom_site_fract_z
Si Si1 0.271602 0.500521 0.957403
Si Si2 0.643556 0.785466 0.534276
Si Si3 0.800957 0.860369 0.673258
Si Si4 0.553700 0.468922 0.027644
Si Si5 0.582506 0.694180 0.173762
Si Si6 0.750000 0.250000 0.750000
Si Si7 0.883708 0.080819 0.427322
Si Si8 0.823878 0.105903 0.178604
O O1 0.250000 0.250000 0.972929
O O2 0.281226 0.502234 0.869679
O O3 0.250000 0.750000 0.974373
O O4 0.320875 0.476870 0.004265
O O5 0.660115 0.695772 0.612369
O O6 0.646817 0.576594 0.479781
O O7 0.589927 0.879165 0.520633
O O8 0.750000 0.750000 0.649534
O O9 0.815308 0.750000 0.750000
O O10 0.784568 0.106625 0.697075
O O11 0.557281 0.541667 0.112884
O O12 0.577106 0.223341 0.028350
O O13 0.500000 0.500000 0.000000
O O14 0.557449 0.750000 0.250000
O O15 0.633759 0.574694 0.192540
O O16 0.590919 0.922258 0.131108
O O17 0.848461 0.231632 0.380326
O O18 0.811848 0.250000 0.250000
#
# Coordination Sequence:
#
# PCOD9389970 Si02
#       8
#     8   8   8   8   8   2   8   8
#     4  12  26  42  60  96 140 179 232 276 328 393
#     4  11  22  40  64  92 125 174 208 276 328 395
#     4   9  20  39  60  92 126 164 213 257 328 393
#     4  10  23  40  65  94 120 159 213 275 337 399
#     4  10  19  34  64  91 117 161 214 258 321 387
#     4   8  18  40  60  90 124 164 224 260 322 420
#     4  10  19  37  63  89 123 160 212 259 327 381
#     4  11  21  37  58  86 125 174 216 267 310 374
#
# _framework density 19.028027000000002
#
# number of rings (size 3 to 8) (size 9 to 14) (size 15 to 20)
#    0.000    1.793    5.517    1.241    0.000    4.690 
#    8.690    2.069    6.069    0.000    0.000    0.000 
#    0.000    0.000    0.000    0.000    0.000    0.000 
#
# Total GULP energy -323111.496113 kJ/mol
# GULP energy per Si atom -5570.887864 kJ/mol
# Density = 1.898472 g / cm^3
# Si number density = 19.028027 Si / 1000 Ang^3
#
#
#
# Elastic Constant Matrix: (Units=GPa)
#
#
# Indices 1 2 3 4 5 6 
#
# 1 90.3760 41.3285 44.3120 0.0000 0.0000 0.0000
# 2 41.3285 111.6322 36.7885 0.0000 0.0000 0.0000
# 3 44.3120 36.7885 132.1589 0.0000 0.0000 0.0000
# 4 0.0000 0.0000 0.0000 0.8023 0.0000 0.0000
# 5 0.0000 0.0000 0.0000 0.0000 17.6217 0.0000
# 6 0.0000 0.0000 0.0000 0.0000 0.0000 14.9628
#
#
#
# Elastic Compliance Matrix: (Units=1/GPa)
#
#
# Indices 1 2 3 4 5 6 
#
# 1 0.014875 -0.004254 -0.003803 0.000000 0.000000 0.000000
# 2 -0.004254 0.011079 -0.001658 0.000000 0.000000 0.000000
# 3 -0.003803 -0.001658 0.009303 0.000000 0.000000 0.000000
# 4 0.000000 0.000000 0.000000 1.246417 0.000000 0.000000
# 5 0.000000 0.000000 0.000000 0.000000 0.056748 0.000000
# 6 0.000000 0.000000 0.000000 0.000000 0.000000 0.066833
#
#
# Mechanical properties :
#
#
# Convention : Reuss Voigt Hill
#
# Bulk Modulus (GPa) = 63.18026 64.33611 63.75819
# Shear Modulus (GPa) = 3.49660 20.79322 12.14491
#
# Velocity S-wave (km/s) = 1.35705 3.30929 2.52913
# Velocity P-wave (km/s) = 5.97757 6.96323 6.48914
#
# Compressibility (1/GPa) = 0.01582773
#
# Stress axis : x y z
#
# Youngs Moduli (GPa) = 67.22755 90.26011 107.48766
#
# Poissons Ratio (x) = 0.38393 0.40882
# Poissons Ratio (y) = 0.28596 0.17820
# Poissons Ratio (z) = 0.25569 0.14964
#
# Static dielectric constant tensor:
#      x y z
#    x 1.691630 0.000000 0.000000 
#    y 0.000000 1.750800 0.000000 
#    z 0.000000 0.000000 1.695290 
# 
# From -- ./inp_files/6606.got.cif
#   From: 2010.05.17/outbox.cif.g08.bks.cpg/sg48_4_cif.got.tgz:6606.got - 2010.06.03 20:39:00.
