data_PCOD9389990
_publ_section_title
;
Structure prediction by ZEFSAII (Michael W. Deem and Ramdas Pophale) SiO2 
 PCOD9389990
Probable space group: P N N N
;
_chemical_formula_sum "Si O2"
_cell_formula_units_Z 52
_cell_length_a 10.001889
_cell_length_b 25.717015
_cell_length_c 9.886675
_cell_angle_alpha 90.000000
_cell_angle_beta 90.000000
_cell_angle_gamma 90.000000
_cell_volume 2543.037982
_symmetry_space_group_name_H-M "P N N N"
_symmetry_group_IT_number 48
_space_group.IT_coordinate_system_code '2'
_symmetry_cell_setting 'orthorhombic'
loop_
_space_group_symop_operation_xyz
x,y,z
1/2-x,1/2-y,z
x,1/2-y,1/2-z
1/2-x,y,1/2-z
-x,-y,-z
1/2+x,1/2+y,-z
-x,1/2+y,1/2+z
1/2+x,-y,1/2+z
loop_
_atom_site_type_symbol
_atom_site_label
_atom_site_fract_x
_atom_site_fract_y
_atom_site_fract_z
Si Si1 0.398134 0.468167 0.091248
Si Si2 0.090733 0.261672 0.599786
Si Si3 0.934168 0.826539 0.613549
Si Si4 0.914550 0.419287 0.987403
Si Si5 0.250000 0.953452 0.250000
Si Si6 0.837695 0.524841 0.116248
Si Si7 0.382468 0.349163 0.093066
O O1 0.368924 0.505831 0.216560
O O2 0.432559 0.408151 0.113880
O O3 0.500000 0.500000 0.000000
O O4 0.260013 0.465527 0.009431
O O5 0.250000 0.250000 0.605760
O O6 0.037071 0.250000 0.750000
O O7 0.043094 0.222395 0.483479
O O8 0.071781 0.319967 0.543033
O O9 0.932190 0.818018 0.774565
O O10 0.780451 0.847087 0.590543
O O11 0.043724 0.868601 0.568619
O O12 0.791596 0.420244 0.881142
O O13 0.043668 0.434290 0.897239
O O14 0.891008 0.466549 0.091911
O O15 0.750000 0.529390 0.250000
#
# Coordination Sequence:
#
# PCOD9389990 Si02
#       7
#     8   8   8   8   4   8   8
#     4  11  22  34  54  83 118 157 194 237 285 350
#     4   9  19  34  53  82 117 147 188 237 297 361
#     4  10  19  35  58  80 115 157 191 236 298 354
#     4  10  21  36  56  80 116 160 195 244 292 346
#     4  10  22  38  52  80 124 152 204 240 284 350
#     4  10  21  34  52  80 117 156 198 238 286 346
#     4  10  20  34  54  84 117 156 189 237 292 359
#
# _framework density 20.447984999999999
#
# number of rings (size 3 to 8) (size 9 to 14) (size 15 to 20)
#    0.000    2.000    1.538    2.308    6.462    4.308 
#    0.000    0.000    0.000    0.000    0.000   10.231 
#    0.000    0.000    0.000    0.000    0.000    0.000 
#
# Total GULP energy -290024.203685 kJ/mol
# GULP energy per Si atom -5577.388532 kJ/mol
# Density = 2.040144 g / cm^3
# Si number density = 20.447985 Si / 1000 Ang^3
#
#
#
# Elastic Constant Matrix: (Units=GPa)
#
#
# Indices 1 2 3 4 5 6 
#
# 1 24.3538 7.2862 11.7045 0.0000 0.0000 0.0000
# 2 7.2862 65.6140 25.7958 0.0000 0.0000 0.0000
# 3 11.7045 25.7958 102.2429 0.0000 0.0000 0.0000
# 4 0.0000 0.0000 0.0000 22.6608 0.0000 0.0000
# 5 0.0000 0.0000 0.0000 0.0000 39.1188 0.0000
# 6 0.0000 0.0000 0.0000 0.0000 0.0000 11.8252
#
#
#
# Elastic Compliance Matrix: (Units=1/GPa)
#
#
# Indices 1 2 3 4 5 6 
#
# 1 0.044060 -0.003230 -0.004229 0.000000 0.000000 0.000000
# 2 -0.003230 0.017156 -0.003959 0.000000 0.000000 0.000000
# 3 -0.004229 -0.003959 0.011263 0.000000 0.000000 0.000000
# 4 0.000000 0.000000 0.000000 0.044129 0.000000 0.000000
# 5 0.000000 0.000000 0.000000 0.000000 0.025563 0.000000
# 6 0.000000 0.000000 0.000000 0.000000 0.000000 0.084565
#
#
# Mechanical properties :
#
#
# Convention : Reuss Voigt Hill
#
# Bulk Modulus (GPa) = 20.14345 31.30932 25.72638
# Shear Modulus (GPa) = 18.78854 24.54925 21.66890
#
# Velocity S-wave (km/s) = 3.03454 3.46868 3.25885
# Velocity P-wave (km/s) = 4.70641 5.60244 5.17386
#
# Compressibility (1/GPa) = 0.04964393
#
# Stress axis : x y z
#
# Youngs Moduli (GPa) = 22.69627 58.28986 88.78236
#
# Poissons Ratio (x) = 0.18829 0.37545
# Poissons Ratio (y) = 0.07331 0.35145
# Poissons Ratio (z) = 0.09598 0.23075
#
# Static dielectric constant tensor:
#      x y z
#    x 1.682740 0.000000 0.000000 
#    y 0.000000 1.755380 0.000000 
#    z 0.000000 0.000000 1.747920 
# 
# From -- ./inp_files/11411.got.cif
#   From: 2010.05.17/outbox.cif.g08.bks.cpg/sg48_6_cif.got.tgz:11411.got - 2010.06.03 20:39:00.
