data_PCOD9389948
_publ_section_title
;
Structure prediction by ZEFSAII (Michael W. Deem and Ramdas Pophale) SiO2 
 PCOD9389948
Probable space group: P N N N
;
_chemical_formula_sum "Si O2"
_cell_formula_units_Z 32
_cell_length_a 8.904543
_cell_length_b 5.064370
_cell_length_c 30.839184
_cell_angle_alpha 90.000000
_cell_angle_beta 90.000000
_cell_angle_gamma 90.000000
_cell_volume 1390.720771
_symmetry_space_group_name_H-M "P N N N"
_symmetry_group_IT_number 48
_space_group.IT_coordinate_system_code '2'
_symmetry_cell_setting 'orthorhombic'
loop_
_space_group_symop_operation_xyz
x,y,z
1/2-x,1/2-y,z
x,1/2-y,1/2-z
1/2-x,y,1/2-z
-x,-y,-z
1/2+x,1/2+y,-z
-x,1/2+y,1/2+z
1/2+x,-y,1/2+z
loop_
_atom_site_type_symbol
_atom_site_label
_atom_site_fract_x
_atom_site_fract_y
_atom_site_fract_z
Si Si1 0.075658 0.197273 0.300982
Si Si2 0.398498 0.342349 0.562389
Si Si3 0.925795 0.801116 0.161097
Si Si4 0.896972 0.361823 0.478752
O O1 0.250000 0.250000 0.311482
O O2 0.054221 0.250000 0.250000
O O3 0.973315 0.402062 0.327819
O O4 0.026615 0.900704 0.311598
O O5 0.447868 0.271864 0.610689
O O6 0.481712 0.164199 0.522721
O O7 0.469364 0.634252 0.550923
O O8 0.279594 0.039578 0.556616
O O9 0.750000 0.750000 0.170542
O O10 0.750000 0.250000 0.503969
#
# Coordination Sequence:
#
# PCOD9389948 Si02
#       4
#     8   8   8   8
#     4  11  24  41  60  86 124 163 195 241 311 370
#     4   9  19  35  56  82 113 148 187 239 298 347
#     4  11  22  39  64  90 116 155 207 254 294 352
#     4  10  19  34  55  80 112 149 188 232 289 353
#
# _framework density 23.009651000000002
#
# number of rings (size 3 to 8) (size 9 to 14) (size 15 to 20)
#    0.000    1.750    0.000    4.500    0.000    9.000 
#    0.000    5.000    0.000    1.500    0.000    0.000 
#    0.000    0.000    0.000    0.000    0.000    0.000 
#
# Total GULP energy -178478.614039 kJ/mol
# GULP energy per Si atom -5577.456689 kJ/mol
# Density = 2.295728 g / cm^3
# Si number density = 23.009651 Si / 1000 Ang^3
#
#
#
# Elastic Constant Matrix: (Units=GPa)
#
#
# Indices 1 2 3 4 5 6 
#
# 1 66.0844 -6.4689 24.1311 0.0000 0.0000 0.0000
# 2 -6.4689 132.7381 0.4006 0.0000 0.0000 0.0000
# 3 24.1311 0.4006 80.8927 0.0000 0.0000 0.0000
# 4 0.0000 0.0000 0.0000 37.9595 0.0000 0.0000
# 5 0.0000 0.0000 0.0000 0.0000 26.6839 0.0000
# 6 0.0000 0.0000 0.0000 0.0000 0.0000 50.5054
#
#
#
# Elastic Compliance Matrix: (Units=1/GPa)
#
#
# Indices 1 2 3 4 5 6 
#
# 1 0.017077 0.000848 -0.005098 0.000000 0.000000 0.000000
# 2 0.000848 0.007576 -0.000290 0.000000 0.000000 0.000000
# 3 -0.005098 -0.000290 0.013884 0.000000 0.000000 0.000000
# 4 0.000000 0.000000 0.000000 0.026344 0.000000 0.000000
# 5 0.000000 0.000000 0.000000 0.000000 0.037476 0.000000
# 6 0.000000 0.000000 0.000000 0.000000 0.000000 0.019800
#
#
# Mechanical properties :
#
#
# Convention : Reuss Voigt Hill
#
# Bulk Modulus (GPa) = 33.95037 35.09342 34.52189
# Shear Modulus (GPa) = 35.44664 40.47325 37.95995
#
# Velocity S-wave (km/s) = 3.92919 4.19856 4.06611
# Velocity P-wave (km/s) = 5.94740 6.22805 6.08934
#
# Compressibility (1/GPa) = 0.02945476
#
# Stress axis : x y z
#
# Youngs Moduli (GPa) = 58.55886 131.99902 72.02330
#
# Poissons Ratio (x) = -0.11188 0.36720
# Poissons Ratio (y) = -0.04963 0.02091
# Poissons Ratio (z) = 0.29856 0.03833
#
# Static dielectric constant tensor:
#      x y z
#    x 1.895090 0.000000 0.000000 
#    y 0.000000 1.822800 0.000000 
#    z 0.000000 0.000000 1.799160 
# 
# From -- ./inp_files/38487.got.cif
#   From: 2010.05.17/outbox.cif.g08.bks.cpg/sg48_20_cif.got.tgz:38487.got - 2010.06.03 20:39:00.
