data_PCOD9389878
_publ_section_title
;
Structure prediction by ZEFSAII (Michael W. Deem and Ramdas Pophale) SiO2 
 PCOD9389878
Probable space group: P N N N
;
_chemical_formula_sum "Si O2"
_cell_formula_units_Z 64
_cell_length_a 10.972845
_cell_length_b 32.856389
_cell_length_c 7.122380
_cell_angle_alpha 90.000000
_cell_angle_beta 90.000000
_cell_angle_gamma 90.000000
_cell_volume 2567.817871
_symmetry_space_group_name_H-M "P N N N"
_symmetry_group_IT_number 48
_space_group.IT_coordinate_system_code '2'
_symmetry_cell_setting 'orthorhombic'
loop_
_space_group_symop_operation_xyz
x,y,z
1/2-x,1/2-y,z
x,1/2-y,1/2-z
1/2-x,y,1/2-z
-x,-y,-z
1/2+x,1/2+y,-z
-x,1/2+y,1/2+z
1/2+x,-y,1/2+z
loop_
_atom_site_type_symbol
_atom_site_label
_atom_site_fract_x
_atom_site_fract_y
_atom_site_fract_z
Si Si1 0.756358 0.532025 0.477582
Si Si2 0.891526 0.756626 0.538478
Si Si3 0.496588 0.068016 0.995118
Si Si4 0.509582 0.661163 0.579340
Si Si5 0.002377 0.825015 0.028421
Si Si6 0.974301 0.586818 0.428185
Si Si7 0.240473 0.702584 0.976235
Si Si8 0.272382 0.940091 0.461185
O O1 0.750000 0.531622 0.250000
O O2 0.619496 0.540729 0.554022
O O3 0.801175 0.487983 0.541202
O O4 0.857547 0.566238 0.523911
O O5 0.750000 0.750000 0.546679
O O6 0.946117 0.750000 0.750000
O O7 0.906317 0.803795 0.493066
O O8 0.948465 0.719291 0.424893
O O9 0.495746 0.064079 0.768851
O O10 0.637782 0.061708 0.056630
O O11 0.464775 0.114625 0.040312
O O12 0.514701 0.666804 0.804761
O O13 0.380297 0.676353 0.498004
O O14 0.145630 0.820709 0.060886
O O15 0.950550 0.865893 0.116790
O O16 0.105228 0.582462 0.532517
O O17 0.250000 0.750000 0.036144
O O18 0.250000 0.704139 0.750000
O O19 0.250000 0.924078 0.250000
#
# Coordination Sequence:
#
# PCOD9389878 Si02
#       8
#     8   8   8   8   8   8   8   8
#     4  10  22  39  59  81 109 142 174 216 269 321
#     4   9  18  31  48  74 107 139 178 228 267 296
#     4  10  22  38  55  80 114 144 171 216 272 319
#     4  10  19  32  54  79 104 140 183 223 262 310
#     4  10  19  32  54  79 104 140 183 223 262 310
#     4  10  22  38  55  80 114 144 171 216 272 319
#     4   9  15  28  49  74 101 131 173 224 269 300
#     4  10  21  39  61  82 107 140 176 217 267 320
#
# _framework density 24.923884000000001
#
# number of rings (size 3 to 8) (size 9 to 14) (size 15 to 20)
#    0.000    2.250    1.250    1.500    1.750    2.000 
#    0.000    0.625    0.000    1.500    0.000    0.000 
#    0.000    0.000    0.000    0.000    0.000    0.000 
#
# Total GULP energy -357489.991626 kJ/mol
# GULP energy per Si atom -5585.781119 kJ/mol
# Density = 2.486716 g / cm^3
# Si number density = 24.923884 Si / 1000 Ang^3
#
#
#
# Elastic Constant Matrix: (Units=GPa)
#
#
# Indices 1 2 3 4 5 6 
#
# 1 90.4823 23.1722 -14.5083 0.0000 0.0000 0.0000
# 2 23.1722 137.5328 -21.8390 0.0000 0.0000 0.0000
# 3 -14.5083 -21.8390 75.7307 0.0000 0.0000 0.0000
# 4 0.0000 0.0000 0.0000 52.2874 0.0000 0.0000
# 5 0.0000 0.0000 0.0000 0.0000 -29.7513 0.0000
# 6 0.0000 0.0000 0.0000 0.0000 0.0000 30.9649
#
#
#
# Elastic Compliance Matrix: (Units=1/GPa)
#
#
# Indices 1 2 3 4 5 6 
#
# 1 0.011771 -0.001703 0.001764 0.000000 0.000000 0.000000
# 2 -0.001703 0.007866 0.001942 0.000000 0.000000 0.000000
# 3 0.001764 0.001942 0.014103 0.000000 0.000000 0.000000
# 4 0.000000 0.000000 0.000000 0.019125 0.000000 0.000000
# 5 0.000000 0.000000 0.000000 0.000000 -0.033612 0.000000
# 6 0.000000 0.000000 0.000000 0.000000 0.000000 0.032295
#
#
# Mechanical properties :
#
#
# Convention : Reuss Voigt Hill
#
# Bulk Modulus (GPa) = 26.49297 30.82172 28.65734
# Shear Modulus (GPa) = 83.16185 31.82824 57.49505
#
# Velocity S-wave (km/s) = 5.78263 3.57742 4.80815
# Velocity P-wave (km/s) = 7.43220 5.42744 6.50748
#
# Compressibility (1/GPa) = 0.03774586
#
# Stress axis : x y z
#
# Youngs Moduli (GPa) = 84.95540 127.12381 70.90845
#
# Poissons Ratio (x) = 0.21651 -0.12508
# Poissons Ratio (y) = 0.14469 -0.13772
# Poissons Ratio (z) = -0.14985 -0.24690
#
# Static dielectric constant tensor:
#      x y z
#    x 1.998740 0.000000 0.000000 
#    y 0.000000 1.974150 0.000000 
#    z 0.000000 0.000000 2.077730 
# 
# From -- ./inp_files/11568.got.cif
#   From: 2010.05.17/outbox.cif.g08.bks.cpg/sg48_6_cif.got.tgz:11568.got - 2010.06.03 20:39:00.
