data_PCOD9389100
_publ_section_title
;
Structure prediction by ZEFSAII (Michael W. Deem and Ramdas Pophale) SiO2 
 PCOD9389100
Probable space group: P M M M
;
_chemical_formula_sum "Si O2"
_cell_formula_units_Z 48
_cell_length_a 31.239348
_cell_length_b 7.570044
_cell_length_c 10.390026
_cell_angle_alpha 90.000000
_cell_angle_beta 90.000000
_cell_angle_gamma 90.000000
_cell_volume 2457.067001
_symmetry_space_group_name_H-M "P M M M"
_symmetry_group_IT_number 47
_symmetry_cell_setting 'orthorhombic'
loop_
_space_group_symop_operation_xyz
x,y,z
-x,-y,z
x,-y,-z
-x,y,-z
-x,-y,-z
x,y,-z
-x,y,z
x,-y,z
loop_
_atom_site_type_symbol
_atom_site_label
_atom_site_fract_x
_atom_site_fract_y
_atom_site_fract_z
Si Si1 0.951092 0.784294 0.646589
Si Si2 0.380870 0.711302 0.644061
Si Si3 0.784668 0.287950 0.146015
Si Si4 0.548075 0.788227 0.144710
Si Si5 0.882651 0.211969 0.145916
Si Si6 0.715871 0.284112 0.352642
O O1 0.941094 0.729777 0.500000
O O2 0.916902 0.721368 0.750927
O O3 0.000000 0.731701 0.676151
O O4 0.950436 0.000000 0.647337
O O5 0.391833 0.777205 0.500000
O O6 0.377911 0.500000 0.635722
O O7 0.416424 0.748343 0.749878
O O8 0.332804 0.773401 0.677383
O O9 0.780223 0.500000 0.141219
O O10 0.833644 0.249540 0.183279
O O11 0.750386 0.221319 0.249166
O O12 0.778049 0.220654 0.000000
O O13 0.500000 0.724207 0.177765
O O14 0.545824 0.000000 0.137989
O O15 0.558677 0.724003 0.000000
O O16 0.887318 0.000000 0.141029
O O17 0.889150 0.279575 0.000000
O O18 0.725566 0.232058 0.500000
O O19 0.716454 0.500000 0.350436
#
# Coordination Sequence:
#
# PCOD9389100 Si02
#       6
#     8   8   8   8   8   8
#     4   8  14  25  41  61  84 109 138 173 212 253
#     4   9  18  32  50  73  98 121 150 192 236 275
#     4   9  17  29  45  64  86 114 147 178 210 255
#     4   9  19  35  51  68  94 127 160 192 227 271
#     4   9  17  28  42  62  87 111 137 174 216 253
#     4   8  15  29  47  66  89 116 146 181 219 259
#
# _framework density 19.535485999999999
#
# number of rings (size 3 to 8) (size 9 to 14) (size 15 to 20)
#    0.000    3.333    0.000    2.000    0.000    3.000 
#    0.000    6.667    0.000    3.500    0.000    3.500 
#    0.000    0.000    0.000    0.000    0.000    0.000 
#
# Total GULP energy -267564.303433 kJ/mol
# GULP energy per Si atom -5574.256322 kJ/mol
# Density = 1.949102 g / cm^3
# Si number density = 19.535486 Si / 1000 Ang^3
#
#
#
# Elastic Constant Matrix: (Units=GPa)
#
#
# Indices 1 2 3 4 5 6 
#
# 1 193.8043 4.3276 167.0729 0.0000 0.0000 0.0000
# 2 4.3276 42.3819 6.1854 0.0000 0.0000 0.0000
# 3 167.0729 6.1854 172.4225 0.0000 0.0000 0.0000
# 4 0.0000 0.0000 0.0000 12.7545 0.0000 0.0000
# 5 0.0000 0.0000 0.0000 0.0000 47.1073 0.0000
# 6 0.0000 0.0000 0.0000 0.0000 0.0000 20.4626
#
#
#
# Elastic Compliance Matrix: (Units=1/GPa)
#
#
# Indices 1 2 3 4 5 6 
#
# 1 0.031398 0.001241 -0.030468 0.000000 0.000000 0.000000
# 2 0.001241 0.023768 -0.002055 0.000000 0.000000 0.000000
# 3 -0.030468 -0.002055 0.035396 0.000000 0.000000 0.000000
# 4 0.000000 0.000000 0.000000 0.078404 0.000000 0.000000
# 5 0.000000 0.000000 0.000000 0.000000 0.021228 0.000000
# 6 0.000000 0.000000 0.000000 0.000000 0.000000 0.048870
#
#
# Mechanical properties :
#
#
# Convention : Reuss Voigt Hill
#
# Bulk Modulus (GPa) = 35.71734 84.86452 60.29093
# Shear Modulus (GPa) = 16.07916 31.46639 23.77278
#
# Velocity S-wave (km/s) = 2.87204 4.01774 3.49220
# Velocity P-wave (km/s) = 5.41490 8.06589 6.86949
#
# Compressibility (1/GPa) = 0.02799761
#
# Stress axis : x y z
#
# Youngs Moduli (GPa) = 31.84920 42.07309 28.25145
#
# Poissons Ratio (x) = -0.05220 0.86077
# Poissons Ratio (y) = -0.03951 0.05805
# Poissons Ratio (z) = 0.97039 0.08645
#
# Static dielectric constant tensor:
#      x y z
#    x 1.657840 0.000000 0.000000 
#    y 0.000000 1.749510 0.000000 
#    z 0.000000 0.000000 1.682080 
# 
# From -- ./inp_files/2496.got.cif
#   From: 2010.05.17/outbox.cif.g08.bks.cpg/sg47_2_cif.got.tgz:2496.got - 2010.06.03 20:15:42.
