data_PCOD9389562
_publ_section_title
;
Structure prediction by ZEFSAII (Michael W. Deem and Ramdas Pophale) SiO2 
 PCOD9389562
Probable space group: P N N N
;
_chemical_formula_sum "Si O2"
_cell_formula_units_Z 40
_cell_length_a 8.970849
_cell_length_b 7.664694
_cell_length_c 23.188115
_cell_angle_alpha 90.000000
_cell_angle_beta 90.000000
_cell_angle_gamma 90.000000
_cell_volume 1594.387252
_symmetry_space_group_name_H-M "P N N N"
_symmetry_group_IT_number 48
_space_group.IT_coordinate_system_code '2'
_symmetry_cell_setting 'orthorhombic'
loop_
_space_group_symop_operation_xyz
x,y,z
1/2-x,1/2-y,z
x,1/2-y,1/2-z
1/2-x,y,1/2-z
-x,-y,-z
1/2+x,1/2+y,-z
-x,1/2+y,1/2+z
1/2+x,-y,1/2+z
loop_
_atom_site_type_symbol
_atom_site_label
_atom_site_fract_x
_atom_site_fract_y
_atom_site_fract_z
Si Si1 0.918865 0.771412 0.824752
Si Si2 0.936018 0.884328 0.197486
Si Si3 0.768826 0.553473 0.485322
Si Si4 0.924026 0.437586 0.585856
Si Si5 0.668046 0.439044 0.368790
O O1 0.750000 0.750000 0.807760
O O2 0.014156 0.600446 0.837383
O O3 0.999491 0.922066 0.786676
O O4 0.914261 0.871356 0.886012
O O5 0.934712 0.750000 0.250000
O O6 0.042770 0.824374 0.143534
O O7 0.776326 0.934849 0.168311
O O8 0.750000 0.750000 0.505110
O O9 0.923981 0.561064 0.450083
O O10 0.653932 0.499921 0.435074
O O11 0.790486 0.429546 0.540261
O O12 0.750000 0.250000 0.370419
#
# Coordination Sequence:
#
# PCOD9389562 Si02
#       5
#     8   8   8   8   8
#     4   9  17  33  59  91 146 201 242 295 372 459
#     4   8  16  32  59  88 130 194 252 319 359 421
#     4  10  17  31  57  93 142 194 231 300 358 434
#     4   8  18  31  54  85 142 194 236 288 378 426
#     4   9  17  34  58  93 138 192 237 299 368 447
#
# _framework density 25.088010000000001
#
# number of rings (size 3 to 8) (size 9 to 14) (size 15 to 20)
#    1.200    2.000    2.000    0.600    0.000    0.000 
#    0.000    5.000    0.000    9.600    0.000   39.200 
#    0.000   21.600    1.600    1.600    0.000   20.200 
#
# Total GULP energy -223073.887587 kJ/mol
# GULP energy per Si atom -5576.847190 kJ/mol
# Density = 2.503091 g / cm^3
# Si number density = 25.088010 Si / 1000 Ang^3
#
#
#
# Elastic Constant Matrix: (Units=GPa)
#
#
# Indices 1 2 3 4 5 6 
#
# 1 100.8178 42.7973 59.7302 0.0000 0.0000 0.0000
# 2 42.7973 145.7030 78.9440 0.0000 0.0000 0.0000
# 3 59.7302 78.9440 207.0667 0.0000 0.0000 0.0000
# 4 0.0000 0.0000 0.0000 -13.6984 0.0000 0.0000
# 5 0.0000 0.0000 0.0000 0.0000 -8.3955 0.0000
# 6 0.0000 0.0000 0.0000 0.0000 0.0000 4.1413
#
#
#
# Elastic Compliance Matrix: (Units=1/GPa)
#
#
# Indices 1 2 3 4 5 6 
#
# 1 0.012481 -0.002162 -0.002776 0.000000 0.000000 0.000000
# 2 -0.002162 0.009025 -0.002817 0.000000 0.000000 0.000000
# 3 -0.002776 -0.002817 0.006704 0.000000 0.000000 0.000000
# 4 0.000000 0.000000 0.000000 -0.073001 0.000000 0.000000
# 5 0.000000 0.000000 0.000000 0.000000 -0.119112 0.000000
# 6 0.000000 0.000000 0.000000 0.000000 0.000000 0.241470
#
#
# Mechanical properties :
#
#
# Convention : Reuss Voigt Hill
#
# Bulk Modulus (GPa) = 78.74057 90.72560 84.73309
# Shear Modulus (GPa) = 51.38194 14.55057 32.96625
#
# Velocity S-wave (km/s) = 4.53047 2.41089 3.62888
# Velocity P-wave (km/s) = 7.66947 6.63259 7.16980
#
# Compressibility (1/GPa) = 0.01269993
#
# Stress axis : x y z
#
# Youngs Moduli (GPa) = 80.11933 110.80828 149.16214
#
# Poissons Ratio (x) = 0.23957 0.41409
# Poissons Ratio (y) = 0.17322 0.42018
# Poissons Ratio (z) = 0.22242 0.31214
#
# Static dielectric constant tensor:
#      x y z
#    x 2.072210 0.000000 0.000000 
#    y 0.000000 2.009440 0.000000 
#    z 0.000000 0.000000 -51.177460 
# 
# From -- ./inp_files/37386.got.cif
#   From: 2010.05.17/outbox.cif.g08.bks.cpg/sg48_19_cif.got.tgz:37386.got - 2010.06.03 20:39:00.
