data_PCOD9389478
_publ_section_title
;
Structure prediction by ZEFSAII (Michael W. Deem and Ramdas Pophale) SiO2 
 PCOD9389478
Probable space group: P N N N
;
_chemical_formula_sum "Si O2"
_cell_formula_units_Z 64
_cell_length_a 15.984955
_cell_length_b 8.972054
_cell_length_c 21.943914
_cell_angle_alpha 90.000000
_cell_angle_beta 90.000000
_cell_angle_gamma 90.000000
_cell_volume 3147.149613
_symmetry_space_group_name_H-M "P N N N"
_symmetry_group_IT_number 48
_space_group.IT_coordinate_system_code '2'
_symmetry_cell_setting 'orthorhombic'
loop_
_space_group_symop_operation_xyz
x,y,z
1/2-x,1/2-y,z
x,1/2-y,1/2-z
1/2-x,y,1/2-z
-x,-y,-z
1/2+x,1/2+y,-z
-x,1/2+y,1/2+z
1/2+x,-y,1/2+z
loop_
_atom_site_type_symbol
_atom_site_label
_atom_site_fract_x
_atom_site_fract_y
_atom_site_fract_z
Si Si1 0.993037 0.400584 0.358774
Si Si2 0.376852 0.187802 0.812788
Si Si3 0.662899 0.592436 0.085331
Si Si4 0.693460 0.108051 0.032271
Si Si5 0.428515 0.613249 0.427693
Si Si6 0.068306 0.802673 0.185140
Si Si7 0.063430 0.602447 0.862679
Si Si8 0.039535 0.163474 0.010251
O O1 0.909790 0.486854 0.383991
O O2 0.964975 0.248743 0.326446
O O3 0.051472 0.521248 0.325189
O O4 0.039852 0.330267 0.417506
O O5 0.342369 0.250000 0.750000
O O6 0.334397 0.271368 0.868337
O O7 0.473698 0.239135 0.814627
O O8 0.383615 0.011820 0.821326
O O9 0.745080 0.503729 0.067328
O O10 0.628019 0.657101 0.022140
O O11 0.750000 0.250000 0.014788
O O12 0.623622 0.152408 0.082004
O O13 0.643411 0.052136 0.972544
O O14 0.393645 0.723076 0.374643
O O15 0.487969 0.492081 0.394599
O O16 0.486344 0.715706 0.472190
O O17 0.105523 0.750000 0.250000
O O18 0.000000 0.000000 0.000000
#
# Coordination Sequence:
#
# PCOD9389478 Si02
#       8
#     8   8   8   8   8   8   8   8
#     4  10  18  31  59  84 118 153 198 247 303 357
#     4   9  19  38  58  79 115 165 207 242 298 365
#     4  10  19  35  53  82 118 157 201 240 293 364
#     4  12  23  34  56  86 123 155 197 256 304 359
#     4  11  20  36  58  85 121 160 197 251 312 364
#     4   9  18  35  59  86 115 160 209 247 291 372
#     4  11  21  36  57  90 120 153 198 258 301 354
#     4  10  15  31  55  81 111 156 193 236 302 365
#
# _framework density 20.335861000000001
#
# number of rings (size 3 to 8) (size 9 to 14) (size 15 to 20)
#    0.000    1.750    7.500    1.125    0.000    0.500 
#    0.000   11.250    0.000    1.125    0.000    0.000 
#    0.000    0.000   17.000    0.000    0.000    0.000 
#
# Total GULP energy -356697.368228 kJ/mol
# GULP energy per Si atom -5573.396379 kJ/mol
# Density = 2.028958 g / cm^3
# Si number density = 20.335861 Si / 1000 Ang^3
#
#
#
# Elastic Constant Matrix: (Units=GPa)
#
#
# Indices 1 2 3 4 5 6 
#
# 1 25.9909 7.4468 10.1920 0.0000 0.0000 0.0000
# 2 7.4468 126.6040 42.4262 0.0000 0.0000 0.0000
# 3 10.1920 42.4262 89.1174 0.0000 0.0000 0.0000
# 4 0.0000 0.0000 0.0000 14.5959 0.0000 0.0000
# 5 0.0000 0.0000 0.0000 0.0000 -1.9808 0.0000
# 6 0.0000 0.0000 0.0000 0.0000 0.0000 18.1658
#
#
#
# Elastic Compliance Matrix: (Units=1/GPa)
#
#
# Indices 1 2 3 4 5 6 
#
# 1 0.040384 -0.000985 -0.004150 0.000000 0.000000 0.000000
# 2 -0.000985 0.009422 -0.004373 0.000000 0.000000 0.000000
# 3 -0.004150 -0.004373 0.013778 0.000000 0.000000 0.000000
# 4 0.000000 0.000000 0.000000 0.068512 0.000000 0.000000
# 5 0.000000 0.000000 0.000000 0.000000 -0.504845 0.000000
# 6 0.000000 0.000000 0.000000 0.000000 0.000000 0.055049
#
#
# Mechanical properties :
#
#
# Convention : Reuss Voigt Hill
#
# Bulk Modulus (GPa) = 22.43712 40.20472 31.32092
# Shear Modulus (GPa) = -17.61627 18.26600 0.32487
#
# Velocity S-wave (km/s) = -2.94643 3.00028 0.40012
# Velocity P-wave (km/s) = 0.71976 5.64052 3.95585
#
# Compressibility (1/GPa) = 0.04456900
#
# Stress axis : x y z
#
# Youngs Moduli (GPa) = 24.76204 106.13494 72.58174
#
# Poissons Ratio (x) = 0.10452 0.30120
# Poissons Ratio (y) = 0.02438 0.31739
# Poissons Ratio (z) = 0.10276 0.46412
#
# Static dielectric constant tensor:
#      x y z
#    x 1.761760 0.000000 0.000000 
#    y 0.000000 1.830140 0.000000 
#    z 0.000000 0.000000 1.821400 
# 
# From -- ./inp_files/34692.got.cif
#   From: 2010.05.17/outbox.cif.g08.bks.cpg/sg48_18_cif.got.tgz:34692.got - 2010.06.03 20:39:00.
