data_PCOD9389960
_publ_section_title
;
Structure prediction by ZEFSAII (Michael W. Deem and Ramdas Pophale) SiO2 
 PCOD9389960
Probable space group: P N N N
;
_chemical_formula_sum "Si O2"
_cell_formula_units_Z 58
_cell_length_a 17.490111
_cell_length_b 10.753346
_cell_length_c 16.741535
_cell_angle_alpha 90.000000
_cell_angle_beta 90.000000
_cell_angle_gamma 90.000000
_cell_volume 3148.701280
_symmetry_space_group_name_H-M "P N N N"
_symmetry_group_IT_number 48
_space_group.IT_coordinate_system_code '2'
_symmetry_cell_setting 'orthorhombic'
loop_
_space_group_symop_operation_xyz
x,y,z
1/2-x,1/2-y,z
x,1/2-y,1/2-z
1/2-x,y,1/2-z
-x,-y,-z
1/2+x,1/2+y,-z
-x,1/2+y,1/2+z
1/2+x,-y,1/2+z
loop_
_atom_site_type_symbol
_atom_site_label
_atom_site_fract_x
_atom_site_fract_y
_atom_site_fract_z
Si Si1 0.263963 0.894905 0.416126
Si Si2 0.861367 0.936958 0.659738
Si Si3 0.906815 0.381796 0.703592
Si Si4 0.474013 0.992924 0.592608
Si Si5 0.750000 0.750000 0.750000
Si Si6 0.838563 0.325770 0.165860
Si Si7 0.694853 0.071447 0.408396
Si Si8 0.993563 0.718514 0.841588
O O1 0.250000 0.750000 0.429546
O O2 0.329917 0.899815 0.349114
O O3 0.287531 0.954967 0.499828
O O4 0.187672 0.962791 0.387601
O O5 0.802126 0.838547 0.696181
O O6 0.926995 0.858780 0.616490
O O7 0.903544 0.011603 0.729916
O O8 0.907643 0.250000 0.750000
O O9 0.977374 0.409440 0.644714
O O10 0.382735 0.003590 0.610518
O O11 0.494459 0.852500 0.619287
O O12 0.500000 0.000000 0.500000
O O13 0.829737 0.250000 0.250000
O O14 0.772636 0.426562 0.145944
O O15 0.829118 0.216580 0.100623
O O16 0.927419 0.359847 0.162051
O O17 0.971631 0.750000 0.750000
#
# Coordination Sequence:
#
# PCOD9389960 Si02
#       8
#     8   8   8   8   2   8   8   8
#     4  12  22  36  59  89 126 162 201 248 301 377
#     4  12  23  36  57  90 122 158 197 250 298 368
#     4  12  23  38  59  89 125 165 208 245 301 377
#     4  11  22  38  63  88 120 166 205 252 310 375
#     4  12  20  32  54  80 120 154 194 226 300 352
#     4   9  18  34  59  87 109 144 194 258 302 342
#     4  10  19  34  59  85 115 150 200 248 303 352
#     4  10  20  37  61  90 122 146 204 260 305 362
#
# _framework density 18.420293000000001
#
# number of rings (size 3 to 8) (size 9 to 14) (size 15 to 20)
#    0.000    1.103    7.586    0.828    0.000    0.552 
#    0.000    0.690    0.000    0.000    0.000    0.966 
#    0.000    0.000    0.000    0.000    0.000    0.000 
#
# Total GULP energy -323138.943010 kJ/mol
# GULP energy per Si atom -5571.361086 kJ/mol
# Density = 1.837837 g / cm^3
# Si number density = 18.420293 Si / 1000 Ang^3
#
#
#
# Elastic Constant Matrix: (Units=GPa)
#
#
# Indices 1 2 3 4 5 6 
#
# 1 142.1915 33.5262 28.2628 0.0000 0.0000 0.0000
# 2 33.5262 58.8799 21.5715 0.0000 0.0000 0.0000
# 3 28.2628 21.5715 83.9406 0.0000 0.0000 0.0000
# 4 0.0000 0.0000 0.0000 13.4809 0.0000 0.0000
# 5 0.0000 0.0000 0.0000 0.0000 26.5602 0.0000
# 6 0.0000 0.0000 0.0000 0.0000 0.0000 24.0226
#
#
#
# Elastic Compliance Matrix: (Units=1/GPa)
#
#
# Indices 1 2 3 4 5 6 
#
# 1 0.008351 -0.004112 -0.001755 0.000000 0.000000 0.000000
# 2 -0.004112 0.020774 -0.003954 0.000000 0.000000 0.000000
# 3 -0.001755 -0.003954 0.013520 0.000000 0.000000 0.000000
# 4 0.000000 0.000000 0.000000 0.074179 0.000000 0.000000
# 5 0.000000 0.000000 0.000000 0.000000 0.037650 0.000000
# 6 0.000000 0.000000 0.000000 0.000000 0.000000 0.041627
#
#
# Mechanical properties :
#
#
# Convention : Reuss Voigt Hill
#
# Bulk Modulus (GPa) = 43.47304 50.19253 46.83278
# Shear Modulus (GPa) = 22.38014 26.25616 24.31815
#
# Velocity S-wave (km/s) = 3.48943 3.77953 3.63737
# Velocity P-wave (km/s) = 6.31559 6.80839 6.56661
#
# Compressibility (1/GPa) = 0.02300276
#
# Stress axis : x y z
#
# Youngs Moduli (GPa) = 119.74334 48.13755 73.96318
#
# Poissons Ratio (x) = 0.19795 0.12981
# Poissons Ratio (y) = 0.49240 0.29245
# Poissons Ratio (z) = 0.21016 0.19034
#
# Static dielectric constant tensor:
#      x y z
#    x 1.717510 0.000000 0.000000 
#    y 0.000000 1.624030 0.000000 
#    z 0.000000 0.000000 1.669070 
# 
# From -- ./inp_files/28049.got.cif
#   From: 2010.05.17/outbox.cif.g08.bks.cpg/sg48_15_cif.got.tgz:28049.got - 2010.06.03 20:39:00.
