data_PCOD9389606
_publ_section_title
;
Structure prediction by ZEFSAII (Michael W. Deem and Ramdas Pophale) SiO2 
 PCOD9389606
Probable space group: P N N N
;
_chemical_formula_sum "Si O2"
_cell_formula_units_Z 34
_cell_length_a 37.392755
_cell_length_b 7.157414
_cell_length_c 5.548291
_cell_angle_alpha 90.000000
_cell_angle_beta 90.000000
_cell_angle_gamma 90.000000
_cell_volume 1484.919237
_symmetry_space_group_name_H-M "P N N N"
_symmetry_group_IT_number 48
_space_group.IT_coordinate_system_code '2'
_symmetry_cell_setting 'orthorhombic'
loop_
_space_group_symop_operation_xyz
x,y,z
1/2-x,1/2-y,z
x,1/2-y,1/2-z
1/2-x,y,1/2-z
-x,-y,-z
1/2+x,1/2+y,-z
-x,1/2+y,1/2+z
1/2+x,-y,1/2+z
loop_
_atom_site_type_symbol
_atom_site_label
_atom_site_fract_x
_atom_site_fract_y
_atom_site_fract_z
Si Si1 0.428691 0.035189 0.495506
Si Si2 0.250000 0.250000 0.750000
Si Si3 0.343747 0.470472 0.014445
Si Si4 0.542233 0.533195 0.498111
Si Si5 0.685317 0.551456 0.483748
O O1 0.386197 0.015038 0.475898
O O2 0.443614 0.250440 0.499186
O O3 0.444078 0.953549 0.249945
O O4 0.441979 0.956227 0.749339
O O5 0.274578 0.380806 0.580273
O O6 0.323459 0.537519 0.257205
O O7 0.329012 0.544827 0.759215
O O8 0.335622 0.248695 0.000699
O O9 0.500000 0.500000 0.500000
#
# Coordination Sequence:
#
# PCOD9389606 Si02
#       5
#     8   2   8   8   8
#     4  10  18  29  41  53  75  93 119 161 191 213
#     4   8  16  22  28  46  68  86 104 154 184 204
#     4   9  15  24  35  47  59  89 117 141 179 209
#     4  10  18  27  40  56  71  92 116 147 198 238
#     4   9  15  21  32  45  63  83 115 139 179 207
#
# _framework density 22.896867
#
# number of rings (size 3 to 8) (size 9 to 14) (size 15 to 20)
#    0.000    2.824    0.000    7.765    0.000    7.529 
#    0.000    0.000    0.000    0.000    0.000    0.000 
#    0.000    0.000    0.000    0.000    0.000    0.000 
#
# Total GULP energy -189545.287526 kJ/mol
# GULP energy per Si atom -5574.861398 kJ/mol
# Density = 2.284475 g / cm^3
# Si number density = 22.896867 Si / 1000 Ang^3
#
#
#
# Elastic Constant Matrix: (Units=GPa)
#
#
# Indices 1 2 3 4 5 6 
#
# 1 220.8693 12.6793 108.3794 0.0000 0.0000 0.0000
# 2 12.6793 99.4390 30.2381 0.0000 0.0000 0.0000
# 3 108.3794 30.2381 315.0790 0.0000 0.0000 0.0000
# 4 0.0000 0.0000 0.0000 -33.9671 0.0000 0.0000
# 5 0.0000 0.0000 0.0000 0.0000 57.7059 0.0000
# 6 0.0000 0.0000 0.0000 0.0000 0.0000 77.4993
#
#
#
# Elastic Compliance Matrix: (Units=1/GPa)
#
#
# Indices 1 2 3 4 5 6 
#
# 1 0.005449 -0.000129 -0.001862 0.000000 0.000000 0.000000
# 2 -0.000129 0.010362 -0.000950 0.000000 0.000000 0.000000
# 3 -0.001862 -0.000950 0.003905 0.000000 0.000000 0.000000
# 4 0.000000 0.000000 0.000000 -0.029440 0.000000 0.000000
# 5 0.000000 0.000000 0.000000 0.000000 0.017329 0.000000
# 6 0.000000 0.000000 0.000000 0.000000 0.000000 0.012903
#
#
# Mechanical properties :
#
#
# Convention : Reuss Voigt Hill
#
# Bulk Modulus (GPa) = 72.28294 104.22010 88.25152
# Shear Modulus (GPa) = 161.28682 52.52034 106.90358
#
# Velocity S-wave (km/s) = 8.40199 4.79454 6.84036
# Velocity P-wave (km/s) = 11.21437 8.73305 10.05058
#
# Compressibility (1/GPa) = 0.01383452
#
# Stress axis : x y z
#
# Youngs Moduli (GPa) = 183.53570 96.50880 256.05465
#
# Poissons Ratio (x) = 0.01241 0.47673
# Poissons Ratio (y) = 0.02360 0.24330
# Poissons Ratio (z) = 0.34171 0.09170
#
# Static dielectric constant tensor:
#      x y z
#    x 1.818890 0.000000 0.000000 
#    y 0.000000 1.769950 0.000000 
#    z 0.000000 0.000000 1.975500 
# 
# From -- ./inp_files/6906.got.cif
#   From: 2010.05.17/outbox.cif.g08.bks.cpg/sg48_4_cif.got.tgz:6906.got - 2010.06.03 20:39:00.
