data_PCOD9390547
_publ_section_title
;
Structure prediction by ZEFSAII (Michael W. Deem and Ramdas Pophale) SiO2 
 PCOD9390547
Probable space group: P N N N
;
_chemical_formula_sum "Si O2"
_cell_formula_units_Z 48
_cell_length_a 8.716555
_cell_length_b 14.021867
_cell_length_c 20.604406
_cell_angle_alpha 90.000000
_cell_angle_beta 90.000000
_cell_angle_gamma 90.000000
_cell_volume 2518.319435
_symmetry_space_group_name_H-M "P N N N"
_symmetry_group_IT_number 48
_space_group.IT_coordinate_system_code '2'
_symmetry_cell_setting 'orthorhombic'
loop_
_space_group_symop_operation_xyz
x,y,z
1/2-x,1/2-y,z
x,1/2-y,1/2-z
1/2-x,y,1/2-z
-x,-y,-z
1/2+x,1/2+y,-z
-x,1/2+y,1/2+z
1/2+x,-y,1/2+z
loop_
_atom_site_type_symbol
_atom_site_label
_atom_site_fract_x
_atom_site_fract_y
_atom_site_fract_z
Si Si1 0.477768 0.351211 0.497396
Si Si2 0.845604 0.885579 0.184516
Si Si3 0.795285 0.145795 0.825246
Si Si4 0.931913 0.995704 0.607073
Si Si5 0.762739 0.409413 0.176685
Si Si6 0.750000 0.750000 0.423300
Si Si7 0.250000 0.750000 0.923570
O O1 0.504379 0.428703 0.554054
O O2 0.388574 0.405438 0.438820
O O3 0.391868 0.263675 0.530054
O O4 0.629908 0.306376 0.467414
O O5 0.750000 0.861193 0.250000
O O6 0.759483 0.838773 0.124501
O O7 0.020691 0.854758 0.177895
O O8 0.843264 0.998240 0.178513
O O9 0.750000 0.250000 0.853709
O O10 0.750000 0.143887 0.750000
O O11 0.703248 0.056782 0.857916
O O12 0.068601 0.952871 0.654007
O O13 0.750000 0.370532 0.250000
O O14 0.698987 0.333222 0.125870
#
# Coordination Sequence:
#
# PCOD9390547 Si02
#       7
#     8   8   8   8   8   4   4
#     4  10  23  39  62  82 127 164 209 250 301 371
#     4  11  24  38  61  89 124 160 201 261 313 374
#     4  11  24  36  59  92 124 159 204 252 312 378
#     4  10  21  43  57  87 124 168 199 254 312 363
#     4  10  20  40  67  91 122 158 208 263 318 368
#     4  12  23  38  58  88 115 166 204 252 308 362
#     4  10  23  40  64  92 119 166 216 256 306 376
#
# _framework density 19.06033
#
# number of rings (size 3 to 8) (size 9 to 14) (size 15 to 20)
#    0.000    1.500    1.667    3.500    8.167    1.333 
#    0.000    1.667    0.000    0.000    0.000    5.833 
#    0.000    0.000    0.000    0.000    0.000    0.000 
#
# Total GULP energy -267213.666947 kJ/mol
# GULP energy per Si atom -5566.951395 kJ/mol
# Density = 1.901695 g / cm^3
# Si number density = 19.060330 Si / 1000 Ang^3
#
#
#
# Elastic Constant Matrix: (Units=GPa)
#
#
# Indices 1 2 3 4 5 6 
#
# 1 75.7249 16.1221 34.9051 0.0000 0.0000 0.0000
# 2 16.1221 71.2719 28.6417 0.0000 0.0000 0.0000
# 3 34.9051 28.6417 110.0986 0.0000 0.0000 0.0000
# 4 0.0000 0.0000 0.0000 20.0361 0.0000 0.0000
# 5 0.0000 0.0000 0.0000 0.0000 30.7650 0.0000
# 6 0.0000 0.0000 0.0000 0.0000 0.0000 -0.1178
#
#
#
# Elastic Compliance Matrix: (Units=1/GPa)
#
#
# Indices 1 2 3 4 5 6 
#
# 1 0.015654 -0.001727 -0.004514 0.000000 0.000000 0.000000
# 2 -0.001727 0.015859 -0.003578 0.000000 0.000000 0.000000
# 3 -0.004514 -0.003578 0.011445 0.000000 0.000000 0.000000
# 4 0.000000 0.000000 0.000000 0.049910 0.000000 0.000000
# 5 0.000000 0.000000 0.000000 0.000000 0.032504 0.000000
# 6 0.000000 0.000000 0.000000 0.000000 0.000000 -8.486755
#
#
# Mechanical properties :
#
#
# Convention : Reuss Voigt Hill
#
# Bulk Modulus (GPa) = 42.88142 46.27037 44.57589
# Shear Modulus (GPa) = -0.59995 21.96508 10.68256
#
# Velocity S-wave (km/s) = -0.56165 3.39838 2.36997
# Velocity P-wave (km/s) = 4.70383 6.30294 5.56116
#
# Compressibility (1/GPa) = 0.02332012
#
# Stress axis : x y z
#
# Youngs Moduli (GPa) = 63.88181 63.05403 87.37775
#
# Poissons Ratio (x) = 0.10890 0.39438
# Poissons Ratio (y) = 0.11033 0.31265
# Poissons Ratio (z) = 0.28833 0.22562
#
# Static dielectric constant tensor:
#      x y z
#    x 4.026480 0.000000 0.000000 
#    y 0.000000 1.676220 0.000000 
#    z 0.000000 0.000000 1.704900 
# 
# From -- ./inp_files/33512.got.cif
#   From: 2010.05.17/outbox.cif.g08.bks.cpg/sg48_17_cif.got.tgz:33512.got - 2010.06.03 20:39:00.
