data_PCOD9390364
_publ_section_title
;
Structure prediction by ZEFSAII (Michael W. Deem and Ramdas Pophale) SiO2 
 PCOD9390364
Probable space group: P N N N
;
_chemical_formula_sum "Si O2"
_cell_formula_units_Z 64
_cell_length_a 18.150544
_cell_length_b 12.193414
_cell_length_c 15.484740
_cell_angle_alpha 90.000000
_cell_angle_beta 90.000000
_cell_angle_gamma 90.000000
_cell_volume 3427.037710
_symmetry_space_group_name_H-M "P N N N"
_symmetry_group_IT_number 48
_space_group.IT_coordinate_system_code '2'
_symmetry_cell_setting 'orthorhombic'
loop_
_space_group_symop_operation_xyz
x,y,z
1/2-x,1/2-y,z
x,1/2-y,1/2-z
1/2-x,y,1/2-z
-x,-y,-z
1/2+x,1/2+y,-z
-x,1/2+y,1/2+z
1/2+x,-y,1/2+z
loop_
_atom_site_type_symbol
_atom_site_label
_atom_site_fract_x
_atom_site_fract_y
_atom_site_fract_z
Si Si1 0.607496 0.703167 0.880164
Si Si2 0.327360 0.490871 0.799452
Si Si3 0.467137 0.656621 0.568013
Si Si4 0.919722 0.846231 0.315923
Si Si5 0.830597 0.227012 0.148721
Si Si6 0.665464 0.913507 0.782581
Si Si7 0.330834 0.297455 0.939249
Si Si8 0.557251 0.061382 0.880327
O O1 0.527197 0.749379 0.907140
O O2 0.654870 0.808144 0.845666
O O3 0.614796 0.617615 0.801145
O O4 0.641380 0.659862 0.968989
O O5 0.250000 0.508045 0.750000
O O6 0.382120 0.453955 0.723292
O O7 0.348835 0.598367 0.852798
O O8 0.324706 0.391856 0.867638
O O9 0.392539 0.694750 0.612294
O O10 0.507363 0.546693 0.601092
O O11 0.442787 0.628239 0.469974
O O12 0.901620 0.750000 0.250000
O O13 0.884431 0.801199 0.405072
O O14 0.006280 0.864953 0.319548
O O15 0.750000 0.250000 0.110053
O O16 0.826481 0.250000 0.250000
O O17 0.750000 0.924527 0.750000
O O18 0.631044 0.016215 0.835081
O O19 0.250000 0.250000 0.949920
#
# Coordination Sequence:
#
# PCOD9390364 Si02
#       8
#     8   8   8   8   8   8   8   8
#     4  10  20  37  58  90 120 152 195 263 319 352
#     4  11  21  36  55  90 122 160 200 235 309 378
#     4  10  22  37  62  90 118 154 210 251 307 369
#     4  10  21  35  57  85 124 156 200 247 296 370
#     4  11  23  39  58  85 124 160 193 246 305 372
#     4  10  21  38  60  87 120 153 208 259 313 362
#     4  11  20  33  58  87 125 159 195 256 306 362
#     4  10  21  40  63  86 114 164 208 256 300 368
#
# _framework density 18.67502
#
# number of rings (size 3 to 8) (size 9 to 14) (size 15 to 20)
#    0.000    1.625    3.750    2.250    5.250    0.000 
#    2.250    1.875    0.000    0.000    0.000    0.000 
#    0.000    0.000    0.000    0.000    0.000    0.000 
#
# Total GULP energy -356572.768981 kJ/mol
# GULP energy per Si atom -5571.449515 kJ/mol
# Density = 1.863252 g / cm^3
# Si number density = 18.675020 Si / 1000 Ang^3
#
#
#
# Elastic Constant Matrix: (Units=GPa)
#
#
# Indices 1 2 3 4 5 6 
#
# 1 107.6313 21.6652 35.1684 0.0000 0.0000 0.0000
# 2 21.6652 48.3264 17.7563 0.0000 0.0000 0.0000
# 3 35.1684 17.7563 89.3921 0.0000 0.0000 0.0000
# 4 0.0000 0.0000 0.0000 14.1702 0.0000 0.0000
# 5 0.0000 0.0000 0.0000 0.0000 21.6367 0.0000
# 6 0.0000 0.0000 0.0000 0.0000 0.0000 31.0006
#
#
#
# Elastic Compliance Matrix: (Units=1/GPa)
#
#
# Indices 1 2 3 4 5 6 
#
# 1 0.011238 -0.003682 -0.003690 0.000000 0.000000 0.000000
# 2 -0.003682 0.023528 -0.003225 0.000000 0.000000 0.000000
# 3 -0.003690 -0.003225 0.013279 0.000000 0.000000 0.000000
# 4 0.000000 0.000000 0.000000 0.070571 0.000000 0.000000
# 5 0.000000 0.000000 0.000000 0.000000 0.046218 0.000000
# 6 0.000000 0.000000 0.000000 0.000000 0.000000 0.032257
#
#
# Mechanical properties :
#
#
# Convention : Reuss Voigt Hill
#
# Bulk Modulus (GPa) = 37.24229 43.83665 40.53947
# Shear Modulus (GPa) = 22.00366 24.74549 23.37458
#
# Velocity S-wave (km/s) = 3.43627 3.64408 3.54170
# Velocity P-wave (km/s) = 5.97742 6.42107 6.20321
#
# Compressibility (1/GPa) = 0.02685119
#
# Stress axis : x y z
#
# Youngs Moduli (GPa) = 88.98529 42.50196 75.30779
#
# Poissons Ratio (x) = 0.15651 0.27786
# Poissons Ratio (y) = 0.32767 0.24286
# Poissons Ratio (z) = 0.32833 0.13706
#
# Static dielectric constant tensor:
#      x y z
#    x 1.666910 0.000000 0.000000 
#    y 0.000000 1.711210 0.000000 
#    z 0.000000 0.000000 1.691990 
# 
# From -- ./inp_files/28053.got.cif
#   From: 2010.05.17/outbox.cif.g08.bks.cpg/sg48_15_cif.got.tgz:28053.got - 2010.06.03 20:39:00.
