data_PCOD9390353
_publ_section_title
;
Structure prediction by ZEFSAII (Michael W. Deem and Ramdas Pophale) SiO2 
 PCOD9390353
Probable space group: P N N N
;
_chemical_formula_sum "Si O2"
_cell_formula_units_Z 52
_cell_length_a 10.939732
_cell_length_b 16.439557
_cell_length_c 15.714463
_cell_angle_alpha 90.000000
_cell_angle_beta 90.000000
_cell_angle_gamma 90.000000
_cell_volume 2826.157349
_symmetry_space_group_name_H-M "P N N N"
_symmetry_group_IT_number 48
_space_group.IT_coordinate_system_code '2'
_symmetry_cell_setting 'orthorhombic'
loop_
_space_group_symop_operation_xyz
x,y,z
1/2-x,1/2-y,z
x,1/2-y,1/2-z
1/2-x,y,1/2-z
-x,-y,-z
1/2+x,1/2+y,-z
-x,1/2+y,1/2+z
1/2+x,-y,1/2+z
loop_
_atom_site_type_symbol
_atom_site_label
_atom_site_fract_x
_atom_site_fract_y
_atom_site_fract_z
Si Si1 0.377485 0.898432 0.528915
Si Si2 0.374710 0.145145 0.568212
Si Si3 0.200056 0.033459 0.489608
Si Si4 0.993923 0.284241 0.846025
Si Si5 0.993762 0.520787 0.135371
Si Si6 0.375157 0.994263 0.697217
Si Si7 0.250000 0.750000 0.452935
O O1 0.506556 0.874381 0.489153
O O2 0.282373 0.826478 0.511378
O O3 0.318215 0.976000 0.481484
O O4 0.387202 0.925379 0.626216
O O5 0.255095 0.121495 0.513412
O O6 0.398618 0.234036 0.606724
O O7 0.376954 0.080097 0.646359
O O8 0.120405 0.004563 0.571687
O O9 0.110864 0.017981 0.410916
O O10 0.989718 0.250000 0.750000
O O11 0.867080 0.263917 0.893412
O O12 0.005103 0.381249 0.853869
O O13 0.976720 0.488365 0.230131
O O14 0.250000 0.989788 0.750000
#
# Coordination Sequence:
#
# PCOD9390353 Si02
#       7
#     8   8   8   8   8   8   4
#     4  10  20  37  58  77 115 151 195 232 286 338
#     4  10  21  36  55  82 119 153 187 230 291 348
#     4  10  20  37  54  81 113 155 191 229 291 348
#     4  11  21  34  54  86 120 151 191 237 297 350
#     4  11  21  34  58  83 116 151 192 242 287 345
#     4  11  19  35  56  83 112 149 194 242 271 342
#     4  10  21  38  53  78 116 158 188 238 289 351
#
# _framework density 18.399543000000001
#
# number of rings (size 3 to 8) (size 9 to 14) (size 15 to 20)
#    0.000    1.538    6.154    2.077    0.000    0.615 
#    0.000    5.000    0.000    0.000    0.000    0.000 
#    0.000   10.462    0.000    0.000    0.000    0.000 
#
# Total GULP energy -290014.722634 kJ/mol
# GULP energy per Si atom -5577.206204 kJ/mol
# Density = 1.835766 g / cm^3
# Si number density = 18.399543 Si / 1000 Ang^3
#
#
#
# Elastic Constant Matrix: (Units=GPa)
#
#
# Indices 1 2 3 4 5 6 
#
# 1 72.3858 33.5396 47.7256 0.0000 0.0000 0.0000
# 2 33.5396 76.9198 53.6578 0.0000 0.0000 0.0000
# 3 47.7256 53.6578 130.7474 0.0000 0.0000 0.0000
# 4 0.0000 0.0000 0.0000 21.3563 0.0000 0.0000
# 5 0.0000 0.0000 0.0000 0.0000 30.1108 0.0000
# 6 0.0000 0.0000 0.0000 0.0000 0.0000 32.0019
#
#
#
# Elastic Compliance Matrix: (Units=1/GPa)
#
#
# Indices 1 2 3 4 5 6 
#
# 1 0.019448 -0.004943 -0.005070 0.000000 0.000000 0.000000
# 2 -0.004943 0.019472 -0.006187 0.000000 0.000000 0.000000
# 3 -0.005070 -0.006187 0.012038 0.000000 0.000000 0.000000
# 4 0.000000 0.000000 0.000000 0.046825 0.000000 0.000000
# 5 0.000000 0.000000 0.000000 0.000000 0.033211 0.000000
# 6 0.000000 0.000000 0.000000 0.000000 0.000000 0.031248
#
#
# Mechanical properties :
#
#
# Convention : Reuss Voigt Hill
#
# Bulk Modulus (GPa) = 53.88618 61.09989 57.49303
# Shear Modulus (GPa) = 24.89697 26.36913 25.63305
#
# Velocity S-wave (km/s) = 3.68248 3.78979 3.73652
# Velocity P-wave (km/s) = 6.88703 7.24081 7.06614
#
# Compressibility (1/GPa) = 0.01855763
#
# Stress axis : x y z
#
# Youngs Moduli (GPa) = 51.41852 51.35684 83.06937
#
# Poissons Ratio (x) = 0.25386 0.42120
# Poissons Ratio (y) = 0.25416 0.51392
# Poissons Ratio (z) = 0.26071 0.31773
#
# Static dielectric constant tensor:
#      x y z
#    x 1.660410 0.000000 0.000000 
#    y 0.000000 1.660950 0.000000 
#    z 0.000000 0.000000 1.619830 
# 
# From -- ./inp_files/26643.got.cif
#   From: 2010.05.17/outbox.cif.g08.bks.cpg/sg48_14_cif.got.tgz:26643.got - 2010.06.03 20:39:00.
