data_PCOD9390126
_publ_section_title
;
Structure prediction by ZEFSAII (Michael W. Deem and Ramdas Pophale) SiO2 
 PCOD9390126
Probable space group: P N N N
;
_chemical_formula_sum "Si O2"
_cell_formula_units_Z 48
_cell_length_a 8.807245
_cell_length_b 15.775381
_cell_length_c 15.048042
_cell_angle_alpha 90.000000
_cell_angle_beta 90.000000
_cell_angle_gamma 90.000000
_cell_volume 2090.739524
_symmetry_space_group_name_H-M "P N N N"
_symmetry_group_IT_number 48
_space_group.IT_coordinate_system_code '2'
_symmetry_cell_setting 'orthorhombic'
loop_
_space_group_symop_operation_xyz
x,y,z
1/2-x,1/2-y,z
x,1/2-y,1/2-z
1/2-x,y,1/2-z
-x,-y,-z
1/2+x,1/2+y,-z
-x,1/2+y,1/2+z
1/2+x,-y,1/2+z
loop_
_atom_site_type_symbol
_atom_site_label
_atom_site_fract_x
_atom_site_fract_y
_atom_site_fract_z
Si Si1 0.182862 0.166811 0.149800
Si Si2 0.916291 0.538307 0.872811
Si Si3 0.927475 0.278196 0.651344
Si Si4 0.103227 0.897742 0.796756
Si Si5 0.666205 0.918971 0.346338
Si Si6 0.960911 0.625539 0.051086
O O1 0.250000 0.250000 0.102783
O O2 0.250000 0.171375 0.250000
O O3 0.246601 0.075325 0.121927
O O4 0.002845 0.167131 0.151906
O O5 0.998351 0.563329 0.781951
O O6 0.939153 0.439245 0.888517
O O7 0.992453 0.591864 0.952565
O O8 0.750000 0.250000 0.647874
O O9 0.979163 0.250000 0.750000
O O10 0.004799 0.371051 0.644657
O O11 0.000000 0.220595 0.574921
O O12 0.250000 0.860098 0.750000
O O13 0.149870 0.979752 0.852959
O O14 0.750000 0.903309 0.250000
O O15 0.787241 0.889289 0.419415
#
# Coordination Sequence:
#
# PCOD9390126 Si02
#       6
#     8   8   8   8   8   8
#     4   9  20  38  61  86 115 153 204 256 314 374
#     4  10  21  39  61  86 126 164 208 256 324 375
#     4  11  23  36  59  95 129 164 211 258 304 373
#     4  10  19  39  67  95 117 161 214 263 313 385
#     4  11  20  38  62  91 124 166 213 253 313 383
#     4  11  22  38  60  87 127 170 206 259 315 372
#
# _framework density 22.958383000000001
#
# number of rings (size 3 to 8) (size 9 to 14) (size 15 to 20)
#    0.000    1.667    5.000    0.500    2.333    1.333 
#    0.000   10.833    0.000    0.000    0.000    0.000 
#    0.000    0.000    0.000    0.000    0.000    0.000 
#
# Total GULP energy -267670.441410 kJ/mol
# GULP energy per Si atom -5576.467529 kJ/mol
# Density = 2.290613 g / cm^3
# Si number density = 22.958383 Si / 1000 Ang^3
#
#
#
# Elastic Constant Matrix: (Units=GPa)
#
#
# Indices 1 2 3 4 5 6 
#
# 1 123.1913 40.5990 -23.0865 0.0000 0.0000 0.0000
# 2 40.5990 71.4681 -5.1840 0.0000 0.0000 0.0000
# 3 -23.0865 -5.1840 34.5250 0.0000 0.0000 0.0000
# 4 0.0000 0.0000 0.0000 11.7319 0.0000 0.0000
# 5 0.0000 0.0000 0.0000 0.0000 13.2687 0.0000
# 6 0.0000 0.0000 0.0000 0.0000 0.0000 23.4591
#
#
#
# Elastic Compliance Matrix: (Units=1/GPa)
#
#
# Indices 1 2 3 4 5 6 
#
# 1 0.011332 -0.005952 0.006684 0.000000 0.000000 0.000000
# 2 -0.005952 0.017273 -0.001387 0.000000 0.000000 0.000000
# 3 0.006684 -0.001387 0.033226 0.000000 0.000000 0.000000
# 4 0.000000 0.000000 0.000000 0.085238 0.000000 0.000000
# 5 0.000000 0.000000 0.000000 0.000000 0.075365 0.000000
# 6 0.000000 0.000000 0.000000 0.000000 0.000000 0.042627
#
#
# Mechanical properties :
#
#
# Convention : Reuss Voigt Hill
#
# Bulk Modulus (GPa) = 16.52368 28.20460 22.36414
# Shear Modulus (GPa) = 17.44928 24.14899 20.79914
#
# Velocity S-wave (km/s) = 2.75987 3.24676 3.01316
# Velocity P-wave (km/s) = 4.16758 5.13488 4.67631
#
# Compressibility (1/GPa) = 0.06051920
#
# Stress axis : x y z
#
# Youngs Moduli (GPa) = 88.24826 57.89358 30.09733
#
# Poissons Ratio (x) = 0.34461 -0.20116
# Poissons Ratio (y) = 0.52529 0.04174
# Poissons Ratio (z) = -0.58982 0.08028
#
# Static dielectric constant tensor:
#      x y z
#    x 1.927040 0.000000 0.000000 
#    y 0.000000 1.881970 0.000000 
#    z 0.000000 0.000000 1.914570 
# 
# From -- ./inp_files/30260.got.cif
#   From: 2010.05.17/outbox.cif.g08.bks.cpg/sg48_16_cif.got.tgz:30260.got - 2010.06.03 20:39:00.
