data_PCOD9390669
_publ_section_title
;
Structure prediction by ZEFSAII (Michael W. Deem and Ramdas Pophale) SiO2 
 PCOD9390669
Probable space group: P N N N
;
_chemical_formula_sum "Si O2"
_cell_formula_units_Z 64
_cell_length_a 10.539485
_cell_length_b 12.796714
_cell_length_c 21.713273
_cell_angle_alpha 90.000000
_cell_angle_beta 90.000000
_cell_angle_gamma 90.000000
_cell_volume 2928.485963
_symmetry_space_group_name_H-M "P N N N"
_symmetry_group_IT_number 48
_space_group.IT_coordinate_system_code '2'
_symmetry_cell_setting 'orthorhombic'
loop_
_space_group_symop_operation_xyz
x,y,z
1/2-x,1/2-y,z
x,1/2-y,1/2-z
1/2-x,y,1/2-z
-x,-y,-z
1/2+x,1/2+y,-z
-x,1/2+y,1/2+z
1/2+x,-y,1/2+z
loop_
_atom_site_type_symbol
_atom_site_label
_atom_site_fract_x
_atom_site_fract_y
_atom_site_fract_z
Si Si1 0.915680 0.927336 0.847637
Si Si2 0.631745 0.920234 0.850680
Si Si3 0.497263 0.629817 0.113921
Si Si4 0.115939 0.374294 0.008017
Si Si5 0.409123 0.632447 0.735597
Si Si6 0.014165 0.872938 0.386221
Si Si7 0.600503 0.626302 0.987975
Si Si8 0.239359 0.434790 0.818686
O O1 0.774320 0.888826 0.833062
O O2 0.029157 0.909086 0.799722
O O3 0.940970 0.886975 0.917243
O O4 0.902295 0.052243 0.852788
O O5 0.596027 0.888171 0.919857
O O6 0.532187 0.864962 0.807327
O O7 0.605277 0.045244 0.852056
O O8 0.457812 0.750149 0.118483
O O9 0.634481 0.598326 0.143720
O O10 0.504515 0.596268 0.042004
O O11 0.258539 0.420441 0.999463
O O12 0.118790 0.249445 0.999410
O O13 0.011371 0.406385 0.957561
O O14 0.370575 0.750000 0.750000
O O15 0.311167 0.555228 0.697947
O O16 0.876936 0.886573 0.355297
O O17 0.250000 0.389235 0.750000
#
# Coordination Sequence:
#
# PCOD9390669 Si02
#       8
#     8   8   8   8   8   8   8   8
#     4  11  22  38  58  85 125 163 199 251 299 369
#     4  10  22  37  58  90 120 161 207 247 300 362
#     4  11  21  38  59  88 121 160 202 252 307 363
#     4   9  16  33  58  87 118 151 204 258 301 354
#     4  11  24  42  64  88 119 158 199 251 312 374
#     4  10  21  36  61  87 119 160 203 255 297 358
#     4   9  18  32  59  88 114 156 204 251 307 362
#     4  11  22  41  61  91 118 151 200 250 308 365
#
# _framework density 21.854295
#
# number of rings (size 3 to 8) (size 9 to 14) (size 15 to 20)
#    0.000    1.750    2.500    2.250    0.000    3.750 
#    0.000    0.000    0.000    1.500    0.000    0.000 
#    0.000    0.000    0.000    0.000    0.000    0.000 
#
# Total GULP energy -356443.416905 kJ/mol
# GULP energy per Si atom -5569.428389 kJ/mol
# Density = 2.180455 g / cm^3
# Si number density = 21.854295 Si / 1000 Ang^3
#
#
#
# Elastic Constant Matrix: (Units=GPa)
#
#
# Indices 1 2 3 4 5 6 
#
# 1 76.5708 2.1457 20.0632 0.0000 0.0000 0.0000
# 2 2.1457 74.8136 -1.9619 0.0000 0.0000 0.0000
# 3 20.0632 -1.9619 71.9644 0.0000 0.0000 0.0000
# 4 0.0000 0.0000 0.0000 27.4181 0.0000 0.0000
# 5 0.0000 0.0000 0.0000 0.0000 38.5441 0.0000
# 6 0.0000 0.0000 0.0000 0.0000 0.0000 -5.3064
#
#
#
# Elastic Compliance Matrix: (Units=1/GPa)
#
#
# Indices 1 2 3 4 5 6 
#
# 1 0.014108 -0.000508 -0.003947 0.000000 0.000000 0.000000
# 2 -0.000508 0.013394 0.000507 0.000000 0.000000 0.000000
# 3 -0.003947 0.000507 0.015010 0.000000 0.000000 0.000000
# 4 0.000000 0.000000 0.000000 0.036472 0.000000 0.000000
# 5 0.000000 0.000000 0.000000 0.000000 0.025944 0.000000
# 6 0.000000 0.000000 0.000000 0.000000 0.000000 -0.188450
#
#
# Mechanical properties :
#
#
# Convention : Reuss Voigt Hill
#
# Bulk Modulus (GPa) = 28.88854 29.31586 29.10220
# Shear Modulus (GPa) = -78.02128 25.67127 -26.17500
#
# Velocity S-wave (km/s) = -5.98149 3.43104 -3.46454
# Velocity P-wave (km/s) = 5.86999 5.39809 1.63055
#
# Compressibility (1/GPa) = 0.03461580
#
# Stress axis : x y z
#
# Youngs Moduli (GPa) = 70.88028 74.65793 66.62217
#
# Poissons Ratio (x) = 0.03794 0.26297
# Poissons Ratio (y) = 0.03602 -0.03377
# Poissons Ratio (z) = 0.27978 -0.03784
#
# Static dielectric constant tensor:
#      x y z
#    x 1.837600 0.000000 0.000000 
#    y 0.000000 2.002110 0.000000 
#    z 0.000000 0.000000 1.827420 
# 
# From -- ./inp_files/36389.got.cif
#   From: 2010.05.17/outbox.cif.g08.bks.cpg/sg48_19_cif.got.tgz:36389.got - 2010.06.03 20:39:00.
