data_PCOD9390432
_publ_section_title
;
Structure prediction by ZEFSAII (Michael W. Deem and Ramdas Pophale) SiO2 
 PCOD9390432
Probable space group: P N N N
;
_chemical_formula_sum "Si O2"
_cell_formula_units_Z 52
_cell_length_a 5.336750
_cell_length_b 22.244295
_cell_length_c 20.938210
_cell_angle_alpha 90.000000
_cell_angle_beta 90.000000
_cell_angle_gamma 90.000000
_cell_volume 2485.621839
_symmetry_space_group_name_H-M "P N N N"
_symmetry_group_IT_number 48
_space_group.IT_coordinate_system_code '2'
_symmetry_cell_setting 'orthorhombic'
loop_
_space_group_symop_operation_xyz
x,y,z
1/2-x,1/2-y,z
x,1/2-y,1/2-z
1/2-x,y,1/2-z
-x,-y,-z
1/2+x,1/2+y,-z
-x,1/2+y,1/2+z
1/2+x,-y,1/2+z
loop_
_atom_site_type_symbol
_atom_site_label
_atom_site_fract_x
_atom_site_fract_y
_atom_site_fract_z
Si Si1 0.770876 0.041071 0.448574
Si Si2 0.492028 0.272039 0.101864
Si Si3 0.750000 0.945992 0.750000
Si Si4 0.994354 0.065907 0.718698
Si Si5 0.296023 0.094945 0.390282
Si Si6 0.528337 0.081487 0.932017
Si Si7 0.504597 0.720314 0.458075
O O1 0.515332 0.049123 0.410276
O O2 0.019915 0.075946 0.418314
O O3 0.742759 0.066712 0.520219
O O4 0.836287 0.970891 0.451733
O O5 0.250000 0.250000 0.139808
O O6 0.426189 0.341727 0.089458
O O7 0.750000 0.250000 0.132724
O O8 0.496721 0.236415 0.033865
O O9 0.721042 0.907884 0.686229
O O10 0.530442 0.994777 0.763996
O O11 0.250000 0.088305 0.750000
O O12 0.957482 0.073315 0.643494
O O13 0.750000 0.095201 0.750000
O O14 0.470194 0.149922 0.947622
O O15 0.750000 0.750000 0.429244
O O16 0.250000 0.750000 0.432527
#
# Coordination Sequence:
#
# PCOD9390432 Si02
#       7
#     8   8   4   8   8   8   8
#     4  11  24  37  62 103 130 158 213 280 350 386
#     4  10  20  38  60  86 122 168 210 255 315 374
#     4  10  24  40  65  92 129 172 214 254 334 392
#     4  10  22  41  61  91 131 166 211 253 330 399
#     4  12  23  42  66  95 136 170 216 274 326 402
#     4  11  23  40  66  96 132 168 214 276 337 399
#     4  10  21  37  58  87 122 167 208 250 317 383
#
# _framework density 20.92032
#
# number of rings (size 3 to 8) (size 9 to 14) (size 15 to 20)
#    0.462    0.923    1.538    5.538    0.000    6.154 
#    0.000    0.385    0.000    3.692    0.000    0.000 
#    0.000    0.000    0.000    0.000    0.000    0.000 
#
# Total GULP energy -289683.724528 kJ/mol
# GULP energy per Si atom -5570.840856 kJ/mol
# Density = 2.087270 g / cm^3
# Si number density = 20.920320 Si / 1000 Ang^3
#
#
#
# Elastic Constant Matrix: (Units=GPa)
#
#
# Indices 1 2 3 4 5 6 
#
# 1 164.9968 29.7308 39.0713 0.0000 0.0000 0.0000
# 2 29.7308 125.1761 8.5978 0.0000 0.0000 0.0000
# 3 39.0713 8.5978 137.1750 0.0000 0.0000 0.0000
# 4 0.0000 0.0000 0.0000 14.5986 0.0000 0.0000
# 5 0.0000 0.0000 0.0000 0.0000 52.4675 0.0000
# 6 0.0000 0.0000 0.0000 0.0000 0.0000 12.1090
#
#
#
# Elastic Compliance Matrix: (Units=1/GPa)
#
#
# Indices 1 2 3 4 5 6 
#
# 1 0.006761 -0.001480 -0.001833 0.000000 0.000000 0.000000
# 2 -0.001480 0.008347 -0.000102 0.000000 0.000000 0.000000
# 3 -0.001833 -0.000102 0.007818 0.000000 0.000000 0.000000
# 4 0.000000 0.000000 0.000000 0.068500 0.000000 0.000000
# 5 0.000000 0.000000 0.000000 0.000000 0.019059 0.000000
# 6 0.000000 0.000000 0.000000 0.000000 0.000000 0.082583
#
#
# Mechanical properties :
#
#
# Convention : Reuss Voigt Hill
#
# Bulk Modulus (GPa) = 62.12079 64.68308 63.40194
# Shear Modulus (GPa) = 24.35875 39.16488 31.76181
#
# Velocity S-wave (km/s) = 3.41597 4.33147 3.90067
# Velocity P-wave (km/s) = 6.73179 7.48341 7.11753
#
# Compressibility (1/GPa) = 0.01609767
#
# Stress axis : x y z
#
# Youngs Moduli (GPa) = 147.89639 119.79994 127.90264
#
# Poissons Ratio (x) = 0.17731 0.23446
# Poissons Ratio (y) = 0.21889 0.01300
# Poissons Ratio (z) = 0.27111 0.01218
#
# Static dielectric constant tensor:
#      x y z
#    x 1.900750 0.000000 0.000000 
#    y 0.000000 1.703720 0.000000 
#    z 0.000000 0.000000 1.782840 
# 
# From -- ./inp_files/32938.got.cif
#   From: 2010.05.17/outbox.cif.g08.bks.cpg/sg48_17_cif.got.tgz:32938.got - 2010.06.03 20:39:00.
