data_PCOD9390940
_publ_section_title
;
Structure prediction by ZEFSAII (Michael W. Deem and Ramdas Pophale) SiO2 
 PCOD9390940
Probable space group: P N N N
;
_chemical_formula_sum "Si O2"
_cell_formula_units_Z 46
_cell_length_a 11.770335
_cell_length_b 7.663676
_cell_length_c 24.421791
_cell_angle_alpha 90.000000
_cell_angle_beta 90.000000
_cell_angle_gamma 90.000000
_cell_volume 2202.944062
_symmetry_space_group_name_H-M "P N N N"
_symmetry_group_IT_number 48
_space_group.IT_coordinate_system_code '2'
_symmetry_cell_setting 'orthorhombic'
loop_
_space_group_symop_operation_xyz
x,y,z
1/2-x,1/2-y,z
x,1/2-y,1/2-z
1/2-x,y,1/2-z
-x,-y,-z
1/2+x,1/2+y,-z
-x,1/2+y,1/2+z
1/2+x,-y,1/2+z
loop_
_atom_site_type_symbol
_atom_site_label
_atom_site_fract_x
_atom_site_fract_y
_atom_site_fract_z
Si Si1 0.421574 0.743107 0.813222
Si Si2 0.272814 0.051962 0.087786
Si Si3 0.513198 0.605026 0.368720
Si Si4 0.750000 0.250000 0.399998
Si Si5 0.750000 0.250000 0.750000
Si Si6 0.377036 0.024840 0.972598
Si Si7 0.090746 0.558478 0.333372
O O1 0.386440 0.750000 0.750000
O O2 0.333570 0.657234 0.856477
O O3 0.533404 0.624414 0.818926
O O4 0.439756 0.941362 0.834263
O O5 0.250000 0.250000 0.106927
O O6 0.387629 0.964625 0.111980
O O7 0.162396 0.951377 0.109964
O O8 0.292005 0.060561 0.022417
O O9 0.592646 0.647759 0.421257
O O10 0.497873 0.783532 0.336753
O O11 0.670542 0.358601 0.440393
O O12 0.822891 0.377786 0.712498
O O13 0.500000 0.000000 0.000000
#
# Coordination Sequence:
#
# PCOD9390940 Si02
#       7
#     8   8   8   4   2   8   8
#     4  11  24  43  67  95 130 174 227 276 324 393
#     4  11  21  38  61  96 132 171 210 268 332 394
#     4  10  21  43  59  95 135 168 217 271 321 406
#     4  10  23  45  68  96 133 181 224 274 338 390
#     4  12  24  38  62 100 132 178 212 276 340 394
#     4   9  22  38  66  93 134 170 214 273 327 397
#     4  12  24  39  67  92 135 173 218 268 343 391
#
# _framework density 20.881148
#
# number of rings (size 3 to 8) (size 9 to 14) (size 15 to 20)
#    0.000    1.391    3.478    1.304    4.870    1.391 
#    0.000    4.348    0.000    4.174    0.000    0.000 
#    0.000    0.000    0.000    0.000    0.000    0.000 
#
# Total GULP energy -256368.263245 kJ/mol
# GULP energy per Si atom -5573.223114 kJ/mol
# Density = 2.083362 g / cm^3
# Si number density = 20.881148 Si / 1000 Ang^3
#
#
#
# Elastic Constant Matrix: (Units=GPa)
#
#
# Indices 1 2 3 4 5 6 
#
# 1 70.6990 17.6071 47.9363 0.0000 0.0000 0.0000
# 2 17.6071 71.4937 34.2799 0.0000 0.0000 0.0000
# 3 47.9363 34.2799 112.7610 0.0000 0.0000 0.0000
# 4 0.0000 0.0000 0.0000 12.7902 0.0000 0.0000
# 5 0.0000 0.0000 0.0000 0.0000 -16.8584 0.0000
# 6 0.0000 0.0000 0.0000 0.0000 0.0000 12.7637
#
#
#
# Elastic Compliance Matrix: (Units=1/GPa)
#
#
# Indices 1 2 3 4 5 6 
#
# 1 0.019932 -0.000990 -0.008172 0.000000 0.000000 0.000000
# 2 -0.000990 0.016423 -0.004572 0.000000 0.000000 0.000000
# 3 -0.008172 -0.004572 0.013732 0.000000 0.000000 0.000000
# 4 0.000000 0.000000 0.000000 0.078185 0.000000 0.000000
# 5 0.000000 0.000000 0.000000 0.000000 -0.059318 0.000000
# 6 0.000000 0.000000 0.000000 0.000000 0.000000 0.078347
#
#
# Mechanical properties :
#
#
# Convention : Reuss Voigt Hill
#
# Bulk Modulus (GPa) = 44.21079 50.51112 47.36096
# Shear Modulus (GPa) = 27.42569 12.08113 19.75341
#
# Velocity S-wave (km/s) = 3.62804 2.40795 3.07904
# Velocity P-wave (km/s) = 6.22646 5.65449 5.94736
#
# Compressibility (1/GPa) = 0.02261891
#
# Stress axis : x y z
#
# Youngs Moduli (GPa) = 50.16987 60.88944 72.82061
#
# Poissons Ratio (x) = 0.06030 0.59512
# Poissons Ratio (y) = 0.04968 0.33292
# Poissons Ratio (z) = 0.41001 0.27837
#
# Static dielectric constant tensor:
#      x y z
#    x 1.851550 0.000000 0.000000 
#    y 0.000000 2.220060 0.000000 
#    z 0.000000 0.000000 1.754430 
# 
# From -- ./inp_files/11291.got.cif
#   From: 2010.05.17/outbox.cif.g08.bks.cpg/sg48_6_cif.got.tgz:11291.got - 2010.06.03 20:39:00.
