data_PCOD9390721
_publ_section_title
;
Structure prediction by ZEFSAII (Michael W. Deem and Ramdas Pophale) SiO2 
 PCOD9390721
Probable space group: P N N N
;
_chemical_formula_sum "Si O2"
_cell_formula_units_Z 32
_cell_length_a 30.071260
_cell_length_b 9.188915
_cell_length_c 5.172124
_cell_angle_alpha 90.000000
_cell_angle_beta 90.000000
_cell_angle_gamma 90.000000
_cell_volume 1429.172952
_symmetry_space_group_name_H-M "P N N N"
_symmetry_group_IT_number 48
_space_group.IT_coordinate_system_code '2'
_symmetry_cell_setting 'orthorhombic'
loop_
_space_group_symop_operation_xyz
x,y,z
1/2-x,1/2-y,z
x,1/2-y,1/2-z
1/2-x,y,1/2-z
-x,-y,-z
1/2+x,1/2+y,-z
-x,1/2+y,1/2+z
1/2+x,-y,1/2+z
loop_
_atom_site_type_symbol
_atom_site_label
_atom_site_fract_x
_atom_site_fract_y
_atom_site_fract_z
Si Si1 0.478355 0.075741 0.751960
Si Si2 0.387355 0.581115 0.768369
Si Si3 0.829578 0.085026 0.739553
Si Si4 0.200365 0.315087 0.491156
O O1 0.484752 0.250000 0.750000
O O2 0.500000 0.000000 0.500000
O O3 0.426556 0.032054 0.768288
O O4 0.500000 0.000000 0.000000
O O5 0.402536 0.750000 0.750000
O O6 0.348003 0.559734 0.552217
O O7 0.370634 0.569456 0.062518
O O8 0.813147 0.250000 0.750000
O O9 0.795959 0.980066 0.895742
O O10 0.250000 0.250000 0.497481
O O11 0.173763 0.250000 0.250000
O O12 0.179687 0.250000 0.750000
#
# Coordination Sequence:
#
# PCOD9390721 Si02
#       4
#     8   8   8   8
#     4  12  25  42  64  92 128 171 214 263 318 379
#     4  10  21  38  61  91 123 163 212 265 316 372
#     4  10  21  38  62  89 123 163 209 261 318 381
#     4  10  21  38  60  88 121 159 200 255 317 376
#
# _framework density 22.390573
#
# number of rings (size 3 to 8) (size 9 to 14) (size 15 to 20)
#    0.000    1.500    0.000    5.250    0.000    5.000 
#    0.000    2.500    0.000    6.000    0.000    0.000 
#    0.000    0.000    0.000    0.000    0.000    0.000 
#
# Total GULP energy -178281.615531 kJ/mol
# GULP energy per Si atom -5571.300485 kJ/mol
# Density = 2.233961 g / cm^3
# Si number density = 22.390573 Si / 1000 Ang^3
#
#
#
# Elastic Constant Matrix: (Units=GPa)
#
#
# Indices 1 2 3 4 5 6 
#
# 1 36.9703 52.5390 2.4240 0.0000 0.0000 0.0000
# 2 52.5390 212.4318 65.7537 0.0000 0.0000 0.0000
# 3 2.4240 65.7537 184.3776 0.0000 0.0000 0.0000
# 4 0.0000 0.0000 0.0000 58.4944 0.0000 0.0000
# 5 0.0000 0.0000 0.0000 0.0000 13.0046 0.0000
# 6 0.0000 0.0000 0.0000 0.0000 0.0000 23.5832
#
#
#
# Elastic Compliance Matrix: (Units=1/GPa)
#
#
# Indices 1 2 3 4 5 6 
#
# 1 0.043843 -0.011988 0.003699 0.000000 0.000000 0.000000
# 2 -0.011988 0.008569 -0.002898 0.000000 0.000000 0.000000
# 3 0.003699 -0.002898 0.006409 0.000000 0.000000 0.000000
# 4 0.000000 0.000000 0.000000 0.017096 0.000000 0.000000
# 5 0.000000 0.000000 0.000000 0.000000 0.076896 0.000000
# 6 0.000000 0.000000 0.000000 0.000000 0.000000 0.042403
#
#
# Mechanical properties :
#
#
# Convention : Reuss Voigt Hill
#
# Bulk Modulus (GPa) = 27.43830 75.02367 51.23098
# Shear Modulus (GPa) = 21.76376 39.88730 30.82553
#
# Velocity S-wave (km/s) = 3.12108 4.22528 3.71444
# Velocity P-wave (km/s) = 5.02685 7.57519 6.42856
#
# Compressibility (1/GPa) = 0.03644541
#
# Stress axis : x y z
#
# Youngs Moduli (GPa) = 22.80877 116.69298 156.03791
#
# Poissons Ratio (x) = 1.39894 -0.57717
# Poissons Ratio (y) = 0.27344 0.45227
# Poissons Ratio (z) = -0.08437 0.33823
#
# Static dielectric constant tensor:
#      x y z
#    x 1.822100 0.000000 0.000000 
#    y 0.000000 5.444060 0.000000 
#    z 0.000000 0.000000 1.811210 
# 
# From -- ./inp_files/6760.got.cif
#   From: 2010.05.17/outbox.cif.g08.bks.cpg/sg48_4_cif.got.tgz:6760.got - 2010.06.03 20:39:00.
