data_PCOD9390519
_publ_section_title
;
Structure prediction by ZEFSAII (Michael W. Deem and Ramdas Pophale) SiO2 
 PCOD9390519
Probable space group: P N N N
;
_chemical_formula_sum "Si O2"
_cell_formula_units_Z 48
_cell_length_a 9.722925
_cell_length_b 7.805448
_cell_length_c 29.538858
_cell_angle_alpha 90.000000
_cell_angle_beta 90.000000
_cell_angle_gamma 90.000000
_cell_volume 2241.756675
_symmetry_space_group_name_H-M "P N N N"
_symmetry_group_IT_number 48
_space_group.IT_coordinate_system_code '2'
_symmetry_cell_setting 'orthorhombic'
loop_
_space_group_symop_operation_xyz
x,y,z
1/2-x,1/2-y,z
x,1/2-y,1/2-z
1/2-x,y,1/2-z
-x,-y,-z
1/2+x,1/2+y,-z
-x,1/2+y,1/2+z
1/2+x,-y,1/2+z
loop_
_atom_site_type_symbol
_atom_site_label
_atom_site_fract_x
_atom_site_fract_y
_atom_site_fract_z
Si Si1 0.541666 0.961624 0.160466
Si Si2 0.209975 0.051360 0.399902
Si Si3 0.970220 0.068450 0.852123
Si Si4 0.833155 0.555792 0.000615
Si Si5 0.905766 0.548534 0.746134
Si Si6 0.274964 0.042807 0.596708
O O1 0.521683 0.759776 0.154451
O O2 0.688119 0.014932 0.140541
O O3 0.434167 0.042184 0.125442
O O4 0.500811 0.996372 0.211901
O O5 0.250000 0.250000 0.399034
O O6 0.210072 0.988031 0.451441
O O7 0.317104 0.945275 0.370434
O O8 0.069554 0.995040 0.891142
O O9 0.970347 0.987393 0.802600
O O10 0.750000 0.750000 0.000205
O O11 0.777099 0.480233 0.047878
O O12 0.000000 0.500000 0.000000
O O13 0.890147 0.750000 0.750000
O O14 0.750000 0.472275 0.750000
O O15 0.250000 0.250000 0.594526
#
# Coordination Sequence:
#
# PCOD9390519 Si02
#       6
#     8   8   8   8   8   8
#     4  11  21  39  65  89 122 164 209 265 321 390
#     4  11  22  37  62  90 129 166 213 263 329 387
#     4  11  23  39  63  95 121 164 217 267 318 392
#     4  10  20  39  67  95 131 179 223 272 341 406
#     4  11  23  39  61  89 126 163 208 264 327 392
#     4   9  21  40  62  90 128 162 211 267 324 382
#
# _framework density 21.411781000000001
#
# number of rings (size 3 to 8) (size 9 to 14) (size 15 to 20)
#    0.000    1.500    3.333    2.000    0.000    2.000 
#    0.000    6.667    0.000    0.000    0.000    0.000 
#    0.000    0.000    0.000    0.000    0.000    0.000 
#
# Total GULP energy -267223.905371 kJ/mol
# GULP energy per Si atom -5567.164695 kJ/mol
# Density = 2.136305 g / cm^3
# Si number density = 21.411781 Si / 1000 Ang^3
#
#
#
# Elastic Constant Matrix: (Units=GPa)
#
#
# Indices 1 2 3 4 5 6 
#
# 1 28.5213 11.9628 -5.9539 0.0000 0.0000 0.0000
# 2 11.9628 40.1307 17.4035 0.0000 0.0000 0.0000
# 3 -5.9539 17.4035 159.4078 0.0000 0.0000 0.0000
# 4 0.0000 0.0000 0.0000 -2.1149 0.0000 0.0000
# 5 0.0000 0.0000 0.0000 0.0000 19.9819 0.0000
# 6 0.0000 0.0000 0.0000 0.0000 0.0000 22.5174
#
#
#
# Elastic Compliance Matrix: (Units=1/GPa)
#
#
# Indices 1 2 3 4 5 6 
#
# 1 0.041429 -0.013668 0.003040 0.000000 0.000000 0.000000
# 2 -0.013668 0.030666 -0.003859 0.000000 0.000000 0.000000
# 3 0.003040 -0.003859 0.006808 0.000000 0.000000 0.000000
# 4 0.000000 0.000000 0.000000 -0.472829 0.000000 0.000000
# 5 0.000000 0.000000 0.000000 0.000000 0.050045 0.000000
# 6 0.000000 0.000000 0.000000 0.000000 0.000000 0.044410
#
#
# Mechanical properties :
#
#
# Convention : Reuss Voigt Hill
#
# Bulk Modulus (GPa) = 20.02830 30.54273 25.28552
# Shear Modulus (GPa) = -19.69634 21.72004 1.01185
#
# Velocity S-wave (km/s) = -3.03625 3.18841 0.68818
# Velocity P-wave (km/s) = 1.70809 5.27732 3.53076
#
# Compressibility (1/GPa) = 0.04992936
#
# Stress axis : x y z
#
# Youngs Moduli (GPa) = 24.13782 32.60920 146.88591
#
# Poissons Ratio (x) = 0.44570 -0.44647
# Poissons Ratio (y) = 0.32991 0.56676
# Poissons Ratio (z) = -0.07337 0.12582
#
# Static dielectric constant tensor:
#      x y z
#    x 1.823640 0.000000 0.000000 
#    y 0.000000 1.830700 0.000000 
#    z 0.000000 0.000000 1.723640 
# 
# From -- ./inp_files/9442.got.cif
#   From: 2010.05.17/outbox.cif.g08.bks.cpg/sg48_5_cif.got.tgz:9442.got - 2010.06.03 20:39:00.
