data_PCOD9390876
_publ_section_title
;
Structure prediction by ZEFSAII (Michael W. Deem and Ramdas Pophale) SiO2 
 PCOD9390876
Probable space group: P N N N
;
_chemical_formula_sum "Si O2"
_cell_formula_units_Z 64
_cell_length_a 14.457162
_cell_length_b 8.170907
_cell_length_c 24.617259
_cell_angle_alpha 90.000000
_cell_angle_beta 90.000000
_cell_angle_gamma 90.000000
_cell_volume 2907.990678
_symmetry_space_group_name_H-M "P N N N"
_symmetry_group_IT_number 48
_space_group.IT_coordinate_system_code '2'
_symmetry_cell_setting 'orthorhombic'
loop_
_space_group_symop_operation_xyz
x,y,z
1/2-x,1/2-y,z
x,1/2-y,1/2-z
1/2-x,y,1/2-z
-x,-y,-z
1/2+x,1/2+y,-z
-x,1/2+y,1/2+z
1/2+x,-y,1/2+z
loop_
_atom_site_type_symbol
_atom_site_label
_atom_site_fract_x
_atom_site_fract_y
_atom_site_fract_z
Si Si1 0.313878 0.985226 0.379886
Si Si2 0.989035 0.113113 0.419949
Si Si3 0.328438 0.020543 0.866599
Si Si4 0.112786 0.617285 0.135314
Si Si5 0.634350 0.896592 0.393017
Si Si6 0.540478 0.931524 0.226936
Si Si7 0.085917 0.117650 0.013495
Si Si8 0.516017 0.893147 0.666080
O O1 0.205246 0.992069 0.368737
O O2 0.350061 0.798755 0.374950
O O3 0.348321 0.056480 0.437649
O O4 0.374710 0.077361 0.335328
O O5 0.003295 0.223023 0.365268
O O6 0.036357 0.214910 0.467470
O O7 0.880797 0.072982 0.415611
O O8 0.043626 0.944899 0.411276
O O9 0.352247 0.212969 0.872729
O O10 0.219384 0.998055 0.869697
O O11 0.377564 0.991140 0.809150
O O12 0.051110 0.601066 0.189754
O O13 0.641128 0.880936 0.457598
O O14 0.539364 0.978299 0.373193
O O15 0.565815 0.750000 0.250000
O O16 0.519516 0.057802 0.275109
O O17 0.000000 0.000000 0.000000
#
# Coordination Sequence:
#
# PCOD9390876 Si02
#       8
#     8   8   8   8   8   8   8   8
#     4  10  21  41  62  93 131 163 214 269 319 389
#     4  10  23  42  66  93 133 168 218 267 330 387
#     4  10  24  40  63  99 127 168 219 277 310 399
#     4  10  22  39  63  98 126 167 220 266 319 397
#     4  11  22  43  62  95 133 162 226 264 327 389
#     4  11  20  40  70  92 129 177 212 260 335 382
#     4  11  23  42  66  89 126 181 211 269 343 381
#     4  11  21  39  64  92 131 174 204 272 316 389
#
# _framework density 22.008324999999999
#
# number of rings (size 3 to 8) (size 9 to 14) (size 15 to 20)
#    0.000    1.500    5.000    0.750    0.000    8.000 
#    4.500    0.000    0.000    9.000    0.000    0.000 
#    0.000    0.000    0.000    0.000    0.000    0.000 
#
# Total GULP energy -357217.149532 kJ/mol
# GULP energy per Si atom -5581.517961 kJ/mol
# Density = 2.195823 g / cm^3
# Si number density = 22.008325 Si / 1000 Ang^3
#
#
#
# Elastic Constant Matrix: (Units=GPa)
#
#
# Indices 1 2 3 4 5 6 
#
# 1 100.9331 -13.4698 21.6509 0.0000 0.0000 0.0000
# 2 -13.4698 21.7553 -9.2412 0.0000 0.0000 0.0000
# 3 21.6509 -9.2412 124.0378 0.0000 0.0000 0.0000
# 4 0.0000 0.0000 0.0000 23.6570 0.0000 0.0000
# 5 0.0000 0.0000 0.0000 0.0000 18.2162 0.0000
# 6 0.0000 0.0000 0.0000 0.0000 0.0000 25.6698
#
#
#
# Elastic Compliance Matrix: (Units=1/GPa)
#
#
# Indices 1 2 3 4 5 6 
#
# 1 0.011052 0.006220 -0.001466 0.000000 0.000000 0.000000
# 2 0.006220 0.050969 0.002712 0.000000 0.000000 0.000000
# 3 -0.001466 0.002712 0.008520 0.000000 0.000000 0.000000
# 4 0.000000 0.000000 0.000000 0.042271 0.000000 0.000000
# 5 0.000000 0.000000 0.000000 0.000000 0.054896 0.000000
# 6 0.000000 0.000000 0.000000 0.000000 0.000000 0.038956
#
#
# Mechanical properties :
#
#
# Convention : Reuss Voigt Hill
#
# Bulk Modulus (GPa) = 11.69960 27.17846 19.43903
# Shear Modulus (GPa) = 22.70430 30.02772 26.36601
#
# Velocity S-wave (km/s) = 3.21537 3.69776 3.46497
# Velocity P-wave (km/s) = 4.37177 5.53238 4.98596
#
# Compressibility (1/GPa) = 0.08547301
#
# Stress axis : x y z
#
# Youngs Moduli (GPa) = 90.48086 19.61985 117.37199
#
# Poissons Ratio (x) = -0.12204 0.17203
# Poissons Ratio (y) = -0.56281 -0.31826
# Poissons Ratio (z) = 0.13262 -0.05320
#
# Static dielectric constant tensor:
#      x y z
#    x 1.819870 0.000000 0.000000 
#    y 0.000000 1.898830 0.000000 
#    z 0.000000 0.000000 1.836190 
# 
# From -- ./inp_files/36560.got.cif
#   From: 2010.05.17/outbox.cif.g08.bks.cpg/sg48_19_cif.got.tgz:36560.got - 2010.06.03 20:39:00.
