data_PCOD9390395
_publ_section_title
;
Structure prediction by ZEFSAII (Michael W. Deem and Ramdas Pophale) SiO2 
 PCOD9390395
Probable space group: P N N N
;
_chemical_formula_sum "Si O2"
_cell_formula_units_Z 64
_cell_length_a 16.574877
_cell_length_b 15.487903
_cell_length_c 11.270018
_cell_angle_alpha 90.000000
_cell_angle_beta 90.000000
_cell_angle_gamma 90.000000
_cell_volume 2893.127304
_symmetry_space_group_name_H-M "P N N N"
_symmetry_group_IT_number 48
_space_group.IT_coordinate_system_code '2'
_symmetry_cell_setting 'orthorhombic'
loop_
_space_group_symop_operation_xyz
x,y,z
1/2-x,1/2-y,z
x,1/2-y,1/2-z
1/2-x,y,1/2-z
-x,-y,-z
1/2+x,1/2+y,-z
-x,1/2+y,1/2+z
1/2+x,-y,1/2+z
loop_
_atom_site_type_symbol
_atom_site_label
_atom_site_fract_x
_atom_site_fract_y
_atom_site_fract_z
Si Si1 0.153016 0.148876 0.741368
Si Si2 0.099637 0.844027 0.726211
Si Si3 0.819109 0.907310 0.519437
Si Si4 0.315108 0.900291 0.009139
Si Si5 0.877366 0.089556 0.014339
Si Si6 0.430833 0.738885 0.387263
Si Si7 0.625652 0.897279 0.503507
Si Si8 0.053812 0.219342 0.417176
O O1 0.132234 0.250000 0.750000
O O2 0.250000 0.145083 0.750000
O O3 0.144324 0.104151 0.613787
O O4 0.114742 0.109812 0.860305
O O5 0.139638 0.750000 0.750000
O O6 0.147906 0.891055 0.622477
O O7 0.099808 0.896448 0.847843
O O8 0.012044 0.817241 0.674851
O O9 0.723009 0.890286 0.520057
O O10 0.865957 0.836452 0.594553
O O11 0.835196 0.005010 0.559034
O O12 0.218972 0.897792 0.997646
O O13 0.355308 0.823763 0.084358
O O14 0.898956 0.994895 0.966140
O O15 0.916053 0.167595 0.943315
O O16 0.443896 0.750000 0.250000
O O17 0.506679 0.702367 0.459124
O O18 0.581154 0.819602 0.571898
#
# Coordination Sequence:
#
# PCOD9390395 Si02
#       8
#     8   8   8   8   8   8   8   8
#     4   9  15  27  53  90 126 161 205 263 316 361
#     4  11  22  41  60  95 127 171 218 265 333 379
#     4  10  20  37  62  97 128 170 224 272 323 380
#     4  10  22  40  69  95 124 163 220 281 325 375
#     4  11  22  43  68  95 122 168 225 276 324 378
#     4  11  26  43  62  98 128 172 211 258 339 399
#     4  10  21  37  64  96 128 171 225 274 323 381
#     4  11  23  40  62  92 139 176 210 259 325 400
#
# _framework density 22.121390999999999
#
# number of rings (size 3 to 8) (size 9 to 14) (size 15 to 20)
#    0.000    1.625    3.750    1.875    1.750    6.000 
#    2.250    0.000    0.000    3.000    0.000    0.000 
#    0.000    0.000    0.000    0.000    0.000    0.000 
#
# Total GULP energy -357497.823456 kJ/mol
# GULP energy per Si atom -5585.903491 kJ/mol
# Density = 2.207104 g / cm^3
# Si number density = 22.121391 Si / 1000 Ang^3
#
#
#
# Elastic Constant Matrix: (Units=GPa)
#
#
# Indices 1 2 3 4 5 6 
#
# 1 96.2132 48.7835 18.9669 0.0000 0.0000 0.0000
# 2 48.7835 122.8233 0.8101 0.0000 0.0000 0.0000
# 3 18.9669 0.8101 44.9642 0.0000 0.0000 0.0000
# 4 0.0000 0.0000 0.0000 8.2708 0.0000 0.0000
# 5 0.0000 0.0000 0.0000 0.0000 17.0316 0.0000
# 6 0.0000 0.0000 0.0000 0.0000 0.0000 2.4070
#
#
#
# Elastic Compliance Matrix: (Units=1/GPa)
#
#
# Indices 1 2 3 4 5 6 
#
# 1 0.014471 -0.005708 -0.006001 0.000000 0.000000 0.000000
# 2 -0.005708 0.010394 0.002220 0.000000 0.000000 0.000000
# 3 -0.006001 0.002220 0.024731 0.000000 0.000000 0.000000
# 4 0.000000 0.000000 0.000000 0.120907 0.000000 0.000000
# 5 0.000000 0.000000 0.000000 0.000000 0.058714 0.000000
# 6 0.000000 0.000000 0.000000 0.000000 0.000000 0.415458
#
#
# Mechanical properties :
#
#
# Convention : Reuss Voigt Hill
#
# Bulk Modulus (GPa) = 32.65957 44.56908 38.61432
# Shear Modulus (GPa) = 7.41994 18.57122 12.99558
#
# Velocity S-wave (km/s) = 1.83343 2.90058 2.42640
# Velocity P-wave (km/s) = 4.39065 5.60438 5.03423
#
# Compressibility (1/GPa) = 0.03061890
#
# Stress axis : x y z
#
# Youngs Moduli (GPa) = 69.10479 96.20700 40.43445
#
# Poissons Ratio (x) = 0.54915 0.24266
# Poissons Ratio (y) = 0.39445 -0.08978
# Poissons Ratio (z) = 0.41472 -0.21363
#
# Static dielectric constant tensor:
#      x y z
#    x 1.812890 0.000000 0.000000 
#    y 0.000000 1.831100 0.000000 
#    z 0.000000 0.000000 1.828440 
# 
# From -- ./inp_files/22351.got.cif
#   From: 2010.05.17/outbox.cif.g08.bks.cpg/sg48_12_cif.got.tgz:22351.got - 2010.06.03 20:39:00.
