data_PCOD9390513
_publ_section_title
;
Structure prediction by ZEFSAII (Michael W. Deem and Ramdas Pophale) SiO2 
 PCOD9390513
Probable space group: P N N N
;
_chemical_formula_sum "Si O2"
_cell_formula_units_Z 64
_cell_length_a 17.683587
_cell_length_b 14.240386
_cell_length_c 12.362534
_cell_angle_alpha 90.000000
_cell_angle_beta 90.000000
_cell_angle_gamma 90.000000
_cell_volume 3113.146969
_symmetry_space_group_name_H-M "P N N N"
_symmetry_group_IT_number 48
_space_group.IT_coordinate_system_code '2'
_symmetry_cell_setting 'orthorhombic'
loop_
_space_group_symop_operation_xyz
x,y,z
1/2-x,1/2-y,z
x,1/2-y,1/2-z
1/2-x,y,1/2-z
-x,-y,-z
1/2+x,1/2+y,-z
-x,1/2+y,1/2+z
1/2+x,-y,1/2+z
loop_
_atom_site_type_symbol
_atom_site_label
_atom_site_fract_x
_atom_site_fract_y
_atom_site_fract_z
Si Si1 0.202878 0.546270 0.556862
Si Si2 0.424071 0.947844 0.136640
Si Si3 0.583808 0.701764 0.866982
Si Si4 0.734853 0.647335 0.376064
Si Si5 0.318528 0.682841 0.488376
Si Si6 0.588013 0.187067 0.357503
Si Si7 0.574109 0.877207 0.029877
Si Si8 0.173311 0.479591 0.324478
O O1 0.215207 0.438591 0.583733
O O2 0.279063 0.608048 0.569277
O O3 0.140294 0.596038 0.630135
O O4 0.185212 0.546160 0.428256
O O5 0.358035 0.876434 0.103452
O O6 0.502193 0.894896 0.107758
O O7 0.397731 0.984871 0.252924
O O8 0.424063 0.038261 0.057363
O O9 0.593343 0.750000 0.750000
O O10 0.499185 0.659372 0.867794
O O11 0.647992 0.622416 0.869625
O O12 0.579274 0.781198 0.960083
O O13 0.750000 0.750000 0.425960
O O14 0.750000 0.654212 0.250000
O O15 0.649184 0.620013 0.399847
O O16 0.250000 0.750000 0.453932
O O17 0.381722 0.744532 0.547902
O O18 0.597127 0.250000 0.250000
O O19 0.250000 0.474272 0.250000
#
# Coordination Sequence:
#
# PCOD9390513 Si02
#       8
#     8   8   8   8   8   8   8   8
#     4  11  24  42  68 100 135 177 225 291 343 409
#     4  11  22  40  68  97 132 182 225 277 346 415
#     4  11  23  41  67 104 137 179 231 292 337 402
#     4  11  25  44  67  94 133 183 229 274 337 412
#     4  10  20  39  65  96 130 171 221 275 342 405
#     4  10  24  42  70 102 133 169 230 290 350 408
#     4  11  22  42  69  96 136 178 231 283 336 411
#     4  12  24  42  65 102 142 182 232 278 355 413
#
# _framework density 20.557976
#
# number of rings (size 3 to 8) (size 9 to 14) (size 15 to 20)
#    0.000    1.125    5.000    0.750    1.750    3.500 
#    0.000    6.875    0.000    0.000    0.000    0.000 
#    0.000    0.000    0.000    0.000    0.000    0.000 
#
# Total GULP energy -357180.561317 kJ/mol
# GULP energy per Si atom -5580.946271 kJ/mol
# Density = 2.051119 g / cm^3
# Si number density = 20.557976 Si / 1000 Ang^3
#
#
#
# Elastic Constant Matrix: (Units=GPa)
#
#
# Indices 1 2 3 4 5 6 
#
# 1 68.1179 28.3060 46.0292 0.0000 0.0000 0.0000
# 2 28.3060 112.3924 27.8194 0.0000 0.0000 0.0000
# 3 46.0292 27.8194 67.6216 0.0000 0.0000 0.0000
# 4 0.0000 0.0000 0.0000 32.5113 0.0000 0.0000
# 5 0.0000 0.0000 0.0000 0.0000 -24.5210 0.0000
# 6 0.0000 0.0000 0.0000 0.0000 0.0000 29.1824
#
#
#
# Elastic Compliance Matrix: (Units=1/GPa)
#
#
# Indices 1 2 3 4 5 6 
#
# 1 0.027842 -0.002584 -0.017889 0.000000 0.000000 0.000000
# 2 -0.002584 0.010146 -0.002415 0.000000 0.000000 0.000000
# 3 -0.017889 -0.002415 0.027958 0.000000 0.000000 0.000000
# 4 0.000000 0.000000 0.000000 0.030759 0.000000 0.000000
# 5 0.000000 0.000000 0.000000 0.000000 -0.040781 0.000000
# 6 0.000000 0.000000 0.000000 0.000000 0.000000 0.034267
#
#
# Mechanical properties :
#
#
# Convention : Reuss Voigt Hill
#
# Bulk Modulus (GPa) = 49.57693 50.27123 49.92408
# Shear Modulus (GPa) = 35.04090 17.16636 26.10363
#
# Velocity S-wave (km/s) = 4.13303 2.89281 3.56723
# Velocity P-wave (km/s) = 6.85156 5.97196 6.42683
#
# Compressibility (1/GPa) = 0.02017067
#
# Stress axis : x y z
#
# Youngs Moduli (GPa) = 35.91667 98.56110 35.76751
#
# Poissons Ratio (x) = 0.25471 0.63984
# Poissons Ratio (y) = 0.09282 0.08638
# Poissons Ratio (z) = 0.64250 0.23802
#
# Static dielectric constant tensor:
#      x y z
#    x 1.680590 0.000000 0.000000 
#    y 0.000000 1.764430 0.000000 
#    z 0.000000 0.000000 1.737790 
# 
# From -- ./inp_files/22339.got.cif
#   From: 2010.05.17/outbox.cif.g08.bks.cpg/sg48_12_cif.got.tgz:22339.got - 2010.06.03 20:39:00.
