data_PCOD9390449
_publ_section_title
;
Structure prediction by ZEFSAII (Michael W. Deem and Ramdas Pophale) SiO2 
 PCOD9390449
Probable space group: P N N N
;
_chemical_formula_sum "Si O2"
_cell_formula_units_Z 64
_cell_length_a 7.410807
_cell_length_b 12.513301
_cell_length_c 29.487423
_cell_angle_alpha 90.000000
_cell_angle_beta 90.000000
_cell_angle_gamma 90.000000
_cell_volume 2734.476619
_symmetry_space_group_name_H-M "P N N N"
_symmetry_group_IT_number 48
_space_group.IT_coordinate_system_code '2'
_symmetry_cell_setting 'orthorhombic'
loop_
_space_group_symop_operation_xyz
x,y,z
1/2-x,1/2-y,z
x,1/2-y,1/2-z
1/2-x,y,1/2-z
-x,-y,-z
1/2+x,1/2+y,-z
-x,1/2+y,1/2+z
1/2+x,-y,1/2+z
loop_
_atom_site_type_symbol
_atom_site_label
_atom_site_fract_x
_atom_site_fract_y
_atom_site_fract_z
Si Si1 0.555979 0.255190 0.115458
Si Si2 0.422700 0.055000 0.155342
Si Si3 0.018657 0.154671 0.901603
Si Si4 0.988960 0.972746 0.842429
Si Si5 0.527982 0.874396 0.750995
Si Si6 0.999964 0.166992 0.481367
Si Si7 0.884223 0.604973 0.493659
Si Si8 0.903204 0.108494 0.579921
O O1 0.750000 0.250000 0.138625
O O2 0.417486 0.179857 0.141591
O O3 0.507274 0.380303 0.118406
O O4 0.579651 0.189929 0.068052
O O5 0.224103 0.011457 0.164092
O O6 0.522742 0.060861 0.203420
O O7 0.480871 0.985786 0.111582
O O8 0.993503 0.281659 0.901561
O O9 0.814415 0.115748 0.914399
O O10 0.157487 0.117231 0.940554
O O11 0.068692 0.085380 0.857956
O O12 0.048500 0.926409 0.794583
O O13 0.476372 0.750000 0.750000
O O14 0.750000 0.875113 0.750000
O O15 0.998948 0.289364 0.498465
O O16 0.205788 0.124495 0.476786
O O17 0.928363 0.102900 0.525141
O O18 0.000000 0.500000 0.500000
#
# Coordination Sequence:
#
# PCOD9390449 Si02
#       8
#     8   8   8   8   8   8   8   8
#     4  12  26  37  56  88 124 154 199 253 304 363
#     4  10  21  37  61  85 117 160 195 244 304 368
#     4   9  19  36  59  82 112 158 199 244 290 347
#     4  10  20  38  63  87 118 153 197 248 303 365
#     4   9  16  33  60  90 115 147 192 241 306 368
#     4  10  24  38  55  81 120 159 200 251 296 353
#     4  10  21  36  58  82 110 152 209 247 294 356
#     4   9  20  38  55  81 119 157 200 241 294 345
#
# _framework density 23.404844000000001
#
# number of rings (size 3 to 8) (size 9 to 14) (size 15 to 20)
#    0.000    2.125    1.250    1.125   10.500    2.500 
#    0.000    1.875    0.000    3.750    0.000    0.000 
#    0.000    6.000    0.000    0.000    0.000    0.000 
#
# Total GULP energy -356914.933078 kJ/mol
# GULP energy per Si atom -5576.795829 kJ/mol
# Density = 2.335157 g / cm^3
# Si number density = 23.404844 Si / 1000 Ang^3
#
#
#
# Elastic Constant Matrix: (Units=GPa)
#
#
# Indices 1 2 3 4 5 6 
#
# 1 52.8648 13.1251 12.5926 0.0000 0.0000 0.0000
# 2 13.1251 134.2862 46.2962 0.0000 0.0000 0.0000
# 3 12.5926 46.2962 114.5438 0.0000 0.0000 0.0000
# 4 0.0000 0.0000 0.0000 39.7955 0.0000 0.0000
# 5 0.0000 0.0000 0.0000 0.0000 8.2472 0.0000
# 6 0.0000 0.0000 0.0000 0.0000 0.0000 20.9934
#
#
#
# Elastic Compliance Matrix: (Units=1/GPa)
#
#
# Indices 1 2 3 4 5 6 
#
# 1 0.019638 -0.001365 -0.001607 0.000000 0.000000 0.000000
# 2 -0.001365 0.008747 -0.003385 0.000000 0.000000 0.000000
# 3 -0.001607 -0.003385 0.010275 0.000000 0.000000 0.000000
# 4 0.000000 0.000000 0.000000 0.025128 0.000000 0.000000
# 5 0.000000 0.000000 0.000000 0.000000 0.121253 0.000000
# 6 0.000000 0.000000 0.000000 0.000000 0.000000 0.047634
#
#
# Mechanical properties :
#
#
# Convention : Reuss Voigt Hill
#
# Bulk Modulus (GPa) = 38.54316 49.52472 44.03394
# Shear Modulus (GPa) = 19.68195 29.11929 24.40062
#
# Velocity S-wave (km/s) = 2.90303 3.53109 3.23235
# Velocity P-wave (km/s) = 5.26693 6.15067 5.72588
#
# Compressibility (1/GPa) = 0.02594494
#
# Stress axis : x y z
#
# Youngs Moduli (GPa) = 50.92174 114.32004 97.32104
#
# Poissons Ratio (x) = 0.15609 0.15640
# Poissons Ratio (y) = 0.06953 0.32947
# Poissons Ratio (z) = 0.08184 0.38702
#
# Static dielectric constant tensor:
#      x y z
#    x 1.943000 0.000000 0.000000 
#    y 0.000000 1.861730 0.000000 
#    z 0.000000 0.000000 2.012740 
# 
# From -- ./inp_files/38815.got.cif
#   From: 2010.05.17/outbox.cif.g08.bks.cpg/sg48_20_cif.got.tgz:38815.got - 2010.06.03 20:39:00.
