data_PCOD9390764
_publ_section_title
;
Structure prediction by ZEFSAII (Michael W. Deem and Ramdas Pophale) SiO2 
 PCOD9390764
Probable space group: P N N N
;
_chemical_formula_sum "Si O2"
_cell_formula_units_Z 56
_cell_length_a 14.573562
_cell_length_b 9.361083
_cell_length_c 18.300951
_cell_angle_alpha 90.000000
_cell_angle_beta 90.000000
_cell_angle_gamma 90.000000
_cell_volume 2496.694859
_symmetry_space_group_name_H-M "P N N N"
_symmetry_group_IT_number 48
_space_group.IT_coordinate_system_code '2'
_symmetry_cell_setting 'orthorhombic'
loop_
_space_group_symop_operation_xyz
x,y,z
1/2-x,1/2-y,z
x,1/2-y,1/2-z
1/2-x,y,1/2-z
-x,-y,-z
1/2+x,1/2+y,-z
-x,1/2+y,1/2+z
1/2+x,-y,1/2+z
loop_
_atom_site_type_symbol
_atom_site_label
_atom_site_fract_x
_atom_site_fract_y
_atom_site_fract_z
Si Si1 0.814316 0.609987 0.044782
Si Si2 0.720412 0.916789 0.882817
Si Si3 0.925252 0.518731 0.630761
Si Si4 0.543994 0.027835 0.802010
Si Si5 0.455273 0.742566 0.664517
Si Si6 0.954263 0.787930 0.126469
Si Si7 0.802704 0.017474 0.171868
O O1 0.750000 0.750000 0.038863
O O2 0.907487 0.679472 0.071259
O O3 0.767772 0.508863 0.105579
O O4 0.817466 0.551023 0.963563
O O5 0.750000 0.750000 0.871934
O O6 0.817974 0.994123 0.876542
O O7 0.642979 0.970157 0.827661
O O8 0.954100 0.484851 0.714500
O O9 0.967109 0.675732 0.618071
O O10 0.982910 0.403991 0.586088
O O11 0.518066 0.186824 0.824783
O O12 0.467633 0.926408 0.842073
O O13 0.481529 0.750000 0.750000
O O14 0.362610 0.837387 0.659942
O O15 0.873157 0.880900 0.166809
O O16 0.750000 0.021199 0.250000
#
# Coordination Sequence:
#
# PCOD9390764 Si02
#       7
#     8   8   8   8   8   8   8
#     4   9  22  41  61  91 122 170 221 251 325 399
#     4  11  22  42  63  90 128 174 214 265 322 398
#     4  10  21  38  66  94 123 166 217 266 315 390
#     4  11  22  37  67  93 132 162 211 269 330 379
#     4   9  20  37  56  99 124 155 205 253 318 377
#     4  10  23  41  62  95 125 164 217 269 330 382
#     4  10  22  40  67  88 125 169 208 264 316 389
#
# _framework density 22.429653999999999
#
# number of rings (size 3 to 8) (size 9 to 14) (size 15 to 20)
#    0.000    2.000    1.429    0.857    8.000    4.000 
#    2.571    4.286    3.143    0.000    0.000    0.000 
#    0.000    0.000    0.000    0.000    0.000    0.000 
#
# Total GULP energy -312364.211157 kJ/mol
# GULP energy per Si atom -5577.932342 kJ/mol
# Density = 2.237860 g / cm^3
# Si number density = 22.429654 Si / 1000 Ang^3
#
#
#
# Elastic Constant Matrix: (Units=GPa)
#
#
# Indices 1 2 3 4 5 6 
#
# 1 110.5600 30.0899 15.4706 0.0000 0.0000 0.0000
# 2 30.0899 110.2482 4.8011 0.0000 0.0000 0.0000
# 3 15.4706 4.8011 44.0224 0.0000 0.0000 0.0000
# 4 0.0000 0.0000 0.0000 6.9150 0.0000 0.0000
# 5 0.0000 0.0000 0.0000 0.0000 -2.0525 0.0000
# 6 0.0000 0.0000 0.0000 0.0000 0.0000 29.9634
#
#
#
# Elastic Compliance Matrix: (Units=1/GPa)
#
#
# Indices 1 2 3 4 5 6 
#
# 1 0.010228 -0.002648 -0.003306 0.000000 0.000000 0.000000
# 2 -0.002648 0.009799 -0.000138 0.000000 0.000000 0.000000
# 3 -0.003306 -0.000138 0.023892 0.000000 0.000000 0.000000
# 4 0.000000 0.000000 0.000000 0.144614 0.000000 0.000000
# 5 0.000000 0.000000 0.000000 0.000000 -0.487202 0.000000
# 6 0.000000 0.000000 0.000000 0.000000 0.000000 0.033374
#
#
# Mechanical properties :
#
#
# Convention : Reuss Voigt Hill
#
# Bulk Modulus (GPa) = 31.50940 40.61710 36.06325
# Shear Modulus (GPa) = -20.61574 21.26310 0.32368
#
# Velocity S-wave (km/s) = -3.03500 3.08229 0.38029
# Velocity P-wave (km/s) = 1.34050 5.55115 4.03808
#
# Compressibility (1/GPa) = 0.03173656
#
# Stress axis : x y z
#
# Youngs Moduli (GPa) = 97.77104 102.05060 41.85422
#
# Poissons Ratio (x) = 0.27018 0.13835
# Poissons Ratio (y) = 0.25885 0.00579
# Poissons Ratio (z) = 0.32320 0.01411
#
# Static dielectric constant tensor:
#      x y z
#    x 1.844160 0.000000 0.000000 
#    y 0.000000 1.886440 0.000000 
#    z 0.000000 0.000000 1.838660 
# 
# From -- ./inp_files/34473.got.cif
#   From: 2010.05.17/outbox.cif.g08.bks.cpg/sg48_18_cif.got.tgz:34473.got - 2010.06.03 20:39:00.
