data_PCOD9390676
_publ_section_title
;
Structure prediction by ZEFSAII (Michael W. Deem and Ramdas Pophale) SiO2 
 PCOD9390676
Probable space group: P N N N
;
_chemical_formula_sum "Si O2"
_cell_formula_units_Z 58
_cell_length_a 11.298117
_cell_length_b 24.623591
_cell_length_c 9.956043
_cell_angle_alpha 90.000000
_cell_angle_beta 90.000000
_cell_angle_gamma 90.000000
_cell_volume 2769.773274
_symmetry_space_group_name_H-M "P N N N"
_symmetry_group_IT_number 48
_space_group.IT_coordinate_system_code '2'
_symmetry_cell_setting 'orthorhombic'
loop_
_space_group_symop_operation_xyz
x,y,z
1/2-x,1/2-y,z
x,1/2-y,1/2-z
1/2-x,y,1/2-z
-x,-y,-z
1/2+x,1/2+y,-z
-x,1/2+y,1/2+z
1/2+x,-y,1/2+z
loop_
_atom_site_type_symbol
_atom_site_label
_atom_site_fract_x
_atom_site_fract_y
_atom_site_fract_z
Si Si1 0.004759 0.447743 0.090686
Si Si2 0.069444 0.007914 0.863488
Si Si3 0.750000 0.250000 0.250000
Si Si4 0.750337 0.080178 0.401439
Si Si5 0.913150 0.861735 0.149637
Si Si6 0.643174 0.856841 0.052382
Si Si7 0.077283 0.670136 0.579737
Si Si8 0.382334 0.312724 0.284728
O O1 0.988411 0.471921 0.242159
O O2 0.883879 0.416299 0.053340
O O3 0.000000 0.500000 0.000000
O O4 0.111259 0.411077 0.034888
O O5 0.069918 0.072391 0.842315
O O6 0.198537 0.980794 0.890644
O O7 0.000000 0.000000 0.000000
O O8 0.836198 0.285258 0.350121
O O9 0.750000 0.101557 0.250000
O O10 0.657332 0.119451 0.468399
O O11 0.781022 0.855312 0.089705
O O12 0.920485 0.847510 0.306444
O O13 0.995225 0.825106 0.052712
O O14 0.604007 0.813385 0.943630
O O15 0.982725 0.656604 0.699289
O O16 0.390437 0.250000 0.250000
O O17 0.250000 0.332963 0.250000
#
# Coordination Sequence:
#
# PCOD9390676 Si02
#       8
#     8   8   2   8   8   8   8   8
#     4  11  22  39  63  97 139 188 234 274 339 413
#     4  11  21  37  60  97 138 187 231 278 330 417
#     4  12  28  44  82 102 136 188 250 302 372 424
#     4  10  21  36  64  91 138 185 226 281 336 401
#     4  11  24  43  66 101 147 183 228 287 362 422
#     4  11  24  42  69 101 141 185 225 292 360 419
#     4  12  23  46  70 103 134 181 240 291 352 425
#     4  11  23  43  73 103 129 165 232 303 350 419
#
# _framework density 20.940342999999999
#
# number of rings (size 3 to 8) (size 9 to 14) (size 15 to 20)
#    0.000    0.966    5.517    2.483    3.862    0.000 
#    0.000    4.828    0.000    0.828    0.000    0.000 
#    0.000    0.000    0.000    0.000    0.000    0.000 
#
# Total GULP energy -323066.103850 kJ/mol
# GULP energy per Si atom -5570.105239 kJ/mol
# Density = 2.089268 g / cm^3
# Si number density = 20.940343 Si / 1000 Ang^3
#
#
#
# Elastic Constant Matrix: (Units=GPa)
#
#
# Indices 1 2 3 4 5 6 
#
# 1 88.1632 24.3234 47.8725 0.0000 0.0000 0.0000
# 2 24.3234 80.1692 43.5701 0.0000 0.0000 0.0000
# 3 47.8725 43.5701 171.8691 0.0000 0.0000 0.0000
# 4 0.0000 0.0000 0.0000 32.3510 0.0000 0.0000
# 5 0.0000 0.0000 0.0000 0.0000 31.5331 0.0000
# 6 0.0000 0.0000 0.0000 0.0000 0.0000 17.9538
#
#
#
# Elastic Compliance Matrix: (Units=1/GPa)
#
#
# Indices 1 2 3 4 5 6 
#
# 1 0.013759 -0.002426 -0.003217 0.000000 0.000000 0.000000
# 2 -0.002426 0.014894 -0.003100 0.000000 0.000000 0.000000
# 3 -0.003217 -0.003100 0.007500 0.000000 0.000000 0.000000
# 4 0.000000 0.000000 0.000000 0.030911 0.000000 0.000000
# 5 0.000000 0.000000 0.000000 0.000000 0.031713 0.000000
# 6 0.000000 0.000000 0.000000 0.000000 0.000000 0.055698
#
#
# Mechanical properties :
#
#
# Convention : Reuss Voigt Hill
#
# Bulk Modulus (GPa) = 53.57056 63.52594 58.54825
# Shear Modulus (GPa) = 28.06067 31.32995 29.69531
#
# Velocity S-wave (km/s) = 3.66461 3.87221 3.76984
# Velocity P-wave (km/s) = 6.59878 7.09891 6.85341
#
# Compressibility (1/GPa) = 0.01866697
#
# Stress axis : x y z
#
# Youngs Moduli (GPa) = 72.67994 67.13888 133.32475
#
# Poissons Ratio (x) = 0.16287 0.42897
# Poissons Ratio (y) = 0.17631 0.41333
# Poissons Ratio (z) = 0.23384 0.20814
#
# Static dielectric constant tensor:
#      x y z
#    x -5.388550 0.000000 0.000000 
#    y 0.000000 1.832940 0.000000 
#    z 0.000000 0.000000 0.899770 
# 
# From -- ./inp_files/11479.got.cif
#   From: 2010.05.17/outbox.cif.g08.bks.cpg/sg48_6_cif.got.tgz:11479.got - 2010.06.03 20:39:00.
