data_PCOD9390440
_publ_section_title
;
Structure prediction by ZEFSAII (Michael W. Deem and Ramdas Pophale) SiO2 
 PCOD9390440
Probable space group: P N N N
;
_chemical_formula_sum "Si O2"
_cell_formula_units_Z 64
_cell_length_a 10.692193
_cell_length_b 13.542498
_cell_length_c 20.123833
_cell_angle_alpha 90.000000
_cell_angle_beta 90.000000
_cell_angle_gamma 90.000000
_cell_volume 2913.910941
_symmetry_space_group_name_H-M "P N N N"
_symmetry_group_IT_number 48
_space_group.IT_coordinate_system_code '2'
_symmetry_cell_setting 'orthorhombic'
loop_
_space_group_symop_operation_xyz
x,y,z
1/2-x,1/2-y,z
x,1/2-y,1/2-z
1/2-x,y,1/2-z
-x,-y,-z
1/2+x,1/2+y,-z
-x,1/2+y,1/2+z
1/2+x,-y,1/2+z
loop_
_atom_site_type_symbol
_atom_site_label
_atom_site_fract_x
_atom_site_fract_y
_atom_site_fract_z
Si Si1 0.565826 0.919318 0.924185
Si Si2 0.303829 0.110942 0.678234
Si Si3 0.580992 0.344707 0.795434
Si Si4 0.594818 0.620034 0.433340
Si Si5 0.124918 0.889482 0.788056
Si Si6 0.896328 0.274720 0.418163
Si Si7 0.624433 0.551573 0.719469
Si Si8 0.886813 0.207275 0.938811
O O1 0.472663 0.826664 0.920470
O O2 0.644304 0.937201 0.858584
O O3 0.480991 0.017906 0.924956
O O4 0.642568 0.894752 0.991065
O O5 0.250000 0.134070 0.750000
O O6 0.436758 0.162786 0.681971
O O7 0.205923 0.132147 0.619741
O O8 0.334190 0.994409 0.680332
O O9 0.612323 0.250000 0.750000
O O10 0.608307 0.440833 0.750458
O O11 0.637320 0.350776 0.869729
O O12 0.491587 0.707188 0.427749
O O13 0.250000 0.855011 0.750000
O O14 0.074214 0.828521 0.849861
O O15 0.009742 0.901497 0.737523
O O16 0.750000 0.250000 0.412619
O O17 0.921002 0.334173 0.487485
O O18 0.750000 0.595711 0.750000
O O19 0.750000 0.250000 0.951670
#
# Coordination Sequence:
#
# PCOD9390440 Si02
#       8
#     8   8   8   8   8   8   8   8
#     4  10  21  38  61  92 120 167 214 251 313 379
#     4  10  20  38  61  91 123 157 205 260 314 370
#     4  11  24  39  61  91 122 163 208 258 312 382
#     4  10  20  38  64  89 124 165 208 259 309 382
#     4  10  21  41  66  93 122 158 213 268 311 370
#     4  10  20  38  64  93 121 155 211 272 316 366
#     4  11  25  42  60  92 130 169 211 255 320 389
#     4  10  23  38  57  92 126 159 206 258 313 379
#
# _framework density 21.963609000000002
#
# number of rings (size 3 to 8) (size 9 to 14) (size 15 to 20)
#    0.000    1.750    0.000    5.250    3.500    4.500 
#    2.250    3.125    0.000    0.000    0.000    0.000 
#    0.000    0.000    0.000    0.000    0.000    0.000 
#
# Total GULP energy -356900.954386 kJ/mol
# GULP energy per Si atom -5576.577412 kJ/mol
# Density = 2.191362 g / cm^3
# Si number density = 21.963609 Si / 1000 Ang^3
#
#
#
# Elastic Constant Matrix: (Units=GPa)
#
#
# Indices 1 2 3 4 5 6 
#
# 1 96.7974 -5.4058 32.6484 0.0000 0.0000 0.0000
# 2 -5.4058 35.6424 21.2132 0.0000 0.0000 0.0000
# 3 32.6484 21.2132 178.2285 0.0000 0.0000 0.0000
# 4 0.0000 0.0000 0.0000 18.0044 0.0000 0.0000
# 5 0.0000 0.0000 0.0000 0.0000 31.8410 0.0000
# 6 0.0000 0.0000 0.0000 0.0000 0.0000 4.4846
#
#
#
# Elastic Compliance Matrix: (Units=1/GPa)
#
#
# Indices 1 2 3 4 5 6 
#
# 1 0.011337 0.003181 -0.002455 0.000000 0.000000 0.000000
# 2 0.003181 0.031088 -0.004283 0.000000 0.000000 0.000000
# 3 -0.002455 -0.004283 0.006570 0.000000 0.000000 0.000000
# 4 0.000000 0.000000 0.000000 0.055542 0.000000 0.000000
# 5 0.000000 0.000000 0.000000 0.000000 0.031406 0.000000
# 6 0.000000 0.000000 0.000000 0.000000 0.000000 0.222985
#
#
# Mechanical properties :
#
#
# Convention : Reuss Voigt Hill
#
# Bulk Modulus (GPa) = 23.87775 45.28665 34.58220
# Shear Modulus (GPa) = 13.15781 28.34684 20.75232
#
# Velocity S-wave (km/s) = 2.45025 3.59643 3.07718
# Velocity P-wave (km/s) = 4.34742 6.15706 5.32961
#
# Compressibility (1/GPa) = 0.04187999
#
# Stress axis : x y z
#
# Youngs Moduli (GPa) = 88.20980 32.16694 152.20051
#
# Poissons Ratio (x) = -0.10231 0.37369
# Poissons Ratio (y) = -0.28057 0.65184
# Poissons Ratio (z) = 0.21658 0.13776
#
# Static dielectric constant tensor:
#      x y z
#    x 1.869030 0.000000 0.000000 
#    y 0.000000 1.850810 0.000000 
#    z 0.000000 0.000000 2.038970 
# 
# From -- ./inp_files/31183.got.cif
#   From: 2010.05.17/outbox.cif.g08.bks.cpg/sg48_16_cif.got.tgz:31183.got - 2010.06.03 20:39:00.
