data_PCOD9390287
_publ_section_title
;
Structure prediction by ZEFSAII (Michael W. Deem and Ramdas Pophale) SiO2 
 PCOD9390287
Probable space group: P N N N
;
_chemical_formula_sum "Si O2"
_cell_formula_units_Z 60
_cell_length_a 12.203758
_cell_length_b 18.230156
_cell_length_c 13.882531
_cell_angle_alpha 90.000000
_cell_angle_beta 90.000000
_cell_angle_gamma 90.000000
_cell_volume 3088.535688
_symmetry_space_group_name_H-M "P N N N"
_symmetry_group_IT_number 48
_space_group.IT_coordinate_system_code '2'
_symmetry_cell_setting 'orthorhombic'
loop_
_space_group_symop_operation_xyz
x,y,z
1/2-x,1/2-y,z
x,1/2-y,1/2-z
1/2-x,y,1/2-z
-x,-y,-z
1/2+x,1/2+y,-z
-x,1/2+y,1/2+z
1/2+x,-y,1/2+z
loop_
_atom_site_type_symbol
_atom_site_label
_atom_site_fract_x
_atom_site_fract_y
_atom_site_fract_z
Si Si1 0.750000 0.750000 0.550806
Si Si2 0.502087 0.539686 0.860773
Si Si3 0.949177 0.714856 0.408581
Si Si4 0.128906 0.346080 0.780080
Si Si5 0.114479 0.900383 0.038079
Si Si6 0.940684 0.994071 0.348375
Si Si7 0.266614 0.099713 0.361642
Si Si8 0.657537 0.039167 0.955747
O O1 0.849605 0.722332 0.483716
O O2 0.779976 0.820259 0.614972
O O3 0.553683 0.461769 0.895052
O O4 0.465021 0.535906 0.750486
O O5 0.603046 0.595365 0.875848
O O6 0.406654 0.565515 0.932004
O O7 0.928351 0.656977 0.322907
O O8 0.937526 0.792191 0.351530
O O9 0.058472 0.679739 0.454192
O O10 0.250000 0.321899 0.750000
O O11 0.137085 0.425915 0.824912
O O12 0.243725 0.904134 0.059668
O O13 0.890964 0.039851 0.436455
O O14 0.054328 0.957499 0.384677
O O15 0.250000 0.078887 0.250000
O O16 0.210468 0.040426 0.431351
#
# Coordination Sequence:
#
# PCOD9390287 Si02
#       8
#     4   8   8   8   8   8   8   8
#     4  12  21  33  56  86 122 154 194 255 315 386
#     4  10  20  35  60  85 120 156 205 248 312 370
#     4  11  20  37  54  88 124 152 198 247 315 384
#     4  11  22  34  59  89 122 158 194 256 324 375
#     4  10  21  36  58  87 120 167 202 250 308 386
#     4  11  22  39  58  90 123 163 212 269 312 379
#     4  11  21  37  56  85 119 159 201 253 316 378
#     4  10  24  38  59  86 124 165 207 260 324 362
#
# _framework density 19.426682
#
# number of rings (size 3 to 8) (size 9 to 14) (size 15 to 20)
#    0.000    1.333    5.333    1.400    1.867    0.000 
#    0.000    0.667    0.000    1.600    0.000    0.000 
#    0.000    0.000    0.000    0.000    0.000    0.000 
#
# Total GULP energy -334366.186617 kJ/mol
# GULP energy per Si atom -5572.769777 kJ/mol
# Density = 1.938247 g / cm^3
# Si number density = 19.426682 Si / 1000 Ang^3
#
#
#
# Elastic Constant Matrix: (Units=GPa)
#
#
# Indices 1 2 3 4 5 6 
#
# 1 77.6992 26.4016 17.5354 0.0000 0.0000 0.0000
# 2 26.4016 55.8073 11.1402 0.0000 0.0000 0.0000
# 3 17.5354 11.1402 103.8070 0.0000 0.0000 0.0000
# 4 0.0000 0.0000 0.0000 -404.3958 0.0000 0.0000
# 5 0.0000 0.0000 0.0000 0.0000 13.4644 0.0000
# 6 0.0000 0.0000 0.0000 0.0000 0.0000 23.4918
#
#
#
# Elastic Compliance Matrix: (Units=1/GPa)
#
#
# Indices 1 2 3 4 5 6 
#
# 1 0.015692 -0.007045 -0.001895 0.000000 0.000000 0.000000
# 2 -0.007045 0.021474 -0.001114 0.000000 0.000000 0.000000
# 3 -0.001895 -0.001114 0.010073 0.000000 0.000000 0.000000
# 4 0.000000 0.000000 0.000000 -0.002473 0.000000 0.000000
# 5 0.000000 0.000000 0.000000 0.000000 0.074270 0.000000
# 6 0.000000 0.000000 0.000000 0.000000 0.000000 0.042568
#
#
# Mechanical properties :
#
#
# Convention : Reuss Voigt Hill
#
# Bulk Modulus (GPa) = 36.85930 38.60754 37.73342
# Shear Modulus (GPa) = 26.21151 -61.33882 -17.56366
#
# Velocity S-wave (km/s) = 3.67720 -5.62522 -3.01009
# Velocity P-wave (km/s) = 6.08636 4.71955 2.71751
#
# Compressibility (1/GPa) = 0.02713019
#
# Stress axis : x y z
#
# Youngs Moduli (GPa) = 63.72811 46.56726 99.27624
#
# Poissons Ratio (x) = 0.32808 0.18809
# Poissons Ratio (y) = 0.44898 0.11064
# Poissons Ratio (z) = 0.12074 0.05190
#
# Static dielectric constant tensor:
#      x y z
#    x 1.836600 0.000000 0.000000 
#    y 0.000000 1.701960 0.000000 
#    z 0.000000 0.000000 1.716180 
# 
# From -- ./inp_files/26789.got.cif
#   From: 2010.05.17/outbox.cif.g08.bks.cpg/sg48_14_cif.got.tgz:26789.got - 2010.06.03 20:39:00.
