data_PCOD9390101
_publ_section_title
;
Structure prediction by ZEFSAII (Michael W. Deem and Ramdas Pophale) SiO2 
 PCOD9390101
Probable space group: P N N N
;
_chemical_formula_sum "Si O2"
_cell_formula_units_Z 48
_cell_length_a 7.239943
_cell_length_b 28.667430
_cell_length_c 10.480316
_cell_angle_alpha 90.000000
_cell_angle_beta 90.000000
_cell_angle_gamma 90.000000
_cell_volume 2175.195446
_symmetry_space_group_name_H-M "P N N N"
_symmetry_group_IT_number 48
_space_group.IT_coordinate_system_code '2'
_symmetry_cell_setting 'orthorhombic'
loop_
_space_group_symop_operation_xyz
x,y,z
1/2-x,1/2-y,z
x,1/2-y,1/2-z
1/2-x,y,1/2-z
-x,-y,-z
1/2+x,1/2+y,-z
-x,1/2+y,1/2+z
1/2+x,-y,1/2+z
loop_
_atom_site_type_symbol
_atom_site_label
_atom_site_fract_x
_atom_site_fract_y
_atom_site_fract_z
Si Si1 0.048399 0.342211 0.001276
Si Si2 0.523957 0.640071 0.991519
Si Si3 0.054156 0.498588 0.842761
Si Si4 0.475454 0.396110 0.739872
Si Si5 0.969034 0.255525 0.396149
Si Si6 0.963116 0.898853 0.734923
O O1 0.253940 0.363361 0.999254
O O2 0.955901 0.365845 0.124922
O O3 0.050393 0.287075 0.022259
O O4 0.966620 0.359680 0.869047
O O5 0.497651 0.694072 0.957210
O O6 0.452460 0.610064 0.872978
O O7 0.451353 0.620480 0.124039
O O8 0.250000 0.499531 0.750000
O O9 0.974741 0.448739 0.799320
O O10 0.968833 0.547419 0.800672
O O11 0.000000 0.500000 0.000000
O O12 0.250000 0.395280 0.750000
O O13 0.750000 0.250000 0.391983
O O14 0.037594 0.250000 0.250000
O O15 0.750000 0.883798 0.750000
#
# Coordination Sequence:
#
# PCOD9390101 Si02
#       6
#     8   8   8   8   8   8
#     4  10  19  38  63  84 118 161 206 255 314 388
#     4  10  21  38  61  90 118 161 208 264 310 384
#     4  11  23  42  67  94 130 175 218 267 334 404
#     4   9  20  39  62  88 123 159 208 255 317 386
#     4  11  23  37  57  87 121 156 206 262 322 385
#     4  10  21  37  62  92 124 159 214 265 319 384
#
# _framework density 22.066980999999998
#
# number of rings (size 3 to 8) (size 9 to 14) (size 15 to 20)
#    0.000    1.833    3.333    0.500    2.333    3.333 
#    0.000    4.167    0.000    0.000    0.000    0.000 
#    0.000    0.000    0.000    0.000    0.000    0.000 
#
# Total GULP energy -267229.276685 kJ/mol
# GULP energy per Si atom -5567.276598 kJ/mol
# Density = 2.201676 g / cm^3
# Si number density = 22.066981 Si / 1000 Ang^3
#
#
#
# Elastic Constant Matrix: (Units=GPa)
#
#
# Indices 1 2 3 4 5 6 
#
# 1 64.9319 -41.3749 6.3673 0.0000 0.0000 0.0000
# 2 -41.3749 152.1298 121.8219 0.0000 0.0000 0.0000
# 3 6.3673 121.8219 242.9625 0.0000 0.0000 0.0000
# 4 0.0000 0.0000 0.0000 45.8791 0.0000 0.0000
# 5 0.0000 0.0000 0.0000 0.0000 -1.1196 0.0000
# 6 0.0000 0.0000 0.0000 0.0000 0.0000 18.8080
#
#
#
# Elastic Compliance Matrix: (Units=1/GPa)
#
#
# Indices 1 2 3 4 5 6 
#
# 1 0.023283 0.011397 -0.006325 0.000000 0.000000 0.000000
# 2 0.011397 0.016562 -0.008603 0.000000 0.000000 0.000000
# 3 -0.006325 -0.008603 0.008595 0.000000 0.000000 0.000000
# 4 0.000000 0.000000 0.000000 0.021796 0.000000 0.000000
# 5 0.000000 0.000000 0.000000 0.000000 -0.893164 0.000000
# 6 0.000000 0.000000 0.000000 0.000000 0.000000 0.053169
#
#
# Mechanical properties :
#
#
# Convention : Reuss Voigt Hill
#
# Bulk Modulus (GPa) = 24.16675 70.40584 47.28630
# Shear Modulus (GPa) = -6.67642 37.59415 15.45887
#
# Velocity S-wave (km/s) = -1.74129 4.13199 2.64965
# Velocity P-wave (km/s) = 2.63297 7.39860 5.55301
#
# Compressibility (1/GPa) = 0.04137916
#
# Stress axis : x y z
#
# Youngs Moduli (GPa) = 42.94947 60.37929 116.34520
#
# Poissons Ratio (x) = -0.68814 0.73584
# Poissons Ratio (y) = -0.48949 1.00090
# Poissons Ratio (z) = 0.27164 0.51944
#
# Static dielectric constant tensor:
#      x y z
#    x 1.872680 0.000000 0.000000 
#    y 0.000000 1.809340 0.000000 
#    z 0.000000 0.000000 2.024120 
# 
# From -- ./inp_files/9441.got.cif
#   From: 2010.05.17/outbox.cif.g08.bks.cpg/sg48_5_cif.got.tgz:9441.got - 2010.06.03 20:39:00.
