data_PCOD9390517
_publ_section_title
;
Structure prediction by ZEFSAII (Michael W. Deem and Ramdas Pophale) SiO2 
 PCOD9390517
Probable space group: P N N N
;
_chemical_formula_sum "Si O2"
_cell_formula_units_Z 56
_cell_length_a 15.615736
_cell_length_b 20.382290
_cell_length_c 9.001620
_cell_angle_alpha 90.000000
_cell_angle_beta 90.000000
_cell_angle_gamma 90.000000
_cell_volume 2865.075758
_symmetry_space_group_name_H-M "P N N N"
_symmetry_group_IT_number 48
_space_group.IT_coordinate_system_code '2'
_symmetry_cell_setting 'orthorhombic'
loop_
_space_group_symop_operation_xyz
x,y,z
1/2-x,1/2-y,z
x,1/2-y,1/2-z
1/2-x,y,1/2-z
-x,-y,-z
1/2+x,1/2+y,-z
-x,1/2+y,1/2+z
1/2+x,-y,1/2+z
loop_
_atom_site_type_symbol
_atom_site_label
_atom_site_fract_x
_atom_site_fract_y
_atom_site_fract_z
Si Si1 0.570315 0.547042 0.574887
Si Si2 0.015887 0.826548 0.957180
Si Si3 0.030729 0.677676 0.896229
Si Si4 0.222377 0.652897 0.915361
Si Si5 0.744803 0.503307 0.424640
Si Si6 0.334125 0.817992 0.333543
Si Si7 0.423156 0.457468 0.072067
O O1 0.500000 0.500000 0.500000
O O2 0.534237 0.620685 0.559258
O O3 0.661820 0.535801 0.499060
O O4 0.576374 0.532328 0.750562
O O5 0.941524 0.880619 0.959891
O O6 0.998237 0.748384 0.953353
O O7 0.047198 0.831669 0.782881
O O8 0.075899 0.844858 0.100754
O O9 0.125389 0.667453 0.960293
O O10 0.250000 0.667915 0.750000
O O11 0.235028 0.575143 0.937029
O O12 0.290675 0.691822 0.009071
O O13 0.750000 0.519479 0.250000
O O14 0.832776 0.522304 0.504037
O O15 0.349649 0.750000 0.250000
O O16 0.250000 0.851222 0.250000
O O17 0.500000 0.500000 0.000000
#
# Coordination Sequence:
#
# PCOD9390517 Si02
#       7
#     8   8   8   8   8   8   8
#     4  11  22  42  67 100 126 169 220 273 333 390
#     4  10  22  41  59  89 125 172 215 261 325 385
#     4  10  20  39  67  89 121 167 222 265 310 394
#     4  11  21  38  65  87 127 176 215 256 322 405
#     4  11  24  43  67  97 131 171 223 273 330 393
#     4  11  22  36  50  88 130 159 206 259 322 388
#     4  11  24  42  69  93 132 174 219 276 325 392
#
# _framework density 19.545731
#
# number of rings (size 3 to 8) (size 9 to 14) (size 15 to 20)
#    0.000    1.286    2.857    3.857    4.000    2.286 
#   10.286    0.714    0.000    4.286    0.000    0.000 
#    0.000    0.000    0.000    0.000    0.000    0.000 
#
# Total GULP energy -312105.996054 kJ/mol
# GULP energy per Si atom -5573.321358 kJ/mol
# Density = 1.950124 g / cm^3
# Si number density = 19.545731 Si / 1000 Ang^3
#
#
#
# Elastic Constant Matrix: (Units=GPa)
#
#
# Indices 1 2 3 4 5 6 
#
# 1 138.7652 58.1480 65.5440 0.0000 0.0000 0.0000
# 2 58.1480 96.7601 51.0650 0.0000 0.0000 0.0000
# 3 65.5440 51.0650 115.7362 0.0000 0.0000 0.0000
# 4 0.0000 0.0000 0.0000 33.4792 0.0000 0.0000
# 5 0.0000 0.0000 0.0000 0.0000 38.2345 0.0000
# 6 0.0000 0.0000 0.0000 0.0000 0.0000 13.1737
#
#
#
# Elastic Compliance Matrix: (Units=1/GPa)
#
#
# Indices 1 2 3 4 5 6 
#
# 1 0.011094 -0.004369 -0.004355 0.000000 0.000000 0.000000
# 2 -0.004369 0.015192 -0.004229 0.000000 0.000000 0.000000
# 3 -0.004355 -0.004229 0.012973 0.000000 0.000000 0.000000
# 4 0.000000 0.000000 0.000000 0.029869 0.000000 0.000000
# 5 0.000000 0.000000 0.000000 0.000000 0.026154 0.000000
# 6 0.000000 0.000000 0.000000 0.000000 0.000000 0.075909
#
#
# Mechanical properties :
#
#
# Convention : Reuss Voigt Hill
#
# Bulk Modulus (GPa) = 74.88879 77.86392 76.37636
# Shear Modulus (GPa) = 24.80795 28.74444 26.77620
#
# Velocity S-wave (km/s) = 3.56648 3.83903 3.70527
# Velocity P-wave (km/s) = 7.44027 7.71843 7.58063
#
# Compressibility (1/GPa) = 0.01335313
#
# Stress axis : x y z
#
# Youngs Moduli (GPa) = 90.13690 65.82441 77.08412
#
# Poissons Ratio (x) = 0.28755 0.33574
# Poissons Ratio (y) = 0.39376 0.32599
# Poissons Ratio (z) = 0.39259 0.27837
#
# Static dielectric constant tensor:
#      x y z
#    x 1.847820 0.000000 0.000000 
#    y 0.000000 1.715820 0.000000 
#    z 0.000000 0.000000 1.826270 
# 
# From -- ./inp_files/13091.got.cif
#   From: 2010.05.17/outbox.cif.g08.bks.cpg/sg48_7_cif.got.tgz:13091.got - 2010.06.03 20:39:00.
