data_PCOD9390813
_publ_section_title
;
Structure prediction by ZEFSAII (Michael W. Deem and Ramdas Pophale) SiO2 
 PCOD9390813
Probable space group: P N N N
;
_chemical_formula_sum "Si O2"
_cell_formula_units_Z 48
_cell_length_a 10.444625
_cell_length_b 14.728311
_cell_length_c 16.355903
_cell_angle_alpha 90.000000
_cell_angle_beta 90.000000
_cell_angle_gamma 90.000000
_cell_volume 2516.056123
_symmetry_space_group_name_H-M "P N N N"
_symmetry_group_IT_number 48
_space_group.IT_coordinate_system_code '2'
_symmetry_cell_setting 'orthorhombic'
loop_
_space_group_symop_operation_xyz
x,y,z
1/2-x,1/2-y,z
x,1/2-y,1/2-z
1/2-x,y,1/2-z
-x,-y,-z
1/2+x,1/2+y,-z
-x,1/2+y,1/2+z
1/2+x,-y,1/2+z
loop_
_atom_site_type_symbol
_atom_site_label
_atom_site_fract_x
_atom_site_fract_y
_atom_site_fract_z
Si Si1 0.048334 0.030923 0.588594
Si Si2 0.401435 0.234951 0.848457
Si Si3 0.625820 0.346741 0.207165
Si Si4 0.176832 0.554848 0.557884
Si Si5 0.104994 0.028624 0.255842
Si Si6 0.546896 0.411931 0.894274
O O1 0.063521 0.136470 0.614744
O O2 0.189768 0.986783 0.587760
O O3 0.000000 0.000000 0.500000
O O4 0.948075 0.992860 0.654728
O O5 0.250000 0.250000 0.863678
O O6 0.419096 0.250000 0.750000
O O7 0.486804 0.312280 0.891020
O O8 0.616840 0.250000 0.250000
O O9 0.750000 0.392751 0.250000
O O10 0.651896 0.354403 0.110978
O O11 0.494958 0.398245 0.222634
O O12 0.156787 0.575400 0.462404
O O13 0.067871 0.481233 0.581790
O O14 0.250000 0.061108 0.250000
O O15 0.094102 0.942436 0.195088
#
# Coordination Sequence:
#
# PCOD9390813 Si02
#       6
#     8   8   8   8   8   8
#     4  12  24  40  64  98 136 180 227 287 354 430
#     4  11  22  40  71 102 129 174 244 296 347 422
#     4  10  21  39  67  92 122 171 228 279 331 415
#     4  10  21  40  65  93 128 174 221 277 350 415
#     4  11  23  41  63  93 133 178 220 280 353 410
#     4  10  21  40  66  94 131 169 219 291 346 411
#
# _framework density 19.077476000000001
#
# number of rings (size 3 to 8) (size 9 to 14) (size 15 to 20)
#    0.000    1.333    5.000    1.000    0.000    1.667 
#    0.000    3.333    0.000    0.000    0.000    0.000 
#    0.000    0.000    0.000    0.000    0.000    0.000 
#
# Total GULP energy -267569.818376 kJ/mol
# GULP energy per Si atom -5574.371216 kJ/mol
# Density = 1.903405 g / cm^3
# Si number density = 19.077476 Si / 1000 Ang^3
#
#
#
# Elastic Constant Matrix: (Units=GPa)
#
#
# Indices 1 2 3 4 5 6 
#
# 1 124.9258 38.1813 42.7881 0.0000 0.0000 0.0000
# 2 38.1813 104.6483 47.8086 0.0000 0.0000 0.0000
# 3 42.7881 47.8086 154.7270 0.0000 0.0000 0.0000
# 4 0.0000 0.0000 0.0000 26.9296 0.0000 0.0000
# 5 0.0000 0.0000 0.0000 0.0000 33.3867 0.0000
# 6 0.0000 0.0000 0.0000 0.0000 0.0000 -5.4871
#
#
#
# Elastic Compliance Matrix: (Units=1/GPa)
#
#
# Indices 1 2 3 4 5 6 
#
# 1 0.009420 -0.002616 -0.001797 0.000000 0.000000 0.000000
# 2 -0.002616 0.011853 -0.002939 0.000000 0.000000 0.000000
# 3 -0.001797 -0.002939 0.007868 0.000000 0.000000 0.000000
# 4 0.000000 0.000000 0.000000 0.037134 0.000000 0.000000
# 5 0.000000 0.000000 0.000000 0.000000 0.029952 0.000000
# 6 0.000000 0.000000 0.000000 0.000000 0.000000 -0.182245
#
#
# Mechanical properties :
#
#
# Convention : Reuss Voigt Hill
#
# Bulk Modulus (GPa) = 69.26472 71.31744 70.29108
# Shear Modulus (GPa) = -75.18408 28.00072 -23.59168
#
# Velocity S-wave (km/s) = -6.28454 3.83526 -3.52038
# Velocity P-wave (km/s) = 4.03419 7.55490 4.51674
#
# Compressibility (1/GPa) = 0.01443736
#
# Stress axis : x y z
#
# Youngs Moduli (GPa) = 106.16126 84.36722 127.09830
#
# Poissons Ratio (x) = 0.22071 0.22834
# Poissons Ratio (y) = 0.27772 0.37354
# Poissons Ratio (z) = 0.19073 0.24795
#
# Static dielectric constant tensor:
#      x y z
#    x 1.537040 0.000000 0.000000 
#    y 0.000000 1.661070 0.000000 
#    z 0.000000 0.000000 1.693490 
# 
# From -- ./inp_files/30254.got.cif
#   From: 2010.05.17/outbox.cif.g08.bks.cpg/sg48_16_cif.got.tgz:30254.got - 2010.06.03 20:39:00.
