data_PCOD9390504
_publ_section_title
;
Structure prediction by ZEFSAII (Michael W. Deem and Ramdas Pophale) SiO2 
 PCOD9390504
Probable space group: P N N N
;
_chemical_formula_sum "Si O2"
_cell_formula_units_Z 48
_cell_length_a 25.125029
_cell_length_b 13.567439
_cell_length_c 5.724178
_cell_angle_alpha 90.000000
_cell_angle_beta 90.000000
_cell_angle_gamma 90.000000
_cell_volume 1951.270953
_symmetry_space_group_name_H-M "P N N N"
_symmetry_group_IT_number 48
_space_group.IT_coordinate_system_code '2'
_symmetry_cell_setting 'orthorhombic'
loop_
_space_group_symop_operation_xyz
x,y,z
1/2-x,1/2-y,z
x,1/2-y,1/2-z
1/2-x,y,1/2-z
-x,-y,-z
1/2+x,1/2+y,-z
-x,1/2+y,1/2+z
1/2+x,-y,1/2+z
loop_
_atom_site_type_symbol
_atom_site_label
_atom_site_fract_x
_atom_site_fract_y
_atom_site_fract_z
Si Si1 0.750000 0.410735 0.750000
Si Si2 0.501310 0.356750 0.613579
Si Si3 0.437379 0.750000 0.750000
Si Si4 0.848885 0.346135 0.479077
Si Si5 0.586865 0.992072 0.713793
Si Si6 0.888991 0.638432 0.315724
Si Si7 0.678026 0.016520 0.103745
O O1 0.801174 0.349340 0.663126
O O2 0.767826 0.480534 0.961100
O O3 0.506623 0.250000 0.750000
O O4 0.524170 0.333393 0.355363
O O5 0.533764 0.449358 0.715991
O O6 0.439525 0.383593 0.643953
O O7 0.393664 0.763137 0.541990
O O8 0.888762 0.437624 0.513452
O O9 0.822654 0.377859 0.234186
O O10 0.588914 0.887688 0.576931
O O11 0.630738 0.007247 0.914456
O O12 0.876660 0.750000 0.250000
O O13 0.836108 0.575091 0.266828
#
# Coordination Sequence:
#
# PCOD9390504 Si02
#       7
#     4   8   4   8   8   8   8
#     4  10  22  42  71  89 124 170 222 274 346 390
#     4  11  22  38  61  96 139 180 215 259 330 416
#     4  12  22  38  67  96 144 179 220 268 330 404
#     4  10  21  39  65  95 126 170 215 272 326 403
#     4  10  20  39  64  90 129 173 214 271 325 397
#     4  10  24  40  63  96 132 169 223 279 335 408
#     4  10  21  41  66  91 122 166 221 278 334 395
#
# _framework density 24.599350999999999
#
# number of rings (size 3 to 8) (size 9 to 14) (size 15 to 20)
#    0.000    1.667    3.333    1.000    0.000    4.000 
#    0.000    2.500    3.667   29.000    0.000    0.000 
#    0.000    0.000    0.000    0.000    0.000    0.000 
#
# Total GULP energy -267430.768445 kJ/mol
# GULP energy per Si atom -5571.474343 kJ/mol
# Density = 2.454336 g / cm^3
# Si number density = 24.599351 Si / 1000 Ang^3
#
#
#
# Elastic Constant Matrix: (Units=GPa)
#
#
# Indices 1 2 3 4 5 6 
#
# 1 116.1052 23.3768 31.3635 0.0000 0.0000 0.0000
# 2 23.3768 89.5474 18.3607 0.0000 0.0000 0.0000
# 3 31.3635 18.3607 71.1752 0.0000 0.0000 0.0000
# 4 0.0000 0.0000 0.0000 31.2288 0.0000 0.0000
# 5 0.0000 0.0000 0.0000 0.0000 52.4092 0.0000
# 6 0.0000 0.0000 0.0000 0.0000 0.0000 26.0132
#
#
#
# Elastic Compliance Matrix: (Units=1/GPa)
#
#
# Indices 1 2 3 4 5 6 
#
# 1 0.010047 -0.001811 -0.003960 0.000000 0.000000 0.000000
# 2 -0.001811 0.012117 -0.002328 0.000000 0.000000 0.000000
# 3 -0.003960 -0.002328 0.016395 0.000000 0.000000 0.000000
# 4 0.000000 0.000000 0.000000 0.032022 0.000000 0.000000
# 5 0.000000 0.000000 0.000000 0.000000 0.019081 0.000000
# 6 0.000000 0.000000 0.000000 0.000000 0.000000 0.038442
#
#
# Mechanical properties :
#
#
# Convention : Reuss Voigt Hill
#
# Bulk Modulus (GPa) = 44.71857 47.00331 45.86094
# Shear Modulus (GPa) = 32.94757 35.51204 34.22981
#
# Velocity S-wave (km/s) = 3.66371 3.80362 3.73432
# Velocity P-wave (km/s) = 6.00959 6.19992 6.10550
#
# Compressibility (1/GPa) = 0.02236208
#
# Stress axis : x y z
#
# Youngs Moduli (GPa) = 99.52970 82.52656 60.99262
#
# Poissons Ratio (x) = 0.14945 0.24154
# Poissons Ratio (y) = 0.18024 0.14198
# Poissons Ratio (z) = 0.39416 0.19211
#
# Static dielectric constant tensor:
#      x y z
#    x 1.905010 0.000000 0.000000 
#    y 0.000000 2.045520 0.000000 
#    z 0.000000 0.000000 2.136850 
# 
# From -- ./inp_files/6508.got.cif
#   From: 2010.05.17/outbox.cif.g08.bks.cpg/sg48_4_cif.got.tgz:6508.got - 2010.06.03 20:39:00.
