data_PCOD9390030
_publ_section_title
;
Structure prediction by ZEFSAII (Michael W. Deem and Ramdas Pophale) SiO2 
 PCOD9390030
Probable space group: P N N N
;
_chemical_formula_sum "Si O2"
_cell_formula_units_Z 64
_cell_length_a 11.799185
_cell_length_b 14.440874
_cell_length_c 18.630702
_cell_angle_alpha 90.000000
_cell_angle_beta 90.000000
_cell_angle_gamma 90.000000
_cell_volume 3174.495447
_symmetry_space_group_name_H-M "P N N N"
_symmetry_group_IT_number 48
_space_group.IT_coordinate_system_code '2'
_symmetry_cell_setting 'orthorhombic'
loop_
_space_group_symop_operation_xyz
x,y,z
1/2-x,1/2-y,z
x,1/2-y,1/2-z
1/2-x,y,1/2-z
-x,-y,-z
1/2+x,1/2+y,-z
-x,1/2+y,1/2+z
1/2+x,-y,1/2+z
loop_
_atom_site_type_symbol
_atom_site_label
_atom_site_fract_x
_atom_site_fract_y
_atom_site_fract_z
Si Si1 0.664984 0.041589 0.945719
Si Si2 0.988987 0.452838 0.160661
Si Si3 0.392346 0.043943 0.414651
Si Si4 0.481193 0.779808 0.041258
Si Si5 0.115502 0.740995 0.885101
Si Si6 0.833661 0.920830 0.412638
Si Si7 0.059967 0.158300 0.208820
Si Si8 0.577911 0.597783 0.080367
O O1 0.614548 0.144250 0.940030
O O2 0.584075 0.975209 0.898840
O O3 0.791828 0.030094 0.918398
O O4 0.664635 0.003134 0.027326
O O5 0.918996 0.361076 0.140762
O O6 0.905379 0.540164 0.154173
O O7 0.044753 0.425510 0.235723
O O8 0.365459 0.122969 0.357262
O O9 0.405447 0.084251 0.494349
O O10 0.508081 0.991433 0.394564
O O11 0.598389 0.837623 0.048913
O O12 0.503163 0.689727 0.089259
O O13 0.445554 0.746908 0.961824
O O14 0.250000 0.750000 0.891253
O O15 0.059033 0.810599 0.827907
O O16 0.705877 0.896755 0.391940
O O17 0.101802 0.250000 0.250000
#
# Coordination Sequence:
#
# PCOD9390030 Si02
#       8
#     8   8   8   8   8   8   8   8
#     4  10  20  35  60  80 117 165 205 252 298 369
#     4  10  20  38  56  81 118 163 203 239 302 371
#     4  10  22  38  54  89 124 161 204 241 313 362
#     4  11  19  35  59  88 116 156 203 257 312 357
#     4  11  22  33  56  89 127 156 197 242 300 379
#     4  10  19  36  58  84 113 160 204 253 307 358
#     4  10  23  40  57  88 127 166 201 244 307 385
#     4  10  22  34  59  85 123 154 198 266 301 357
#
# _framework density 20.160684
#
# number of rings (size 3 to 8) (size 9 to 14) (size 15 to 20)
#    0.000    1.750    3.750    1.125    3.500    2.750 
#    0.000    4.375    0.000    3.000    0.000    7.000 
#    0.000    0.000    0.000    0.000    0.000    0.000 
#
# Total GULP energy -357050.302679 kJ/mol
# GULP energy per Si atom -5578.910979 kJ/mol
# Density = 2.011480 g / cm^3
# Si number density = 20.160684 Si / 1000 Ang^3
#
#
#
# Elastic Constant Matrix: (Units=GPa)
#
#
# Indices 1 2 3 4 5 6 
#
# 1 69.3288 10.7095 -8.6840 0.0000 0.0000 0.0000
# 2 10.7095 63.3477 16.4463 0.0000 0.0000 0.0000
# 3 -8.6840 16.4463 43.2882 0.0000 0.0000 0.0000
# 4 0.0000 0.0000 0.0000 27.6931 0.0000 0.0000
# 5 0.0000 0.0000 0.0000 0.0000 2.5663 0.0000
# 6 0.0000 0.0000 0.0000 0.0000 0.0000 15.1281
#
#
#
# Elastic Compliance Matrix: (Units=1/GPa)
#
#
# Indices 1 2 3 4 5 6 
#
# 1 0.015589 -0.003824 0.004580 0.000000 0.000000 0.000000
# 2 -0.003824 0.018452 -0.007777 0.000000 0.000000 0.000000
# 3 0.004580 -0.007777 0.026975 0.000000 0.000000 0.000000
# 4 0.000000 0.000000 0.000000 0.036110 0.000000 0.000000
# 5 0.000000 0.000000 0.000000 0.000000 0.389660 0.000000
# 6 0.000000 0.000000 0.000000 0.000000 0.000000 0.066102
#
#
# Mechanical properties :
#
#
# Convention : Reuss Voigt Hill
#
# Bulk Modulus (GPa) = 21.28961 23.65650 22.47305
# Shear Modulus (GPa) = 8.58240 19.57702 14.07971
#
# Velocity S-wave (km/s) = 2.06549 3.11955 2.64554
# Velocity P-wave (km/s) = 4.03376 4.97342 4.52803
#
# Compressibility (1/GPa) = 0.04697128
#
# Stress axis : x y z
#
# Youngs Moduli (GPa) = 64.14981 54.19572 37.07183
#
# Poissons Ratio (x) = 0.20727 -0.16980
# Poissons Ratio (y) = 0.24534 0.28833
# Poissons Ratio (z) = -0.29382 0.42151
#
# Static dielectric constant tensor:
#      x y z
#    x 1.740060 0.000000 0.000000 
#    y 0.000000 1.748490 0.000000 
#    z 0.000000 0.000000 1.719690 
# 
# From -- ./inp_files/22333.got.cif
#   From: 2010.05.17/outbox.cif.g08.bks.cpg/sg48_12_cif.got.tgz:22333.got - 2010.06.03 20:39:00.
