data_PCOD9390152
_publ_section_title
;
Structure prediction by ZEFSAII (Michael W. Deem and Ramdas Pophale) SiO2 
 PCOD9390152
Probable space group: P N N N
;
_chemical_formula_sum "Si O2"
_cell_formula_units_Z 64
_cell_length_a 5.120492
_cell_length_b 22.765370
_cell_length_c 27.661755
_cell_angle_alpha 90.000000
_cell_angle_beta 90.000000
_cell_angle_gamma 90.000000
_cell_volume 3224.527875
_symmetry_space_group_name_H-M "P N N N"
_symmetry_group_IT_number 48
_space_group.IT_coordinate_system_code '2'
_symmetry_cell_setting 'orthorhombic'
loop_
_space_group_symop_operation_xyz
x,y,z
1/2-x,1/2-y,z
x,1/2-y,1/2-z
1/2-x,y,1/2-z
-x,-y,-z
1/2+x,1/2+y,-z
-x,1/2+y,1/2+z
1/2+x,-y,1/2+z
loop_
_atom_site_type_symbol
_atom_site_label
_atom_site_fract_x
_atom_site_fract_y
_atom_site_fract_z
Si Si1 0.174099 0.483180 0.351376
Si Si2 0.496440 0.791564 0.452594
Si Si3 0.768779 0.557095 0.041969
Si Si4 0.713936 0.094126 0.594055
Si Si5 0.698838 0.121881 0.368562
Si Si6 0.007935 0.403554 0.218475
Si Si7 0.983089 0.935115 0.557094
Si Si8 0.997755 0.708542 0.564107
O O1 0.160072 0.553676 0.358280
O O2 0.352996 0.459473 0.307670
O O3 0.312261 0.461942 0.400313
O O4 0.914975 0.442441 0.353084
O O5 0.750000 0.750000 0.443736
O O6 0.418738 0.841806 0.413074
O O7 0.501235 0.815187 0.508268
O O8 0.250000 0.750000 0.451819
O O9 0.468565 0.561806 0.054995
O O10 0.829520 0.488280 0.042362
O O11 0.981614 0.588215 0.078202
O O12 0.830238 0.582343 0.989875
O O13 0.860644 0.116118 0.417904
O O14 0.481366 0.165252 0.389151
O O15 0.890026 0.136987 0.324432
O O16 0.250000 0.378200 0.250000
O O17 0.750000 0.417721 0.250000
O O18 0.250000 0.750000 0.570373
O O19 0.750000 0.750000 0.565435
#
# Coordination Sequence:
#
# PCOD9390152 Si02
#       8
#     8   8   8   8   8   8   8   8
#     4  10  22  35  58  89 112 144 187 235 296 351
#     4  10  21  38  53  76 116 171 209 235 271 312
#     4  10  20  30  46  75 114 153 182 228 284 315
#     4  11  21  35  53  80 116 154 197 244 267 330
#     4  11  21  38  61  85 114 145 193 241 296 353
#     4  11  23  41  62  88 116 148 175 227 312 398
#     4   9  20  29  47  78 116 146 184 224 278 341
#     4  10  24  38  56  81 113 156 206 242 277 324
#
# _framework density 19.847866
#
# number of rings (size 3 to 8) (size 9 to 14) (size 15 to 20)
#    0.000    1.750    2.500    1.500    7.000    2.500 
#    0.000    0.000    0.000    0.375    3.250    0.000 
#    0.000    0.500    4.500    0.000    0.000    0.000 
#
# Total GULP energy -356373.800284 kJ/mol
# GULP energy per Si atom -5568.340629 kJ/mol
# Density = 1.980269 g / cm^3
# Si number density = 19.847866 Si / 1000 Ang^3
#
#
#
# Elastic Constant Matrix: (Units=GPa)
#
#
# Indices 1 2 3 4 5 6 
#
# 1 88.3833 10.9746 6.7830 0.0000 0.0000 0.0000
# 2 10.9746 65.1797 -4.7808 0.0000 0.0000 0.0000
# 3 6.7830 -4.7808 26.7750 0.0000 0.0000 0.0000
# 4 0.0000 0.0000 0.0000 13.3441 0.0000 0.0000
# 5 0.0000 0.0000 0.0000 0.0000 22.9165 0.0000
# 6 0.0000 0.0000 0.0000 0.0000 0.0000 28.5832
#
#
#
# Elastic Compliance Matrix: (Units=1/GPa)
#
#
# Indices 1 2 3 4 5 6 
#
# 1 0.011854 -0.002246 -0.003404 0.000000 0.000000 0.000000
# 2 -0.002246 0.015971 0.003421 0.000000 0.000000 0.000000
# 3 -0.003404 0.003421 0.038821 0.000000 0.000000 0.000000
# 4 0.000000 0.000000 0.000000 0.074940 0.000000 0.000000
# 5 0.000000 0.000000 0.000000 0.000000 0.043637 0.000000
# 6 0.000000 0.000000 0.000000 0.000000 0.000000 0.034986
#
#
# Mechanical properties :
#
#
# Convention : Reuss Voigt Hill
#
# Bulk Modulus (GPa) = 16.08008 22.92130 19.50069
# Shear Modulus (GPa) = 20.37515 24.12616 22.25066
#
# Velocity S-wave (km/s) = 3.20748 3.49026 3.35186
# Velocity P-wave (km/s) = 4.67296 5.27410 4.98260
#
# Compressibility (1/GPa) = 0.06218876
#
# Stress axis : x y z
#
# Youngs Moduli (GPa) = 84.35654 62.61262 25.75901
#
# Poissons Ratio (x) = 0.14061 0.08769
# Poissons Ratio (y) = 0.18944 -0.08811
# Poissons Ratio (z) = 0.28716 -0.21417
#
# Static dielectric constant tensor:
#      x y z
#    x 1.769420 0.000000 0.000000 
#    y 0.000000 1.846560 0.000000 
#    z 0.000000 0.000000 1.746830 
# 
# From -- ./inp_files/37241.got.cif
#   From: 2010.05.17/outbox.cif.g08.bks.cpg/sg48_19_cif.got.tgz:37241.got - 2010.06.03 20:39:00.
