data_PCOD9390648
_publ_section_title
;
Structure prediction by ZEFSAII (Michael W. Deem and Ramdas Pophale) SiO2 
 PCOD9390648
Probable space group: P N N N
;
_chemical_formula_sum "Si O2"
_cell_formula_units_Z 32
_cell_length_a 16.621594
_cell_length_b 9.210168
_cell_length_c 8.738882
_cell_angle_alpha 90.000000
_cell_angle_beta 90.000000
_cell_angle_gamma 90.000000
_cell_volume 1337.815111
_symmetry_space_group_name_H-M "P N N N"
_symmetry_group_IT_number 48
_space_group.IT_coordinate_system_code '2'
_symmetry_cell_setting 'orthorhombic'
loop_
_space_group_symop_operation_xyz
x,y,z
1/2-x,1/2-y,z
x,1/2-y,1/2-z
1/2-x,y,1/2-z
-x,-y,-z
1/2+x,1/2+y,-z
-x,1/2+y,1/2+z
1/2+x,-y,1/2+z
loop_
_atom_site_type_symbol
_atom_site_label
_atom_site_fract_x
_atom_site_fract_y
_atom_site_fract_z
Si Si1 0.856724 0.543921 0.114738
Si Si2 0.545460 0.269687 0.417236
Si Si3 0.203337 0.887188 0.010048
Si Si4 0.888592 0.645988 0.463296
O O1 0.927516 0.435796 0.059876
O O2 0.872629 0.589990 0.290052
O O3 0.851760 0.693820 0.021997
O O4 0.773947 0.460859 0.086481
O O5 0.508448 0.250000 0.250000
O O6 0.631104 0.189539 0.419768
O O7 0.483459 0.183669 0.523878
O O8 0.250000 0.750000 0.088411
O O9 0.153088 0.026730 0.074661
#
# Coordination Sequence:
#
# PCOD9390648 Si02
#       4
#     8   8   8   8
#     4  10  22  36  59  88 123 161 213 264 309 374
#     4  11  22  36  58  91 127 163 203 262 327 380
#     4  10  21  35  59  90 120 160 208 267 312 361
#     4  11  21  36  58  92 124 163 206 266 319 374
#
# _framework density 23.919598000000001
#
# number of rings (size 3 to 8) (size 9 to 14) (size 15 to 20)
#    0.000    1.500    2.500    3.000    3.500    2.000 
#    0.000    0.000    0.000    3.000   13.000    0.000 
#    0.000    0.000    0.000    0.000    0.000    0.250 
#
# Total GULP energy -178142.054588 kJ/mol
# GULP energy per Si atom -5566.939206 kJ/mol
# Density = 2.386516 g / cm^3
# Si number density = 23.919598 Si / 1000 Ang^3
#
#
#
# Elastic Constant Matrix: (Units=GPa)
#
#
# Indices 1 2 3 4 5 6 
#
# 1 175.9997 74.7435 37.0646 0.0000 0.0000 0.0000
# 2 74.7435 230.6904 21.6766 0.0000 0.0000 0.0000
# 3 37.0646 21.6766 26.2095 0.0000 0.0000 0.0000
# 4 0.0000 0.0000 0.0000 -3.2003 0.0000 0.0000
# 5 0.0000 0.0000 0.0000 0.0000 -5.8705 0.0000
# 6 0.0000 0.0000 0.0000 0.0000 0.0000 36.0160
#
#
#
# Elastic Compliance Matrix: (Units=1/GPa)
#
#
# Indices 1 2 3 4 5 6 
#
# 1 0.008738 -0.001811 -0.010859 0.000000 0.000000 0.000000
# 2 -0.001811 0.005075 -0.001637 0.000000 0.000000 0.000000
# 3 -0.010859 -0.001637 0.054864 0.000000 0.000000 0.000000
# 4 0.000000 0.000000 0.000000 -0.312475 0.000000 0.000000
# 5 0.000000 0.000000 0.000000 0.000000 -0.170342 0.000000
# 6 0.000000 0.000000 0.000000 0.000000 0.000000 0.027765
#
#
# Mechanical properties :
#
#
# Convention : Reuss Voigt Hill
#
# Bulk Modulus (GPa) = 24.95996 77.76321 51.36159
# Shear Modulus (GPa) = -14.51770 25.35003 5.41616
#
# Velocity S-wave (km/s) = -2.46628 3.25899 1.50640
# Velocity P-wave (km/s) = 1.53216 6.83683 4.95428
#
# Compressibility (1/GPa) = 0.04006417
#
# Stress axis : x y z
#
# Youngs Moduli (GPa) = 114.44792 197.03373 18.22675
#
# Poissons Ratio (x) = 0.35675 0.19792
# Poissons Ratio (y) = 0.20722 0.02984
# Poissons Ratio (z) = 1.24278 0.32254
#
# Static dielectric constant tensor:
#      x y z
#    x 1.949980 0.000000 0.000000 
#    y 0.000000 2.030670 0.000000 
#    z 0.000000 0.000000 1.944740 
# 
# From -- ./inp_files/20768.got.cif
#   From: 2010.05.17/outbox.cif.g08.bks.cpg/sg48_11_cif.got.tgz:20768.got - 2010.06.03 20:39:00.
