data_PCOD9390366
_publ_section_title
;
Structure prediction by ZEFSAII (Michael W. Deem and Ramdas Pophale) SiO2 
 PCOD9390366
Probable space group: P N N N
;
_chemical_formula_sum "Si O2"
_cell_formula_units_Z 44
_cell_length_a 14.246024
_cell_length_b 22.318769
_cell_length_c 6.127057
_cell_angle_alpha 90.000000
_cell_angle_beta 90.000000
_cell_angle_gamma 90.000000
_cell_volume 1948.120559
_symmetry_space_group_name_H-M "P N N N"
_symmetry_group_IT_number 48
_space_group.IT_coordinate_system_code '2'
_symmetry_cell_setting 'orthorhombic'
loop_
_space_group_symop_operation_xyz
x,y,z
1/2-x,1/2-y,z
x,1/2-y,1/2-z
1/2-x,y,1/2-z
-x,-y,-z
1/2+x,1/2+y,-z
-x,1/2+y,1/2+z
1/2+x,-y,1/2+z
loop_
_atom_site_type_symbol
_atom_site_label
_atom_site_fract_x
_atom_site_fract_y
_atom_site_fract_z
Si Si1 0.994382 0.054597 0.255487
Si Si2 0.077342 0.656135 0.421467
Si Si3 0.436539 0.157073 0.948065
Si Si4 0.750000 0.617999 0.250000
Si Si5 0.843138 0.991884 0.033020
Si Si6 0.961887 0.250000 0.250000
Si Si7 0.750000 0.086342 0.750000
O O1 0.025458 0.092426 0.464635
O O2 0.903028 0.012409 0.244953
O O3 0.962148 0.103203 0.074263
O O4 0.081817 0.017215 0.161871
O O5 0.099906 0.711657 0.579591
O O6 0.160383 0.629869 0.271709
O O7 0.992679 0.674212 0.267522
O O8 0.328116 0.153813 0.883783
O O9 0.469759 0.203807 0.128268
O O10 0.699911 0.572372 0.082638
O O11 0.768310 0.041275 0.953559
#
# Coordination Sequence:
#
# PCOD9390366 Si02
#       7
#     8   8   8   4   8   4   4
#     4   9  20  39  63  92 140 175 210 256 325 396
#     4  10  21  44  66  97 124 173 220 284 327 407
#     4  11  23  42  67  91 125 170 225 283 327 401
#     4  12  24  36  67 102 136 169 228 256 334 400
#     4  10  20  37  59 102 142 179 204 256 325 403
#     4  10  24  48  70  82 128 174 228 292 362 372
#     4  10  22  38  67 100 140 165 218 260 328 402
#
# _framework density 22.585871000000001
#
# number of rings (size 3 to 8) (size 9 to 14) (size 15 to 20)
#    0.000    1.818    1.818    1.636    2.545    0.727 
#    0.000    5.455    0.000    0.000    0.000    0.000 
#    0.000    0.000    0.000    0.000    0.000    0.000 
#
# Total GULP energy -245752.932996 kJ/mol
# GULP energy per Si atom -5585.293932 kJ/mol
# Density = 2.253446 g / cm^3
# Si number density = 22.585871 Si / 1000 Ang^3
#
#
#
# Elastic Constant Matrix: (Units=GPa)
#
#
# Indices 1 2 3 4 5 6 
#
# 1 98.1281 23.9908 21.7312 0.0000 0.0000 0.0000
# 2 23.9908 88.3277 22.9413 0.0000 0.0000 0.0000
# 3 21.7312 22.9413 50.2696 0.0000 0.0000 0.0000
# 4 0.0000 0.0000 0.0000 -153.0889 0.0000 0.0000
# 5 0.0000 0.0000 0.0000 0.0000 34.3072 0.0000
# 6 0.0000 0.0000 0.0000 0.0000 0.0000 16.1313
#
#
#
# Elastic Compliance Matrix: (Units=1/GPa)
#
#
# Indices 1 2 3 4 5 6 
#
# 1 0.011602 -0.002097 -0.004058 0.000000 0.000000 0.000000
# 2 -0.002097 0.013223 -0.005128 0.000000 0.000000 0.000000
# 3 -0.004058 -0.005128 0.023987 0.000000 0.000000 0.000000
# 4 0.000000 0.000000 0.000000 -0.006532 0.000000 0.000000
# 5 0.000000 0.000000 0.000000 0.000000 0.029148 0.000000
# 6 0.000000 0.000000 0.000000 0.000000 0.000000 0.061991
#
#
# Mechanical properties :
#
#
# Convention : Reuss Voigt Hill
#
# Bulk Modulus (GPa) = 38.10184 41.56133 39.83159
# Shear Modulus (GPa) = 30.35162 -9.32593 10.51284
#
# Velocity S-wave (km/s) = 3.66981 -2.03422 2.15980
# Velocity P-wave (km/s) = 5.90449 3.59500 4.88810
#
# Compressibility (1/GPa) = 0.02624545
#
# Stress axis : x y z
#
# Youngs Moduli (GPa) = 86.18997 75.62595 41.68856
#
# Poissons Ratio (x) = 0.15860 0.16919
# Poissons Ratio (y) = 0.18076 0.21377
# Poissons Ratio (z) = 0.34980 0.38780
#
# Static dielectric constant tensor:
#      x y z
#    x 1.834190 0.000000 0.000000 
#    y 0.000000 1.890190 0.000000 
#    z 0.000000 0.000000 1.900090 
# 
# From -- ./inp_files/3504.got.cif
#   From: 2010.05.17/outbox.cif.g08.bks.cpg/sg48_2_cif.got.tgz:3504.got - 2010.06.03 20:39:00.
