data_PCOD9390400
_publ_section_title
;
Structure prediction by ZEFSAII (Michael W. Deem and Ramdas Pophale) SiO2 
 PCOD9390400
Probable space group: P N N N
;
_chemical_formula_sum "Si O2"
_cell_formula_units_Z 58
_cell_length_a 12.633636
_cell_length_b 13.932183
_cell_length_c 15.175324
_cell_angle_alpha 90.000000
_cell_angle_beta 90.000000
_cell_angle_gamma 90.000000
_cell_volume 2671.071432
_symmetry_space_group_name_H-M "P N N N"
_symmetry_group_IT_number 48
_space_group.IT_coordinate_system_code '2'
_symmetry_cell_setting 'orthorhombic'
loop_
_space_group_symop_operation_xyz
x,y,z
1/2-x,1/2-y,z
x,1/2-y,1/2-z
1/2-x,y,1/2-z
-x,-y,-z
1/2+x,1/2+y,-z
-x,1/2+y,1/2+z
1/2+x,-y,1/2+z
loop_
_atom_site_type_symbol
_atom_site_label
_atom_site_fract_x
_atom_site_fract_y
_atom_site_fract_z
Si Si1 0.571250 0.545877 0.616844
Si Si2 0.150478 0.861706 0.593624
Si Si3 0.250000 0.750000 0.750000
Si Si4 0.132185 0.531209 0.563432
Si Si5 0.720018 0.860242 0.536392
Si Si6 0.872349 0.329649 0.900598
Si Si7 0.127425 0.870496 0.123899
Si Si8 0.566437 0.932539 0.685377
O O1 0.455886 0.578367 0.588168
O O2 0.671045 0.583359 0.560211
O O3 0.571218 0.430371 0.613474
O O4 0.577838 0.595075 0.713454
O O5 0.171459 0.804966 0.683187
O O6 0.254088 0.926416 0.586433
O O7 0.141259 0.800753 0.503973
O O8 0.156104 0.419842 0.538900
O O9 0.099646 0.582209 0.471160
O O10 0.048559 0.559695 0.638709
O O11 0.750000 0.750000 0.517856
O O12 0.643834 0.872457 0.621906
O O13 0.921265 0.233790 0.859519
O O14 0.752703 0.351773 0.871014
O O15 0.101972 0.956053 0.188540
#
# Coordination Sequence:
#
# PCOD9390400 Si02
#       8
#     8   8   2   8   8   8   8   8
#     4  12  24  39  61  92 134 168 205 274 338 379
#     4  11  23  40  62  94 128 161 212 265 322 389
#     4  12  24  40  68 100 128 174 220 268 348 398
#     4  10  21  44  64  90 127 175 217 270 320 397
#     4  11  24  41  66  95 128 174 221 269 334 406
#     4  10  20  37  63  90 121 162 209 259 315 392
#     4   9  18  36  64  88 115 160 211 258 315 387
#     4  11  23  40  61  91 131 166 213 271 329 392
#
# _framework density 21.714133
#
# number of rings (size 3 to 8) (size 9 to 14) (size 15 to 20)
#    0.000    1.379    4.138    4.966    0.000    6.069 
#    0.000    1.379    0.000    0.000    0.000    0.000 
#    0.000    0.000    0.000    0.000    0.000    0.000 
#
# Total GULP energy -323727.180823 kJ/mol
# GULP energy per Si atom -5581.503118 kJ/mol
# Density = 2.166471 g / cm^3
# Si number density = 21.714133 Si / 1000 Ang^3
#
#
#
# Elastic Constant Matrix: (Units=GPa)
#
#
# Indices 1 2 3 4 5 6 
#
# 1 98.5492 17.8069 10.9113 0.0000 0.0000 0.0000
# 2 17.8069 105.6172 -3.7287 0.0000 0.0000 0.0000
# 3 10.9113 -3.7287 74.2756 0.0000 0.0000 0.0000
# 4 0.0000 0.0000 0.0000 10.5096 0.0000 0.0000
# 5 0.0000 0.0000 0.0000 0.0000 320.5752 0.0000
# 6 0.0000 0.0000 0.0000 0.0000 0.0000 28.2044
#
#
#
# Elastic Compliance Matrix: (Units=1/GPa)
#
#
# Indices 1 2 3 4 5 6 
#
# 1 0.010667 -0.001857 -0.001660 0.000000 0.000000 0.000000
# 2 -0.001857 0.009808 0.000765 0.000000 0.000000 0.000000
# 3 -0.001660 0.000765 0.013746 0.000000 0.000000 0.000000
# 4 0.000000 0.000000 0.000000 0.095151 0.000000 0.000000
# 5 0.000000 0.000000 0.000000 0.000000 0.003119 0.000000
# 6 0.000000 0.000000 0.000000 0.000000 0.000000 0.035456
#
#
# Mechanical properties :
#
#
# Convention : Reuss Voigt Hill
#
# Bulk Modulus (GPa) = 34.82310 36.49120 35.65715
# Shear Modulus (GPa) = 27.31901 88.75466 58.03683
#
# Velocity S-wave (km/s) = 3.55085 6.40022 5.17549
# Velocity P-wave (km/s) = 5.73439 8.45334 7.22296
#
# Compressibility (1/GPa) = 0.02871657
#
# Stress axis : x y z
#
# Youngs Moduli (GPa) = 93.75086 101.95492 72.75017
#
# Poissons Ratio (x) = 0.18933 0.12078
# Poissons Ratio (y) = 0.17409 -0.05567
# Poissons Ratio (z) = 0.15564 -0.07801
#
# Static dielectric constant tensor:
#      x y z
#    x 1.771030 0.000000 0.000000 
#    y 0.000000 1.802430 0.000000 
#    z 0.000000 0.000000 1.906410 
# 
# From -- ./inp_files/31164.got.cif
#   From: 2010.05.17/outbox.cif.g08.bks.cpg/sg48_16_cif.got.tgz:31164.got - 2010.06.03 20:39:00.
