data_PCOD9390890
_publ_section_title
;
Structure prediction by ZEFSAII (Michael W. Deem and Ramdas Pophale) SiO2 
 PCOD9390890
Probable space group: P N N N
;
_chemical_formula_sum "Si O2"
_cell_formula_units_Z 30
_cell_length_a 24.230994
_cell_length_b 10.703257
_cell_length_c 4.890860
_cell_angle_alpha 90.000000
_cell_angle_beta 90.000000
_cell_angle_gamma 90.000000
_cell_volume 1268.447261
_symmetry_space_group_name_H-M "P N N N"
_symmetry_group_IT_number 48
_space_group.IT_coordinate_system_code '2'
_symmetry_cell_setting 'orthorhombic'
loop_
_space_group_symop_operation_xyz
x,y,z
1/2-x,1/2-y,z
x,1/2-y,1/2-z
1/2-x,y,1/2-z
-x,-y,-z
1/2+x,1/2+y,-z
-x,1/2+y,1/2+z
1/2+x,-y,1/2+z
loop_
_atom_site_type_symbol
_atom_site_label
_atom_site_fract_x
_atom_site_fract_y
_atom_site_fract_z
Si Si1 0.750000 0.750000 0.750000
Si Si2 0.286722 0.495653 0.488466
Si Si3 0.412613 0.019933 0.928166
Si Si4 0.947466 0.128620 0.897806
Si Si5 0.455576 0.250000 0.250000
O O1 0.715247 0.654271 0.568750
O O2 0.250000 0.520589 0.750000
O O3 0.350647 0.525148 0.498688
O O4 0.250000 0.554534 0.250000
O O5 0.455225 0.950319 0.126971
O O6 0.420397 0.161663 0.042798
O O7 0.419824 0.964436 0.621254
O O8 0.919401 0.250000 0.750000
O O9 0.002357 0.176740 0.047565
#
# Coordination Sequence:
#
# PCOD9390890 Si02
#       5
#     2   8   8   8   4
#     4   8  20  36  62 100 140 168 218 286 366 414
#     4  10  21  41  64  98 140 172 227 286 352 431
#     4  12  26  43  74 103 141 191 234 288 380 417
#     4  12  26  46  67 102 146 187 242 292 339 434
#     4  12  27  44  71 108 147 182 236 301 350 450
#
# _framework density 23.650963000000001
#
# number of rings (size 3 to 8) (size 9 to 14) (size 15 to 20)
#    0.800    0.000    2.667    4.400    3.733    0.000 
#    4.800    0.000    0.000   12.000    0.000    0.000 
#    0.000    0.000    0.000    0.000    0.000    0.000 
#
# Total GULP energy -167010.614123 kJ/mol
# GULP energy per Si atom -5567.020471 kJ/mol
# Density = 2.359713 g / cm^3
# Si number density = 23.650963 Si / 1000 Ang^3
#
#
#
# Elastic Constant Matrix: (Units=GPa)
#
#
# Indices 1 2 3 4 5 6 
#
# 1 137.4798 31.7850 58.8743 0.0000 0.0000 0.0000
# 2 31.7850 79.3414 40.7711 0.0000 0.0000 0.0000
# 3 58.8743 40.7711 189.2208 0.0000 0.0000 0.0000
# 4 0.0000 0.0000 0.0000 74.7236 0.0000 0.0000
# 5 0.0000 0.0000 0.0000 0.0000 11.9190 0.0000
# 6 0.0000 0.0000 0.0000 0.0000 0.0000 20.2342
#
#
#
# Elastic Compliance Matrix: (Units=1/GPa)
#
#
# Indices 1 2 3 4 5 6 
#
# 1 0.008773 -0.002375 -0.002218 0.000000 0.000000 0.000000
# 2 -0.002375 0.014816 -0.002453 0.000000 0.000000 0.000000
# 3 -0.002218 -0.002453 0.006504 0.000000 0.000000 0.000000
# 4 0.000000 0.000000 0.000000 0.013383 0.000000 0.000000
# 5 0.000000 0.000000 0.000000 0.000000 0.083899 0.000000
# 6 0.000000 0.000000 0.000000 0.000000 0.000000 0.049421
#
#
# Mechanical properties :
#
#
# Convention : Reuss Voigt Hill
#
# Bulk Modulus (GPa) = 62.50026 74.32253 68.41140
# Shear Modulus (GPa) = 25.48149 39.68279 32.58214
#
# Velocity S-wave (km/s) = 3.28593 4.10060 3.71566
# Velocity P-wave (km/s) = 6.39374 7.34254 6.88450
#
# Compressibility (1/GPa) = 0.01599993
#
# Stress axis : x y z
#
# Youngs Moduli (GPa) = 113.99140 67.49520 153.76243
#
# Poissons Ratio (x) = 0.16028 0.34102
# Poissons Ratio (y) = 0.27070 0.37725
# Poissons Ratio (z) = 0.25281 0.16560
#
# Static dielectric constant tensor:
#      x y z
#    x 1.878050 0.000000 0.000000 
#    y 0.000000 2.073530 0.000000 
#    z 0.000000 0.000000 1.893490 
# 
# From -- ./inp_files/4839.got.cif
#   From: 2010.05.17/outbox.cif.g08.bks.cpg/sg48_3_cif.got.tgz:4839.got - 2010.06.03 20:39:00.
