data_PCOD9390038
_publ_section_title
;
Structure prediction by ZEFSAII (Michael W. Deem and Ramdas Pophale) SiO2 
 PCOD9390038
Probable space group: P N N N
;
_chemical_formula_sum "Si O2"
_cell_formula_units_Z 54
_cell_length_a 14.582676
_cell_length_b 11.554253
_cell_length_c 15.105393
_cell_angle_alpha 90.000000
_cell_angle_beta 90.000000
_cell_angle_gamma 90.000000
_cell_volume 2545.136789
_symmetry_space_group_name_H-M "P N N N"
_symmetry_group_IT_number 48
_space_group.IT_coordinate_system_code '2'
_symmetry_cell_setting 'orthorhombic'
loop_
_space_group_symop_operation_xyz
x,y,z
1/2-x,1/2-y,z
x,1/2-y,1/2-z
1/2-x,y,1/2-z
-x,-y,-z
1/2+x,1/2+y,-z
-x,1/2+y,1/2+z
1/2+x,-y,1/2+z
loop_
_atom_site_type_symbol
_atom_site_label
_atom_site_fract_x
_atom_site_fract_y
_atom_site_fract_z
Si Si1 0.028138 0.763670 0.089181
Si Si2 0.250000 0.750000 0.750000
Si Si3 0.949531 0.087727 0.068923
Si Si4 0.250000 0.520109 0.250000
Si Si5 0.236988 0.550324 0.886714
Si Si6 0.379561 0.146355 0.819077
Si Si7 0.699061 0.367264 0.572901
Si Si8 0.457538 0.984014 0.277714
O O1 0.101674 0.666610 0.113041
O O2 0.045124 0.869315 0.157518
O O3 0.927004 0.714355 0.099898
O O4 0.050123 0.797474 0.988961
O O5 0.208779 0.656270 0.820930
O O6 0.846053 0.054637 0.094809
O O7 0.006120 0.085476 0.158517
O O8 0.000000 0.000000 0.000000
O O9 0.244547 0.583575 0.344869
O O10 0.143334 0.476746 0.244443
O O11 0.206772 0.430067 0.843994
O O12 0.192631 0.559109 0.984205
O O13 0.363847 0.250000 0.750000
O O14 0.458307 0.055889 0.785275
O O15 0.750000 0.250000 0.544440
#
# Coordination Sequence:
#
# PCOD9390038 Si02
#       8
#     8   2   8   4   8   8   8   8
#     4  10  19  36  59  93 135 169 220 280 341 406
#     4  12  24  44  66  98 140 186 228 270 340 426
#     4  10  20  39  61  89 127 174 227 273 335 414
#     4  12  21  34  66  94 135 166 222 293 338 389
#     4  12  24  42  68 100 141 182 231 284 346 416
#     4  10  23  41  64 102 141 177 224 280 345 409
#     4  12  20  34  63 103 127 169 226 288 340 393
#     4  10  20  34  58  91 127 176 225 276 337 402
#
# _framework density 21.216933000000001
#
# number of rings (size 3 to 8) (size 9 to 14) (size 15 to 20)
#    0.000    1.185    5.185    2.000    0.000    0.593 
#    0.000   15.185    0.000    0.000    0.000    0.000 
#    0.000    0.000    0.000    0.000    0.000    0.000 
#
# Total GULP energy -300669.621849 kJ/mol
# GULP energy per Si atom -5567.955960 kJ/mol
# Density = 2.116864 g / cm^3
# Si number density = 21.216933 Si / 1000 Ang^3
#
#
#
# Elastic Constant Matrix: (Units=GPa)
#
#
# Indices 1 2 3 4 5 6 
#
# 1 96.9445 25.9129 23.5353 0.0000 0.0000 0.0000
# 2 25.9129 30.4317 8.8407 0.0000 0.0000 0.0000
# 3 23.5353 8.8407 78.0669 0.0000 0.0000 0.0000
# 4 0.0000 0.0000 0.0000 21.0256 0.0000 0.0000
# 5 0.0000 0.0000 0.0000 0.0000 28.9638 0.0000
# 6 0.0000 0.0000 0.0000 0.0000 0.0000 18.1698
#
#
#
# Elastic Compliance Matrix: (Units=1/GPa)
#
#
# Indices 1 2 3 4 5 6 
#
# 1 0.013989 -0.011050 -0.002966 0.000000 0.000000 0.000000
# 2 -0.011050 0.042707 -0.001505 0.000000 0.000000 0.000000
# 3 -0.002966 -0.001505 0.013874 0.000000 0.000000 0.000000
# 4 0.000000 0.000000 0.000000 0.047561 0.000000 0.000000
# 5 0.000000 0.000000 0.000000 0.000000 0.034526 0.000000
# 6 0.000000 0.000000 0.000000 0.000000 0.000000 0.055036
#
#
# Mechanical properties :
#
#
# Convention : Reuss Voigt Hill
#
# Bulk Modulus (GPa) = 25.29860 35.78009 30.53935
# Shear Modulus (GPa) = 19.84828 23.44213 21.64520
#
# Velocity S-wave (km/s) = 3.06190 3.32758 3.19750
# Velocity P-wave (km/s) = 4.94469 5.62710 5.29690
#
# Compressibility (1/GPa) = 0.03952787
#
# Stress axis : x y z
#
# Youngs Moduli (GPa) = 71.48549 23.41545 72.07661
#
# Poissons Ratio (x) = 0.25874 0.21378
# Poissons Ratio (y) = 0.78992 0.10848
# Poissons Ratio (z) = 0.21202 0.03524
#
# Static dielectric constant tensor:
#      x y z
#    x 1.842040 0.000000 0.000000 
#    y 0.000000 1.787360 0.000000 
#    z 0.000000 0.000000 1.643960 
# 
# From -- ./inp_files/27339.got.cif
#   From: 2010.05.17/outbox.cif.g08.bks.cpg/sg48_14_cif.got.tgz:27339.got - 2010.06.03 20:39:00.
