data_PCOD9390602
_publ_section_title
;
Structure prediction by ZEFSAII (Michael W. Deem and Ramdas Pophale) SiO2 
 PCOD9390602
Probable space group: P N N N
;
_chemical_formula_sum "Si O2"
_cell_formula_units_Z 44
_cell_length_a 15.698516
_cell_length_b 8.429996
_cell_length_c 16.550084
_cell_angle_alpha 90.000000
_cell_angle_beta 90.000000
_cell_angle_gamma 90.000000
_cell_volume 2190.212085
_symmetry_space_group_name_H-M "P N N N"
_symmetry_group_IT_number 48
_space_group.IT_coordinate_system_code '2'
_symmetry_cell_setting 'orthorhombic'
loop_
_space_group_symop_operation_xyz
x,y,z
1/2-x,1/2-y,z
x,1/2-y,1/2-z
1/2-x,y,1/2-z
-x,-y,-z
1/2+x,1/2+y,-z
-x,1/2+y,1/2+z
1/2+x,-y,1/2+z
loop_
_atom_site_type_symbol
_atom_site_label
_atom_site_fract_x
_atom_site_fract_y
_atom_site_fract_z
Si Si1 0.286727 0.924725 0.143355
Si Si2 0.870804 0.843507 0.834982
Si Si3 0.536644 0.067214 0.758438
Si Si4 0.133045 0.001338 0.659155
Si Si5 0.750000 0.250000 0.250000
Si Si6 0.330314 0.363866 0.490369
Si Si7 0.250000 0.250000 0.750000
O O1 0.250000 0.750000 0.154880
O O2 0.375305 0.932307 0.191047
O O3 0.218570 0.061092 0.166278
O O4 0.301143 0.972054 0.051142
O O5 0.878434 0.750000 0.750000
O O6 0.873963 0.735924 0.915869
O O7 0.942163 0.979763 0.825872
O O8 0.511747 0.250000 0.750000
O O9 0.460191 0.980788 0.803283
O O10 0.121509 0.070098 0.568390
O O11 0.187805 0.141319 0.698762
O O12 0.189593 0.851259 0.688813
O O13 0.250000 0.250000 0.512957
#
# Coordination Sequence:
#
# PCOD9390602 Si02
#       7
#     8   8   8   8   2   8   2
#     4  11  23  37  62  98 139 176 218 270 336 416
#     4  11  23  40  64  99 137 185 217 268 344 419
#     4  12  24  38  67  98 134 178 227 278 338 417
#     4  11  24  47  68  97 123 179 231 287 348 396
#     4  10  28  46  76  94 126 180 236 314 348 410
#     4  10  23  40  70  94 131 180 227 286 337 414
#     4  10  20  46  72  78 120 170 236 270 332 406
#
# _framework density 20.089378
#
# number of rings (size 3 to 8) (size 9 to 14) (size 15 to 20)
#    0.000    1.091    5.455    0.545    7.636    0.727 
#    0.000    0.909    0.000    0.000    0.000    0.000 
#    0.000    0.000    0.000    0.000    0.000    0.000 
#
# Total GULP energy -245094.526488 kJ/mol
# GULP energy per Si atom -5570.330147 kJ/mol
# Density = 2.004365 g / cm^3
# Si number density = 20.089378 Si / 1000 Ang^3
#
#
#
# Elastic Constant Matrix: (Units=GPa)
#
#
# Indices 1 2 3 4 5 6 
#
# 1 108.5120 35.2081 42.5483 0.0000 0.0000 0.0000
# 2 35.2081 115.4703 34.3093 0.0000 0.0000 0.0000
# 3 42.5483 34.3093 102.4746 0.0000 0.0000 0.0000
# 4 0.0000 0.0000 0.0000 19.7875 0.0000 0.0000
# 5 0.0000 0.0000 0.0000 0.0000 17.6891 0.0000
# 6 0.0000 0.0000 0.0000 0.0000 0.0000 -30.4707
#
#
#
# Elastic Compliance Matrix: (Units=1/GPa)
#
#
# Indices 1 2 3 4 5 6 
#
# 1 0.011545 -0.002327 -0.004014 0.000000 0.000000 0.000000
# 2 -0.002327 0.010086 -0.002411 0.000000 0.000000 0.000000
# 3 -0.004014 -0.002411 0.012232 0.000000 0.000000 0.000000
# 4 0.000000 0.000000 0.000000 0.050537 0.000000 0.000000
# 5 0.000000 0.000000 0.000000 0.000000 0.056532 0.000000
# 6 0.000000 0.000000 0.000000 0.000000 0.000000 -0.032818
#
#
# Mechanical properties :
#
#
# Convention : Reuss Voigt Hill
#
# Bulk Modulus (GPa) = 61.12911 61.17649 61.15280
# Shear Modulus (GPa) = 38.14730 15.69393 26.92062
#
# Velocity S-wave (km/s) = 4.36234 2.79804 3.66463
# Velocity P-wave (km/s) = 7.47449 6.39976 6.95791
#
# Compressibility (1/GPa) = 0.01635882
#
# Stress axis : x y z
#
# Youngs Moduli (GPa) = 86.61958 99.14613 81.75054
#
# Poissons Ratio (x) = 0.23075 0.32817
# Poissons Ratio (y) = 0.20160 0.19707
# Poissons Ratio (z) = 0.34771 0.23900
#
# Static dielectric constant tensor:
#      x y z
#    x 1.711510 0.000000 0.000000 
#    y 0.000000 1.777320 0.000000 
#    z 0.000000 0.000000 1.754950 
# 
# From -- ./inp_files/31528.got.cif
#   From: 2010.05.17/outbox.cif.g08.bks.cpg/sg48_16_cif.got.tgz:31528.got - 2010.06.03 20:39:00.
