data_PCOD9390090
_publ_section_title
;
Structure prediction by ZEFSAII (Michael W. Deem and Ramdas Pophale) SiO2 
 PCOD9390090
Probable space group: P N N N
;
_chemical_formula_sum "Si O2"
_cell_formula_units_Z 54
_cell_length_a 15.855396
_cell_length_b 14.036491
_cell_length_c 10.594712
_cell_angle_alpha 90.000000
_cell_angle_beta 90.000000
_cell_angle_gamma 90.000000
_cell_volume 2357.896840
_symmetry_space_group_name_H-M "P N N N"
_symmetry_group_IT_number 48
_space_group.IT_coordinate_system_code '2'
_symmetry_cell_setting 'orthorhombic'
loop_
_space_group_symop_operation_xyz
x,y,z
1/2-x,1/2-y,z
x,1/2-y,1/2-z
1/2-x,y,1/2-z
-x,-y,-z
1/2+x,1/2+y,-z
-x,1/2+y,1/2+z
1/2+x,-y,1/2+z
loop_
_atom_site_type_symbol
_atom_site_label
_atom_site_fract_x
_atom_site_fract_y
_atom_site_fract_z
Si Si1 0.453120 0.604543 0.668980
Si Si2 0.572412 0.750000 0.750000
Si Si3 0.483364 0.760890 0.074724
Si Si4 0.697951 0.021115 0.053977
Si Si5 0.750000 0.250000 0.750000
Si Si6 0.148556 0.896799 0.073566
Si Si7 0.338314 0.299965 0.512587
Si Si8 0.917351 0.441396 0.815816
O O1 0.505758 0.663157 0.773373
O O2 0.467770 0.670660 0.546817
O O3 0.354619 0.576468 0.662820
O O4 0.503907 0.507005 0.651781
O O5 0.631171 0.715014 0.633960
O O6 0.434251 0.664423 0.042738
O O7 0.448206 0.832125 0.182835
O O8 0.583623 0.753236 0.087407
O O9 0.794105 0.055548 0.033679
O O10 0.653708 0.049517 0.921235
O O11 0.678239 0.908748 0.055976
O O12 0.798296 0.180713 0.846158
O O13 0.120189 0.970918 0.180956
O O14 0.250000 0.250000 0.530197
#
# Coordination Sequence:
#
# PCOD9390090 Si02
#       8
#     8   4   8   8   2   8   8   8
#     4  10  20  36  61  87 127 170 207 244 331 400
#     4  10  21  34  62  97 116 156 214 271 303 370
#     4  10  19  38  55  87 125 170 196 256 327 385
#     4  11  20  37  59  92 131 167 198 259 330 398
#     4  12  16  28  44  96 124 138 180 256 312 348
#     4  12  22  30  59  97 128 150 209 271 318 369
#     4  11  23  38  61  88 122 167 217 257 317 381
#     4  11  17  33  59  89 123 159 202 253 321 383
#
# _framework density 22.901765999999999
#
# number of rings (size 3 to 8) (size 9 to 14) (size 15 to 20)
#    0.000    1.185    7.407    2.000    2.074    1.185 
#    0.000    0.741    0.000    8.889    0.000    0.000 
#    0.000    0.000    0.000    0.000    0.000    0.000 
#
# Total GULP energy -300990.218476 kJ/mol
# GULP energy per Si atom -5573.892935 kJ/mol
# Density = 2.284964 g / cm^3
# Si number density = 22.901766 Si / 1000 Ang^3
#
#
#
# Elastic Constant Matrix: (Units=GPa)
#
#
# Indices 1 2 3 4 5 6 
#
# 1 155.1678 49.9401 15.7983 0.0000 0.0000 0.0000
# 2 49.9401 92.4779 1.1125 0.0000 0.0000 0.0000
# 3 15.7983 1.1125 30.1855 0.0000 0.0000 0.0000
# 4 0.0000 0.0000 0.0000 16.1755 0.0000 0.0000
# 5 0.0000 0.0000 0.0000 0.0000 25.0581 0.0000
# 6 0.0000 0.0000 0.0000 0.0000 0.0000 16.9659
#
#
#
# Elastic Compliance Matrix: (Units=1/GPa)
#
#
# Indices 1 2 3 4 5 6 
#
# 1 0.008296 -0.004430 -0.004178 0.000000 0.000000 0.000000
# 2 -0.004430 0.013183 0.001832 0.000000 0.000000 0.000000
# 3 -0.004178 0.001832 0.035248 0.000000 0.000000 0.000000
# 4 0.000000 0.000000 0.000000 0.061822 0.000000 0.000000
# 5 0.000000 0.000000 0.000000 0.000000 0.039907 0.000000
# 6 0.000000 0.000000 0.000000 0.000000 0.000000 0.058942
#
#
# Mechanical properties :
#
#
# Convention : Reuss Voigt Hill
#
# Bulk Modulus (GPa) = 23.16120 45.72589 34.44354
# Shear Modulus (GPa) = 20.37978 25.70525 23.04251
#
# Velocity S-wave (km/s) = 2.98632 3.35388 3.17542
# Velocity P-wave (km/s) = 4.69319 5.91671 5.34011
#
# Compressibility (1/GPa) = 0.04317566
#
# Stress axis : x y z
#
# Youngs Moduli (GPa) = 120.54415 75.85281 28.37055
#
# Poissons Ratio (x) = 0.33600 0.11855
# Poissons Ratio (y) = 0.53396 -0.05199
# Poissons Ratio (z) = 0.50369 -0.13900
#
# Static dielectric constant tensor:
#      x y z
#    x 1.926030 0.000000 0.000000 
#    y 0.000000 1.872450 0.000000 
#    z 0.000000 0.000000 2.113920 
# 
# From -- ./inp_files/21380.got.cif
#   From: 2010.05.17/outbox.cif.g08.bks.cpg/sg48_11_cif.got.tgz:21380.got - 2010.06.03 20:39:00.
