data_PCOD9390868
_publ_section_title
;
Structure prediction by ZEFSAII (Michael W. Deem and Ramdas Pophale) SiO2 
 PCOD9390868
Probable space group: P N N N
;
_chemical_formula_sum "Si O2"
_cell_formula_units_Z 54
_cell_length_a 6.966125
_cell_length_b 14.630521
_cell_length_c 24.846780
_cell_angle_alpha 90.000000
_cell_angle_beta 90.000000
_cell_angle_gamma 90.000000
_cell_volume 2532.335071
_symmetry_space_group_name_H-M "P N N N"
_symmetry_group_IT_number 48
_space_group.IT_coordinate_system_code '2'
_symmetry_cell_setting 'orthorhombic'
loop_
_space_group_symop_operation_xyz
x,y,z
1/2-x,1/2-y,z
x,1/2-y,1/2-z
1/2-x,y,1/2-z
-x,-y,-z
1/2+x,1/2+y,-z
-x,1/2+y,1/2+z
1/2+x,-y,1/2+z
loop_
_atom_site_type_symbol
_atom_site_label
_atom_site_fract_x
_atom_site_fract_y
_atom_site_fract_z
Si Si1 0.290347 0.357108 0.067931
Si Si2 0.572366 0.910877 0.679152
Si Si3 0.250000 0.005661 0.750000
Si Si4 0.804486 0.856948 0.059372
Si Si5 0.528472 0.008473 0.938037
Si Si6 0.250000 0.250000 0.250000
Si Si7 0.365257 0.918037 0.200759
Si Si8 0.294825 0.845807 0.402904
O O1 0.250000 0.250000 0.071789
O O2 0.434051 0.389188 0.115296
O O3 0.089985 0.409667 0.082491
O O4 0.344794 0.376764 0.004889
O O5 0.378502 0.948721 0.706940
O O6 0.631940 0.819141 0.711423
O O7 0.741767 0.988216 0.687777
O O8 0.417048 0.060297 0.782430
O O9 0.750000 0.750000 0.059352
O O10 0.646184 0.928371 0.080590
O O11 0.981463 0.860916 0.100029
O O12 0.718984 0.068300 0.934497
O O13 0.500000 0.000000 0.000000
O O14 0.250000 0.876250 0.250000
O O15 0.329556 0.851768 0.150957
O O16 0.250000 0.750000 0.430863
#
# Coordination Sequence:
#
# PCOD9390868 Si02
#       8
#     8   8   4   8   8   2   8   8
#     4  10  21  40  69  99 142 181 227 290 334 404
#     4  11  21  41  65  97 136 176 229 287 344 404
#     4  10  22  43  68  89 130 182 224 276 347 423
#     4  10  22  43  68 101 141 180 227 275 346 421
#     4  10  22  41  66  99 137 182 227 273 337 409
#     4  12  20  38  68  92 140 172 232 298 348 394
#     4  10  23  45  65  96 131 172 223 288 344 412
#     4  12  24  43  72 102 139 181 226 291 349 413
#
# _framework density 21.324193000000001
#
# number of rings (size 3 to 8) (size 9 to 14) (size 15 to 20)
#    0.000    1.481    5.926    0.000    0.000    5.333 
#    2.667    0.000    3.259    3.556    0.000    0.000 
#    0.000    0.000    0.000    0.000    0.000    0.000 
#
# Total GULP energy -300734.296916 kJ/mol
# GULP energy per Si atom -5569.153647 kJ/mol
# Density = 2.127566 g / cm^3
# Si number density = 21.324193 Si / 1000 Ang^3
#
#
#
# Elastic Constant Matrix: (Units=GPa)
#
#
# Indices 1 2 3 4 5 6 
#
# 1 137.0042 39.7293 23.5556 0.0000 0.0000 0.0000
# 2 39.7293 103.0477 0.6146 0.0000 0.0000 0.0000
# 3 23.5556 0.6146 89.3528 0.0000 0.0000 0.0000
# 4 0.0000 0.0000 0.0000 -21.7869 0.0000 0.0000
# 5 0.0000 0.0000 0.0000 0.0000 25.9365 0.0000
# 6 0.0000 0.0000 0.0000 0.0000 0.0000 24.5869
#
#
#
# Elastic Compliance Matrix: (Units=1/GPa)
#
#
# Indices 1 2 3 4 5 6 
#
# 1 0.008650 -0.003322 -0.002258 0.000000 0.000000 0.000000
# 2 -0.003322 0.010980 0.000800 0.000000 0.000000 0.000000
# 3 -0.002258 0.000800 0.011781 0.000000 0.000000 0.000000
# 4 0.000000 0.000000 0.000000 -0.045899 0.000000 0.000000
# 5 0.000000 0.000000 0.000000 0.000000 0.038556 0.000000
# 6 0.000000 0.000000 0.000000 0.000000 0.000000 0.040672
#
#
# Mechanical properties :
#
#
# Convention : Reuss Voigt Hill
#
# Bulk Modulus (GPa) = 45.75918 50.80043 48.27981
# Shear Modulus (GPa) = 61.28712 23.44765 42.36739
#
# Velocity S-wave (km/s) = 5.36685 3.31959 4.46221
# Velocity P-wave (km/s) = 7.74012 6.21028 7.01701
#
# Compressibility (1/GPa) = 0.02185354
#
# Stress axis : x y z
#
# Youngs Moduli (GPa) = 115.60110 91.07381 84.88062
#
# Poissons Ratio (x) = 0.30252 0.19163
# Poissons Ratio (y) = 0.38399 -0.06792
# Poissons Ratio (z) = 0.26098 -0.07287
#
# Static dielectric constant tensor:
#      x y z
#    x 1.779200 0.000000 0.000000 
#    y 0.000000 1.827240 0.000000 
#    z 0.000000 0.000000 1.832610 
# 
# From -- ./inp_files/38364.got.cif
#   From: 2010.05.17/outbox.cif.g08.bks.cpg/sg48_20_cif.got.tgz:38364.got - 2010.06.03 20:39:00.
