data_PCOD9390962
_publ_section_title
;
Structure prediction by ZEFSAII (Michael W. Deem and Ramdas Pophale) SiO2 
 PCOD9390962
Probable space group: P N N N
;
_chemical_formula_sum "Si O2"
_cell_formula_units_Z 40
_cell_length_a 12.003016
_cell_length_b 5.655257
_cell_length_c 21.788013
_cell_angle_alpha 90.000000
_cell_angle_beta 90.000000
_cell_angle_gamma 90.000000
_cell_volume 1478.973378
_symmetry_space_group_name_H-M "P N N N"
_symmetry_group_IT_number 48
_space_group.IT_coordinate_system_code '2'
_symmetry_cell_setting 'orthorhombic'
loop_
_space_group_symop_operation_xyz
x,y,z
1/2-x,1/2-y,z
x,1/2-y,1/2-z
1/2-x,y,1/2-z
-x,-y,-z
1/2+x,1/2+y,-z
-x,1/2+y,1/2+z
1/2+x,-y,1/2+z
loop_
_atom_site_type_symbol
_atom_site_label
_atom_site_fract_x
_atom_site_fract_y
_atom_site_fract_z
Si Si1 0.167964 0.451751 0.545146
Si Si2 0.544412 0.486019 0.302303
Si Si3 0.314870 0.503246 0.336096
Si Si4 0.118988 0.498918 0.669287
Si Si5 0.438725 0.688075 0.457464
O O1 0.250000 0.250000 0.520109
O O2 0.209795 0.502120 0.615026
O O3 0.147221 0.661276 0.498052
O O4 0.040774 0.366163 0.556992
O O5 0.413774 0.485838 0.285812
O O6 0.567864 0.736937 0.332009
O O7 0.625861 0.481216 0.243474
O O8 0.557432 0.249043 0.342049
O O9 0.250000 0.750000 0.325111
O O10 0.377757 0.559744 0.400911
O O11 0.250000 0.250000 0.338548
O O12 0.500000 0.500000 0.500000
#
# Coordination Sequence:
#
# PCOD9390962 Si02
#       5
#     8   8   8   8   8
#     4  11  26  47  78 113 150 211 266 322 406 481
#     4  10  21  44  73 104 148 196 243 322 390 453
#     4  12  27  44  75 112 152 201 258 315 396 481
#     4  10  21  44  74 101 150 192 250 320 383 458
#     4  11  27  46  74 108 160 202 255 342 387 468
#
# _framework density 27.045788000000002
#
# number of rings (size 3 to 8) (size 9 to 14) (size 15 to 20)
#    0.000    1.200    2.000    2.400    8.400    0.000 
#    0.000   14.000    0.000    4.800    0.000    0.000 
#    0.000    0.000    0.000    0.000    0.000    0.000 
#
# Total GULP energy -223118.550770 kJ/mol
# GULP energy per Si atom -5577.963769 kJ/mol
# Density = 2.698423 g / cm^3
# Si number density = 27.045788 Si / 1000 Ang^3
#
#
#
# Elastic Constant Matrix: (Units=GPa)
#
#
# Indices 1 2 3 4 5 6 
#
# 1 153.0366 79.6196 36.5774 0.0000 0.0000 0.0000
# 2 79.6196 276.1899 38.0253 0.0000 0.0000 0.0000
# 3 36.5774 38.0253 124.8637 0.0000 0.0000 0.0000
# 4 0.0000 0.0000 0.0000 22.3083 0.0000 0.0000
# 5 0.0000 0.0000 0.0000 0.0000 -25.6668 0.0000
# 6 0.0000 0.0000 0.0000 0.0000 0.0000 70.1011
#
#
#
# Elastic Compliance Matrix: (Units=1/GPa)
#
#
# Indices 1 2 3 4 5 6 
#
# 1 0.008026 -0.002077 -0.001719 0.000000 0.000000 0.000000
# 2 -0.002077 0.004317 -0.000706 0.000000 0.000000 0.000000
# 3 -0.001719 -0.000706 0.008727 0.000000 0.000000 0.000000
# 4 0.000000 0.000000 0.000000 0.044826 0.000000 0.000000
# 5 0.000000 0.000000 0.000000 0.000000 -0.038961 0.000000
# 6 0.000000 0.000000 0.000000 0.000000 0.000000 0.014265
#
#
# Mechanical properties :
#
#
# Convention : Reuss Voigt Hill
#
# Bulk Modulus (GPa) = 82.87590 95.83717 89.35654
# Shear Modulus (GPa) = 92.20695 40.00636 66.10666
#
# Velocity S-wave (km/s) = 5.84525 3.85022 4.94930
# Velocity P-wave (km/s) = 8.73300 7.43490 8.10996
#
# Compressibility (1/GPa) = 0.01206623
#
# Stress axis : x y z
#
# Youngs Moduli (GPa) = 124.59900 231.65925 114.58435
#
# Poissons Ratio (x) = 0.48117 0.19692
# Poissons Ratio (y) = 0.25880 0.08091
# Poissons Ratio (z) = 0.21413 0.16358
#
# Static dielectric constant tensor:
#      x y z
#    x 2.244670 0.000000 0.000000 
#    y 0.000000 2.296310 0.000000 
#    z 0.000000 0.000000 2.422250 
# 
# From -- ./inp_files/37613.got.cif
#   From: 2010.05.17/outbox.cif.g08.bks.cpg/sg48_19_cif.got.tgz:37613.got - 2010.06.03 20:39:00.
