data_PCOD9390791
_publ_section_title
;
Structure prediction by ZEFSAII (Michael W. Deem and Ramdas Pophale) SiO2 
 PCOD9390791
Probable space group: P N N N
;
_chemical_formula_sum "Si O2"
_cell_formula_units_Z 48
_cell_length_a 13.354199
_cell_length_b 9.514107
_cell_length_c 19.062588
_cell_angle_alpha 90.000000
_cell_angle_beta 90.000000
_cell_angle_gamma 90.000000
_cell_volume 2421.964296
_symmetry_space_group_name_H-M "P N N N"
_symmetry_group_IT_number 48
_space_group.IT_coordinate_system_code '2'
_symmetry_cell_setting 'orthorhombic'
loop_
_space_group_symop_operation_xyz
x,y,z
1/2-x,1/2-y,z
x,1/2-y,1/2-z
1/2-x,y,1/2-z
-x,-y,-z
1/2+x,1/2+y,-z
-x,1/2+y,1/2+z
1/2+x,-y,1/2+z
loop_
_atom_site_type_symbol
_atom_site_label
_atom_site_fract_x
_atom_site_fract_y
_atom_site_fract_z
Si Si1 0.299576 0.904104 0.319347
Si Si2 0.988391 0.347080 0.153085
Si Si3 0.368578 0.274115 0.832862
Si Si4 0.485300 0.969999 0.691501
Si Si5 0.301839 0.397713 0.419976
Si Si6 0.911142 0.956569 0.445453
O O1 0.250000 0.750000 0.322037
O O2 0.250000 0.973878 0.250000
O O3 0.417603 0.928188 0.310994
O O4 0.267324 0.982099 0.389227
O O5 0.902235 0.405785 0.102478
O O6 0.970098 0.416836 0.228739
O O7 0.997901 0.179384 0.153380
O O8 0.094204 0.402702 0.123265
O O9 0.250000 0.250000 0.840342
O O10 0.394645 0.250000 0.750000
O O11 0.397993 0.436634 0.841796
O O12 0.423363 0.171042 0.888990
O O13 0.250000 0.250000 0.406091
O O14 0.323191 0.416049 0.501966
O O15 0.000000 0.000000 0.500000
#
# Coordination Sequence:
#
# PCOD9390791 Si02
#       6
#     8   8   8   8   8   8
#     4  11  24  35  62 102 139 175 216 273 331 414
#     4  10  21  39  63  99 130 174 212 280 332 406
#     4  11  24  44  70  95 125 178 238 284 324 393
#     4  11  22  39  69  98 132 167 231 277 338 395
#     4  11  21  40  61  93 139 178 211 262 343 413
#     4  10  23  41  67  94 134 178 218 276 346 399
#
# _framework density 19.818625999999998
#
# number of rings (size 3 to 8) (size 9 to 14) (size 15 to 20)
#    0.000    1.333    5.000    0.500    7.000    0.333 
#    0.000    7.500    0.000    0.000    0.000    0.000 
#    0.000    0.000    0.000    0.000    0.000    0.000 
#
# Total GULP energy -267413.916292 kJ/mol
# GULP energy per Si atom -5571.123256 kJ/mol
# Density = 1.977352 g / cm^3
# Si number density = 19.818626 Si / 1000 Ang^3
#
#
#
# Elastic Constant Matrix: (Units=GPa)
#
#
# Indices 1 2 3 4 5 6 
#
# 1 55.4668 41.2728 12.7753 0.0000 0.0000 0.0000
# 2 41.2728 108.1781 42.0463 0.0000 0.0000 0.0000
# 3 12.7753 42.0463 100.1989 0.0000 0.0000 0.0000
# 4 0.0000 0.0000 0.0000 -5.2323 0.0000 0.0000
# 5 0.0000 0.0000 0.0000 0.0000 14.1505 0.0000
# 6 0.0000 0.0000 0.0000 0.0000 0.0000 -96.4650
#
#
#
# Elastic Compliance Matrix: (Units=1/GPa)
#
#
# Indices 1 2 3 4 5 6 
#
# 1 0.025257 -0.010019 0.000984 0.000000 0.000000 0.000000
# 2 -0.010019 0.015020 -0.005025 0.000000 0.000000 0.000000
# 3 0.000984 -0.005025 0.011963 0.000000 0.000000 0.000000
# 4 0.000000 0.000000 0.000000 -0.191120 0.000000 0.000000
# 5 0.000000 0.000000 0.000000 0.000000 0.070669 0.000000
# 6 0.000000 0.000000 0.000000 0.000000 0.000000 -0.010366
#
#
# Mechanical properties :
#
#
# Convention : Reuss Voigt Hill
#
# Bulk Modulus (GPa) = 41.45941 50.67029 46.06485
# Shear Modulus (GPa) = -117.87638 -6.32607 -62.10122
#
# Velocity S-wave (km/s) = -7.72054 -1.78855 -5.60382
# Velocity P-wave (km/s) = 7.64923 4.62140 4.31007
#
# Compressibility (1/GPa) = 0.02411997
#
# Stress axis : x y z
#
# Youngs Moduli (GPa) = 39.59294 66.57977 83.58786
#
# Poissons Ratio (x) = 0.66704 -0.08224
# Poissons Ratio (y) = 0.39667 0.42005
# Poissons Ratio (z) = -0.03895 0.33458
#
# Static dielectric constant tensor:
#      x y z
#    x 1.753630 0.000000 0.000000 
#    y 0.000000 1.701360 0.000000 
#    z 0.000000 0.000000 1.731400 
# 
# From -- ./inp_files/31545.got.cif
#   From: 2010.05.17/outbox.cif.g08.bks.cpg/sg48_16_cif.got.tgz:31545.got - 2010.06.03 20:39:00.
