data_PCOD9390972
_publ_section_title
;
Structure prediction by ZEFSAII (Michael W. Deem and Ramdas Pophale) SiO2 
 PCOD9390972
Probable space group: P N N N
;
_chemical_formula_sum "Si O2"
_cell_formula_units_Z 36
_cell_length_a 22.158568
_cell_length_b 5.263516
_cell_length_c 13.948117
_cell_angle_alpha 90.000000
_cell_angle_beta 90.000000
_cell_angle_gamma 90.000000
_cell_volume 1626.796464
_symmetry_space_group_name_H-M "P N N N"
_symmetry_group_IT_number 48
_space_group.IT_coordinate_system_code '2'
_symmetry_cell_setting 'orthorhombic'
loop_
_space_group_symop_operation_xyz
x,y,z
1/2-x,1/2-y,z
x,1/2-y,1/2-z
1/2-x,y,1/2-z
-x,-y,-z
1/2+x,1/2+y,-z
-x,1/2+y,1/2+z
1/2+x,-y,1/2+z
loop_
_atom_site_type_symbol
_atom_site_label
_atom_site_fract_x
_atom_site_fract_y
_atom_site_fract_z
Si Si1 0.371185 0.919120 0.481656
Si Si2 0.896959 0.593148 0.090612
Si Si3 0.573566 0.250000 0.250000
Si Si4 0.817419 0.999573 0.792021
Si Si5 0.989056 0.371915 0.645836
O O1 0.375387 0.632895 0.520872
O O2 0.318551 0.973735 0.405347
O O3 0.432020 0.948917 0.417281
O O4 0.367286 0.139636 0.561097
O O5 0.889331 0.468394 0.195744
O O6 0.967983 0.671480 0.090601
O O7 0.530943 0.386166 0.171640
O O8 0.846968 0.250000 0.750000
O O9 0.750000 0.995623 0.750000
O O10 0.848647 0.750000 0.750000
O O11 0.975757 0.250000 0.750000
#
# Coordination Sequence:
#
# PCOD9390972 Si02
#       5
#     8   8   4   8   8
#     4  12  23  34  59  84 112 157 217 237 289 372
#     4  11  23  37  52  81 117 160 206 252 289 342
#     4  10  22  38  50  76 119 167 192 254 294 322
#     4  10  22  41  61  85 121 154 184 246 310 361
#     4  10  22  34  53  77 121 166 203 248 293 339
#
# _framework density 22.129384000000002
#
# number of rings (size 3 to 8) (size 9 to 14) (size 15 to 20)
#    0.000    1.333    2.222    3.333    7.778    0.000 
#    0.000    0.000    0.000    0.000    0.000    0.000 
#    0.000   53.333    0.889    0.000    0.000    0.000 
#
# Total GULP energy -200873.297859 kJ/mol
# GULP energy per Si atom -5579.813829 kJ/mol
# Density = 2.207902 g / cm^3
# Si number density = 22.129384 Si / 1000 Ang^3
#
#
#
# Elastic Constant Matrix: (Units=GPa)
#
#
# Indices 1 2 3 4 5 6 
#
# 1 44.1755 9.7478 17.9173 0.0000 0.0000 0.0000
# 2 9.7478 172.0925 22.6716 0.0000 0.0000 0.0000
# 3 17.9173 22.6716 52.7455 0.0000 0.0000 0.0000
# 4 0.0000 0.0000 0.0000 58.0283 0.0000 0.0000
# 5 0.0000 0.0000 0.0000 0.0000 36.9223 0.0000
# 6 0.0000 0.0000 0.0000 0.0000 0.0000 -14.0831
#
#
#
# Elastic Compliance Matrix: (Units=1/GPa)
#
#
# Indices 1 2 3 4 5 6 
#
# 1 0.026272 -0.000331 -0.008782 0.000000 0.000000 0.000000
# 2 -0.000331 0.006164 -0.002537 0.000000 0.000000 0.000000
# 3 -0.008782 -0.002537 0.023033 0.000000 0.000000 0.000000
# 4 0.000000 0.000000 0.000000 0.017233 0.000000 0.000000
# 5 0.000000 0.000000 0.000000 0.000000 0.027084 0.000000
# 6 0.000000 0.000000 0.000000 0.000000 0.000000 -0.071007
#
#
# Mechanical properties :
#
#
# Convention : Reuss Voigt Hill
#
# Bulk Modulus (GPa) = 31.08665 41.07631 36.08148
# Shear Modulus (GPa) = 79.61678 30.75197 55.18437
#
# Velocity S-wave (km/s) = 6.00466 3.73184 4.99913
# Velocity P-wave (km/s) = 7.88370 6.09680 7.04712
#
# Compressibility (1/GPa) = 0.03216815
#
# Stress axis : x y z
#
# Youngs Moduli (GPa) = 38.06338 162.23757 43.41674
#
# Poissons Ratio (x) = 0.05373 0.38129
# Poissons Ratio (y) = 0.01261 0.11014
# Poissons Ratio (z) = 0.33427 0.41158
#
# Static dielectric constant tensor:
#      x y z
#    x 1.700660 0.000000 0.000000 
#    y 0.000000 1.884340 0.000000 
#    z 0.000000 0.000000 1.882840 
# 
# From -- ./inp_files/28487.got.cif
#   From: 2010.05.17/outbox.cif.g08.bks.cpg/sg48_15_cif.got.tgz:28487.got - 2010.06.03 20:39:00.
