data_PCOD9390401
_publ_section_title
;
Structure prediction by ZEFSAII (Michael W. Deem and Ramdas Pophale) SiO2 
 PCOD9390401
Probable space group: P N N N
;
_chemical_formula_sum "Si O2"
_cell_formula_units_Z 44
_cell_length_a 16.471693
_cell_length_b 15.082540
_cell_length_c 7.188927
_cell_angle_alpha 90.000000
_cell_angle_beta 90.000000
_cell_angle_gamma 90.000000
_cell_volume 1785.980853
_symmetry_space_group_name_H-M "P N N N"
_symmetry_group_IT_number 48
_space_group.IT_coordinate_system_code '2'
_symmetry_cell_setting 'orthorhombic'
loop_
_space_group_symop_operation_xyz
x,y,z
1/2-x,1/2-y,z
x,1/2-y,1/2-z
1/2-x,y,1/2-z
-x,-y,-z
1/2+x,1/2+y,-z
-x,1/2+y,1/2+z
1/2+x,-y,1/2+z
loop_
_atom_site_type_symbol
_atom_site_label
_atom_site_fract_x
_atom_site_fract_y
_atom_site_fract_z
Si Si1 0.071187 0.123771 0.432870
Si Si2 0.250000 0.750000 0.750000
Si Si3 0.664178 0.384649 0.036479
Si Si4 0.750000 0.250000 0.750000
Si Si5 0.524551 0.355203 0.761672
Si Si6 0.258427 0.052363 0.034851
Si Si7 0.612104 0.668058 0.971679
O O1 0.989065 0.109300 0.551987
O O2 0.147248 0.065691 0.500908
O O3 0.071701 0.119805 0.208306
O O4 0.096034 0.227291 0.459409
O O5 0.321994 0.826595 0.719877
O O6 0.709601 0.317264 0.894416
O O7 0.582188 0.397904 0.917329
O O8 0.708280 0.476997 0.066192
O O9 0.547069 0.250000 0.750000
O O10 0.434970 0.361815 0.846447
O O11 0.250000 0.024841 0.250000
O O12 0.206183 0.142370 0.019388
#
# Coordination Sequence:
#
# PCOD9390401 Si02
#       7
#     8   2   8   2   8   8   8
#     4   9  19  37  61  93 128 173 208 254 320 393
#     4  10  28  42  64  90 118 162 218 286 342 384
#     4  11  22  42  63  89 117 164 218 273 326 385
#     4  10  20  42  64  78 110 160 216 262 308 378
#     4  10  21  37  62  90 124 167 215 265 328 382
#     4  10  20  37  63  90 126 170 216 261 319 391
#     4   9  19  36  58  94 134 167 205 258 319 392
#
# _framework density 24.636322
#
# number of rings (size 3 to 8) (size 9 to 14) (size 15 to 20)
#    0.000    2.182    1.818    0.545    0.000    8.000 
#    0.000    6.364    0.000    0.000    0.000    3.818 
#    0.000    0.000    0.000    0.000    0.000    0.000 
#
# Total GULP energy -244946.792639 kJ/mol
# GULP energy per Si atom -5566.972560 kJ/mol
# Density = 2.458025 g / cm^3
# Si number density = 24.636322 Si / 1000 Ang^3
#
#
#
# Elastic Constant Matrix: (Units=GPa)
#
#
# Indices 1 2 3 4 5 6 
#
# 1 61.8692 22.0767 24.2881 0.0000 0.0000 0.0000
# 2 22.0767 68.0492 13.1094 0.0000 0.0000 0.0000
# 3 24.2881 13.1094 25.7179 0.0000 0.0000 0.0000
# 4 0.0000 0.0000 0.0000 12.3765 0.0000 0.0000
# 5 0.0000 0.0000 0.0000 0.0000 144.3866 0.0000
# 6 0.0000 0.0000 0.0000 0.0000 0.0000 14.7686
#
#
#
# Elastic Compliance Matrix: (Units=1/GPa)
#
#
# Indices 1 2 3 4 5 6 
#
# 1 0.026738 -0.004225 -0.023099 0.000000 0.000000 0.000000
# 2 -0.004225 0.016963 -0.004657 0.000000 0.000000 0.000000
# 3 -0.023099 -0.004657 0.063072 0.000000 0.000000 0.000000
# 4 0.000000 0.000000 0.000000 0.080798 0.000000 0.000000
# 5 0.000000 0.000000 0.000000 0.000000 0.006926 0.000000
# 6 0.000000 0.000000 0.000000 0.000000 0.000000 0.067711
#
#
# Mechanical properties :
#
#
# Convention : Reuss Voigt Hill
#
# Bulk Modulus (GPa) = 23.35740 30.50943 26.93341
# Shear Modulus (GPa) = 14.68690 40.71715 27.70203
#
# Velocity S-wave (km/s) = 2.44426 4.06979 3.35690
# Velocity P-wave (km/s) = 4.17940 5.87325 5.09718
#
# Compressibility (1/GPa) = 0.04281298
#
# Stress axis : x y z
#
# Youngs Moduli (GPa) = 37.39928 58.95197 15.85497
#
# Poissons Ratio (x) = 0.24906 0.36623
# Poissons Ratio (y) = 0.15800 0.07383
# Poissons Ratio (z) = 0.86387 0.27453
#
# Static dielectric constant tensor:
#      x y z
#    x 1.915520 0.000000 0.000000 
#    y 0.000000 5.192130 0.000000 
#    z 0.000000 0.000000 2.210990 
# 
# From -- ./inp_files/12700.got.cif
#   From: 2010.05.17/outbox.cif.g08.bks.cpg/sg48_7_cif.got.tgz:12700.got - 2010.06.03 20:39:00.
