data_PCOD9390858
_publ_section_title
;
Structure prediction by ZEFSAII (Michael W. Deem and Ramdas Pophale) SiO2 
 PCOD9390858
Probable space group: P N N N
;
_chemical_formula_sum "Si O2"
_cell_formula_units_Z 56
_cell_length_a 21.571840
_cell_length_b 9.696378
_cell_length_c 14.334452
_cell_angle_alpha 90.000000
_cell_angle_beta 90.000000
_cell_angle_gamma 90.000000
_cell_volume 2998.318902
_symmetry_space_group_name_H-M "P N N N"
_symmetry_group_IT_number 48
_space_group.IT_coordinate_system_code '2'
_symmetry_cell_setting 'orthorhombic'
loop_
_space_group_symop_operation_xyz
x,y,z
1/2-x,1/2-y,z
x,1/2-y,1/2-z
1/2-x,y,1/2-z
-x,-y,-z
1/2+x,1/2+y,-z
-x,1/2+y,1/2+z
1/2+x,-y,1/2+z
loop_
_atom_site_type_symbol
_atom_site_label
_atom_site_fract_x
_atom_site_fract_y
_atom_site_fract_z
Si Si1 0.865452 0.523367 0.575630
Si Si2 0.700787 0.158807 0.344283
Si Si3 0.554593 0.732828 0.636354
Si Si4 0.622213 0.484918 0.542954
Si Si5 0.576724 0.202090 0.450859
Si Si6 0.817400 0.087595 0.736500
Si Si7 0.246977 0.415334 0.944514
O O1 0.893959 0.673096 0.586715
O O2 0.913708 0.418698 0.526761
O O3 0.857818 0.470675 0.680441
O O4 0.799372 0.536094 0.521296
O O5 0.750000 0.250000 0.404555
O O6 0.695252 0.250000 0.250000
O O7 0.632159 0.161985 0.381806
O O8 0.730559 0.006885 0.355096
O O9 0.559073 0.750000 0.750000
O O10 0.570199 0.585538 0.588423
O O11 0.487995 0.786617 0.602006
O O12 0.592422 0.351413 0.494480
O O13 0.659186 0.438867 0.634255
O O14 0.676556 0.547750 0.476258
O O15 0.813867 0.250000 0.750000
O O16 0.750000 0.022956 0.750000
O O17 0.250000 0.250000 0.931952
#
# Coordination Sequence:
#
# PCOD9390858 Si02
#       7
#     8   8   8   8   8   8   8
#     4  11  22  38  62  92 126 167 203 252 307 380
#     4  10  21  40  67  92 114 157 215 259 295 360
#     4  12  25  40  60  88 127 170 202 255 315 365
#     4  12  22  38  62  92 128 160 207 253 308 380
#     4  11  24  41  62  86 121 165 221 249 296 364
#     4  11  21  33  60  97 132 159 198 253 315 369
#     4  11  22  38  64  97 131 156 194 260 327 366
#
# _framework density 18.677132
#
# number of rings (size 3 to 8) (size 9 to 14) (size 15 to 20)
#    0.000    0.857    7.143    1.286    0.000    0.000 
#    0.000    3.571    0.000    0.000    0.000    0.000 
#    0.000    0.000    0.000    0.000    0.000    0.000 
#
# Total GULP energy -311743.178891 kJ/mol
# GULP energy per Si atom -5566.842480 kJ/mol
# Density = 1.863462 g / cm^3
# Si number density = 18.677132 Si / 1000 Ang^3
#
#
#
# Elastic Constant Matrix: (Units=GPa)
#
#
# Indices 1 2 3 4 5 6 
#
# 1 51.2572 -22.3666 11.0215 0.0000 0.0000 0.0000
# 2 -22.3666 75.2244 20.1212 0.0000 0.0000 0.0000
# 3 11.0215 20.1212 81.7154 0.0000 0.0000 0.0000
# 4 0.0000 0.0000 0.0000 69.5582 0.0000 0.0000
# 5 0.0000 0.0000 0.0000 0.0000 12.7341 0.0000
# 6 0.0000 0.0000 0.0000 0.0000 0.0000 19.8048
#
#
#
# Elastic Compliance Matrix: (Units=1/GPa)
#
#
# Indices 1 2 3 4 5 6 
#
# 1 0.024498 0.008744 -0.005457 0.000000 0.000000 0.000000
# 2 0.008744 0.017352 -0.005452 0.000000 0.000000 0.000000
# 3 -0.005457 -0.005452 0.014316 0.000000 0.000000 0.000000
# 4 0.000000 0.000000 0.000000 0.014376 0.000000 0.000000
# 5 0.000000 0.000000 0.000000 0.000000 0.078529 0.000000
# 6 0.000000 0.000000 0.000000 0.000000 0.000000 0.050493
#
#
# Mechanical properties :
#
#
# Convention : Reuss Voigt Hill
#
# Bulk Modulus (GPa) = 19.29181 25.08325 22.18753
# Shear Modulus (GPa) = 22.60666 33.71415 28.16041
#
# Velocity S-wave (km/s) = 3.48284 4.25326 3.88719
# Velocity P-wave (km/s) = 5.15026 6.13020 5.66147
#
# Compressibility (1/GPa) = 0.05183546
#
# Stress axis : x y z
#
# Youngs Moduli (GPa) = 40.81901 57.63132 69.85140
#
# Poissons Ratio (x) = -0.50392 0.38120
# Poissons Ratio (y) = -0.35692 0.38082
# Poissons Ratio (z) = 0.22276 0.31420
#
# Static dielectric constant tensor:
#      x y z
#    x 1.643850 0.000000 0.000000 
#    y 0.000000 1.700100 0.000000 
#    z 0.000000 0.000000 1.963230 
# 
# From -- ./inp_files/13110.got.cif
#   From: 2010.05.17/outbox.cif.g08.bks.cpg/sg48_7_cif.got.tgz:13110.got - 2010.06.03 20:39:00.
