data_PCOD9390908
_publ_section_title
;
Structure prediction by ZEFSAII (Michael W. Deem and Ramdas Pophale) SiO2 
 PCOD9390908
Probable space group: P N N N
;
_chemical_formula_sum "Si O2"
_cell_formula_units_Z 38
_cell_length_a 17.894714
_cell_length_b 5.798652
_cell_length_c 16.259548
_cell_angle_alpha 90.000000
_cell_angle_beta 90.000000
_cell_angle_gamma 90.000000
_cell_volume 1687.175561
_symmetry_space_group_name_H-M "P N N N"
_symmetry_group_IT_number 48
_space_group.IT_coordinate_system_code '2'
_symmetry_cell_setting 'orthorhombic'
loop_
_space_group_symop_operation_xyz
x,y,z
1/2-x,1/2-y,z
x,1/2-y,1/2-z
1/2-x,y,1/2-z
-x,-y,-z
1/2+x,1/2+y,-z
-x,1/2+y,1/2+z
1/2+x,-y,1/2+z
loop_
_atom_site_type_symbol
_atom_site_label
_atom_site_fract_x
_atom_site_fract_y
_atom_site_fract_z
Si Si1 0.250000 0.250000 0.613712
Si Si2 0.250000 0.750000 0.519199
Si Si3 0.250000 0.750000 0.250000
Si Si4 0.376401 0.250000 0.750000
Si Si5 0.011909 0.429662 0.864742
Si Si6 0.054262 0.203835 0.028394
Si Si7 0.639468 0.140300 0.614366
O O1 0.250760 0.503928 0.568532
O O2 0.321519 0.213912 0.673762
O O3 0.319859 0.714798 0.456725
O O4 0.305620 0.888010 0.309290
O O5 0.435715 0.064991 0.785594
O O6 0.981749 0.672167 0.893859
O O7 0.939049 0.260377 0.859564
O O8 0.058660 0.353729 0.946382
O O9 0.127822 0.096581 0.065697
O O10 0.000000 0.000000 0.000000
#
# Coordination Sequence:
#
# PCOD9390908 Si02
#       7
#     4   4   2   4   8   8   8
#     4  11  28  50  70 107 144 204 238 305 368 454
#     4  11  26  46  78  97 148 190 260 289 364 452
#     4  10  22  44  60  94 148 174 232 284 370 426
#     4  11  25  44  69 103 154 186 240 303 385 438
#     4  10  21  41  68 103 137 177 237 304 359 436
#     4   9  20  38  67 101 128 174 235 285 356 423
#     4  10  22  42  70 100 133 187 231 302 357 431
#
# _framework density 22.522849000000001
#
# number of rings (size 3 to 8) (size 9 to 14) (size 15 to 20)
#    0.000    1.895    0.000    1.895   11.789    1.684 
#    7.579    6.316    0.000    0.000    0.000    0.000 
#    0.000    0.000    0.000    0.000    0.000    0.000 
#
# Total GULP energy -211537.568749 kJ/mol
# GULP energy per Si atom -5566.778125 kJ/mol
# Density = 2.247159 g / cm^3
# Si number density = 22.522849 Si / 1000 Ang^3
#
#
#
# Elastic Constant Matrix: (Units=GPa)
#
#
# Indices 1 2 3 4 5 6 
#
# 1 120.4985 22.3499 68.5530 0.0000 0.0000 0.0000
# 2 22.3499 67.2797 32.9943 0.0000 0.0000 0.0000
# 3 68.5530 32.9943 103.1755 0.0000 0.0000 0.0000
# 4 0.0000 0.0000 0.0000 17.9559 0.0000 0.0000
# 5 0.0000 0.0000 0.0000 0.0000 48.7517 0.0000
# 6 0.0000 0.0000 0.0000 0.0000 0.0000 18.4105
#
#
#
# Elastic Compliance Matrix: (Units=1/GPa)
#
#
# Indices 1 2 3 4 5 6 
#
# 1 0.013343 -0.000101 -0.008833 0.000000 0.000000 0.000000
# 2 -0.000101 0.017629 -0.005571 0.000000 0.000000 0.000000
# 3 -0.008833 -0.005571 0.017343 0.000000 0.000000 0.000000
# 4 0.000000 0.000000 0.000000 0.055692 0.000000 0.000000
# 5 0.000000 0.000000 0.000000 0.000000 0.020512 0.000000
# 6 0.000000 0.000000 0.000000 0.000000 0.000000 0.054317
#
#
# Mechanical properties :
#
#
# Convention : Reuss Voigt Hill
#
# Bulk Modulus (GPa) = 51.79911 59.86090 55.83001
# Shear Modulus (GPa) = 23.33406 28.16071 25.74739
#
# Velocity S-wave (km/s) = 3.22221 3.53982 3.38474
# Velocity P-wave (km/s) = 6.07387 6.58351 6.33382
#
# Compressibility (1/GPa) = 0.01930535
#
# Stress axis : x y z
#
# Youngs Moduli (GPa) = 74.94650 56.72610 57.66109
#
# Poissons Ratio (x) = 0.00570 0.50933
# Poissons Ratio (y) = 0.00754 0.32121
# Poissons Ratio (z) = 0.66202 0.31600
#
# Static dielectric constant tensor:
#      x y z
#    x 2.212040 0.000000 0.000000 
#    y 0.000000 1.901800 0.000000 
#    z 0.000000 0.000000 1.878440 
# 
# From -- ./inp_files/31855.got.cif
#   From: 2010.05.17/outbox.cif.g08.bks.cpg/sg48_16_cif.got.tgz:31855.got - 2010.06.03 20:39:00.
