data_PCOD9390827
_publ_section_title
;
Structure prediction by ZEFSAII (Michael W. Deem and Ramdas Pophale) SiO2 
 PCOD9390827
Probable space group: P N N N
;
_chemical_formula_sum "Si O2"
_cell_formula_units_Z 48
_cell_length_a 5.787159
_cell_length_b 27.375554
_cell_length_c 13.767413
_cell_angle_alpha 90.000000
_cell_angle_beta 90.000000
_cell_angle_gamma 90.000000
_cell_volume 2181.125585
_symmetry_space_group_name_H-M "P N N N"
_symmetry_group_IT_number 48
_space_group.IT_coordinate_system_code '2'
_symmetry_cell_setting 'orthorhombic'
loop_
_space_group_symop_operation_xyz
x,y,z
1/2-x,1/2-y,z
x,1/2-y,1/2-z
1/2-x,y,1/2-z
-x,-y,-z
1/2+x,1/2+y,-z
-x,1/2+y,1/2+z
1/2+x,-y,1/2+z
loop_
_atom_site_type_symbol
_atom_site_label
_atom_site_fract_x
_atom_site_fract_y
_atom_site_fract_z
Si Si1 0.410843 0.327313 0.994730
Si Si2 0.938633 0.828451 0.664918
Si Si3 0.750000 0.060317 0.750000
Si Si4 0.885859 0.897482 0.389569
Si Si5 0.228181 0.595885 0.928753
Si Si6 0.250000 0.750000 0.573612
Si Si7 0.879084 0.506982 0.353529
O O1 0.203638 0.318138 0.067452
O O2 0.556805 0.369878 0.046754
O O3 0.577856 0.280525 0.002645
O O4 0.286116 0.351020 0.900159
O O5 0.750000 0.825040 0.750000
O O6 0.071260 0.880448 0.657335
O O7 0.132317 0.787845 0.648236
O O8 0.543774 0.093390 0.794013
O O9 0.639663 0.024003 0.669917
O O10 0.734402 0.945977 0.402313
O O11 0.066267 0.898599 0.477462
O O12 0.324082 0.542242 0.909620
O O13 0.750000 0.501179 0.250000
#
# Coordination Sequence:
#
# PCOD9390827 Si02
#       7
#     8   8   4   8   8   4   8
#     4  10  22  37  60  87 123 158 213 260 323 377
#     4  10  23  39  61  88 126 170 216 262 311 375
#     4  10  22  38  60  86 126 165 217 258 322 372
#     4  10  21  40  58  90 123 167 208 263 311 380
#     4  10  22  38  60  89 128 169 214 258 310 367
#     4  10  22  41  60  88 120 165 210 268 326 383
#     4  10  22  37  59  88 126 173 213 253 306 369
#
# _framework density 22.006983999999999
#
# number of rings (size 3 to 8) (size 9 to 14) (size 15 to 20)
#    0.000    2.000    0.000    2.000    2.333   12.000 
#    1.500    0.000    1.833    0.000    0.000    0.000 
#    0.000 1180.000    0.000    0.000    0.000    0.000 
#
# Total GULP energy -267790.462911 kJ/mol
# GULP energy per Si atom -5578.967977 kJ/mol
# Density = 2.195690 g / cm^3
# Si number density = 22.006984 Si / 1000 Ang^3
#
#
#
# Elastic Constant Matrix: (Units=GPa)
#
#
# Indices 1 2 3 4 5 6 
#
# 1 97.6128 48.9240 21.4155 0.0000 0.0000 0.0000
# 2 48.9240 109.4122 34.9597 0.0000 0.0000 0.0000
# 3 21.4155 34.9597 45.0616 0.0000 0.0000 0.0000
# 4 0.0000 0.0000 0.0000 15.1722 0.0000 0.0000
# 5 0.0000 0.0000 0.0000 0.0000 26.1641 0.0000
# 6 0.0000 0.0000 0.0000 0.0000 0.0000 99.9893
#
#
#
# Elastic Compliance Matrix: (Units=1/GPa)
#
#
# Indices 1 2 3 4 5 6 
#
# 1 0.013378 -0.005253 -0.002283 0.000000 0.000000 0.000000
# 2 -0.005253 0.014215 -0.008532 0.000000 0.000000 0.000000
# 3 -0.002283 -0.008532 0.029896 0.000000 0.000000 0.000000
# 4 0.000000 0.000000 0.000000 0.065910 0.000000 0.000000
# 5 0.000000 0.000000 0.000000 0.000000 0.038220 0.000000
# 6 0.000000 0.000000 0.000000 0.000000 0.000000 0.010001
#
#
# Mechanical properties :
#
#
# Convention : Reuss Voigt Hill
#
# Bulk Modulus (GPa) = 39.44119 51.40947 45.42533
# Shear Modulus (GPa) = 23.56211 38.05097 30.80654
#
# Velocity S-wave (km/s) = 3.27565 4.16268 3.74552
# Velocity P-wave (km/s) = 5.68045 6.82020 6.27625
#
# Compressibility (1/GPa) = 0.02535420
#
# Stress axis : x y z
#
# Youngs Moduli (GPa) = 74.74945 70.35064 33.44958
#
# Poissons Ratio (x) = 0.36952 0.07636
# Poissons Ratio (y) = 0.39263 0.28538
# Poissons Ratio (z) = 0.17064 0.60020
#
# Static dielectric constant tensor:
#      x y z
#    x 2.175060 0.000000 0.000000 
#    y 0.000000 1.826900 0.000000 
#    z 0.000000 0.000000 1.899410 
# 
# From -- ./inp_files/24451.got.cif
#   From: 2010.05.17/outbox.cif.g08.bks.cpg/sg48_13_cif.got.tgz:24451.got - 2010.06.03 20:39:00.
