data_PCOD9390980
_publ_section_title
;
Structure prediction by ZEFSAII (Michael W. Deem and Ramdas Pophale) SiO2 
 PCOD9390980
Probable space group: P N N N
;
_chemical_formula_sum "Si O2"
_cell_formula_units_Z 54
_cell_length_a 22.443967
_cell_length_b 22.561323
_cell_length_c 4.982875
_cell_angle_alpha 90.000000
_cell_angle_beta 90.000000
_cell_angle_gamma 90.000000
_cell_volume 2523.156434
_symmetry_space_group_name_H-M "P N N N"
_symmetry_group_IT_number 48
_space_group.IT_coordinate_system_code '2'
_symmetry_cell_setting 'orthorhombic'
loop_
_space_group_symop_operation_xyz
x,y,z
1/2-x,1/2-y,z
x,1/2-y,1/2-z
1/2-x,y,1/2-z
-x,-y,-z
1/2+x,1/2+y,-z
-x,1/2+y,1/2+z
1/2+x,-y,1/2+z
loop_
_atom_site_type_symbol
_atom_site_label
_atom_site_fract_x
_atom_site_fract_y
_atom_site_fract_z
Si Si1 0.495254 0.588945 0.976359
Si Si2 0.927745 0.940307 0.458572
Si Si3 0.708400 0.560929 0.054421
Si Si4 0.950489 0.711257 0.512283
Si Si5 0.624804 0.032542 0.629509
Si Si6 0.750000 0.750000 0.750000
Si Si7 0.250000 0.540227 0.250000
Si Si8 0.342630 0.344479 0.353100
O O1 0.534021 0.551031 0.190140
O O2 0.507769 0.656437 0.061198
O O3 0.427055 0.571071 0.005617
O O4 0.523772 0.580945 0.683539
O O5 0.879998 0.885138 0.434633
O O6 0.899010 0.996669 0.610753
O O7 0.750000 0.598179 0.250000
O O8 0.650336 0.518756 0.070911
O O9 0.756990 0.509081 0.983367
O O10 0.688998 0.605724 0.825189
O O11 0.936431 0.750000 0.250000
O O12 0.891716 0.685204 0.657044
O O13 0.979270 0.750000 0.750000
O O14 0.685774 0.068203 0.704147
O O15 0.705190 0.706741 0.584417
#
# Coordination Sequence:
#
# PCOD9390980 Si02
#       8
#     8   8   8   8   8   2   4   8
#     4  11  22  38  64  85 113 157 203 250 306 360
#     4  10  22  38  59  86 118 155 200 260 297 348
#     4   9  19  36  53  81 117 157 189 238 299 351
#     4  11  23  42  59  82 118 153 200 263 298 338
#     4   9  20  37  56  91 116 153 198 241 313 373
#     4  12  22  36  58  76 122 160 228 234 280 336
#     4   8  19  34  52  79 125 140 181 232 296 358
#     4  10  22  36  54  82 113 161 211 248 286 340
#
# _framework density 21.401762999999999
#
# number of rings (size 3 to 8) (size 9 to 14) (size 15 to 20)
#    0.889    1.185    0.741    3.111    0.000    5.926 
#    2.667    0.000    0.000    0.000    0.000    0.519 
#    0.000    0.000    0.000    0.000    0.000    0.000 
#
# Total GULP energy -301082.440622 kJ/mol
# GULP energy per Si atom -5575.600752 kJ/mol
# Density = 2.135305 g / cm^3
# Si number density = 21.401763 Si / 1000 Ang^3
#
#
#
# Elastic Constant Matrix: (Units=GPa)
#
#
# Indices 1 2 3 4 5 6 
#
# 1 172.8202 52.3968 7.8695 0.0000 0.0000 0.0000
# 2 52.3968 68.0716 7.4871 0.0000 0.0000 0.0000
# 3 7.8695 7.4871 67.4216 0.0000 0.0000 0.0000
# 4 0.0000 0.0000 0.0000 23.1504 0.0000 0.0000
# 5 0.0000 0.0000 0.0000 0.0000 20.7926 0.0000
# 6 0.0000 0.0000 0.0000 0.0000 0.0000 42.1868
#
#
#
# Elastic Compliance Matrix: (Units=1/GPa)
#
#
# Indices 1 2 3 4 5 6 
#
# 1 0.007552 -0.005786 -0.000239 0.000000 0.000000 0.000000
# 2 -0.005786 0.019306 -0.001469 0.000000 0.000000 0.000000
# 3 -0.000239 -0.001469 0.015023 0.000000 0.000000 0.000000
# 4 0.000000 0.000000 0.000000 0.043196 0.000000 0.000000
# 5 0.000000 0.000000 0.000000 0.000000 0.048094 0.000000
# 6 0.000000 0.000000 0.000000 0.000000 0.000000 0.023704
#
#
# Mechanical properties :
#
#
# Convention : Reuss Voigt Hill
#
# Bulk Modulus (GPa) = 37.18447 49.31336 43.24892
# Shear Modulus (GPa) = 27.65083 33.26328 30.45705
#
# Velocity S-wave (km/s) = 3.59832 3.94665 3.77651
# Velocity P-wave (km/s) = 5.88864 6.62267 6.26642
#
# Compressibility (1/GPa) = 0.02689295
#
# Stress axis : x y z
#
# Youngs Moduli (GPa) = 132.42208 51.79757 66.56461
#
# Poissons Ratio (x) = 0.29972 0.01590
# Poissons Ratio (y) = 0.76625 0.09775
# Poissons Ratio (z) = 0.03163 0.07606
#
# Static dielectric constant tensor:
#      x y z
#    x 1.861800 0.000000 0.000000 
#    y 0.000000 1.790390 0.000000 
#    z 0.000000 0.000000 2.293890 
# 
# From -- ./inp_files/5364.got.cif
#   From: 2010.05.17/outbox.cif.g08.bks.cpg/sg48_3_cif.got.tgz:5364.got - 2010.06.03 20:39:00.
