data_PCOD9390489
_publ_section_title
;
Structure prediction by ZEFSAII (Michael W. Deem and Ramdas Pophale) SiO2 
 PCOD9390489
Probable space group: P N N N
;
_chemical_formula_sum "Si O2"
_cell_formula_units_Z 64
_cell_length_a 15.402898
_cell_length_b 12.483015
_cell_length_c 17.479494
_cell_angle_alpha 90.000000
_cell_angle_beta 90.000000
_cell_angle_gamma 90.000000
_cell_volume 3360.862836
_symmetry_space_group_name_H-M "P N N N"
_symmetry_group_IT_number 48
_space_group.IT_coordinate_system_code '2'
_symmetry_cell_setting 'orthorhombic'
loop_
_space_group_symop_operation_xyz
x,y,z
1/2-x,1/2-y,z
x,1/2-y,1/2-z
1/2-x,y,1/2-z
-x,-y,-z
1/2+x,1/2+y,-z
-x,1/2+y,1/2+z
1/2+x,-y,1/2+z
loop_
_atom_site_type_symbol
_atom_site_label
_atom_site_fract_x
_atom_site_fract_y
_atom_site_fract_z
Si Si1 0.296365 0.362833 0.539147
Si Si2 0.030401 0.101706 0.449606
Si Si3 0.478379 0.521747 0.300272
Si Si4 0.939693 0.248041 0.663367
Si Si5 0.326700 0.940598 0.311280
Si Si6 0.145749 0.012610 0.022516
Si Si7 0.158905 0.129578 0.716033
Si Si8 0.989484 0.171343 0.992657
O O1 0.250000 0.250000 0.525426
O O2 0.371249 0.379063 0.477159
O O3 0.223664 0.453943 0.532071
O O4 0.334559 0.361559 0.624295
O O5 0.019951 0.073667 0.360602
O O6 0.981805 0.212519 0.469518
O O7 0.000000 0.000000 0.500000
O O8 0.437270 0.621661 0.349640
O O9 0.412742 0.511453 0.229625
O O10 0.573895 0.556474 0.271625
O O11 0.973823 0.250000 0.750000
O O12 0.851807 0.316877 0.669311
O O13 0.996247 0.304509 0.598586
O O14 0.250000 0.947265 0.250000
O O15 0.315590 0.997366 0.392422
O O16 0.073012 0.106024 0.020842
O O17 0.093753 0.905525 0.999129
O O18 0.152348 0.250000 0.750000
O O19 0.250000 0.086404 0.750000
#
# Coordination Sequence:
#
# PCOD9390489 Si02
#       8
#     8   8   8   8   8   8   8   8
#     4  12  22  39  64  97 131 165 214 275 323 391
#     4  12  22  38  65  93 132 170 213 263 332 393
#     4  11  22  37  61  91 129 164 214 263 328 393
#     4   9  18  31  57  88 121 156 197 261 323 371
#     4  10  21  39  59  88 124 167 217 263 323 384
#     4  10  23  39  63  90 127 169 216 265 323 381
#     4  11  22  35  59  97 127 159 204 269 342 379
#     4  10  20  39  60  91 124 169 213 258 321 392
#
# _framework density 19.042729000000001
#
# number of rings (size 3 to 8) (size 9 to 14) (size 15 to 20)
#    0.000    1.375    5.000    1.875    0.000    7.250 
#    0.000    1.250    0.000    0.000    0.000    0.000 
#    0.000    0.000    0.000    0.000    0.000    0.000 
#
# Total GULP energy -356976.340602 kJ/mol
# GULP energy per Si atom -5577.755322 kJ/mol
# Density = 1.899939 g / cm^3
# Si number density = 19.042729 Si / 1000 Ang^3
#
#
#
# Elastic Constant Matrix: (Units=GPa)
#
#
# Indices 1 2 3 4 5 6 
#
# 1 96.5898 18.3658 26.0430 0.0000 0.0000 0.0000
# 2 18.3658 90.3747 27.3976 0.0000 0.0000 0.0000
# 3 26.0430 27.3976 66.3398 0.0000 0.0000 0.0000
# 4 0.0000 0.0000 0.0000 33.9534 0.0000 0.0000
# 5 0.0000 0.0000 0.0000 0.0000 29.3304 0.0000
# 6 0.0000 0.0000 0.0000 0.0000 0.0000 20.8266
#
#
#
# Elastic Compliance Matrix: (Units=1/GPa)
#
#
# Indices 1 2 3 4 5 6 
#
# 1 0.011678 -0.001124 -0.004120 0.000000 0.000000 0.000000
# 2 -0.001124 0.012757 -0.004827 0.000000 0.000000 0.000000
# 3 -0.004120 -0.004827 0.018685 0.000000 0.000000 0.000000
# 4 0.000000 0.000000 0.000000 0.029452 0.000000 0.000000
# 5 0.000000 0.000000 0.000000 0.000000 0.034094 0.000000
# 6 0.000000 0.000000 0.000000 0.000000 0.000000 0.048016
#
#
# Mechanical properties :
#
#
# Convention : Reuss Voigt Hill
#
# Bulk Modulus (GPa) = 43.52218 44.10189 43.81203
# Shear Modulus (GPa) = 27.39983 28.92195 28.16089
#
# Velocity S-wave (km/s) = 3.79735 3.90140 3.84972
# Velocity P-wave (km/s) = 6.49085 6.59577 6.54352
#
# Compressibility (1/GPa) = 0.02297679
#
# Stress axis : x y z
#
# Youngs Moduli (GPa) = 85.63352 78.38925 53.51925
#
# Poissons Ratio (x) = 0.08812 0.22050
# Poissons Ratio (y) = 0.09626 0.25835
# Poissons Ratio (z) = 0.35281 0.37840
#
# Static dielectric constant tensor:
#      x y z
#    x 1.704930 0.000000 0.000000 
#    y 0.000000 1.698100 0.000000 
#    z 0.000000 0.000000 1.672080 
# 
# From -- ./inp_files/31698.got.cif
#   From: 2010.05.17/outbox.cif.g08.bks.cpg/sg48_16_cif.got.tgz:31698.got - 2010.06.03 20:39:00.
