data_PCOD9390365
_publ_section_title
;
Structure prediction by ZEFSAII (Michael W. Deem and Ramdas Pophale) SiO2 
 PCOD9390365
Probable space group: P N N N
;
_chemical_formula_sum "Si O2"
_cell_formula_units_Z 58
_cell_length_a 9.103851
_cell_length_b 27.707683
_cell_length_c 10.622335
_cell_angle_alpha 90.000000
_cell_angle_beta 90.000000
_cell_angle_gamma 90.000000
_cell_volume 2679.448075
_symmetry_space_group_name_H-M "P N N N"
_symmetry_group_IT_number 48
_space_group.IT_coordinate_system_code '2'
_symmetry_cell_setting 'orthorhombic'
loop_
_space_group_symop_operation_xyz
x,y,z
1/2-x,1/2-y,z
x,1/2-y,1/2-z
1/2-x,y,1/2-z
-x,-y,-z
1/2+x,1/2+y,-z
-x,1/2+y,1/2+z
1/2+x,-y,1/2+z
loop_
_atom_site_type_symbol
_atom_site_label
_atom_site_fract_x
_atom_site_fract_y
_atom_site_fract_z
Si Si1 0.479978 0.646769 0.568564
Si Si2 0.216843 0.564607 0.890120
Si Si3 0.872919 0.402331 0.646905
Si Si4 0.781292 0.612371 0.602230
Si Si5 0.123262 0.031073 0.927315
Si Si6 0.750000 0.750000 0.750000
Si Si7 0.992833 0.185510 0.155819
Si Si8 0.221496 0.803475 0.067543
O O1 0.438948 0.589851 0.582286
O O2 0.653389 0.646531 0.548643
O O3 0.448443 0.673692 0.701038
O O4 0.376715 0.671228 0.466052
O O5 0.250000 0.584070 0.750000
O O6 0.257835 0.508335 0.882061
O O7 0.310940 0.584028 0.008073
O O8 0.750000 0.417576 0.750000
O O9 0.870907 0.343485 0.646514
O O10 0.026255 0.432183 0.660458
O O11 0.750000 0.605448 0.750000
O O12 0.792000 0.563911 0.526114
O O13 0.939593 0.637043 0.597217
O O14 0.000000 0.000000 0.000000
O O15 0.863822 0.780774 0.832349
O O16 0.867343 0.203433 0.064069
O O17 0.250000 0.750000 0.117375
#
# Coordination Sequence:
#
# PCOD9390365 Si02
#       8
#     8   8   8   8   8   2   8   8
#     4  10  20  37  58  91 133 169 208 270 340 389
#     4  10  22  40  65  93 129 161 216 277 329 386
#     4  10  22  44  66  88 131 176 221 268 329 398
#     4  10  21  37  61  87 129 179 208 264 340 396
#     4  10  22  40  61  90 125 176 215 263 325 400
#     4  12  20  32  58 104 124 174 234 260 336 438
#     4  11  20  35  59  88 135 171 204 272 333 408
#     4  11  22  36  62  90 122 168 219 275 329 391
#
# _framework density 21.646249000000001
#
# number of rings (size 3 to 8) (size 9 to 14) (size 15 to 20)
#    0.000    1.655    3.448    2.897    5.793    3.586 
#    4.966    0.000    0.000    0.000    0.000    0.000 
#    0.000    0.000    0.000    0.000    0.000    0.000 
#
# Total GULP energy -323177.181010 kJ/mol
# GULP energy per Si atom -5572.020362 kJ/mol
# Density = 2.159698 g / cm^3
# Si number density = 21.646249 Si / 1000 Ang^3
#
#
#
# Elastic Constant Matrix: (Units=GPa)
#
#
# Indices 1 2 3 4 5 6 
#
# 1 82.7482 36.7261 30.4544 0.0000 0.0000 0.0000
# 2 36.7261 129.0208 31.0415 0.0000 0.0000 0.0000
# 3 30.4544 31.0415 68.5460 0.0000 0.0000 0.0000
# 4 0.0000 0.0000 0.0000 20.8914 0.0000 0.0000
# 5 0.0000 0.0000 0.0000 0.0000 18.9326 0.0000
# 6 0.0000 0.0000 0.0000 0.0000 0.0000 43.1974
#
#
#
# Elastic Compliance Matrix: (Units=1/GPa)
#
#
# Indices 1 2 3 4 5 6 
#
# 1 0.015470 -0.003086 -0.005475 0.000000 0.000000 0.000000
# 2 -0.003086 0.009314 -0.002847 0.000000 0.000000 0.000000
# 3 -0.005475 -0.002847 0.018311 0.000000 0.000000 0.000000
# 4 0.000000 0.000000 0.000000 0.047867 0.000000 0.000000
# 5 0.000000 0.000000 0.000000 0.000000 0.052819 0.000000
# 6 0.000000 0.000000 0.000000 0.000000 0.000000 0.023150
#
#
# Mechanical properties :
#
#
# Convention : Reuss Voigt Hill
#
# Bulk Modulus (GPa) = 49.31547 52.97324 51.14435
# Shear Modulus (GPa) = 25.44456 28.74381 27.09419
#
# Velocity S-wave (km/s) = 3.43224 3.64797 3.54175
# Velocity P-wave (km/s) = 6.20797 6.50146 6.35641
#
# Compressibility (1/GPa) = 0.02027761
#
# Stress axis : x y z
#
# Youngs Moduli (GPa) = 64.64228 107.36418 54.61305
#
# Poissons Ratio (x) = 0.33134 0.29903
# Poissons Ratio (y) = 0.19950 0.15547
# Poissons Ratio (z) = 0.35395 0.30565
#
# Static dielectric constant tensor:
#      x y z
#    x 1.807600 0.000000 0.000000 
#    y 0.000000 1.952960 0.000000 
#    z 0.000000 0.000000 1.236190 
# 
# From -- ./inp_files/11549.got.cif
#   From: 2010.05.17/outbox.cif.g08.bks.cpg/sg48_6_cif.got.tgz:11549.got - 2010.06.03 20:39:00.
