data_PCOD9390905
_publ_section_title
;
Structure prediction by ZEFSAII (Michael W. Deem and Ramdas Pophale) SiO2 
 PCOD9390905
Probable space group: P N N N
;
_chemical_formula_sum "Si O2"
_cell_formula_units_Z 64
_cell_length_a 13.959173
_cell_length_b 28.149497
_cell_length_c 8.126980
_cell_angle_alpha 90.000000
_cell_angle_beta 90.000000
_cell_angle_gamma 90.000000
_cell_volume 3193.445579
_symmetry_space_group_name_H-M "P N N N"
_symmetry_group_IT_number 48
_space_group.IT_coordinate_system_code '2'
_symmetry_cell_setting 'orthorhombic'
loop_
_space_group_symop_operation_xyz
x,y,z
1/2-x,1/2-y,z
x,1/2-y,1/2-z
1/2-x,y,1/2-z
-x,-y,-z
1/2+x,1/2+y,-z
-x,1/2+y,1/2+z
1/2+x,-y,1/2+z
loop_
_atom_site_type_symbol
_atom_site_label
_atom_site_fract_x
_atom_site_fract_y
_atom_site_fract_z
Si Si1 0.218126 0.302766 0.441114
Si Si2 0.874303 0.975622 0.641254
Si Si3 0.259486 0.405127 0.943148
Si Si4 0.351178 0.733728 0.437371
Si Si5 0.508635 0.708766 0.869825
Si Si6 0.852875 0.348843 0.165764
Si Si7 0.397149 0.958762 0.831775
Si Si8 0.888745 0.513162 0.497371
O O1 0.250000 0.250000 0.499297
O O2 0.250000 0.306273 0.250000
O O3 0.257116 0.349272 0.531484
O O4 0.103660 0.310066 0.453428
O O5 0.813304 0.931660 0.568741
O O6 0.986139 0.960932 0.663936
O O7 0.866496 0.013286 0.494659
O O8 0.848211 0.997262 0.820179
O O9 0.250000 0.415515 0.750000
O O10 0.361353 0.431071 0.981152
O O11 0.250000 0.750000 0.512739
O O12 0.349125 0.750000 0.250000
O O13 0.437535 0.762905 0.513500
O O14 0.359434 0.678970 0.491463
O O15 0.547645 0.750000 0.750000
O O16 0.441340 0.672127 0.772652
O O17 0.750000 0.338467 0.250000
O O18 0.864477 0.404839 0.156951
O O19 0.357277 0.984187 0.665634
O O20 0.000000 0.500000 0.500000
#
# Coordination Sequence:
#
# PCOD9390905 Si02
#       8
#     8   8   8   8   8   8   8   8
#     4  11  24  44  65  96 131 172 232 291 336 406
#     4  10  22  44  66  92 129 182 219 272 337 403
#     4  12  25  43  68  93 132 182 229 278 342 410
#     4  10  21  43  65  93 131 170 217 266 333 415
#     4  10  21  41  67  91 127 172 216 269 345 402
#     4  11  23  39  69  99 129 171 216 277 343 407
#     4  10  23  41  65  99 137 163 223 282 333 401
#     4  10  22  42  67  94 129 171 220 272 336 406
#
# _framework density 20.041048
#
# number of rings (size 3 to 8) (size 9 to 14) (size 15 to 20)
#    0.000    1.500    3.750    1.125    7.000    0.250 
#    6.750    0.000    0.000    0.000    0.000    0.000 
#    0.000    0.000    0.000    0.000    0.000    0.000 
#
# Total GULP energy -356638.340160 kJ/mol
# GULP energy per Si atom -5572.474065 kJ/mol
# Density = 1.999543 g / cm^3
# Si number density = 20.041048 Si / 1000 Ang^3
#
#
#
# Elastic Constant Matrix: (Units=GPa)
#
#
# Indices 1 2 3 4 5 6 
#
# 1 85.9994 28.7457 28.5026 0.0000 0.0000 0.0000
# 2 28.7457 154.9256 62.6740 0.0000 0.0000 0.0000
# 3 28.5026 62.6740 141.3858 0.0000 0.0000 0.0000
# 4 0.0000 0.0000 0.0000 19.2548 0.0000 0.0000
# 5 0.0000 0.0000 0.0000 0.0000 32.9332 0.0000
# 6 0.0000 0.0000 0.0000 0.0000 0.0000 38.5654
#
#
#
# Elastic Compliance Matrix: (Units=1/GPa)
#
#
# Indices 1 2 3 4 5 6 
#
# 1 0.012786 -0.001620 -0.001859 0.000000 0.000000 0.000000
# 2 -0.001620 0.008070 -0.003251 0.000000 0.000000 0.000000
# 3 -0.001859 -0.003251 0.008889 0.000000 0.000000 0.000000
# 4 0.000000 0.000000 0.000000 0.051935 0.000000 0.000000
# 5 0.000000 0.000000 0.000000 0.000000 0.030365 0.000000
# 6 0.000000 0.000000 0.000000 0.000000 0.000000 0.025930
#
#
# Mechanical properties :
#
#
# Convention : Reuss Voigt Hill
#
# Bulk Modulus (GPa) = 61.40928 69.12838 65.26883
# Shear Modulus (GPa) = 31.87487 35.64324 33.75906
#
# Velocity S-wave (km/s) = 3.99241 4.22182 4.10871
# Velocity P-wave (km/s) = 7.20838 7.63762 7.42610
#
# Compressibility (1/GPa) = 0.01628418
#
# Stress axis : x y z
#
# Youngs Moduli (GPa) = 78.21188 123.90895 112.50182
#
# Poissons Ratio (x) = 0.20075 0.20918
# Poissons Ratio (y) = 0.12672 0.36573
# Poissons Ratio (z) = 0.14542 0.40281
#
# Static dielectric constant tensor:
#      x y z
#    x 1.802420 0.000000 0.000000 
#    y 0.000000 1.685650 0.000000 
#    z 0.000000 0.000000 1.662050 
# 
# From -- ./inp_files/13275.got.cif
#   From: 2010.05.17/outbox.cif.g08.bks.cpg/sg48_7_cif.got.tgz:13275.got - 2010.06.03 20:39:00.
