data_PCOD9390399
_publ_section_title
;
Structure prediction by ZEFSAII (Michael W. Deem and Ramdas Pophale) SiO2 
 PCOD9390399
Probable space group: P N N N
;
_chemical_formula_sum "Si O2"
_cell_formula_units_Z 34
_cell_length_a 16.245374
_cell_length_b 6.747441
_cell_length_c 12.355566
_cell_angle_alpha 90.000000
_cell_angle_beta 90.000000
_cell_angle_gamma 90.000000
_cell_volume 1354.351692
_symmetry_space_group_name_H-M "P N N N"
_symmetry_group_IT_number 48
_space_group.IT_coordinate_system_code '2'
_symmetry_cell_setting 'orthorhombic'
loop_
_space_group_symop_operation_xyz
x,y,z
1/2-x,1/2-y,z
x,1/2-y,1/2-z
1/2-x,y,1/2-z
-x,-y,-z
1/2+x,1/2+y,-z
-x,1/2+y,1/2+z
1/2+x,-y,1/2+z
loop_
_atom_site_type_symbol
_atom_site_label
_atom_site_fract_x
_atom_site_fract_y
_atom_site_fract_z
Si Si1 0.495098 0.537045 0.354079
Si Si2 0.250000 0.750000 0.750000
Si Si3 0.837872 0.291458 0.623020
Si Si4 0.464188 0.076749 0.388085
Si Si5 0.175103 0.373056 0.861301
O O1 0.328870 0.750000 0.250000
O O2 0.415844 0.651174 0.402210
O O3 0.483394 0.304700 0.374289
O O4 0.581553 0.613930 0.401339
O O5 0.199689 0.597062 0.825897
O O6 0.750000 0.250000 0.569974
O O7 0.868318 0.515361 0.608120
O O8 0.004035 0.537034 0.278982
O O9 0.500000 0.000000 0.500000
O O10 0.250000 0.250000 0.918248
O O11 0.167145 0.250000 0.750000
#
# Coordination Sequence:
#
# PCOD9390399 Si02
#       5
#     8   2   8   8   8
#     4  10  20  37  63  89 122 171 209 263 325 382
#     4   8  14  24  44  74 112 158 190 252 298 366
#     4   9  19  37  63  89 121 163 214 267 319 382
#     4  10  21  36  62  92 125 163 214 264 325 390
#     4   9  17  29  52  82 118 159 211 255 307 386
#
# _framework density 25.104263
#
# number of rings (size 3 to 8) (size 9 to 14) (size 15 to 20)
#    0.000    2.824    0.000    3.529    0.000    3.765 
#    0.000    4.706   31.059    0.000    0.000    0.000 
#    0.000    0.000    0.000    0.000    0.000    0.000 
#
# Total GULP energy -189839.821651 kJ/mol
# GULP energy per Si atom -5583.524166 kJ/mol
# Density = 2.504713 g / cm^3
# Si number density = 25.104263 Si / 1000 Ang^3
#
#
#
# Elastic Constant Matrix: (Units=GPa)
#
#
# Indices 1 2 3 4 5 6 
#
# 1 251.3989 89.2426 22.2347 0.0000 0.0000 0.0000
# 2 89.2426 154.3786 19.6842 0.0000 0.0000 0.0000
# 3 22.2347 19.6842 123.6478 0.0000 0.0000 0.0000
# 4 0.0000 0.0000 0.0000 22.6163 0.0000 0.0000
# 5 0.0000 0.0000 0.0000 0.0000 0.7620 0.0000
# 6 0.0000 0.0000 0.0000 0.0000 0.0000 -4.9576
#
#
#
# Elastic Compliance Matrix: (Units=1/GPa)
#
#
# Indices 1 2 3 4 5 6 
#
# 1 0.005029 -0.002850 -0.000451 0.000000 0.000000 0.000000
# 2 -0.002850 0.008227 -0.000797 0.000000 0.000000 0.000000
# 3 -0.000451 -0.000797 0.008295 0.000000 0.000000 0.000000
# 4 0.000000 0.000000 0.000000 0.044216 0.000000 0.000000
# 5 0.000000 0.000000 0.000000 0.000000 1.312372 0.000000
# 6 0.000000 0.000000 0.000000 0.000000 0.000000 -0.201712
#
#
# Mechanical properties :
#
#
# Convention : Reuss Voigt Hill
#
# Bulk Modulus (GPa) = 74.87308 87.97201 81.42254
# Shear Modulus (GPa) = 4.20495 30.23507 17.22001
#
# Velocity S-wave (km/s) = 1.29562 3.47418 2.62189
# Velocity P-wave (km/s) = 5.66814 7.15626 6.45522
#
# Compressibility (1/GPa) = 0.01335594
#
# Stress axis : x y z
#
# Youngs Moduli (GPa) = 198.83704 121.55633 120.54814
#
# Poissons Ratio (x) = 0.34641 0.05433
# Poissons Ratio (y) = 0.56665 0.09610
# Poissons Ratio (z) = 0.08961 0.09690
#
# Static dielectric constant tensor:
#      x y z
#    x 2.084690 0.000000 0.000000 
#    y 0.000000 2.027830 0.000000 
#    z 0.000000 0.000000 1.999500 
# 
# From -- ./inp_files/31353.got.cif
#   From: 2010.05.17/outbox.cif.g08.bks.cpg/sg48_16_cif.got.tgz:31353.got - 2010.06.03 20:39:00.
