data_PCOD9390148
_publ_section_title
;
Structure prediction by ZEFSAII (Michael W. Deem and Ramdas Pophale) SiO2 
 PCOD9390148
Probable space group: P N N N
;
_chemical_formula_sum "Si O2"
_cell_formula_units_Z 54
_cell_length_a 25.753269
_cell_length_b 19.067262
_cell_length_c 5.472219
_cell_angle_alpha 90.000000
_cell_angle_beta 90.000000
_cell_angle_gamma 90.000000
_cell_volume 2687.102098
_symmetry_space_group_name_H-M "P N N N"
_symmetry_group_IT_number 48
_space_group.IT_coordinate_system_code '2'
_symmetry_cell_setting 'orthorhombic'
loop_
_space_group_symop_operation_xyz
x,y,z
1/2-x,1/2-y,z
x,1/2-y,1/2-z
1/2-x,y,1/2-z
-x,-y,-z
1/2+x,1/2+y,-z
-x,1/2+y,1/2+z
1/2+x,-y,1/2+z
loop_
_atom_site_type_symbol
_atom_site_label
_atom_site_fract_x
_atom_site_fract_y
_atom_site_fract_z
Si Si1 0.164203 0.431940 0.406690
Si Si2 0.156535 0.189466 0.444635
Si Si3 0.250000 0.250000 0.750000
Si Si4 0.198852 0.559666 0.131114
Si Si5 0.077648 0.395310 0.743968
Si Si6 0.028639 0.573534 0.437754
Si Si7 0.250000 0.046732 0.750000
Si Si8 0.589741 0.055273 0.068873
O O1 0.174039 0.381799 0.184951
O O2 0.172083 0.513053 0.343983
O O3 0.107630 0.413812 0.496314
O O4 0.204153 0.412616 0.619259
O O5 0.141546 0.250000 0.250000
O O6 0.208548 0.213620 0.574616
O O7 0.108544 0.166153 0.616980
O O8 0.250000 0.598332 0.250000
O O9 0.225289 0.503506 0.952682
O O10 0.148797 0.584209 0.973011
O O11 0.085419 0.469917 0.890435
O O12 0.019462 0.379018 0.657801
O O13 0.061403 0.587347 0.688187
O O14 0.000000 0.500000 0.500000
O O15 0.062341 0.567977 0.191345
#
# Coordination Sequence:
#
# PCOD9390148 Si02
#       8
#     8   8   2   8   8   8   4   8
#     4  11  21  35  52  69  95 133 175 230 291 344
#     4  12  27  40  57  66 101 133 187 246 311 363
#     4  12  30  50  44  82  92 148 198 260 306 372
#     4  10  20  29  48  72 103 136 168 215 272 337
#     4  11  22  36  53  76  99 127 177 233 297 352
#     4  10  22  33  57  78 105 132 170 225 293 343
#     4  10  20  31  46  73  92 134 172 218 279 343
#     4  11  20  37  53  81 106 135 172 223 286 350
#
# _framework density 20.096
#
# number of rings (size 3 to 8) (size 9 to 14) (size 15 to 20)
#    0.000    1.185    2.963    4.667    4.148   11.259 
#    0.000    0.000    0.000    0.000    0.000    0.000 
#    0.000    0.000    0.000    0.000    0.000    0.000 
#
# Total GULP energy -300835.597420 kJ/mol
# GULP energy per Si atom -5571.029582 kJ/mol
# Density = 2.005026 g / cm^3
# Si number density = 20.096000 Si / 1000 Ang^3
#
#
#
# Elastic Constant Matrix: (Units=GPa)
#
#
# Indices 1 2 3 4 5 6 
#
# 1 162.1118 24.1527 65.2171 0.0000 0.0000 0.0000
# 2 24.1527 15.0115 16.1263 0.0000 0.0000 0.0000
# 3 65.2171 16.1263 117.8476 0.0000 0.0000 0.0000
# 4 0.0000 0.0000 0.0000 12.9576 0.0000 0.0000
# 5 0.0000 0.0000 0.0000 0.0000 11.8178 0.0000
# 6 0.0000 0.0000 0.0000 0.0000 0.0000 12.9541
#
#
#
# Elastic Compliance Matrix: (Units=1/GPa)
#
#
# Indices 1 2 3 4 5 6 
#
# 1 0.009267 -0.011021 -0.003620 0.000000 0.000000 0.000000
# 2 -0.011021 0.091203 -0.006381 0.000000 0.000000 0.000000
# 3 -0.003620 -0.006381 0.011362 0.000000 0.000000 0.000000
# 4 0.000000 0.000000 0.000000 0.077175 0.000000 0.000000
# 5 0.000000 0.000000 0.000000 0.000000 0.084618 0.000000
# 6 0.000000 0.000000 0.000000 0.000000 0.000000 0.077195
#
#
# Mechanical properties :
#
#
# Convention : Reuss Voigt Hill
#
# Bulk Modulus (GPa) = 14.32929 56.21813 35.27371
# Shear Modulus (GPa) = 12.01555 20.17757 16.09656
#
# Velocity S-wave (km/s) = 2.44787 3.17213 2.83324
# Velocity P-wave (km/s) = 3.89041 6.43833 5.31918
#
# Compressibility (1/GPa) = 0.06978713
#
# Stress axis : x y z
#
# Youngs Moduli (GPa) = 107.90988 10.96458 88.01117
#
# Poissons Ratio (x) = 0.12084 0.31862
# Poissons Ratio (y) = 1.18927 0.56162
# Poissons Ratio (z) = 0.39066 0.06997
#
# Static dielectric constant tensor:
#      x y z
#    x 1.838010 0.000000 0.000000 
#    y 0.000000 1.871880 0.000000 
#    z 0.000000 0.000000 1.857430 
# 
# From -- ./inp_files/5983.got.cif
#   From: 2010.05.17/outbox.cif.g08.bks.cpg/sg48_3_cif.got.tgz:5983.got - 2010.06.03 20:39:00.
