data_PCOD9390842
_publ_section_title
;
Structure prediction by ZEFSAII (Michael W. Deem and Ramdas Pophale) SiO2 
 PCOD9390842
Probable space group: P N N N
;
_chemical_formula_sum "Si O2"
_cell_formula_units_Z 64
_cell_length_a 13.969963
_cell_length_b 11.836202
_cell_length_c 18.791631
_cell_angle_alpha 90.000000
_cell_angle_beta 90.000000
_cell_angle_gamma 90.000000
_cell_volume 3107.220690
_symmetry_space_group_name_H-M "P N N N"
_symmetry_group_IT_number 48
_space_group.IT_coordinate_system_code '2'
_symmetry_cell_setting 'orthorhombic'
loop_
_space_group_symop_operation_xyz
x,y,z
1/2-x,1/2-y,z
x,1/2-y,1/2-z
1/2-x,y,1/2-z
-x,-y,-z
1/2+x,1/2+y,-z
-x,1/2+y,1/2+z
1/2+x,-y,1/2+z
loop_
_atom_site_type_symbol
_atom_site_label
_atom_site_fract_x
_atom_site_fract_y
_atom_site_fract_z
Si Si1 0.136733 0.382023 0.739967
Si Si2 0.174832 0.050656 0.193281
Si Si3 0.696211 0.868903 0.406611
Si Si4 0.035096 0.511393 0.185104
Si Si5 0.434579 0.402394 0.041044
Si Si6 0.702459 0.128354 0.884930
Si Si7 0.343436 0.502340 0.521137
Si Si8 0.479006 0.344446 0.436866
O O1 0.115595 0.250000 0.750000
O O2 0.250000 0.400878 0.750000
O O3 0.123101 0.401490 0.655762
O O4 0.070414 0.450466 0.793411
O O5 0.250000 0.114228 0.250000
O O6 0.124582 0.085087 0.116899
O O7 0.088337 0.009910 0.241563
O O8 0.239906 0.946286 0.170415
O O9 0.750000 0.750000 0.391156
O O10 0.643455 0.868321 0.481753
O O11 0.777209 0.963289 0.415371
O O12 0.091575 0.607629 0.138998
O O13 0.043391 0.395365 0.140750
O O14 0.494585 0.287889 0.054958
O O15 0.500000 0.500000 0.000000
O O16 0.750000 0.250000 0.885860
O O17 0.714230 0.068240 0.960706
O O18 0.393077 0.391610 0.486468
O O19 0.427629 0.585936 0.541917
#
# Coordination Sequence:
#
# PCOD9390842 Si02
#       8
#     8   8   8   8   8   8   8   8
#     4  11  23  38  62  98 131 175 230 286 351 410
#     4  10  23  43  64  98 137 186 239 288 359 426
#     4  12  22  40  67  95 136 177 233 290 345 422
#     4  10  23  42  62  92 137 174 230 286 349 433
#     4  12  26  43  68 104 139 183 240 300 360 426
#     4  10  22  38  65  98 133 182 230 283 359 427
#     4  10  21  40  63  96 134 174 229 281 346 425
#     4  10  23  40  65  95 132 186 224 284 360 418
#
# _framework density 20.597185
#
# number of rings (size 3 to 8) (size 9 to 14) (size 15 to 20)
#    0.000    1.375    3.750    1.500    3.500    3.250 
#    0.000    3.125    0.000    0.000    0.000    0.875 
#    0.000    0.000    0.000    0.000    0.000    0.000 
#
# Total GULP energy -356440.541092 kJ/mol
# GULP energy per Si atom -5569.383455 kJ/mol
# Density = 2.055030 g / cm^3
# Si number density = 20.597185 Si / 1000 Ang^3
#
#
#
# Elastic Constant Matrix: (Units=GPa)
#
#
# Indices 1 2 3 4 5 6 
#
# 1 66.5825 34.6541 29.4603 0.0000 0.0000 0.0000
# 2 34.6541 99.9627 36.4438 0.0000 0.0000 0.0000
# 3 29.4603 36.4438 119.3117 0.0000 0.0000 0.0000
# 4 0.0000 0.0000 0.0000 12.1596 0.0000 0.0000
# 5 0.0000 0.0000 0.0000 0.0000 28.6489 0.0000
# 6 0.0000 0.0000 0.0000 0.0000 0.0000 17.6236
#
#
#
# Elastic Compliance Matrix: (Units=1/GPa)
#
#
# Indices 1 2 3 4 5 6 
#
# 1 0.019268 -0.005565 -0.003058 0.000000 0.000000 0.000000
# 2 -0.005565 0.012865 -0.002555 0.000000 0.000000 0.000000
# 3 -0.003058 -0.002555 0.009917 0.000000 0.000000 0.000000
# 4 0.000000 0.000000 0.000000 0.082240 0.000000 0.000000
# 5 0.000000 0.000000 0.000000 0.000000 0.034905 0.000000
# 6 0.000000 0.000000 0.000000 0.000000 0.000000 0.056742
#
#
# Mechanical properties :
#
#
# Convention : Reuss Voigt Hill
#
# Bulk Modulus (GPa) = 50.77832 54.10815 52.44323
# Shear Modulus (GPa) = 20.42002 24.03967 22.22984
#
# Velocity S-wave (km/s) = 3.15206 3.42004 3.28878
# Velocity P-wave (km/s) = 6.16067 6.47474 6.31966
#
# Compressibility (1/GPa) = 0.01969344
#
# Stress axis : x y z
#
# Youngs Moduli (GPa) = 51.89862 77.73293 100.83686
#
# Poissons Ratio (x) = 0.43258 0.30835
# Poissons Ratio (y) = 0.28881 0.25768
# Poissons Ratio (z) = 0.15870 0.19864
#
# Static dielectric constant tensor:
#      x y z
#    x 1.753690 0.000000 0.000000 
#    y 0.000000 1.717340 0.000000 
#    z 0.000000 0.000000 1.868100 
# 
# From -- ./inp_files/31694.got.cif
#   From: 2010.05.17/outbox.cif.g08.bks.cpg/sg48_16_cif.got.tgz:31694.got - 2010.06.03 20:39:00.
