data_PCOD9390654
_publ_section_title
;
Structure prediction by ZEFSAII (Michael W. Deem and Ramdas Pophale) SiO2 
 PCOD9390654
Probable space group: P N N N
;
_chemical_formula_sum "Si O2"
_cell_formula_units_Z 56
_cell_length_a 20.042021
_cell_length_b 8.664423
_cell_length_c 15.551772
_cell_angle_alpha 90.000000
_cell_angle_beta 90.000000
_cell_angle_gamma 90.000000
_cell_volume 2700.604829
_symmetry_space_group_name_H-M "P N N N"
_symmetry_group_IT_number 48
_space_group.IT_coordinate_system_code '2'
_symmetry_cell_setting 'orthorhombic'
loop_
_space_group_symop_operation_xyz
x,y,z
1/2-x,1/2-y,z
x,1/2-y,1/2-z
1/2-x,y,1/2-z
-x,-y,-z
1/2+x,1/2+y,-z
-x,1/2+y,1/2+z
1/2+x,-y,1/2+z
loop_
_atom_site_type_symbol
_atom_site_label
_atom_site_fract_x
_atom_site_fract_y
_atom_site_fract_z
Si Si1 0.282405 0.397583 0.540872
Si Si2 0.175380 0.692813 0.010974
Si Si3 0.130401 0.082569 0.707043
Si Si4 0.021230 0.432873 0.591827
Si Si5 0.334990 0.579763 0.867895
Si Si6 0.534823 0.112149 0.928475
Si Si7 0.988824 0.567072 0.767241
O O1 0.250000 0.250000 0.499657
O O2 0.320758 0.509682 0.479010
O O3 0.330317 0.372449 0.621570
O O4 0.220195 0.490794 0.578403
O O5 0.250000 0.750000 0.040889
O O6 0.100778 0.715868 0.047597
O O7 0.169036 0.750437 0.910793
O O8 0.117171 0.250000 0.750000
O O9 0.173696 0.969328 0.769223
O O10 0.062960 0.983321 0.700371
O O11 0.093316 0.507003 0.610146
O O12 0.978455 0.487184 0.674627
O O13 0.000000 0.500000 0.500000
O O14 0.018737 0.248006 0.589975
O O15 0.552278 0.007996 0.845186
O O16 0.500000 0.000000 0.000000
O O17 0.984685 0.750000 0.750000
#
# Coordination Sequence:
#
# PCOD9390654 Si02
#       7
#     8   8   8   8   8   8   8
#     4  11  22  35  56  83 125 171 220 262 321 403
#     4  10  24  42  58  90 125 173 220 279 335 407
#     4  11  21  34  56  82 129 175 214 261 331 397
#     4  11  22  41  68  94 131 175 214 282 341 405
#     4  10  21  36  56  84 126 165 219 261 322 401
#     4  12  24  41  69  99 132 175 230 277 351 407
#     4  11  25  41  62 100 134 167 220 284 336 409
#
# _framework density 20.736096
#
# number of rings (size 3 to 8) (size 9 to 14) (size 15 to 20)
#    0.000    1.143    2.857    4.286    8.000    0.000 
#    0.000    2.143    0.000    1.714    0.000    1.000 
#    0.000    0.000    0.000    0.000    0.000    0.000 
#
# Total GULP energy -311788.049272 kJ/mol
# GULP energy per Si atom -5567.643737 kJ/mol
# Density = 2.068890 g / cm^3
# Si number density = 20.736096 Si / 1000 Ang^3
#
#
#
# Elastic Constant Matrix: (Units=GPa)
#
#
# Indices 1 2 3 4 5 6 
#
# 1 74.4124 1.9952 17.7225 0.0000 0.0000 0.0000
# 2 1.9952 132.5427 37.2634 0.0000 0.0000 0.0000
# 3 17.7225 37.2634 93.9076 0.0000 0.0000 0.0000
# 4 0.0000 0.0000 0.0000 35.5423 0.0000 0.0000
# 5 0.0000 0.0000 0.0000 0.0000 16.1576 0.0000
# 6 0.0000 0.0000 0.0000 0.0000 0.0000 32.9219
#
#
#
# Elastic Compliance Matrix: (Units=1/GPa)
#
#
# Indices 1 2 3 4 5 6 
#
# 1 0.014114 0.000604 -0.002903 0.000000 0.000000 0.000000
# 2 0.000604 0.008518 -0.003494 0.000000 0.000000 0.000000
# 3 -0.002903 -0.003494 0.012583 0.000000 0.000000 0.000000
# 4 0.000000 0.000000 0.000000 0.028135 0.000000 0.000000
# 5 0.000000 0.000000 0.000000 0.000000 0.061891 0.000000
# 6 0.000000 0.000000 0.000000 0.000000 0.000000 0.030375
#
#
# Mechanical properties :
#
#
# Convention : Reuss Voigt Hill
#
# Bulk Modulus (GPa) = 42.32239 46.09166 44.20703
# Shear Modulus (GPa) = 28.55860 33.18313 30.87086
#
# Velocity S-wave (km/s) = 3.71515 4.00466 3.86262
# Velocity P-wave (km/s) = 6.23357 6.60750 6.42326
#
# Compressibility (1/GPa) = 0.02362816
#
# Stress axis : x y z
#
# Youngs Moduli (GPa) = 70.85226 117.39929 79.47180
#
# Poissons Ratio (x) = -0.07088 0.23072
# Poissons Ratio (y) = -0.04278 0.27767
# Poissons Ratio (z) = 0.20570 0.41019
#
# Static dielectric constant tensor:
#      x y z
#    x 1.837520 0.000000 0.000000 
#    y 0.000000 1.848050 0.000000 
#    z 0.000000 0.000000 1.803590 
# 
# From -- ./inp_files/28353.got.cif
#   From: 2010.05.17/outbox.cif.g08.bks.cpg/sg48_15_cif.got.tgz:28353.got - 2010.06.03 20:39:00.
