data_PCOD9390384
_publ_section_title
;
Structure prediction by ZEFSAII (Michael W. Deem and Ramdas Pophale) SiO2 
 PCOD9390384
Probable space group: P N N N
;
_chemical_formula_sum "Si O2"
_cell_formula_units_Z 64
_cell_length_a 25.013791
_cell_length_b 14.363808
_cell_length_c 8.691333
_cell_angle_alpha 90.000000
_cell_angle_beta 90.000000
_cell_angle_gamma 90.000000
_cell_volume 3122.737639
_symmetry_space_group_name_H-M "P N N N"
_symmetry_group_IT_number 48
_space_group.IT_coordinate_system_code '2'
_symmetry_cell_setting 'orthorhombic'
loop_
_space_group_symop_operation_xyz
x,y,z
1/2-x,1/2-y,z
x,1/2-y,1/2-z
1/2-x,y,1/2-z
-x,-y,-z
1/2+x,1/2+y,-z
-x,1/2+y,1/2+z
1/2+x,-y,1/2+z
loop_
_atom_site_type_symbol
_atom_site_label
_atom_site_fract_x
_atom_site_fract_y
_atom_site_fract_z
Si Si1 0.389375 0.801206 0.010864
Si Si2 0.291778 0.501474 0.974874
Si Si3 0.625972 0.387768 0.842095
Si Si4 0.174086 0.955978 0.626689
Si Si5 0.612005 0.638342 0.405502
Si Si6 0.997737 0.893926 0.558733
Si Si7 0.365030 0.165530 0.543014
Si Si8 0.541937 0.549120 0.884665
O O1 0.387642 0.690603 0.030410
O O2 0.371757 0.840761 0.176864
O O3 0.348617 0.853007 0.897682
O O4 0.448504 0.837506 0.973125
O O5 0.315942 0.528905 0.807644
O O6 0.229347 0.520973 0.959493
O O7 0.312913 0.395930 0.995523
O O8 0.319969 0.562572 0.104830
O O9 0.579841 0.464603 0.831719
O O10 0.132527 0.033840 0.564622
O O11 0.551722 0.648641 0.464156
O O12 0.642687 0.724731 0.483851
O O13 0.620676 0.651797 0.223465
O O14 0.986232 0.902311 0.740182
O O15 0.000000 0.000000 0.500000
O O16 0.416685 0.122276 0.459027
O O17 0.500000 0.500000 0.000000
#
# Coordination Sequence:
#
# PCOD9390384 Si02
#       8
#     8   8   8   8   8   8   8   8
#     4  11  24  39  61  87 116 158 203 239 295 361
#     4   9  21  40  61  85 121 152 195 255 301 346
#     4  10  23  41  58  85 118 152 200 248 291 352
#     4  10  20  39  62  87 115 158 199 245 302 353
#     4  10  20  37  61  87 120 156 198 240 294 357
#     4  12  22  38  59  86 120 158 195 242 293 356
#     4   9  21  37  58  89 119 155 197 243 294 356
#     4  11  23  38  57  83 119 158 194 238 293 348
#
# _framework density 20.494837
#
# number of rings (size 3 to 8) (size 9 to 14) (size 15 to 20)
#    0.000    1.750    2.500    0.750    5.250    3.500 
#    0.000    5.000    0.000    0.000    0.000    3.500 
#    0.000    0.000    0.000    0.000    0.000    0.000 
#
# Total GULP energy -357316.009338 kJ/mol
# GULP energy per Si atom -5583.062646 kJ/mol
# Density = 2.044819 g / cm^3
# Si number density = 20.494837 Si / 1000 Ang^3
#
#
#
# Elastic Constant Matrix: (Units=GPa)
#
#
# Indices 1 2 3 4 5 6 
#
# 1 70.0194 -7.2067 10.8903 0.0000 0.0000 0.0000
# 2 -7.2067 69.8264 2.0406 0.0000 0.0000 0.0000
# 3 10.8903 2.0406 29.9604 0.0000 0.0000 0.0000
# 4 0.0000 0.0000 0.0000 23.1750 0.0000 0.0000
# 5 0.0000 0.0000 0.0000 0.0000 19.7348 0.0000
# 6 0.0000 0.0000 0.0000 0.0000 0.0000 7.3865
#
#
#
# Elastic Compliance Matrix: (Units=1/GPa)
#
#
# Indices 1 2 3 4 5 6 
#
# 1 0.015348 0.001751 -0.005698 0.000000 0.000000 0.000000
# 2 0.001751 0.014549 -0.001627 0.000000 0.000000 0.000000
# 3 -0.005698 -0.001627 0.035559 0.000000 0.000000 0.000000
# 4 0.000000 0.000000 0.000000 0.043150 0.000000 0.000000
# 5 0.000000 0.000000 0.000000 0.000000 0.050672 0.000000
# 6 0.000000 0.000000 0.000000 0.000000 0.000000 0.135382
#
#
# Mechanical properties :
#
#
# Convention : Reuss Voigt Hill
#
# Bulk Modulus (GPa) = 18.41370 20.13941 19.27656
# Shear Modulus (GPa) = 15.43622 20.99804 18.21713
#
# Velocity S-wave (km/s) = 2.74738 3.20434 2.98462
# Velocity P-wave (km/s) = 4.36672 4.85163 4.61554
#
# Compressibility (1/GPa) = 0.05430739
#
# Stress axis : x y z
#
# Youngs Moduli (GPa) = 65.15429 68.73101 28.12190
#
# Poissons Ratio (x) = -0.12032 0.16024
# Poissons Ratio (y) = -0.11406 0.04576
# Poissons Ratio (z) = 0.37126 0.11185
#
# Static dielectric constant tensor:
#      x y z
#    x 1.705040 0.000000 0.000000 
#    y 0.000000 1.752920 0.000000 
#    z 0.000000 0.000000 1.992140 
# 
# From -- ./inp_files/16032.got.cif
#   From: 2010.05.17/outbox.cif.g08.bks.cpg/sg48_9_cif.got.tgz:16032.got - 2010.06.03 20:39:00.
