data_PCOD9390005
_publ_section_title
;
Structure prediction by ZEFSAII (Michael W. Deem and Ramdas Pophale) SiO2 
 PCOD9390005
Probable space group: P N N N
;
_chemical_formula_sum "Si O2"
_cell_formula_units_Z 58
_cell_length_a 14.410291
_cell_length_b 7.981194
_cell_length_c 26.153881
_cell_angle_alpha 90.000000
_cell_angle_beta 90.000000
_cell_angle_gamma 90.000000
_cell_volume 3007.992588
_symmetry_space_group_name_H-M "P N N N"
_symmetry_group_IT_number 48
_space_group.IT_coordinate_system_code '2'
_symmetry_cell_setting 'orthorhombic'
loop_
_space_group_symop_operation_xyz
x,y,z
1/2-x,1/2-y,z
x,1/2-y,1/2-z
1/2-x,y,1/2-z
-x,-y,-z
1/2+x,1/2+y,-z
-x,1/2+y,1/2+z
1/2+x,-y,1/2+z
loop_
_atom_site_type_symbol
_atom_site_label
_atom_site_fract_x
_atom_site_fract_y
_atom_site_fract_z
Si Si1 0.350379 0.344537 0.905496
Si Si2 0.257099 0.938991 0.519564
Si Si3 0.469548 0.191184 0.695082
Si Si4 0.573967 0.996061 0.855420
Si Si5 0.767235 0.554893 0.594607
Si Si6 0.555118 0.952859 0.050123
Si Si7 0.750000 0.750000 0.750000
Si Si8 0.400493 0.386748 0.177825
O O1 0.250000 0.250000 0.905292
O O2 0.330356 0.514831 0.936317
O O3 0.392730 0.340278 0.848932
O O4 0.424395 0.242181 0.939678
O O5 0.250000 0.750000 0.503221
O O6 0.273417 0.034028 0.466229
O O7 0.157267 0.975607 0.543592
O O8 0.431625 0.250000 0.750000
O O9 0.537437 0.344972 0.677148
O O10 0.524090 0.014878 0.699386
O O11 0.676420 0.030166 0.879782
O O12 0.572657 0.810134 0.829823
O O13 0.502174 0.981377 0.902117
O O14 0.750000 0.750000 0.604201
O O15 0.862140 0.526957 0.625589
O O16 0.500000 0.000000 0.000000
O O17 0.686452 0.630880 0.784367
#
# Coordination Sequence:
#
# PCOD9390005 Si02
#       8
#     8   8   8   8   8   8   2   8
#     4   9  22  43  62  88 123 159 211 260 325 383
#     4  11  23  35  59  93 126 164 205 257 317 385
#     4  11  25  42  65  92 118 164 215 272 314 371
#     4  10  21  40  59  89 124 163 212 254 305 372
#     4  10  20  38  56  84 127 172 204 245 308 367
#     4  10  19  35  61  84 121 166 200 248 309 373
#     4  12  20  44  58  92 124 180 200 264 320 360
#     4  11  24  38  62  86 128 166 211 252 311 376
#
# _framework density 19.281963999999999
#
# number of rings (size 3 to 8) (size 9 to 14) (size 15 to 20)
#    0.000    1.655    3.448    2.069    5.793    0.276 
#    0.000    1.379    0.000    0.000    0.000    0.000 
#    0.000    0.000    0.000    0.000    0.000    0.000 
#
# Total GULP energy -323143.117082 kJ/mol
# GULP energy per Si atom -5571.433053 kJ/mol
# Density = 1.923808 g / cm^3
# Si number density = 19.281964 Si / 1000 Ang^3
#
#
#
# Elastic Constant Matrix: (Units=GPa)
#
#
# Indices 1 2 3 4 5 6 
#
# 1 47.3750 16.4466 21.0220 0.0000 0.0000 0.0000
# 2 16.4466 55.6880 16.6432 0.0000 0.0000 0.0000
# 3 21.0220 16.6432 72.5148 0.0000 0.0000 0.0000
# 4 0.0000 0.0000 0.0000 24.3099 0.0000 0.0000
# 5 0.0000 0.0000 0.0000 0.0000 22.6578 0.0000
# 6 0.0000 0.0000 0.0000 0.0000 0.0000 18.9279
#
#
#
# Elastic Compliance Matrix: (Units=1/GPa)
#
#
# Indices 1 2 3 4 5 6 
#
# 1 0.025855 -0.005793 -0.006166 0.000000 0.000000 0.000000
# 2 -0.005793 0.020578 -0.003043 0.000000 0.000000 0.000000
# 3 -0.006166 -0.003043 0.016276 0.000000 0.000000 0.000000
# 4 0.000000 0.000000 0.000000 0.041136 0.000000 0.000000
# 5 0.000000 0.000000 0.000000 0.000000 0.044135 0.000000
# 6 0.000000 0.000000 0.000000 0.000000 0.000000 0.052832
#
#
# Mechanical properties :
#
#
# Convention : Reuss Voigt Hill
#
# Bulk Modulus (GPa) = 30.57696 31.53348 31.05522
# Shear Modulus (GPa) = 20.68523 21.27684 20.98103
#
# Velocity S-wave (km/s) = 3.27888 3.32544 3.30224
# Velocity P-wave (km/s) = 5.49791 5.57979 5.53900
#
# Compressibility (1/GPa) = 0.03270437
#
# Stress axis : x y z
#
# Youngs Moduli (GPa) = 38.67672 48.59624 61.43917
#
# Poissons Ratio (x) = 0.28153 0.37882
# Poissons Ratio (y) = 0.22406 0.18698
# Poissons Ratio (z) = 0.23847 0.14790
#
# Static dielectric constant tensor:
#      x y z
#    x 1.681710 0.000000 0.000000 
#    y 0.000000 1.732820 0.000000 
#    z 0.000000 0.000000 1.718290 
# 
# From -- ./inp_files/36553.got.cif
#   From: 2010.05.17/outbox.cif.g08.bks.cpg/sg48_19_cif.got.tgz:36553.got - 2010.06.03 20:39:00.
