data_PCOD9390045
_publ_section_title
;
Structure prediction by ZEFSAII (Michael W. Deem and Ramdas Pophale) SiO2 
 PCOD9390045
Probable space group: P N N N
;
_chemical_formula_sum "Si O2"
_cell_formula_units_Z 52
_cell_length_a 33.876334
_cell_length_b 7.304151
_cell_length_c 10.576632
_cell_angle_alpha 90.000000
_cell_angle_beta 90.000000
_cell_angle_gamma 90.000000
_cell_volume 2617.059176
_symmetry_space_group_name_H-M "P N N N"
_symmetry_group_IT_number 48
_space_group.IT_coordinate_system_code '2'
_symmetry_cell_setting 'orthorhombic'
loop_
_space_group_symop_operation_xyz
x,y,z
1/2-x,1/2-y,z
x,1/2-y,1/2-z
1/2-x,y,1/2-z
-x,-y,-z
1/2+x,1/2+y,-z
-x,1/2+y,1/2+z
1/2+x,-y,1/2+z
loop_
_atom_site_type_symbol
_atom_site_label
_atom_site_fract_x
_atom_site_fract_y
_atom_site_fract_z
Si Si1 0.989198 0.750000 0.750000
Si Si2 0.956496 0.580434 0.313850
Si Si3 0.357559 0.967926 0.455227
Si Si4 0.577878 0.755400 0.567271
Si Si5 0.147030 0.528364 0.020126
Si Si6 0.370295 0.968586 0.745760
Si Si7 0.794852 0.471624 0.752795
O O1 0.958063 0.822264 0.648192
O O2 0.016945 0.597208 0.690061
O O3 0.978313 0.750000 0.250000
O O4 0.943190 0.649820 0.449051
O O5 0.914978 0.542969 0.241509
O O6 0.361318 0.746224 0.458889
O O7 0.356024 0.023616 0.604601
O O8 0.319682 0.020665 0.372273
O O9 0.393957 0.074868 0.388973
O O10 0.608511 0.592527 0.545538
O O11 0.155198 0.488937 0.870873
O O12 0.181028 0.477959 0.120361
O O13 0.373622 0.750000 0.750000
O O14 0.793534 0.250000 0.750000
O O15 0.750000 0.537941 0.750000
#
# Coordination Sequence:
#
# PCOD9390045 Si02
#       7
#     4   8   8   8   8   8   8
#     4  12  26  38  52  84 119 144 189 250 298 350
#     4  11  22  38  57  78 109 152 188 241 300 338
#     4   9  20  35  59  83 112 150 196 236 281 339
#     4  11  23  38  59  82 110 150 199 235 288 354
#     4  10  19  36  61  82 111 153 195 235 281 341
#     4   9  17  35  58  79 105 144 196 236 272 332
#     4   9  18  35  58  89 124 153 183 230 289 344
#
# _framework density 19.869630999999998
#
# number of rings (size 3 to 8) (size 9 to 14) (size 15 to 20)
#    0.000    2.000    2.308    1.385    0.000    1.846 
#    0.000    2.308    0.000    4.615    0.000    2.154 
#    0.000    0.000    0.000    0.000    0.000    0.000 
#
# Total GULP energy -289690.036691 kJ/mol
# GULP energy per Si atom -5570.962244 kJ/mol
# Density = 1.982441 g / cm^3
# Si number density = 19.869631 Si / 1000 Ang^3
#
#
#
# Elastic Constant Matrix: (Units=GPa)
#
#
# Indices 1 2 3 4 5 6 
#
# 1 118.5286 30.0223 67.2223 0.0000 0.0000 0.0000
# 2 30.0223 75.0311 16.1795 0.0000 0.0000 0.0000
# 3 67.2223 16.1795 103.6664 0.0000 0.0000 0.0000
# 4 0.0000 0.0000 0.0000 10.4495 0.0000 0.0000
# 5 0.0000 0.0000 0.0000 0.0000 -10.2328 0.0000
# 6 0.0000 0.0000 0.0000 0.0000 0.0000 -7.2260
#
#
#
# Elastic Compliance Matrix: (Units=1/GPa)
#
#
# Indices 1 2 3 4 5 6 
#
# 1 0.014352 -0.003866 -0.008703 0.000000 0.000000 0.000000
# 2 -0.003866 0.014833 0.000192 0.000000 0.000000 0.000000
# 3 -0.008703 0.000192 0.015260 0.000000 0.000000 0.000000
# 4 0.000000 0.000000 0.000000 0.095698 0.000000 0.000000
# 5 0.000000 0.000000 0.000000 0.000000 -0.097725 0.000000
# 6 0.000000 0.000000 0.000000 0.000000 0.000000 -0.138389
#
#
# Mechanical properties :
#
#
# Convention : Reuss Voigt Hill
#
# Bulk Modulus (GPa) = 50.78559 58.23048 54.50804
# Shear Modulus (GPa) = -77.33554 10.85162 -33.24196
#
# Velocity S-wave (km/s) = -6.24548 2.33950 -4.09467
# Velocity P-wave (km/s) = 5.13742 6.05538 2.26655
#
# Compressibility (1/GPa) = 0.01969062
#
# Stress axis : x y z
#
# Youngs Moduli (GPa) = 69.67757 67.41578 65.53139
#
# Poissons Ratio (x) = 0.26062 0.57032
# Poissons Ratio (y) = 0.26937 -0.01257
# Poissons Ratio (z) = 0.60641 -0.01293
#
# Static dielectric constant tensor:
#      x y z
#    x 1.657600 0.000000 0.000000 
#    y 0.000000 1.729850 0.000000 
#    z 0.000000 0.000000 1.829150 
# 
# From -- ./inp_files/23607.got.cif
#   From: 2010.05.17/outbox.cif.g08.bks.cpg/sg48_12_cif.got.tgz:23607.got - 2010.06.03 20:39:00.
