data_PCOD9390441
_publ_section_title
;
Structure prediction by ZEFSAII (Michael W. Deem and Ramdas Pophale) SiO2 
 PCOD9390441
Probable space group: P N N N
;
_chemical_formula_sum "Si O2"
_cell_formula_units_Z 40
_cell_length_a 16.018162
_cell_length_b 22.363874
_cell_length_c 4.964486
_cell_angle_alpha 90.000000
_cell_angle_beta 90.000000
_cell_angle_gamma 90.000000
_cell_volume 1778.418669
_symmetry_space_group_name_H-M "P N N N"
_symmetry_group_IT_number 48
_space_group.IT_coordinate_system_code '2'
_symmetry_cell_setting 'orthorhombic'
loop_
_space_group_symop_operation_xyz
x,y,z
1/2-x,1/2-y,z
x,1/2-y,1/2-z
1/2-x,y,1/2-z
-x,-y,-z
1/2+x,1/2+y,-z
-x,1/2+y,1/2+z
1/2+x,-y,1/2+z
loop_
_atom_site_type_symbol
_atom_site_label
_atom_site_fract_x
_atom_site_fract_y
_atom_site_fract_z
Si Si1 0.906703 0.683294 0.288851
Si Si2 0.081621 0.710853 0.014673
Si Si3 0.149774 0.909247 0.745069
Si Si4 0.147946 0.981665 0.250727
Si Si5 0.650907 0.616664 0.711026
O O1 0.869769 0.750000 0.250000
O O2 0.896300 0.662909 0.594618
O O3 0.864728 0.634310 0.097076
O O4 0.000546 0.688681 0.177593
O O5 0.060395 0.750000 0.750000
O O6 0.125730 0.653809 0.883052
O O7 0.127840 0.750000 0.250000
O O8 0.250000 0.910149 0.750000
O O9 0.119673 0.960173 0.541348
O O10 0.120670 0.931413 0.036823
O O11 0.250000 0.982309 0.250000
O O12 0.122540 0.050015 0.209076
O O13 0.750000 0.621258 0.750000
#
# Coordination Sequence:
#
# PCOD9390441 Si02
#       5
#     8   8   8   8   8
#     4  11  23  39  57  83 119 158 196 242 302 355
#     4  11  23  41  61  84 121 163 199 246 306 361
#     4  10  20  38  62  87 115 153 199 246 297 359
#     4   9  19  36  58  85 118 151 188 245 310 353
#     4  11  22  38  61  87 116 153 199 247 294 356
#
# _framework density 22.491893000000001
#
# number of rings (size 3 to 8) (size 9 to 14) (size 15 to 20)
#    0.000    1.600    0.000    6.000    0.000    6.000 
#    0.000    7.000    0.000    0.000    0.000    0.000 
#    0.000    0.000    0.000    0.000    0.000    0.000 
#
# Total GULP energy -223420.593386 kJ/mol
# GULP energy per Si atom -5585.514835 kJ/mol
# Density = 2.244070 g / cm^3
# Si number density = 22.491893 Si / 1000 Ang^3
#
#
#
# Elastic Constant Matrix: (Units=GPa)
#
#
# Indices 1 2 3 4 5 6 
#
# 1 11.6227 18.1966 16.6682 0.0000 0.0000 0.0000
# 2 18.1966 131.2586 26.5298 0.0000 0.0000 0.0000
# 3 16.6682 26.5298 90.4267 0.0000 0.0000 0.0000
# 4 0.0000 0.0000 0.0000 44.4572 0.0000 0.0000
# 5 0.0000 0.0000 0.0000 0.0000 19.3810 0.0000
# 6 0.0000 0.0000 0.0000 0.0000 0.0000 19.6425
#
#
#
# Elastic Compliance Matrix: (Units=1/GPa)
#
#
# Indices 1 2 3 4 5 6 
#
# 1 0.140522 -0.015143 -0.021459 0.000000 0.000000 0.000000
# 2 -0.015143 0.009731 -0.000063 0.000000 0.000000 0.000000
# 3 -0.021459 -0.000063 0.015033 0.000000 0.000000 0.000000
# 4 0.000000 0.000000 0.000000 0.022494 0.000000 0.000000
# 5 0.000000 0.000000 0.000000 0.000000 0.051597 0.000000
# 6 0.000000 0.000000 0.000000 0.000000 0.000000 0.050910
#
#
# Mechanical properties :
#
#
# Convention : Reuss Voigt Hill
#
# Bulk Modulus (GPa) = 10.87512 39.56634 25.22073
# Shear Modulus (GPa) = 12.68169 28.15706 20.41938
#
# Velocity S-wave (km/s) = 2.37710 3.54202 3.01633
# Velocity P-wave (km/s) = 3.51848 5.86153 4.83411
#
# Compressibility (1/GPa) = 0.09195301
#
# Stress axis : x y z
#
# Youngs Moduli (GPa) = 7.11633 102.76725 66.52093
#
# Poissons Ratio (x) = 1.55625 1.42749
# Poissons Ratio (y) = 0.10777 0.00422
# Poissons Ratio (z) = 0.15271 0.00652
#
# Static dielectric constant tensor:
#      x y z
#    x 1.840870 0.000000 0.000000 
#    y 0.000000 1.856810 0.000000 
#    z 0.000000 0.000000 1.788730 
# 
# From -- ./inp_files/4396.got.cif
#   From: 2010.05.17/outbox.cif.g08.bks.cpg/sg48_3_cif.got.tgz:4396.got - 2010.06.03 20:39:00.
