data_PCOD9390327
_publ_section_title
;
Structure prediction by ZEFSAII (Michael W. Deem and Ramdas Pophale) SiO2 
 PCOD9390327
Probable space group: P N N N
;
_chemical_formula_sum "Si O2"
_cell_formula_units_Z 24
_cell_length_a 5.076729
_cell_length_b 7.782937
_cell_length_c 28.017251
_cell_angle_alpha 90.000000
_cell_angle_beta 90.000000
_cell_angle_gamma 90.000000
_cell_volume 1107.013754
_symmetry_space_group_name_H-M "P N N N"
_symmetry_group_IT_number 48
_space_group.IT_coordinate_system_code '2'
_symmetry_cell_setting 'orthorhombic'
loop_
_space_group_symop_operation_xyz
x,y,z
1/2-x,1/2-y,z
x,1/2-y,1/2-z
1/2-x,y,1/2-z
-x,-y,-z
1/2+x,1/2+y,-z
-x,1/2+y,1/2+z
1/2+x,-y,1/2+z
loop_
_atom_site_type_symbol
_atom_site_label
_atom_site_fract_x
_atom_site_fract_y
_atom_site_fract_z
Si Si1 0.485102 0.364406 0.957857
Si Si2 0.259912 0.957221 0.864167
Si Si3 0.231977 0.458535 0.304115
O O1 0.250000 0.250000 0.976448
O O2 0.361803 0.451189 0.910366
O O3 0.750000 0.250000 0.950354
O O4 0.500000 0.500000 0.000000
O O5 0.250000 0.750000 0.872209
O O6 0.546204 0.008426 0.843356
O O7 0.055582 0.000913 0.822684
O O8 0.250000 0.250000 0.302178
O O9 0.250000 0.523022 0.250000
#
# Coordination Sequence:
#
# PCOD9390327 Si02
#       3
#     8   8   8
#     4  12  26  44  66  92 126 167 214 265 323 386
#     4  10  20  36  60  90 124 161 206 258 311 368
#     4   9  17  31  56  90 124 159 203 254 304 362
#
# _framework density 21.679946000000001
#
# number of rings (size 3 to 8) (size 9 to 14) (size 15 to 20)
#    0.000    1.667    0.000    5.000    0.000    8.000 
#    0.000    0.000    0.000   15.000    0.000    0.000 
#    0.000    0.000    0.000    0.000    0.000    0.000 
#
# Total GULP energy -133895.433490 kJ/mol
# GULP energy per Si atom -5578.976395 kJ/mol
# Density = 2.163060 g / cm^3
# Si number density = 21.679946 Si / 1000 Ang^3
#
#
#
# Elastic Constant Matrix: (Units=GPa)
#
#
# Indices 1 2 3 4 5 6 
#
# 1 136.2511 50.1025 19.4223 0.0000 0.0000 0.0000
# 2 50.1025 76.3278 57.8954 0.0000 0.0000 0.0000
# 3 19.4223 57.8954 119.3125 0.0000 0.0000 0.0000
# 4 0.0000 0.0000 0.0000 8.0200 0.0000 0.0000
# 5 0.0000 0.0000 0.0000 0.0000 40.2039 0.0000
# 6 0.0000 0.0000 0.0000 0.0000 0.0000 34.2350
#
#
#
# Elastic Compliance Matrix: (Units=1/GPa)
#
#
# Indices 1 2 3 4 5 6 
#
# 1 0.010123 -0.008537 0.002495 0.000000 0.000000 0.000000
# 2 -0.008537 0.027932 -0.012164 0.000000 0.000000 0.000000
# 3 0.002495 -0.012164 0.013878 0.000000 0.000000 0.000000
# 4 0.000000 0.000000 0.000000 0.124689 0.000000 0.000000
# 5 0.000000 0.000000 0.000000 0.000000 0.024873 0.000000
# 6 0.000000 0.000000 0.000000 0.000000 0.000000 0.029210
#
#
# Mechanical properties :
#
#
# Convention : Reuss Voigt Hill
#
# Bulk Modulus (GPa) = 64.43408 65.19243 64.81325
# Shear Modulus (GPa) = 18.36273 30.12318 24.24296
#
# Velocity S-wave (km/s) = 2.91347 3.73158 3.34761
# Velocity P-wave (km/s) = 6.41115 6.97867 6.70092
#
# Compressibility (1/GPa) = 0.01551974
#
# Stress axis : x y z
#
# Youngs Moduli (GPa) = 98.78422 35.80156 72.05802
#
# Poissons Ratio (x) = 0.30564 -0.17976
# Poissons Ratio (y) = 0.84334 0.87651
# Poissons Ratio (z) = -0.24644 0.43549
#
# Static dielectric constant tensor:
#      x y z
#    x 1.751470 0.000000 0.000000 
#    y 0.000000 1.626600 0.000000 
#    z 0.000000 0.000000 1.812490 
# 
# From -- ./inp_files/689.got.cif
#   From: 2010.05.17/outbox.cif.g08.bks.cpg/sg48_1_cif.got.tgz:689.got - 2010.06.03 20:39:00.
