data_PCOD9390342
_publ_section_title
;
Structure prediction by ZEFSAII (Michael W. Deem and Ramdas Pophale) SiO2 
 PCOD9390342
Probable space group: P N N N
;
_chemical_formula_sum "Si O2"
_cell_formula_units_Z 40
_cell_length_a 28.100999
_cell_length_b 5.326372
_cell_length_c 11.462976
_cell_angle_alpha 90.000000
_cell_angle_beta 90.000000
_cell_angle_gamma 90.000000
_cell_volume 1715.736686
_symmetry_space_group_name_H-M "P N N N"
_symmetry_group_IT_number 48
_space_group.IT_coordinate_system_code '2'
_symmetry_cell_setting 'orthorhombic'
loop_
_space_group_symop_operation_xyz
x,y,z
1/2-x,1/2-y,z
x,1/2-y,1/2-z
1/2-x,y,1/2-z
-x,-y,-z
1/2+x,1/2+y,-z
-x,1/2+y,1/2+z
1/2+x,-y,1/2+z
loop_
_atom_site_type_symbol
_atom_site_label
_atom_site_fract_x
_atom_site_fract_y
_atom_site_fract_z
Si Si1 0.722434 0.499831 0.920581
Si Si2 0.115615 0.870514 0.121679
Si Si3 0.811763 0.990800 0.176154
Si Si4 0.088410 0.627193 0.620184
Si Si5 0.485915 0.004485 0.326568
O O1 0.750000 0.750000 0.885238
O O2 0.719628 0.489627 0.061068
O O3 0.750000 0.250000 0.881356
O O4 0.667231 0.496514 0.883804
O O5 0.115230 0.750000 0.250000
O O6 0.067043 0.028567 0.121482
O O7 0.105785 0.721599 0.997551
O O8 0.809560 0.250000 0.250000
O O9 0.866513 0.944545 0.134066
O O10 0.799237 0.750000 0.250000
O O11 0.087263 0.750000 0.750000
O O12 0.035639 0.515228 0.603323
O O13 0.489278 0.250000 0.250000
O O14 0.487625 0.750000 0.250000
#
# Coordination Sequence:
#
# PCOD9390342 Si02
#       5
#     8   8   8   8   8
#     4  11  25  43  65  92 126 171 223 277 329 382
#     4  10  23  44  68  97 132 174 223 271 324 389
#     4  10  20  36  62  97 134 169 210 264 327 394
#     4   9  19  39  67 101 137 172 211 262 326 391
#     4  10  21  40  67 100 135 172 215 264 322 389
#
# _framework density 23.313600999999998
#
# number of rings (size 3 to 8) (size 9 to 14) (size 15 to 20)
#    0.000    2.000    0.000    2.400    0.000    6.000 
#    0.000   36.000    0.000    0.000    0.000    0.000 
#    0.000    0.000    0.000    0.000    0.000    0.000 
#
# Total GULP energy -222677.062414 kJ/mol
# GULP energy per Si atom -5566.926560 kJ/mol
# Density = 2.326054 g / cm^3
# Si number density = 23.313601 Si / 1000 Ang^3
#
#
#
# Elastic Constant Matrix: (Units=GPa)
#
#
# Indices 1 2 3 4 5 6 
#
# 1 242.1885 68.0512 64.3798 0.0000 0.0000 0.0000
# 2 68.0512 132.1693 46.3743 0.0000 0.0000 0.0000
# 3 64.3798 46.3743 160.3837 0.0000 0.0000 0.0000
# 4 0.0000 0.0000 0.0000 -31.4891 0.0000 0.0000
# 5 0.0000 0.0000 0.0000 0.0000 37.9135 0.0000
# 6 0.0000 0.0000 0.0000 0.0000 0.0000 23.4870
#
#
#
# Elastic Compliance Matrix: (Units=1/GPa)
#
#
# Indices 1 2 3 4 5 6 
#
# 1 0.005108 -0.002126 -0.001436 0.000000 0.000000 0.000000
# 2 -0.002126 0.009305 -0.001837 0.000000 0.000000 0.000000
# 3 -0.001436 -0.001837 0.007343 0.000000 0.000000 0.000000
# 4 0.000000 0.000000 0.000000 -0.031757 0.000000 0.000000
# 5 0.000000 0.000000 0.000000 0.000000 0.026376 0.000000
# 6 0.000000 0.000000 0.000000 0.000000 0.000000 0.042577
#
#
# Mechanical properties :
#
#
# Convention : Reuss Voigt Hill
#
# Bulk Modulus (GPa) = 91.25805 99.15025 95.20415
# Shear Modulus (GPa) = 68.11770 29.71137 48.91453
#
# Velocity S-wave (km/s) = 5.41123 3.57378 4.58548
# Velocity P-wave (km/s) = 8.84707 7.72337 8.30425
#
# Compressibility (1/GPa) = 0.01095794
#
# Stress axis : x y z
#
# Youngs Moduli (GPa) = 195.76708 107.46399 136.19314
#
# Poissons Ratio (x) = 0.22850 0.19552
# Poissons Ratio (y) = 0.41627 0.25020
# Poissons Ratio (z) = 0.28105 0.19742
#
# Static dielectric constant tensor:
#      x y z
#    x 1.921550 0.000000 0.000000 
#    y 0.000000 1.836060 0.000000 
#    z 0.000000 0.000000 2.028830 
# 
# From -- ./inp_files/23509.got.cif
#   From: 2010.05.17/outbox.cif.g08.bks.cpg/sg48_12_cif.got.tgz:23509.got - 2010.06.03 20:39:00.
