data_PCOD9390331
_publ_section_title
;
Structure prediction by ZEFSAII (Michael W. Deem and Ramdas Pophale) SiO2 
 PCOD9390331
Probable space group: P N N N
;
_chemical_formula_sum "Si O2"
_cell_formula_units_Z 48
_cell_length_a 19.297849
_cell_length_b 13.202377
_cell_length_c 7.728056
_cell_angle_alpha 90.000000
_cell_angle_beta 90.000000
_cell_angle_gamma 90.000000
_cell_volume 1968.934616
_symmetry_space_group_name_H-M "P N N N"
_symmetry_group_IT_number 48
_space_group.IT_coordinate_system_code '2'
_symmetry_cell_setting 'orthorhombic'
loop_
_space_group_symop_operation_xyz
x,y,z
1/2-x,1/2-y,z
x,1/2-y,1/2-z
1/2-x,y,1/2-z
-x,-y,-z
1/2+x,1/2+y,-z
-x,1/2+y,1/2+z
1/2+x,-y,1/2+z
loop_
_atom_site_type_symbol
_atom_site_label
_atom_site_fract_x
_atom_site_fract_y
_atom_site_fract_z
Si Si1 0.750000 0.980084 0.750000
Si Si2 0.536120 0.250000 0.250000
Si Si3 0.938204 0.643222 0.952846
Si Si4 0.706099 0.603730 0.408221
Si Si5 0.873744 0.062689 0.186334
Si Si6 0.853381 0.358771 0.669175
Si Si7 0.509578 0.464910 0.775855
O O1 0.744920 0.918353 0.572736
O O2 0.685550 0.055208 0.777146
O O3 0.482656 0.242317 0.091030
O O4 0.586011 0.345281 0.276855
O O5 0.949291 0.565853 0.790342
O O6 0.859441 0.661786 0.008888
O O7 0.973943 0.584679 0.108507
O O8 0.750000 0.647076 0.250000
O O9 0.671891 0.503724 0.315911
O O10 0.832798 0.115844 0.029140
O O11 0.939939 0.995284 0.117794
O O12 0.838136 0.250000 0.750000
O O13 0.934659 0.381933 0.669677
#
# Coordination Sequence:
#
# PCOD9390331 Si02
#       7
#     4   4   8   8   8   8   8
#     4  12  25  40  58  85 124 172 220 261 314 404
#     4  10  20  36  61 101 118 162 208 278 344 364
#     4   9  18  35  63  88 123 158 214 269 317 387
#     4  11  22  42  64  90 126 182 223 260 324 405
#     4  10  22  37  63  90 126 164 213 267 329 395
#     4  12  23  36  55  89 130 163 208 264 322 388
#     4   9  18  35  58  85 121 164 207 258 320 382
#
# _framework density 24.378667
#
# number of rings (size 3 to 8) (size 9 to 14) (size 15 to 20)
#    0.000    1.667    3.333    2.750    2.333    0.000 
#    0.000    0.417    0.000    0.500    0.000   12.833 
#    0.000    0.000    0.000    0.000    0.000    0.000 
#
# Total GULP energy -267786.433586 kJ/mol
# GULP energy per Si atom -5578.884033 kJ/mol
# Density = 2.432318 g / cm^3
# Si number density = 24.378667 Si / 1000 Ang^3
#
#
#
# Elastic Constant Matrix: (Units=GPa)
#
#
# Indices 1 2 3 4 5 6 
#
# 1 87.6472 33.9461 18.8558 0.0000 0.0000 0.0000
# 2 33.9461 71.1740 24.3997 0.0000 0.0000 0.0000
# 3 18.8558 24.3997 97.2888 0.0000 0.0000 0.0000
# 4 0.0000 0.0000 0.0000 13.1721 0.0000 0.0000
# 5 0.0000 0.0000 0.0000 0.0000 38.1133 0.0000
# 6 0.0000 0.0000 0.0000 0.0000 0.0000 0.9028
#
#
#
# Elastic Compliance Matrix: (Units=1/GPa)
#
#
# Indices 1 2 3 4 5 6 
#
# 1 0.014110 -0.006337 -0.001145 0.000000 0.000000 0.000000
# 2 -0.006337 0.018218 -0.003341 0.000000 0.000000 0.000000
# 3 -0.001145 -0.003341 0.011339 0.000000 0.000000 0.000000
# 4 0.000000 0.000000 0.000000 0.075918 0.000000 0.000000
# 5 0.000000 0.000000 0.000000 0.000000 0.026238 0.000000
# 6 0.000000 0.000000 0.000000 0.000000 0.000000 1.107697
#
#
# Mechanical properties :
#
#
# Convention : Reuss Voigt Hill
#
# Bulk Modulus (GPa) = 45.41334 45.61256 45.51295
# Shear Modulus (GPa) = 3.89862 22.36486 13.13174
#
# Velocity S-wave (km/s) = 1.26596 3.03214 2.32342
# Velocity P-wave (km/s) = 4.56132 5.56858 5.08993
#
# Compressibility (1/GPa) = 0.02201996
#
# Stress axis : x y z
#
# Youngs Moduli (GPa) = 70.87079 54.89134 88.19498
#
# Poissons Ratio (x) = 0.34785 0.10102
# Poissons Ratio (y) = 0.44912 0.29464
# Poissons Ratio (z) = 0.08118 0.18338
#
# Static dielectric constant tensor:
#      x y z
#    x 1.992000 0.000000 0.000000 
#    y 0.000000 1.963430 0.000000 
#    z 0.000000 0.000000 2.019040 
# 
# From -- ./inp_files/12827.got.cif
#   From: 2010.05.17/outbox.cif.g08.bks.cpg/sg48_7_cif.got.tgz:12827.got - 2010.06.03 20:39:00.
