data_PCOD9390154
_publ_section_title
;
Structure prediction by ZEFSAII (Michael W. Deem and Ramdas Pophale) SiO2 
 PCOD9390154
Probable space group: P N N N
;
_chemical_formula_sum "Si O2"
_cell_formula_units_Z 44
_cell_length_a 9.176520
_cell_length_b 16.213650
_cell_length_c 14.769104
_cell_angle_alpha 90.000000
_cell_angle_beta 90.000000
_cell_angle_gamma 90.000000
_cell_volume 2197.419418
_symmetry_space_group_name_H-M "P N N N"
_symmetry_group_IT_number 48
_space_group.IT_coordinate_system_code '2'
_symmetry_cell_setting 'orthorhombic'
loop_
_space_group_symop_operation_xyz
x,y,z
1/2-x,1/2-y,z
x,1/2-y,1/2-z
1/2-x,y,1/2-z
-x,-y,-z
1/2+x,1/2+y,-z
-x,1/2+y,1/2+z
1/2+x,-y,1/2+z
loop_
_atom_site_type_symbol
_atom_site_label
_atom_site_fract_x
_atom_site_fract_y
_atom_site_fract_z
Si Si1 0.250000 0.250000 0.250000
Si Si2 0.498349 0.594841 0.057084
Si Si3 0.999299 0.368479 0.015488
Si Si4 0.418526 0.258338 0.642514
Si Si5 0.243232 0.498220 0.001735
Si Si6 0.000842 0.803716 0.875377
Si Si7 0.750000 0.250000 0.250000
O O1 0.357382 0.303390 0.186799
O O2 0.494288 0.677994 0.112117
O O3 0.358658 0.538147 0.070640
O O4 0.648543 0.545136 0.070521
O O5 0.498843 0.627623 0.952899
O O6 0.137117 0.426601 0.036376
O O7 0.997311 0.285863 0.074799
O O8 0.016240 0.336553 0.911188
O O9 0.859075 0.426337 0.029006
O O10 0.250000 0.250000 0.609842
O O11 0.416822 0.250000 0.750000
O O12 0.143124 0.804273 0.812365
#
# Coordination Sequence:
#
# PCOD9390154 Si02
#       7
#     2   8   8   8   8   8   2
#     4  10  20  30  56  78 106 142 180 252 268 330
#     4  10  20  37  62  85 110 161 185 243 282 357
#     4  10  20  37  62  85 110 161 185 243 282 357
#     4  10  20  37  65  88 115 151 204 242 287 347
#     4  10  20  34  60  82 118 144 196 224 296 348
#     4  10  20  35  59  81 112 145 205 223 289 330
#     4  10  20  34  56  86 110 134 188 256 256 322
#
# _framework density 20.023486999999999
#
# number of rings (size 3 to 8) (size 9 to 14) (size 15 to 20)
#    0.000    2.000    1.818    2.182    2.545    2.182 
#    0.000    1.818   80.000    0.000    0.000    0.000 
#    0.000    0.000    0.000    0.000    0.000    0.000 
#
# Total GULP energy -245333.470490 kJ/mol
# GULP energy per Si atom -5575.760693 kJ/mol
# Density = 1.997791 g / cm^3
# Si number density = 20.023487 Si / 1000 Ang^3
#
#
#
# Elastic Constant Matrix: (Units=GPa)
#
#
# Indices 1 2 3 4 5 6 
#
# 1 125.4725 42.1788 24.1408 0.0000 0.0000 0.0000
# 2 42.1788 117.4535 18.4849 0.0000 0.0000 0.0000
# 3 24.1408 18.4849 73.6038 0.0000 0.0000 0.0000
# 4 0.0000 0.0000 0.0000 4.7191 0.0000 0.0000
# 5 0.0000 0.0000 0.0000 0.0000 17.6189 0.0000
# 6 0.0000 0.0000 0.0000 0.0000 0.0000 18.5102
#
#
#
# Elastic Compliance Matrix: (Units=1/GPa)
#
#
# Indices 1 2 3 4 5 6 
#
# 1 0.009435 -0.003020 -0.002336 0.000000 0.000000 0.000000
# 2 -0.003020 0.009831 -0.001478 0.000000 0.000000 0.000000
# 3 -0.002336 -0.001478 0.014724 0.000000 0.000000 0.000000
# 4 0.000000 0.000000 0.000000 0.211905 0.000000 0.000000
# 5 0.000000 0.000000 0.000000 0.000000 0.056757 0.000000
# 6 0.000000 0.000000 0.000000 0.000000 0.000000 0.054024
#
#
# Mechanical properties :
#
#
# Convention : Reuss Voigt Hill
#
# Bulk Modulus (GPa) = 49.21196 54.01542 51.61369
# Shear Modulus (GPa) = 13.25842 23.61799 18.43821
#
# Velocity S-wave (km/s) = 2.57601 3.43813 3.03781
# Velocity P-wave (km/s) = 5.78604 6.54183 6.17551
#
# Compressibility (1/GPa) = 0.02032027
#
# Stress axis : x y z
#
# Youngs Moduli (GPa) = 105.99225 101.71538 67.91786
#
# Poissons Ratio (x) = 0.30723 0.15865
# Poissons Ratio (y) = 0.32015 0.10041
# Poissons Ratio (z) = 0.24758 0.15037
#
# Static dielectric constant tensor:
#      x y z
#    x 1.738640 0.000000 0.000000 
#    y 0.000000 1.699930 0.000000 
#    z 0.000000 0.000000 1.718620 
# 
# From -- ./inp_files/25335.got.cif
#   From: 2010.05.17/outbox.cif.g08.bks.cpg/sg48_13_cif.got.tgz:25335.got - 2010.06.03 20:39:00.
