data_PCOD9390598
_publ_section_title
;
Structure prediction by ZEFSAII (Michael W. Deem and Ramdas Pophale) SiO2 
 PCOD9390598
Probable space group: P N N N
;
_chemical_formula_sum "Si O2"
_cell_formula_units_Z 48
_cell_length_a 15.279202
_cell_length_b 26.475492
_cell_length_c 5.354770
_cell_angle_alpha 90.000000
_cell_angle_beta 90.000000
_cell_angle_gamma 90.000000
_cell_volume 2166.135070
_symmetry_space_group_name_H-M "P N N N"
_symmetry_group_IT_number 48
_space_group.IT_coordinate_system_code '2'
_symmetry_cell_setting 'orthorhombic'
loop_
_space_group_symop_operation_xyz
x,y,z
1/2-x,1/2-y,z
x,1/2-y,1/2-z
1/2-x,y,1/2-z
-x,-y,-z
1/2+x,1/2+y,-z
-x,1/2+y,1/2+z
1/2+x,-y,1/2+z
loop_
_atom_site_type_symbol
_atom_site_label
_atom_site_fract_x
_atom_site_fract_y
_atom_site_fract_z
Si Si1 0.750000 0.419784 0.250000
Si Si2 0.250000 0.750000 0.750000
Si Si3 0.855087 0.555351 0.519090
Si Si4 0.750000 0.750000 0.750000
Si Si5 0.337670 0.012897 0.987590
Si Si6 0.522587 0.308852 0.785015
Si Si7 0.336490 0.333057 0.910985
Si Si8 0.885553 0.164866 0.301558
O O1 0.705921 0.457959 0.449647
O O2 0.670490 0.381991 0.195522
O O3 0.182781 0.789913 0.629903
O O4 0.887194 0.523946 0.757217
O O5 0.750033 0.547014 0.504193
O O6 0.867024 0.615017 0.541603
O O7 0.887589 0.531443 0.259072
O O8 0.690035 0.787342 0.589256
O O9 0.544108 0.250000 0.750000
O O10 0.419106 0.315923 0.751643
O O11 0.566602 0.342230 0.566193
O O12 0.552217 0.320707 0.069346
O O13 0.250000 0.344034 0.750000
#
# Coordination Sequence:
#
# PCOD9390598 Si02
#       8
#     4   2   8   2   8   8   8   8
#     4   9  22  41  72 104 130 171 228 283 350 416
#     4  10  20  44  72  90 126 178 244 252 326 444
#     4   9  18  34  61  91 117 168 215 262 315 394
#     4  12  26  38  64  98 124 170 246 280 316 402
#     4   9  17  35  63  94 126 153 222 277 323 388
#     4  12  26  44  63  95 148 178 222 288 341 382
#     4  12  26  43  66  98 132 184 239 268 338 408
#     4  11  25  42  69 100 131 181 224 284 343 409
#
# _framework density 22.159282999999999
#
# number of rings (size 3 to 8) (size 9 to 14) (size 15 to 20)
#    0.000    1.667    3.333    2.250    4.667    8.667 
#    0.000    0.000    0.000   14.000    0.000    0.000 
#    0.000    0.000    0.000    0.000    0.000    0.000 
#
# Total GULP energy -267475.480646 kJ/mol
# GULP energy per Si atom -5572.405847 kJ/mol
# Density = 2.210885 g / cm^3
# Si number density = 22.159283 Si / 1000 Ang^3
#
#
#
# Elastic Constant Matrix: (Units=GPa)
#
#
# Indices 1 2 3 4 5 6 
#
# 1 71.1508 15.4095 26.1349 0.0000 0.0000 0.0000
# 2 15.4095 129.4791 31.5731 0.0000 0.0000 0.0000
# 3 26.1349 31.5731 147.1921 0.0000 0.0000 0.0000
# 4 0.0000 0.0000 0.0000 -36.6807 0.0000 0.0000
# 5 0.0000 0.0000 0.0000 0.0000 -0.2705 0.0000
# 6 0.0000 0.0000 0.0000 0.0000 0.0000 98.3188
#
#
#
# Elastic Compliance Matrix: (Units=1/GPa)
#
#
# Indices 1 2 3 4 5 6 
#
# 1 0.015214 -0.001216 -0.002441 0.000000 0.000000 0.000000
# 2 -0.001216 0.008247 -0.001553 0.000000 0.000000 0.000000
# 3 -0.002441 -0.001553 0.007560 0.000000 0.000000 0.000000
# 4 0.000000 0.000000 0.000000 -0.027262 0.000000 0.000000
# 5 0.000000 0.000000 0.000000 0.000000 -3.696339 0.000000
# 6 0.000000 0.000000 0.000000 0.000000 0.000000 0.010171
#
#
# Mechanical properties :
#
#
# Convention : Reuss Voigt Hill
#
# Bulk Modulus (GPa) = 48.53720 54.89523 51.71621
# Shear Modulus (GPa) = -1.36421 30.58715 14.61147
#
# Velocity S-wave (km/s) = -0.78548 3.71931 2.57063
# Velocity P-wave (km/s) = 4.59660 6.57808 5.67450
#
# Compressibility (1/GPa) = 0.02060276
#
# Stress axis : x y z
#
# Youngs Moduli (GPa) = 65.72714 121.26157 132.26907
#
# Poissons Ratio (x) = 0.14740 0.32283
# Poissons Ratio (y) = 0.07989 0.20543
# Poissons Ratio (z) = 0.16042 0.18833
#
# Static dielectric constant tensor:
#      x y z
#    x 1.792110 0.000000 0.000000 
#    y 0.000000 1.859960 0.000000 
#    z 0.000000 0.000000 1.965000 
# 
# From -- ./inp_files/3598.got.cif
#   From: 2010.05.17/outbox.cif.g08.bks.cpg/sg48_2_cif.got.tgz:3598.got - 2010.06.03 20:39:00.
