data_PCOD9390999
_publ_section_title
;
Structure prediction by ZEFSAII (Michael W. Deem and Ramdas Pophale) SiO2 
 PCOD9390999
Probable space group: P N N N
;
_chemical_formula_sum "Si O2"
_cell_formula_units_Z 48
_cell_length_a 26.816773
_cell_length_b 5.275507
_cell_length_c 17.882108
_cell_angle_alpha 90.000000
_cell_angle_beta 90.000000
_cell_angle_gamma 90.000000
_cell_volume 2529.818901
_symmetry_space_group_name_H-M "P N N N"
_symmetry_group_IT_number 48
_space_group.IT_coordinate_system_code '2'
_symmetry_cell_setting 'orthorhombic'
loop_
_space_group_symop_operation_xyz
x,y,z
1/2-x,1/2-y,z
x,1/2-y,1/2-z
1/2-x,y,1/2-z
-x,-y,-z
1/2+x,1/2+y,-z
-x,1/2+y,1/2+z
1/2+x,-y,1/2+z
loop_
_atom_site_type_symbol
_atom_site_label
_atom_site_fract_x
_atom_site_fract_y
_atom_site_fract_z
Si Si1 0.846166 0.001299 0.300971
Si Si2 0.113533 0.520961 0.029989
Si Si3 0.782978 0.999161 0.450565
Si Si4 0.559851 0.200083 0.837141
Si Si5 0.056071 0.485029 0.472592
Si Si6 0.458851 0.502043 0.698841
O O1 0.838953 0.250000 0.250000
O O2 0.807240 0.993489 0.367961
O O3 0.842156 0.750000 0.250000
O O4 0.902938 0.016861 0.333031
O O5 0.170343 0.503640 0.006693
O O6 0.087650 0.774752 0.997630
O O7 0.083307 0.272225 0.006672
O O8 0.103655 0.555803 0.119042
O O9 0.750000 0.250000 0.458812
O O10 0.750000 0.750000 0.461580
O O11 0.567213 0.250000 0.750000
O O12 0.507953 0.046575 0.850381
O O13 0.555194 0.461541 0.883323
O O14 0.000000 0.500000 0.500000
O O15 0.457838 0.250000 0.750000
O O16 0.466217 0.750000 0.750000
#
# Coordination Sequence:
#
# PCOD9390999 Si02
#       6
#     8   8   8   8   8   8
#     4  10  22  40  60  91 125 163 205 258 315 370
#     4  10  24  41  61  91 125 165 209 261 315 379
#     4  12  26  44  66  89 118 165 221 278 323 368
#     4   9  22  37  63  94 128 166 209 246 307 374
#     4  10  22  37  61  95 129 168 198 251 304 394
#     4   9  19  33  53  87 128 159 189 238 299 369
#
# _framework density 18.973692
#
# number of rings (size 3 to 8) (size 9 to 14) (size 15 to 20)
#    1.000    1.000    0.000    2.500    7.000    2.000 
#    6.000    0.000    0.000    0.500    0.000    0.000 
#    0.000    0.000    0.000    0.000    0.000    0.000 
#
# Total GULP energy -267791.889287 kJ/mol
# GULP energy per Si atom -5578.997693 kJ/mol
# Density = 1.893051 g / cm^3
# Si number density = 18.973692 Si / 1000 Ang^3
#
#
#
# Elastic Constant Matrix: (Units=GPa)
#
#
# Indices 1 2 3 4 5 6 
#
# 1 173.4208 72.2683 64.6355 0.0000 0.0000 0.0000
# 2 72.2683 154.9336 42.8419 0.0000 0.0000 0.0000
# 3 64.6355 42.8419 83.3650 0.0000 0.0000 0.0000
# 4 0.0000 0.0000 0.0000 -218.1737 0.0000 0.0000
# 5 0.0000 0.0000 0.0000 0.0000 46.0419 0.0000
# 6 0.0000 0.0000 0.0000 0.0000 0.0000 29.8445
#
#
#
# Elastic Compliance Matrix: (Units=1/GPa)
#
#
# Indices 1 2 3 4 5 6 
#
# 1 0.008942 -0.002627 -0.005583 0.000000 0.000000 0.000000
# 2 -0.002627 0.008295 -0.002226 0.000000 0.000000 0.000000
# 3 -0.005583 -0.002226 0.017468 0.000000 0.000000 0.000000
# 4 0.000000 0.000000 0.000000 -0.004584 0.000000 0.000000
# 5 0.000000 0.000000 0.000000 0.000000 0.021719 0.000000
# 6 0.000000 0.000000 0.000000 0.000000 0.000000 0.033507
#
#
# Mechanical properties :
#
#
# Convention : Reuss Voigt Hill
#
# Bulk Modulus (GPa) = 72.29066 85.69010 78.99038
# Shear Modulus (GPa) = 45.11361 -12.99254 16.06054
#
# Velocity S-wave (km/s) = 4.88145 -2.61964 2.91256
# Velocity P-wave (km/s) = 8.36389 6.00921 7.28235
#
# Compressibility (1/GPa) = 0.01383305
#
# Stress axis : x y z
#
# Youngs Moduli (GPa) = 111.83329 120.54903 57.24757
#
# Poissons Ratio (x) = 0.31670 0.31960
# Poissons Ratio (y) = 0.29381 0.12744
# Poissons Ratio (z) = 0.62434 0.26836
#
# Static dielectric constant tensor:
#      x y z
#    x 1.658580 0.000000 0.000000 
#    y 0.000000 1.659460 0.000000 
#    z 0.000000 0.000000 1.684550 
# 
# From -- ./inp_files/32312.got.cif
#   From: 2010.05.17/outbox.cif.g08.bks.cpg/sg48_17_cif.got.tgz:32312.got - 2010.06.03 20:39:00.
