data_PCOD9390258
_publ_section_title
;
Structure prediction by ZEFSAII (Michael W. Deem and Ramdas Pophale) SiO2 
 PCOD9390258
Probable space group: P N N N
;
_chemical_formula_sum "Si O2"
_cell_formula_units_Z 64
_cell_length_a 18.338800
_cell_length_b 12.366271
_cell_length_c 15.246097
_cell_angle_alpha 90.000000
_cell_angle_beta 90.000000
_cell_angle_gamma 90.000000
_cell_volume 3457.549070
_symmetry_space_group_name_H-M "P N N N"
_symmetry_group_IT_number 48
_space_group.IT_coordinate_system_code '2'
_symmetry_cell_setting 'orthorhombic'
loop_
_space_group_symop_operation_xyz
x,y,z
1/2-x,1/2-y,z
x,1/2-y,1/2-z
1/2-x,y,1/2-z
-x,-y,-z
1/2+x,1/2+y,-z
-x,1/2+y,1/2+z
1/2+x,-y,1/2+z
loop_
_atom_site_type_symbol
_atom_site_label
_atom_site_fract_x
_atom_site_fract_y
_atom_site_fract_z
Si Si1 0.915186 0.378191 0.151349
Si Si2 0.084814 0.878191 0.848651
Si Si3 0.161745 0.750000 0.146640
Si Si4 0.572318 0.879015 0.580967
Si Si5 0.572318 0.620985 0.580967
Si Si6 0.335147 0.557606 0.011566
Si Si7 0.335147 0.557606 0.488434
Si Si8 0.669333 0.879400 0.750000
O O1 0.925571 0.250000 0.160650
O O2 0.906987 0.423274 0.250000
O O3 0.990519 0.413902 0.104651
O O4 0.848899 0.394028 0.084714
O O5 0.009481 0.913902 0.895350
O O6 0.151101 0.894028 0.915286
O O7 0.250000 0.750000 0.149269
O O8 0.137383 0.750000 0.250000
O O9 0.141548 0.855261 0.087092
O O10 0.141548 0.644740 0.087091
O O11 0.573733 0.750000 0.563059
O O12 0.622063 0.903656 0.665707
O O13 0.613756 0.952130 0.511473
O O14 0.613756 0.547869 0.511474
O O15 0.622063 0.596344 0.665707
O O16 0.250000 0.532416 0.025751
O O17 0.677493 0.750000 0.750000
O O18 0.750000 0.929697 0.750000
#
# Coordination Sequence:
#
# PCOD9390258 Si02
#       8
#     8   8   8   8   8   8   8   8
#     4  10  20  37  59  82 113 150 192 240 283 330
#     4  10  20  37  59  82 113 150 192 240 283 330
#     4   9  20  36  51  75 113 151 182 223 284 340
#     4  10  20  35  55  82 112 144 184 231 290 341
#     4  10  20  35  55  82 112 144 184 231 290 341
#     4  11  22  36  56  83 115 151 192 235 281 339
#     4  11  22  36  56  83 115 151 192 235 281 339
#     4   9  16  28  48  77 108 136 174 220 271 333
#
# _framework density 18.510221000000001
#
# number of rings (size 3 to 8) (size 9 to 14) (size 15 to 20)
#    0.000    2.000    2.500    1.500    1.750    2.000 
#    0.000    1.250    0.000    0.750    0.000    1.750 
#    0.000    0.000    0.000    0.000    0.000    0.000 
#
# Total GULP energy -356376.003646 kJ/mol
# GULP energy per Si atom -5568.375057 kJ/mol
# Density = 1.846809 g / cm^3
# Si number density = 18.510221 Si / 1000 Ang^3
#
#
#
# Elastic Constant Matrix: (Units=GPa)
#
#
# Indices 1 2 3 4 5 6 
#
# 1 36.1901 14.9486 39.5508 0.0000 0.0000 0.0000
# 2 14.9486 60.9760 32.9887 0.0000 0.0000 0.0000
# 3 39.5508 32.9887 75.0003 0.0000 0.0000 0.0000
# 4 0.0000 0.0000 0.0000 3.7553 0.0000 0.0000
# 5 0.0000 0.0000 0.0000 0.0000 42.5011 0.0000
# 6 0.0000 0.0000 0.0000 0.0000 0.0000 23.1607
#
#
#
# Elastic Compliance Matrix: (Units=1/GPa)
#
#
# Indices 1 2 3 4 5 6 
#
# 1 0.065771 0.003465 -0.036208 0.000000 0.000000 0.000000
# 2 0.003465 0.021704 -0.011373 0.000000 0.000000 0.000000
# 3 -0.036208 -0.011373 0.037430 0.000000 0.000000 0.000000
# 4 0.000000 0.000000 0.000000 0.266287 0.000000 0.000000
# 5 0.000000 0.000000 0.000000 0.000000 0.023529 0.000000
# 6 0.000000 0.000000 0.000000 0.000000 0.000000 0.043177
#
#
# Mechanical properties :
#
#
# Convention : Reuss Voigt Hill
#
# Bulk Modulus (GPa) = 27.26920 38.57142 32.92031
# Shear Modulus (GPa) = 8.95490 19.52863 14.24176
#
# Velocity S-wave (km/s) = 2.20189 3.25163 2.77682
# Velocity P-wave (km/s) = 4.60743 5.91444 5.30137
#
# Compressibility (1/GPa) = 0.03667141
#
# Stress axis : x y z
#
# Youngs Moduli (GPa) = 15.20431 46.07518 26.71674
#
# Poissons Ratio (x) = -0.15964 0.96735
# Poissons Ratio (y) = -0.05268 0.30386
# Poissons Ratio (z) = 0.55051 0.52403
#
# Static dielectric constant tensor:
#      x y z
#    x 1.642990 0.000000 0.000000 
#    y 0.000000 1.661550 0.000000 
#    z 0.000000 0.000000 1.732690 
# 
# From -- ./inp_files/28082.got.cif
#   From: 2010.05.17/outbox.cif.g08.bks.cpg/sg48_15_cif.got.tgz:28082.got - 2010.06.03 20:39:00.
