data_PCOD9390857
_publ_section_title
;
Structure prediction by ZEFSAII (Michael W. Deem and Ramdas Pophale) SiO2 
 PCOD9390857
Probable space group: P N N N
;
_chemical_formula_sum "Si O2"
_cell_formula_units_Z 32
_cell_length_a 4.557997
_cell_length_b 12.661213
_cell_length_c 19.765127
_cell_angle_alpha 90.000000
_cell_angle_beta 90.000000
_cell_angle_gamma 90.000000
_cell_volume 1140.640950
_symmetry_space_group_name_H-M "P N N N"
_symmetry_group_IT_number 48
_space_group.IT_coordinate_system_code '2'
_symmetry_cell_setting 'orthorhombic'
loop_
_space_group_symop_operation_xyz
x,y,z
1/2-x,1/2-y,z
x,1/2-y,1/2-z
1/2-x,y,1/2-z
-x,-y,-z
1/2+x,1/2+y,-z
-x,1/2+y,1/2+z
1/2+x,-y,1/2+z
loop_
_atom_site_type_symbol
_atom_site_label
_atom_site_fract_x
_atom_site_fract_y
_atom_site_fract_z
Si Si1 0.782567 0.876247 0.409937
Si Si2 0.023726 0.012142 0.204336
Si Si3 0.013291 0.170989 0.369255
Si Si4 0.785967 0.376252 0.499841
O O1 0.750000 0.750000 0.398820
O O2 0.615643 0.903288 0.480842
O O3 0.110493 0.903999 0.431833
O O4 0.638855 0.937550 0.348455
O O5 0.750000 0.055617 0.250000
O O6 0.250000 0.945896 0.250000
O O7 0.254837 0.100149 0.174693
O O8 0.250000 0.250000 0.402585
O O9 0.750000 0.250000 0.341429
O O10 0.842407 0.102288 0.425582
O O11 0.750000 0.250000 0.499443
#
# Coordination Sequence:
#
# PCOD9390857 Si02
#       4
#     8   8   8   8
#     4  10  21  40  67 100 142 188 238 304 373 439
#     4  12  27  45  66 101 146 198 263 308 354 453
#     4  11  23  43  71 101 139 186 244 321 391 444
#     4   9  18  36  66 102 135 175 237 305 382 458
#
# _framework density 28.054400000000001
#
# number of rings (size 3 to 8) (size 9 to 14) (size 15 to 20)
#    0.000    1.500    0.000    6.750    0.000    3.000 
#    0.000    3.750    0.000    4.500    0.000    0.000 
#    0.000    0.000    0.000    0.000    0.000   55.500 
#
# Total GULP energy -178698.155085 kJ/mol
# GULP energy per Si atom -5584.317346 kJ/mol
# Density = 2.799055 g / cm^3
# Si number density = 28.054400 Si / 1000 Ang^3
#
#
#
# Elastic Constant Matrix: (Units=GPa)
#
#
# Indices 1 2 3 4 5 6 
#
# 1 184.6169 41.5143 76.8187 0.0000 0.0000 0.0000
# 2 41.5143 121.6132 69.2941 0.0000 0.0000 0.0000
# 3 76.8187 69.2941 144.3801 0.0000 0.0000 0.0000
# 4 0.0000 0.0000 0.0000 22.7196 0.0000 0.0000
# 5 0.0000 0.0000 0.0000 0.0000 94.5499 0.0000
# 6 0.0000 0.0000 0.0000 0.0000 0.0000 58.0974
#
#
#
# Elastic Compliance Matrix: (Units=1/GPa)
#
#
# Indices 1 2 3 4 5 6 
#
# 1 0.006969 -0.000366 -0.003532 0.000000 0.000000 0.000000
# 2 -0.000366 0.011337 -0.005246 0.000000 0.000000 0.000000
# 3 -0.003532 -0.005246 0.011323 0.000000 0.000000 0.000000
# 4 0.000000 0.000000 0.000000 0.044015 0.000000 0.000000
# 5 0.000000 0.000000 0.000000 0.000000 0.010576 0.000000
# 6 0.000000 0.000000 0.000000 0.000000 0.000000 0.017212
#
#
# Mechanical properties :
#
#
# Convention : Reuss Voigt Hill
#
# Bulk Modulus (GPa) = 88.18363 91.76271 89.97317
# Shear Modulus (GPa) = 40.48529 52.60559 46.54544
#
# Velocity S-wave (km/s) = 3.80294 4.33497 4.07764
# Velocity P-wave (km/s) = 7.12632 7.60499 7.36954
#
# Compressibility (1/GPa) = 0.01133997
#
# Stress axis : x y z
#
# Youngs Moduli (GPa) = 143.50061 88.20588 88.31428
#
# Poissons Ratio (x) = 0.03232 0.31191
# Poissons Ratio (y) = 0.05258 0.46332
# Poissons Ratio (z) = 0.50682 0.46275
#
# Static dielectric constant tensor:
#      x y z
#    x 2.123280 0.000000 0.000000 
#    y 0.000000 2.297570 0.000000 
#    z 0.000000 0.000000 2.334130 
# 
# From -- ./inp_files/32659.got.cif
#   From: 2010.05.17/outbox.cif.g08.bks.cpg/sg48_17_cif.got.tgz:32659.got - 2010.06.03 20:39:00.
