data_PCOD9390923
_publ_section_title
;
Structure prediction by ZEFSAII (Michael W. Deem and Ramdas Pophale) SiO2 
 PCOD9390923
Probable space group: P N N N
;
_chemical_formula_sum "Si O2"
_cell_formula_units_Z 60
_cell_length_a 11.446577
_cell_length_b 8.951354
_cell_length_c 30.028932
_cell_angle_alpha 90.000000
_cell_angle_beta 90.000000
_cell_angle_gamma 90.000000
_cell_volume 3076.835326
_symmetry_space_group_name_H-M "P N N N"
_symmetry_group_IT_number 48
_space_group.IT_coordinate_system_code '2'
_symmetry_cell_setting 'orthorhombic'
loop_
_space_group_symop_operation_xyz
x,y,z
1/2-x,1/2-y,z
x,1/2-y,1/2-z
1/2-x,y,1/2-z
-x,-y,-z
1/2+x,1/2+y,-z
-x,1/2+y,1/2+z
1/2+x,-y,1/2+z
loop_
_atom_site_type_symbol
_atom_site_label
_atom_site_fract_x
_atom_site_fract_y
_atom_site_fract_z
Si Si1 0.250000 0.250000 0.961685
Si Si2 0.488361 0.997430 0.867037
Si Si3 0.513435 0.970624 0.370059
Si Si4 0.888780 0.743520 0.197048
Si Si5 0.750023 0.078199 0.087337
Si Si6 0.388758 0.771328 0.068585
Si Si7 0.515776 0.676892 0.988283
Si Si8 0.617402 0.729323 0.891565
O O1 0.243977 0.414624 0.937906
O O2 0.366278 0.263789 0.989832
O O3 0.453136 0.103784 0.826343
O O4 0.555224 0.085958 0.907027
O O5 0.366121 0.930829 0.883513
O O6 0.574831 0.861342 0.860013
O O7 0.630088 0.056206 0.385517
O O8 0.405226 0.079594 0.364454
O O9 0.549090 0.882007 0.326498
O O10 0.467345 0.857975 0.408327
O O11 0.750000 0.750000 0.185074
O O12 0.898103 0.750000 0.250000
O O13 0.750000 0.250000 0.067930
O O14 0.250000 0.750000 0.076532
O O15 0.414809 0.761840 0.015866
O O16 0.500000 0.500000 0.000000
O O17 0.537670 0.710388 0.936319
O O18 0.750000 0.750000 0.905748
#
# Coordination Sequence:
#
# PCOD9390923 Si02
#       8
#     4   8   8   8   8   8   8   8
#     4  12  22  44  64  86 137 182 233 290 348 382
#     4  11  23  39  64  97 130 170 220 268 335 412
#     4  11  21  41  65  91 134 171 210 275 332 405
#     4  10  21  41  73 105 131 161 202 267 347 414
#     4  12  21  39  68 102 134 185 225 274 347 408
#     4  11  23  41  62  88 129 180 232 277 331 394
#     4  12  24  42  61  89 128 180 233 294 338 378
#     4  12  25  42  63  89 129 178 221 278 334 387
#
# _framework density 19.500556
#
# number of rings (size 3 to 8) (size 9 to 14) (size 15 to 20)
#    0.000    0.667    7.333    1.600    0.000    0.533 
#    4.800    0.667    0.000   17.600    0.000    0.000 
#    0.000    0.000    0.000    0.000    0.000    0.000 
#
# Total GULP energy -334337.525728 kJ/mol
# GULP energy per Si atom -5572.292095 kJ/mol
# Density = 1.945617 g / cm^3
# Si number density = 19.500556 Si / 1000 Ang^3
#
#
#
# Elastic Constant Matrix: (Units=GPa)
#
#
# Indices 1 2 3 4 5 6 
#
# 1 100.2818 9.0432 37.4603 0.0000 0.0000 0.0000
# 2 9.0432 105.8948 36.6698 0.0000 0.0000 0.0000
# 3 37.4603 36.6698 86.9968 0.0000 0.0000 0.0000
# 4 0.0000 0.0000 0.0000 4.2574 0.0000 0.0000
# 5 0.0000 0.0000 0.0000 0.0000 -4.3203 0.0000
# 6 0.0000 0.0000 0.0000 0.0000 0.0000 32.4671
#
#
#
# Elastic Compliance Matrix: (Units=1/GPa)
#
#
# Indices 1 2 3 4 5 6 
#
# 1 0.011955 0.000892 -0.005524 0.000000 0.000000 0.000000
# 2 0.000892 0.011124 -0.005073 0.000000 0.000000 0.000000
# 3 -0.005524 -0.005073 0.016011 0.000000 0.000000 0.000000
# 4 0.000000 0.000000 0.000000 0.234883 0.000000 0.000000
# 5 0.000000 0.000000 0.000000 0.000000 -0.231463 0.000000
# 6 0.000000 0.000000 0.000000 0.000000 0.000000 0.030800
#
#
# Mechanical properties :
#
#
# Convention : Reuss Voigt Hill
#
# Bulk Modulus (GPa) = 50.81082 51.05777 50.93429
# Shear Modulus (GPa) = 50.36259 20.48085 35.42172
#
# Velocity S-wave (km/s) = 5.08746 3.24430 4.26660
# Velocity P-wave (km/s) = 7.78604 6.34615 7.10267
#
# Compressibility (1/GPa) = 0.01968085
#
# Stress axis : x y z
#
# Youngs Moduli (GPa) = 83.64835 89.89736 62.45590
#
# Poissons Ratio (x) = -0.08017 0.34498
# Poissons Ratio (y) = -0.07460 0.31682
# Poissons Ratio (z) = 0.46204 0.45603
#
# Static dielectric constant tensor:
#      x y z
#    x 1.654570 0.000000 0.000000 
#    y 0.000000 1.820250 0.000000 
#    z 0.000000 0.000000 1.811810 
# 
# From -- ./inp_files/38945.got.cif
#   From: 2010.05.17/outbox.cif.g08.bks.cpg/sg48_20_cif.got.tgz:38945.got - 2010.06.03 20:39:00.
