data_PCOD9390971
_publ_section_title
;
Structure prediction by ZEFSAII (Michael W. Deem and Ramdas Pophale) SiO2 
 PCOD9390971
Probable space group: P N N N
;
_chemical_formula_sum "Si O2"
_cell_formula_units_Z 64
_cell_length_a 25.567636
_cell_length_b 24.963207
_cell_length_c 5.133467
_cell_angle_alpha 90.000000
_cell_angle_beta 90.000000
_cell_angle_gamma 90.000000
_cell_volume 3276.436288
_symmetry_space_group_name_H-M "P N N N"
_symmetry_group_IT_number 48
_space_group.IT_coordinate_system_code '2'
_symmetry_cell_setting 'orthorhombic'
loop_
_space_group_symop_operation_xyz
x,y,z
1/2-x,1/2-y,z
x,1/2-y,1/2-z
1/2-x,y,1/2-z
-x,-y,-z
1/2+x,1/2+y,-z
-x,1/2+y,1/2+z
1/2+x,-y,1/2+z
loop_
_atom_site_type_symbol
_atom_site_label
_atom_site_fract_x
_atom_site_fract_y
_atom_site_fract_z
Si Si1 0.100508 0.872538 0.626679
Si Si2 0.688506 0.976485 0.759781
Si Si3 0.608000 0.886347 0.729632
Si Si4 0.688100 0.456588 0.238356
Si Si5 0.080596 0.693472 0.388203
Si Si6 0.029250 0.155525 0.826424
Si Si7 0.895022 0.714401 0.006512
Si Si8 0.996380 0.563763 0.969857
O O1 0.150627 0.909140 0.674913
O O2 0.096204 0.849209 0.335827
O O3 0.047780 0.909316 0.662291
O O4 0.104172 0.824472 0.836670
O O5 0.750000 0.964079 0.750000
O O6 0.653403 0.927343 0.669418
O O7 0.677436 0.023991 0.554738
O O8 0.677276 0.995872 0.053331
O O9 0.580723 0.853610 0.496872
O O10 0.630689 0.842402 0.931418
O O11 0.558351 0.920369 0.834470
O O12 0.750000 0.443736 0.250000
O O13 0.091276 0.750000 0.250000
O O14 0.018682 0.687041 0.446557
O O15 0.047434 0.191918 0.583301
O O16 0.009474 0.097130 0.738443
O O17 0.895224 0.750000 0.750000
O O18 0.876115 0.750000 0.250000
O O19 0.000000 0.500000 0.000000
#
# Coordination Sequence:
#
# PCOD9390971 Si02
#       8
#     8   8   8   8   8   8   8   8
#     4  11  22  39  58  90 118 159 202 247 301 361
#     4  10  23  40  63  92 119 158 199 245 300 357
#     4  11  22  37  59  87 121 153 204 243 297 360
#     4  10  22  42  66  89 118 157 200 244 299 364
#     4  11  23  38  58  82 124 162 204 249 299 356
#     4  10  22  36  54  85 117 163 204 235 295 352
#     4  11  22  36  57  84 112 151 201 250 291 341
#     4  10  22  34  52  86 128 159 189 234 303 364
#
# _framework density 19.533417
#
# number of rings (size 3 to 8) (size 9 to 14) (size 15 to 20)
#    0.000    1.500    2.500    2.250    5.250    1.500 
#    0.000    0.000    0.000    2.625    3.250    0.000 
#    0.000    0.000    0.000    0.000    0.000    0.000 
#
# Total GULP energy -356771.083177 kJ/mol
# GULP energy per Si atom -5574.548175 kJ/mol
# Density = 1.948896 g / cm^3
# Si number density = 19.533417 Si / 1000 Ang^3
#
#
#
# Elastic Constant Matrix: (Units=GPa)
#
#
# Indices 1 2 3 4 5 6 
#
# 1 44.9985 23.9139 14.0518 0.0000 0.0000 0.0000
# 2 23.9139 78.6601 10.1586 0.0000 0.0000 0.0000
# 3 14.0518 10.1586 82.6706 0.0000 0.0000 0.0000
# 4 0.0000 0.0000 0.0000 23.2085 0.0000 0.0000
# 5 0.0000 0.0000 0.0000 0.0000 16.5542 0.0000
# 6 0.0000 0.0000 0.0000 0.0000 0.0000 11.3246
#
#
#
# Elastic Compliance Matrix: (Units=1/GPa)
#
#
# Indices 1 2 3 4 5 6 
#
# 1 0.027585 -0.007906 -0.003717 0.000000 0.000000 0.000000
# 2 -0.007906 0.015184 -0.000522 0.000000 0.000000 0.000000
# 3 -0.003717 -0.000522 0.012792 0.000000 0.000000 0.000000
# 4 0.000000 0.000000 0.000000 0.043088 0.000000 0.000000
# 5 0.000000 0.000000 0.000000 0.000000 0.060408 0.000000
# 6 0.000000 0.000000 0.000000 0.000000 0.000000 0.088304
#
#
# Mechanical properties :
#
#
# Convention : Reuss Voigt Hill
#
# Bulk Modulus (GPa) = 31.97899 33.61975 32.79937
# Shear Modulus (GPa) = 17.72578 20.76446 19.24512
#
# Velocity S-wave (km/s) = 3.01567 3.26394 3.14226
# Velocity P-wave (km/s) = 5.34160 5.60831 5.47658
#
# Compressibility (1/GPa) = 0.03127053
#
# Stress axis : x y z
#
# Youngs Moduli (GPa) = 36.25097 65.85895 78.17284
#
# Poissons Ratio (x) = 0.52070 0.29059
# Poissons Ratio (y) = 0.28661 0.04080
# Poissons Ratio (z) = 0.13475 0.03437
#
# Static dielectric constant tensor:
#      x y z
#    x 1.665790 0.000000 0.000000 
#    y 0.000000 1.707300 0.000000 
#    z 0.000000 0.000000 1.768650 
# 
# From -- ./inp_files/6666.got.cif
#   From: 2010.05.17/outbox.cif.g08.bks.cpg/sg48_4_cif.got.tgz:6666.got - 2010.06.03 20:39:00.
