data_PCOD9390591
_publ_section_title
;
Structure prediction by ZEFSAII (Michael W. Deem and Ramdas Pophale) SiO2 
 PCOD9390591
Probable space group: P N N N
;
_chemical_formula_sum "Si O2"
_cell_formula_units_Z 48
_cell_length_a 7.629990
_cell_length_b 17.029982
_cell_length_c 15.919303
_cell_angle_alpha 90.000000
_cell_angle_beta 90.000000
_cell_angle_gamma 90.000000
_cell_volume 2068.531823
_symmetry_space_group_name_H-M "P N N N"
_symmetry_group_IT_number 48
_space_group.IT_coordinate_system_code '2'
_symmetry_cell_setting 'orthorhombic'
loop_
_space_group_symop_operation_xyz
x,y,z
1/2-x,1/2-y,z
x,1/2-y,1/2-z
1/2-x,y,1/2-z
-x,-y,-z
1/2+x,1/2+y,-z
-x,1/2+y,1/2+z
1/2+x,-y,1/2+z
loop_
_atom_site_type_symbol
_atom_site_label
_atom_site_fract_x
_atom_site_fract_y
_atom_site_fract_z
Si Si1 0.575070 0.708753 0.393420
Si Si2 0.049093 0.683537 0.927109
Si Si3 0.596276 0.364719 0.861453
Si Si4 0.418445 0.632362 0.935690
Si Si5 0.738149 0.919303 0.848430
Si Si6 0.040503 0.923441 0.309306
O O1 0.750000 0.750000 0.427944
O O2 0.459182 0.686801 0.472971
O O3 0.489890 0.780769 0.343333
O O4 0.617695 0.627086 0.346762
O O5 0.214776 0.626804 0.906934
O O6 0.056000 0.776228 0.907327
O O7 0.873312 0.647461 0.892602
O O8 0.526001 0.426729 0.791426
O O9 0.799646 0.365126 0.834922
O O10 0.572652 0.378093 0.962056
O O11 0.571106 0.581246 0.892700
O O12 0.750000 0.901957 0.750000
O O13 0.615115 0.997393 0.850306
#
# Coordination Sequence:
#
# PCOD9390591 Si02
#       6
#     8   8   8   8   8   8
#     4  11  22  41  68 102 138 182 237 300 353 429
#     4  10  22  44  70 101 134 175 242 298 349 433
#     4  10  20  43  68  93 134 183 233 281 352 433
#     4  10  22  44  75  99 128 187 241 294 362 427
#     4  12  26  46  66 102 144 186 236 302 377 436
#     4  11  23  42  63 101 142 183 227 288 365 444
#
# _framework density 23.204864000000001
#
# number of rings (size 3 to 8) (size 9 to 14) (size 15 to 20)
#    0.000    1.333    3.333    3.500    0.000    6.000 
#    3.000    3.333    0.000    0.000    0.000    0.000 
#    0.000    0.000    0.000    0.000    0.000    0.000 
#
# Total GULP energy -267324.299367 kJ/mol
# GULP energy per Si atom -5569.256237 kJ/mol
# Density = 2.315205 g / cm^3
# Si number density = 23.204864 Si / 1000 Ang^3
#
#
#
# Elastic Constant Matrix: (Units=GPa)
#
#
# Indices 1 2 3 4 5 6 
#
# 1 84.1551 30.8364 22.6669 0.0000 0.0000 0.0000
# 2 30.8364 83.3987 34.9955 0.0000 0.0000 0.0000
# 3 22.6669 34.9955 70.4927 0.0000 0.0000 0.0000
# 4 0.0000 0.0000 0.0000 17.2849 0.0000 0.0000
# 5 0.0000 0.0000 0.0000 0.0000 30.5726 0.0000
# 6 0.0000 0.0000 0.0000 0.0000 0.0000 17.1066
#
#
#
# Elastic Compliance Matrix: (Units=1/GPa)
#
#
# Indices 1 2 3 4 5 6 
#
# 1 0.014073 -0.004174 -0.002453 0.000000 0.000000 0.000000
# 2 -0.004174 0.016384 -0.006791 0.000000 0.000000 0.000000
# 3 -0.002453 -0.006791 0.018346 0.000000 0.000000 0.000000
# 4 0.000000 0.000000 0.000000 0.057854 0.000000 0.000000
# 5 0.000000 0.000000 0.000000 0.000000 0.032709 0.000000
# 6 0.000000 0.000000 0.000000 0.000000 0.000000 0.058457
#
#
# Mechanical properties :
#
#
# Convention : Reuss Voigt Hill
#
# Bulk Modulus (GPa) = 45.52502 46.11601 45.82051
# Shear Modulus (GPa) = 21.55342 22.96267 22.25805
#
# Velocity S-wave (km/s) = 3.05098 3.14914 3.10045
# Velocity P-wave (km/s) = 5.66327 5.75668 5.71017
#
# Compressibility (1/GPa) = 0.02196594
#
# Stress axis : x y z
#
# Youngs Moduli (GPa) = 71.05792 61.03614 54.50743
#
# Poissons Ratio (x) = 0.25477 0.13370
# Poissons Ratio (y) = 0.29661 0.37018
# Poissons Ratio (z) = 0.17430 0.41452
#
# Static dielectric constant tensor:
#      x y z
#    x 2.058810 0.000000 0.000000 
#    y 0.000000 2.001490 0.000000 
#    z 0.000000 0.000000 1.900650 
# 
# From -- ./inp_files/25389.got.cif
#   From: 2010.05.17/outbox.cif.g08.bks.cpg/sg48_13_cif.got.tgz:25389.got - 2010.06.03 20:39:00.
