data_PCOD9390242
_publ_section_title
;
Structure prediction by ZEFSAII (Michael W. Deem and Ramdas Pophale) SiO2 
 PCOD9390242
Probable space group: P N N N
;
_chemical_formula_sum "Si O2"
_cell_formula_units_Z 54
_cell_length_a 24.577688
_cell_length_b 25.281823
_cell_length_c 5.114750
_cell_angle_alpha 90.000000
_cell_angle_beta 90.000000
_cell_angle_gamma 90.000000
_cell_volume 3178.145854
_symmetry_space_group_name_H-M "P N N N"
_symmetry_group_IT_number 48
_space_group.IT_coordinate_system_code '2'
_symmetry_cell_setting 'orthorhombic'
loop_
_space_group_symop_operation_xyz
x,y,z
1/2-x,1/2-y,z
x,1/2-y,1/2-z
1/2-x,y,1/2-z
-x,-y,-z
1/2+x,1/2+y,-z
-x,1/2+y,1/2+z
1/2+x,-y,1/2+z
loop_
_atom_site_type_symbol
_atom_site_label
_atom_site_fract_x
_atom_site_fract_y
_atom_site_fract_z
Si Si1 0.652434 0.750000 0.250000
Si Si2 0.028803 0.949857 0.862126
Si Si3 0.310981 0.454213 0.190259
Si Si4 0.061501 0.300734 0.120210
Si Si5 0.479172 0.099723 0.840963
Si Si6 0.878312 0.976666 0.305057
Si Si7 0.750000 0.750000 0.750000
Si Si8 0.331066 0.169046 0.331408
O O1 0.608891 0.724845 0.449283
O O2 0.680957 0.798716 0.401685
O O3 0.001159 0.933152 0.590612
O O4 0.087856 0.971391 0.779809
O O5 0.017766 0.906099 0.086751
O O6 0.000000 0.000000 0.000000
O O7 0.250000 0.472193 0.250000
O O8 0.353603 0.476099 0.404848
O O9 0.312837 0.390440 0.201644
O O10 0.330604 0.468991 0.902252
O O11 0.032616 0.250000 0.250000
O O12 0.102624 0.332223 0.314155
O O13 0.027553 0.341056 0.948158
O O14 0.420580 0.072785 0.781304
O O15 0.706126 0.793418 0.858359
#
# Coordination Sequence:
#
# PCOD9390242 Si02
#       8
#     4   8   8   8   8   8   2   8
#     4  10  20  35  48  62  88 138 174 212 277 294
#     4  10  21  34  55  81  97 124 170 217 286 324
#     4  12  24  36  54  73 100 135 180 215 284 319
#     4  10  21  33  49  69  99 132 168 215 272 311
#     4  11  20  34  56  79  99 133 170 220 274 332
#     4  11  21  38  54  73 104 128 164 236 267 325
#     4  12  20  38  40  60  90 124 192 218 260 302
#     4  11  22  35  44  65  89 132 174 232 265 308
#
# _framework density 16.991040000000002
#
# number of rings (size 3 to 8) (size 9 to 14) (size 15 to 20)
#    0.000    1.185    4.444    5.778    4.148    0.296 
#    2.667    0.000    0.000    0.000    0.000    0.000 
#    0.000    0.000    0.000    0.000    0.000   20.741 
#
# Total GULP energy -300654.731452 kJ/mol
# GULP energy per Si atom -5567.680212 kJ/mol
# Density = 1.695237 g / cm^3
# Si number density = 16.991040 Si / 1000 Ang^3
#
#
#
# Elastic Constant Matrix: (Units=GPa)
#
#
# Indices 1 2 3 4 5 6 
#
# 1 41.3663 27.6125 7.8212 0.0000 0.0000 0.0000
# 2 27.6125 51.9892 10.3363 0.0000 0.0000 0.0000
# 3 7.8212 10.3363 76.4910 0.0000 0.0000 0.0000
# 4 0.0000 0.0000 0.0000 28.2357 0.0000 0.0000
# 5 0.0000 0.0000 0.0000 0.0000 23.9882 0.0000
# 6 0.0000 0.0000 0.0000 0.0000 0.0000 16.8132
#
#
#
# Elastic Compliance Matrix: (Units=1/GPa)
#
#
# Indices 1 2 3 4 5 6 
#
# 1 0.037555 -0.019712 -0.001176 0.000000 0.000000 0.000000
# 2 -0.019712 0.030113 -0.002054 0.000000 0.000000 0.000000
# 3 -0.001176 -0.002054 0.013471 0.000000 0.000000 0.000000
# 4 0.000000 0.000000 0.000000 0.035416 0.000000 0.000000
# 5 0.000000 0.000000 0.000000 0.000000 0.041687 0.000000
# 6 0.000000 0.000000 0.000000 0.000000 0.000000 0.059477
#
#
# Mechanical properties :
#
#
# Convention : Reuss Voigt Hill
#
# Bulk Modulus (GPa) = 28.36517 29.04294 28.70406
# Shear Modulus (GPa) = 18.15839 22.07918 20.11878
#
# Velocity S-wave (km/s) = 3.27265 3.60871 3.44478
# Velocity P-wave (km/s) = 5.56873 5.87316 5.72297
#
# Compressibility (1/GPa) = 0.03525451
#
# Stress axis : x y z
#
# Youngs Moduli (GPa) = 26.62773 33.20861 74.23238
#
# Poissons Ratio (x) = 0.65462 0.08731
# Poissons Ratio (y) = 0.52489 0.15244
# Poissons Ratio (z) = 0.03132 0.06820
#
# Static dielectric constant tensor:
#      x y z
#    x 1.601580 0.000000 0.000000 
#    y 0.000000 1.632540 0.000000 
#    z 0.000000 0.000000 2.284820 
# 
# From -- ./inp_files/5365.got.cif
#   From: 2010.05.17/outbox.cif.g08.bks.cpg/sg48_3_cif.got.tgz:5365.got - 2010.06.03 20:39:00.
