data_PCOD9390575
_publ_section_title
;
Structure prediction by ZEFSAII (Michael W. Deem and Ramdas Pophale) SiO2 
 PCOD9390575
Probable space group: P N N N
;
_chemical_formula_sum "Si O2"
_cell_formula_units_Z 32
_cell_length_a 14.077162
_cell_length_b 9.650793
_cell_length_c 10.895414
_cell_angle_alpha 90.000000
_cell_angle_beta 90.000000
_cell_angle_gamma 90.000000
_cell_volume 1480.204929
_symmetry_space_group_name_H-M "P N N N"
_symmetry_group_IT_number 48
_space_group.IT_coordinate_system_code '2'
_symmetry_cell_setting 'orthorhombic'
loop_
_space_group_symop_operation_xyz
x,y,z
1/2-x,1/2-y,z
x,1/2-y,1/2-z
1/2-x,y,1/2-z
-x,-y,-z
1/2+x,1/2+y,-z
-x,1/2+y,1/2+z
1/2+x,-y,1/2+z
loop_
_atom_site_type_symbol
_atom_site_label
_atom_site_fract_x
_atom_site_fract_y
_atom_site_fract_z
Si Si1 0.048598 0.836595 0.863528
Si Si2 0.668280 0.643124 0.899665
Si Si3 0.346431 0.103853 0.686100
Si Si4 0.149331 0.674876 0.371473
O O1 0.090515 0.750000 0.750000
O O2 0.937731 0.802680 0.875630
O O3 0.068165 0.994604 0.821323
O O4 0.092611 0.815833 0.999422
O O5 0.750000 0.750000 0.865874
O O6 0.668812 0.487529 0.846641
O O7 0.678909 0.626498 0.045316
O O8 0.368788 0.250000 0.750000
O O9 0.250000 0.047971 0.750000
O O10 0.250000 0.750000 0.392081
O O11 0.107222 0.750000 0.250000
#
# Coordination Sequence:
#
# PCOD9390575 Si02
#       4
#     8   8   8   8
#     4  11  27  41  69 108 141 182 234 296 350 426
#     4  11  24  46  67 100 143 191 235 293 352 422
#     4  10  20  41  73 104 136 186 240 294 353 418
#     4  10  24  46  70  98 137 187 228 294 357 416
#
# _framework density 21.61863
#
# number of rings (size 3 to 8) (size 9 to 14) (size 15 to 20)
#    0.000    1.500    2.500    3.000    7.000    8.500 
#    0.000    3.750    0.000    0.000    0.000    0.000 
#    0.000    0.000    0.000    0.000    0.000    0.000 
#
# Total GULP energy -178649.058945 kJ/mol
# GULP energy per Si atom -5582.783092 kJ/mol
# Density = 2.156943 g / cm^3
# Si number density = 21.618630 Si / 1000 Ang^3
#
#
#
# Elastic Constant Matrix: (Units=GPa)
#
#
# Indices 1 2 3 4 5 6 
#
# 1 128.2017 33.9542 38.8123 0.0000 0.0000 0.0000
# 2 33.9542 128.6824 62.9508 0.0000 0.0000 0.0000
# 3 38.8123 62.9508 181.6308 0.0000 0.0000 0.0000
# 4 0.0000 0.0000 0.0000 45.7540 0.0000 0.0000
# 5 0.0000 0.0000 0.0000 0.0000 9.1170 0.0000
# 6 0.0000 0.0000 0.0000 0.0000 0.0000 35.2261
#
#
#
# Elastic Compliance Matrix: (Units=1/GPa)
#
#
# Indices 1 2 3 4 5 6 
#
# 1 0.008623 -0.001654 -0.001269 0.000000 0.000000 0.000000
# 2 -0.001654 0.009675 -0.003000 0.000000 0.000000 0.000000
# 3 -0.001269 -0.003000 0.006817 0.000000 0.000000 0.000000
# 4 0.000000 0.000000 0.000000 0.021856 0.000000 0.000000
# 5 0.000000 0.000000 0.000000 0.000000 0.109685 0.000000
# 6 0.000000 0.000000 0.000000 0.000000 0.000000 0.028388
#
#
# Mechanical properties :
#
#
# Convention : Reuss Voigt Hill
#
# Bulk Modulus (GPa) = 75.37070 78.88328 77.12699
# Shear Modulus (GPa) = 24.83702 38.20592 31.52147
#
# Velocity S-wave (km/s) = 3.39318 4.20845 3.82261
# Velocity P-wave (km/s) = 7.09161 7.75774 7.43214
#
# Compressibility (1/GPa) = 0.01326775
#
# Stress axis : x y z
#
# Youngs Moduli (GPa) = 115.97457 103.35897 146.70175
#
# Poissons Ratio (x) = 0.17098 0.18619
# Poissons Ratio (y) = 0.19185 0.44007
# Poissons Ratio (z) = 0.14719 0.31005
#
# Static dielectric constant tensor:
#      x y z
#    x 1.806040 0.000000 0.000000 
#    y 0.000000 1.881940 0.000000 
#    z 0.000000 0.000000 1.863280 
# 
# From -- ./inp_files/20772.got.cif
#   From: 2010.05.17/outbox.cif.g08.bks.cpg/sg48_11_cif.got.tgz:20772.got - 2010.06.03 20:39:00.
