data_PCOD9390921
_publ_section_title
;
Structure prediction by ZEFSAII (Michael W. Deem and Ramdas Pophale) SiO2 
 PCOD9390921
Probable space group: P N N N
;
_chemical_formula_sum "Si O2"
_cell_formula_units_Z 34
_cell_length_a 5.420065
_cell_length_b 11.299554
_cell_length_c 22.908927
_cell_angle_alpha 90.000000
_cell_angle_beta 90.000000
_cell_angle_gamma 90.000000
_cell_volume 1403.041591
_symmetry_space_group_name_H-M "P N N N"
_symmetry_group_IT_number 48
_space_group.IT_coordinate_system_code '2'
_symmetry_cell_setting 'orthorhombic'
loop_
_space_group_symop_operation_xyz
x,y,z
1/2-x,1/2-y,z
x,1/2-y,1/2-z
1/2-x,y,1/2-z
-x,-y,-z
1/2+x,1/2+y,-z
-x,1/2+y,1/2+z
1/2+x,-y,1/2+z
loop_
_atom_site_type_symbol
_atom_site_label
_atom_site_fract_x
_atom_site_fract_y
_atom_site_fract_z
Si Si1 0.913538 0.912577 0.149837
Si Si2 0.465652 0.318530 0.461868
Si Si3 0.250000 0.250000 0.750000
Si Si4 0.896560 0.081522 0.579657
Si Si5 0.493081 0.809902 0.658580
O O1 0.902434 0.834833 0.207620
O O2 0.655512 0.896967 0.113861
O O3 0.153977 0.878824 0.113271
O O4 0.958546 0.050606 0.165129
O O5 0.250000 0.250000 0.495446
O O6 0.629945 0.366699 0.514341
O O7 0.394028 0.438745 0.428202
O O8 0.519411 0.223871 0.410892
O O9 0.250000 0.750000 0.684531
O O10 0.750000 0.750000 0.678715
#
# Coordination Sequence:
#
# PCOD9390921 Si02
#       5
#     8   8   2   8   8
#     4  12  26  54  72 107 149 208 266 330 380 451
#     4  10  21  41  71 124 162 203 231 297 383 504
#     4  12  36  58  82 102 148 214 292 344 400 452
#     4  11  25  42  76 114 162 198 244 301 391 474
#     4  11  20  42  75 111 155 189 244 313 385 465
#
# _framework density 24.233066000000001
#
# number of rings (size 3 to 8) (size 9 to 14) (size 15 to 20)
#    0.000    0.941    7.059    0.000    1.647   10.353 
#    0.000    0.588    0.000    2.824    0.000    0.000 
#    0.000    0.000    0.000    0.000    0.000    0.000 
#
# Total GULP energy -190021.648948 kJ/mol
# GULP energy per Si atom -5588.872028 kJ/mol
# Density = 2.417791 g / cm^3
# Si number density = 24.233066 Si / 1000 Ang^3
#
#
#
# Elastic Constant Matrix: (Units=GPa)
#
#
# Indices 1 2 3 4 5 6 
#
# 1 203.7577 46.5794 66.0716 0.0000 0.0000 0.0000
# 2 46.5794 171.1672 77.5017 0.0000 0.0000 0.0000
# 3 66.0716 77.5017 153.2465 0.0000 0.0000 0.0000
# 4 0.0000 0.0000 0.0000 34.8560 0.0000 0.0000
# 5 0.0000 0.0000 0.0000 0.0000 -107.1227 0.0000
# 6 0.0000 0.0000 0.0000 0.0000 0.0000 37.1663
#
#
#
# Elastic Compliance Matrix: (Units=1/GPa)
#
#
# Indices 1 2 3 4 5 6 
#
# 1 0.005749 -0.000573 -0.002188 0.000000 0.000000 0.000000
# 2 -0.000573 0.007635 -0.003614 0.000000 0.000000 0.000000
# 3 -0.002188 -0.003614 0.009297 0.000000 0.000000 0.000000
# 4 0.000000 0.000000 0.000000 0.028690 0.000000 0.000000
# 5 0.000000 0.000000 0.000000 0.000000 -0.009335 0.000000
# 6 0.000000 0.000000 0.000000 0.000000 0.000000 0.026906
#
#
# Mechanical properties :
#
#
# Convention : Reuss Voigt Hill
#
# Bulk Modulus (GPa) = 100.72229 100.94187 100.83208
# Shear Modulus (GPa) = 58.82282 15.51448 37.16865
#
# Velocity S-wave (km/s) = 4.93219 2.53300 3.92062
# Velocity P-wave (km/s) = 8.60753 7.09224 7.88636
#
# Compressibility (1/GPa) = 0.00992829
#
# Stress axis : x y z
#
# Youngs Moduli (GPa) = 173.95798 130.98325 107.56633
#
# Poissons Ratio (x) = 0.07511 0.23540
# Poissons Ratio (y) = 0.09975 0.38872
# Poissons Ratio (z) = 0.38070 0.47335
#
# Static dielectric constant tensor:
#      x y z
#    x 2.234670 0.000000 0.000000 
#    y 0.000000 1.921320 0.000000 
#    z 0.000000 0.000000 1.892750 
# 
# From -- ./inp_files/35221.got.cif
#   From: 2010.05.17/outbox.cif.g08.bks.cpg/sg48_18_cif.got.tgz:35221.got - 2010.06.03 20:39:00.
