data_PCOD9390407
_publ_section_title
;
Structure prediction by ZEFSAII (Michael W. Deem and Ramdas Pophale) SiO2 
 PCOD9390407
Probable space group: P N N N
;
_chemical_formula_sum "Si O2"
_cell_formula_units_Z 64
_cell_length_a 29.261019
_cell_length_b 12.054079
_cell_length_c 7.485676
_cell_angle_alpha 90.000000
_cell_angle_beta 90.000000
_cell_angle_gamma 90.000000
_cell_volume 2640.307475
_symmetry_space_group_name_H-M "P N N N"
_symmetry_group_IT_number 48
_space_group.IT_coordinate_system_code '2'
_symmetry_cell_setting 'orthorhombic'
loop_
_space_group_symop_operation_xyz
x,y,z
1/2-x,1/2-y,z
x,1/2-y,1/2-z
1/2-x,y,1/2-z
-x,-y,-z
1/2+x,1/2+y,-z
-x,1/2+y,1/2+z
1/2+x,-y,1/2+z
loop_
_atom_site_type_symbol
_atom_site_label
_atom_site_fract_x
_atom_site_fract_y
_atom_site_fract_z
Si Si1 0.753005 0.049839 0.034662
Si Si2 0.851271 0.091977 0.452528
Si Si3 0.710319 0.817383 0.562452
Si Si4 0.927731 0.919428 0.504843
Si Si5 0.392706 0.202271 0.459070
Si Si6 0.652633 0.348778 0.035211
Si Si7 0.066163 0.539181 0.447694
Si Si8 0.506149 0.059229 0.231401
O O1 0.750000 0.031679 0.250000
O O2 0.701017 0.075791 0.985259
O O3 0.793229 0.139390 0.001520
O O4 0.770962 0.941290 0.935186
O O5 0.853625 0.093850 0.232842
O O6 0.862046 0.221185 0.482915
O O7 0.882919 0.996728 0.540353
O O8 0.750000 0.750000 0.460970
O O9 0.705910 0.750000 0.750000
O O10 0.659330 0.824409 0.490125
O O11 0.907853 0.807587 0.426930
O O12 0.956676 0.004786 0.392086
O O13 0.968637 0.868579 0.631235
O O14 0.391786 0.250000 0.250000
O O15 0.423467 0.092343 0.480600
O O16 0.615633 0.411287 0.915668
O O17 0.029148 0.537639 0.292049
O O18 0.037359 0.598004 0.604851
#
# Coordination Sequence:
#
# PCOD9390407 Si02
#       8
#     8   8   8   8   8   8   8   8
#     4  10  20  37  64  98 135 165 218 267 317 390
#     4  10  21  39  65  95 130 173 207 269 326 385
#     4  10  21  37  60  96 127 175 212 251 320 389
#     4  11  22  44  60  98 130 165 225 266 330 391
#     4  11  22  40  69  91 130 176 212 269 334 391
#     4  10  20  40  65  94 130 167 217 263 326 390
#     4  11  21  45  64  95 125 167 224 269 330 388
#     4  10  24  42  63  88 127 168 219 272 329 383
#
# _framework density 24.239601
#
# number of rings (size 3 to 8) (size 9 to 14) (size 15 to 20)
#    0.000    1.625    3.750    1.125    0.000    2.250 
#   13.500    1.250    0.000    0.000    0.000    5.250 
#    0.000    0.000    0.000    0.000    0.000    0.250 
#
# Total GULP energy -356463.402627 kJ/mol
# GULP energy per Si atom -5569.740666 kJ/mol
# Density = 2.418443 g / cm^3
# Si number density = 24.239601 Si / 1000 Ang^3
#
#
#
# Elastic Constant Matrix: (Units=GPa)
#
#
# Indices 1 2 3 4 5 6 
#
# 1 180.0837 32.7143 20.8290 0.0000 0.0000 0.0000
# 2 32.7143 101.3604 6.4517 0.0000 0.0000 0.0000
# 3 20.8290 6.4517 35.4549 0.0000 0.0000 0.0000
# 4 0.0000 0.0000 0.0000 11.0752 0.0000 0.0000
# 5 0.0000 0.0000 0.0000 0.0000 -3.3335 0.0000
# 6 0.0000 0.0000 0.0000 0.0000 0.0000 19.9872
#
#
#
# Elastic Compliance Matrix: (Units=1/GPa)
#
#
# Indices 1 2 3 4 5 6 
#
# 1 0.006270 -0.001810 -0.003354 0.000000 0.000000 0.000000
# 2 -0.001810 0.010504 -0.000848 0.000000 0.000000 0.000000
# 3 -0.003354 -0.000848 0.030330 0.000000 0.000000 0.000000
# 4 0.000000 0.000000 0.000000 0.090292 0.000000 0.000000
# 5 0.000000 0.000000 0.000000 0.000000 -0.299987 0.000000
# 6 0.000000 0.000000 0.000000 0.000000 0.000000 0.050032
#
#
# Mechanical properties :
#
#
# Convention : Reuss Voigt Hill
#
# Bulk Modulus (GPa) = 28.50700 48.54323 38.52511
# Shear Modulus (GPa) = -56.27927 22.67272 -16.80328
#
# Velocity S-wave (km/s) = -4.82372 3.06168 -2.63576
# Velocity P-wave (km/s) = 4.38616 5.70687 2.58167
#
# Compressibility (1/GPa) = 0.03507910
#
# Stress axis : x y z
#
# Youngs Moduli (GPa) = 159.49658 95.20209 32.97120
#
# Poissons Ratio (x) = 0.17232 0.11058
# Poissons Ratio (y) = 0.28870 0.02796
# Poissons Ratio (z) = 0.53494 0.08073
#
# Static dielectric constant tensor:
#      x y z
#    x 1.942090 0.000000 0.000000 
#    y 0.000000 1.899390 0.000000 
#    z 0.000000 0.000000 2.158770 
# 
# From -- ./inp_files/16926.got.cif
#   From: 2010.05.17/outbox.cif.g08.bks.cpg/sg48_9_cif.got.tgz:16926.got - 2010.06.03 20:39:00.
