data_PCOD9390985
_publ_section_title
;
Structure prediction by ZEFSAII (Michael W. Deem and Ramdas Pophale) SiO2 
 PCOD9390985
Probable space group: P N N N
;
_chemical_formula_sum "Si O2"
_cell_formula_units_Z 64
_cell_length_a 17.946220
_cell_length_b 11.881688
_cell_length_c 14.436097
_cell_angle_alpha 90.000000
_cell_angle_beta 90.000000
_cell_angle_gamma 90.000000
_cell_volume 3078.228984
_symmetry_space_group_name_H-M "P N N N"
_symmetry_group_IT_number 48
_space_group.IT_coordinate_system_code '2'
_symmetry_cell_setting 'orthorhombic'
loop_
_space_group_symop_operation_xyz
x,y,z
1/2-x,1/2-y,z
x,1/2-y,1/2-z
1/2-x,y,1/2-z
-x,-y,-z
1/2+x,1/2+y,-z
-x,1/2+y,1/2+z
1/2+x,-y,1/2+z
loop_
_atom_site_type_symbol
_atom_site_label
_atom_site_fract_x
_atom_site_fract_y
_atom_site_fract_z
Si Si1 0.833893 0.228826 0.139854
Si Si2 0.300535 0.864219 0.130968
Si Si3 0.928484 0.661473 0.008137
Si Si4 0.909859 0.810777 0.847006
Si Si5 0.503318 0.176104 0.657024
Si Si6 0.545440 0.448456 0.092451
Si Si7 0.654953 0.441774 0.837537
Si Si8 0.409712 0.579715 0.532453
O O1 0.750000 0.250000 0.103536
O O2 0.832591 0.250000 0.250000
O O3 0.873850 0.114364 0.099506
O O4 0.878041 0.336353 0.105925
O O5 0.250000 0.750000 0.132367
O O6 0.231836 0.945331 0.106430
O O7 0.328754 0.897080 0.233500
O O8 0.369902 0.880520 0.063248
O O9 0.889818 0.550692 0.048579
O O10 0.960249 0.748867 0.082412
O O11 0.884230 0.728936 0.929577
O O12 0.002195 0.604225 0.964260
O O13 0.906141 0.750000 0.750000
O O14 0.993230 0.847239 0.873972
O O15 0.871352 0.930841 0.837542
O O16 0.506999 0.250000 0.750000
O O17 0.587856 0.139359 0.628763
O O18 0.460645 0.055890 0.661041
O O19 0.500000 0.500000 0.000000
#
# Coordination Sequence:
#
# PCOD9390985 Si02
#       8
#     8   8   8   8   8   8   8   8
#     4  11  25  44  68  98 132 177 228 288 349 414
#     4  11  21  40  62  94 130 166 210 266 322 402
#     4  11  23  39  60  93 130 161 219 276 322 393
#     4  11  22  39  62  92 132 172 215 261 331 391
#     4  11  22  37  63  98 125 168 211 273 334 387
#     4  11  22  40  67  97 133 167 226 286 340 407
#     4  10  22  36  64  92 131 168 209 255 331 406
#     4  11  23  38  63  89 126 166 216 270 334 380
#
# _framework density 20.791177000000001
#
# number of rings (size 3 to 8) (size 9 to 14) (size 15 to 20)
#    0.000    1.125    2.500    4.500    1.750    5.000 
#    0.000    4.375    0.000    0.000    0.000    0.000 
#    0.000    0.000    0.000    0.000    0.000    0.000 
#
# Total GULP energy -356544.397437 kJ/mol
# GULP energy per Si atom -5571.006210 kJ/mol
# Density = 2.074386 g / cm^3
# Si number density = 20.791177 Si / 1000 Ang^3
#
#
#
# Elastic Constant Matrix: (Units=GPa)
#
#
# Indices 1 2 3 4 5 6 
#
# 1 64.1856 19.6801 -1.0303 0.0000 0.0000 0.0000
# 2 19.6801 144.3444 18.1808 0.0000 0.0000 0.0000
# 3 -1.0303 18.1808 56.9994 0.0000 0.0000 0.0000
# 4 0.0000 0.0000 0.0000 29.7506 0.0000 0.0000
# 5 0.0000 0.0000 0.0000 0.0000 8.4663 0.0000
# 6 0.0000 0.0000 0.0000 0.0000 0.0000 23.6107
#
#
#
# Elastic Compliance Matrix: (Units=1/GPa)
#
#
# Indices 1 2 3 4 5 6 
#
# 1 0.016319 -0.002357 0.001047 0.000000 0.000000 0.000000
# 2 -0.002357 0.007558 -0.002453 0.000000 0.000000 0.000000
# 3 0.001047 -0.002453 0.018346 0.000000 0.000000 0.000000
# 4 0.000000 0.000000 0.000000 0.033613 0.000000 0.000000
# 5 0.000000 0.000000 0.000000 0.000000 0.118115 0.000000
# 6 0.000000 0.000000 0.000000 0.000000 0.000000 0.042354
#
#
# Mechanical properties :
#
#
# Convention : Reuss Voigt Hill
#
# Bulk Modulus (GPa) = 28.82177 37.68784 33.25481
# Shear Modulus (GPa) = 19.57735 27.61212 23.59474
#
# Velocity S-wave (km/s) = 3.07191 3.64822 3.37240
# Velocity P-wave (km/s) = 5.14536 5.99268 5.58511
#
# Compressibility (1/GPa) = 0.03469599
#
# Stress axis : x y z
#
# Youngs Moduli (GPa) = 61.27726 132.30621 54.50922
#
# Poissons Ratio (x) = 0.31182 -0.05706
# Poissons Ratio (y) = 0.14442 0.13373
# Poissons Ratio (z) = -0.06414 0.32460
#
# Static dielectric constant tensor:
#      x y z
#    x 1.776970 0.000000 0.000000 
#    y 0.000000 1.724150 0.000000 
#    z 0.000000 0.000000 1.832430 
# 
# From -- ./inp_files/28080.got.cif
#   From: 2010.05.17/outbox.cif.g08.bks.cpg/sg48_15_cif.got.tgz:28080.got - 2010.06.03 20:39:00.
