data_PCOD9390389
_publ_section_title
;
Structure prediction by ZEFSAII (Michael W. Deem and Ramdas Pophale) SiO2 
 PCOD9390389
Probable space group: P N N N
;
_chemical_formula_sum "Si O2"
_cell_formula_units_Z 36
_cell_length_a 6.712933
_cell_length_b 16.447437
_cell_length_c 11.818710
_cell_angle_alpha 90.000000
_cell_angle_beta 90.000000
_cell_angle_gamma 90.000000
_cell_volume 1304.910184
_symmetry_space_group_name_H-M "P N N N"
_symmetry_group_IT_number 48
_space_group.IT_coordinate_system_code '2'
_symmetry_cell_setting 'orthorhombic'
loop_
_space_group_symop_operation_xyz
x,y,z
1/2-x,1/2-y,z
x,1/2-y,1/2-z
1/2-x,y,1/2-z
-x,-y,-z
1/2+x,1/2+y,-z
-x,1/2+y,1/2+z
1/2+x,-y,1/2+z
loop_
_atom_site_type_symbol
_atom_site_label
_atom_site_fract_x
_atom_site_fract_y
_atom_site_fract_z
Si Si1 0.250000 0.250000 0.955764
Si Si2 0.401390 0.851307 0.352744
Si Si3 0.361915 0.675903 0.572919
Si Si4 0.250397 0.016551 0.127145
Si Si5 0.811414 0.514178 0.124816
O O1 0.391735 0.304252 0.873526
O O2 0.412462 0.202254 0.036085
O O3 0.250000 0.832724 0.250000
O O4 0.274364 0.831124 0.462638
O O5 0.418239 0.949310 0.356821
O O6 0.250000 0.750000 0.635088
O O7 0.331018 0.585759 0.625153
O O8 0.250000 0.062929 0.250000
O O9 0.454114 0.965612 0.118532
O O10 0.230935 0.045995 0.997860
O O11 0.750000 0.540587 0.250000
#
# Coordination Sequence:
#
# PCOD9390389 Si02
#       5
#     4   8   8   8   8
#     4  10  20  37  62  89 130 186 216 288 344 408
#     4   9  19  37  58  93 131 171 227 278 341 416
#     4   9  20  38  59  88 128 173 233 278 335 413
#     4   9  20  43  61  97 133 166 230 283 333 421
#     4  10  21  41  66  92 132 183 224 287 353 392
#
# _framework density 27.588106
#
# number of rings (size 3 to 8) (size 9 to 14) (size 15 to 20)
#    0.000    2.667    0.000    0.000    0.000    7.111 
#   36.000    0.000    0.000    1.333    0.000    0.000 
#    0.000    0.000    0.000    0.000    0.000    0.000 
#
# Total GULP energy -200516.025234 kJ/mol
# GULP energy per Si atom -5569.889590 kJ/mol
# Density = 2.752531 g / cm^3
# Si number density = 27.588106 Si / 1000 Ang^3
#
#
#
# Elastic Constant Matrix: (Units=GPa)
#
#
# Indices 1 2 3 4 5 6 
#
# 1 134.3350 -7.6410 82.5571 0.0000 0.0000 0.0000
# 2 -7.6410 100.0749 19.6823 0.0000 0.0000 0.0000
# 3 82.5571 19.6823 257.3216 0.0000 0.0000 0.0000
# 4 0.0000 0.0000 0.0000 -87.6887 0.0000 0.0000
# 5 0.0000 0.0000 0.0000 0.0000 -12.7908 0.0000
# 6 0.0000 0.0000 0.0000 0.0000 0.0000 48.8008
#
#
#
# Elastic Compliance Matrix: (Units=1/GPa)
#
#
# Indices 1 2 3 4 5 6 
#
# 1 0.009445 0.001337 -0.003133 0.000000 0.000000 0.000000
# 2 0.001337 0.010334 -0.001220 0.000000 0.000000 0.000000
# 3 -0.003133 -0.001220 0.004985 0.000000 0.000000 0.000000
# 4 0.000000 0.000000 0.000000 -0.011404 0.000000 0.000000
# 5 0.000000 0.000000 0.000000 0.000000 -0.078181 0.000000
# 6 0.000000 0.000000 0.000000 0.000000 0.000000 0.020491
#
#
# Mechanical properties :
#
#
# Convention : Reuss Voigt Hill
#
# Bulk Modulus (GPa) = 53.37725 75.65871 64.51798
# Shear Modulus (GPa) = -155.98266 16.13979 -69.92144
#
# Velocity S-wave (km/s) = -7.52745 2.42136 -5.03982
# Velocity P-wave (km/s) = 7.49401 5.94148 3.22947
#
# Compressibility (1/GPa) = 0.01873457
#
# Stress axis : x y z
#
# Youngs Moduli (GPa) = 105.87209 96.76352 200.62072
#
# Poissons Ratio (x) = -0.12940 0.62848
# Poissons Ratio (y) = -0.14158 0.24466
# Poissons Ratio (z) = 0.33166 0.11801
#
# Static dielectric constant tensor:
#      x y z
#    x 2.151370 0.000000 0.000000 
#    y 0.000000 2.457770 0.000000 
#    z 0.000000 0.000000 2.141470 
# 
# From -- ./inp_files/17535.got.cif
#   From: 2010.05.17/outbox.cif.g08.bks.cpg/sg48_9_cif.got.tgz:17535.got - 2010.06.03 20:39:00.
