data_PCOD9390909
_publ_section_title
;
Structure prediction by ZEFSAII (Michael W. Deem and Ramdas Pophale) SiO2 
 PCOD9390909
Probable space group: P N N N
;
_chemical_formula_sum "Si O2"
_cell_formula_units_Z 40
_cell_length_a 8.197564
_cell_length_b 27.348748
_cell_length_c 8.348723
_cell_angle_alpha 90.000000
_cell_angle_beta 90.000000
_cell_angle_gamma 90.000000
_cell_volume 1871.726191
_symmetry_space_group_name_H-M "P N N N"
_symmetry_group_IT_number 48
_space_group.IT_coordinate_system_code '2'
_symmetry_cell_setting 'orthorhombic'
loop_
_space_group_symop_operation_xyz
x,y,z
1/2-x,1/2-y,z
x,1/2-y,1/2-z
1/2-x,y,1/2-z
-x,-y,-z
1/2+x,1/2+y,-z
-x,1/2+y,1/2+z
1/2+x,-y,1/2+z
loop_
_atom_site_type_symbol
_atom_site_label
_atom_site_fract_x
_atom_site_fract_y
_atom_site_fract_z
Si Si1 0.802490 0.642482 0.935383
Si Si2 0.446457 0.833531 0.518572
Si Si3 0.250000 0.895329 0.750000
Si Si4 0.032916 0.942903 0.487696
Si Si5 0.938880 0.736539 0.063053
Si Si6 0.750000 0.111651 0.750000
O O1 0.750000 0.651936 0.750000
O O2 0.630644 0.650310 0.026092
O O3 0.937100 0.680580 0.006153
O O4 0.875284 0.589070 0.964044
O O5 0.389375 0.860796 0.677632
O O6 0.451254 0.775055 0.531940
O O7 0.325188 0.853037 0.383866
O O8 0.172196 0.928595 0.614664
O O9 0.107812 0.922811 0.321706
O O10 0.000000 0.000000 0.500000
O O11 0.750000 0.750000 0.029647
O O12 0.968497 0.750000 0.250000
#
# Coordination Sequence:
#
# PCOD9390909 Si02
#       6
#     8   8   4   8   8   4
#     4  11  22  41  70  99 131 174 229 275 330 401
#     4  10  21  41  68  92 137 169 219 269 335 399
#     4  10  22  44  61 100 134 174 217 282 334 406
#     4  11  25  43  67  94 133 176 228 278 342 393
#     4   9  19  36  63  94 125 165 214 264 319 393
#     4  10  24  42  65 100 132 172 223 280 340 398
#
# _framework density 21.370647999999999
#
# number of rings (size 3 to 8) (size 9 to 14) (size 15 to 20)
#    0.000    1.800    2.000    1.200    1.400    7.600 
#    0.000   14.500    0.000    0.000    0.000    0.000 
#    0.000    0.000    0.000    0.000    0.000    0.000 
#
# Total GULP energy -223412.069812 kJ/mol
# GULP energy per Si atom -5585.301745 kJ/mol
# Density = 2.132201 g / cm^3
# Si number density = 21.370648 Si / 1000 Ang^3
#
#
#
# Elastic Constant Matrix: (Units=GPa)
#
#
# Indices 1 2 3 4 5 6 
#
# 1 68.9347 43.8452 7.6379 0.0000 0.0000 0.0000
# 2 43.8452 187.4354 35.7116 0.0000 0.0000 0.0000
# 3 7.6379 35.7116 60.2185 0.0000 0.0000 0.0000
# 4 0.0000 0.0000 0.0000 18.7464 0.0000 0.0000
# 5 0.0000 0.0000 0.0000 0.0000 24.4650 0.0000
# 6 0.0000 0.0000 0.0000 0.0000 0.0000 34.0886
#
#
#
# Elastic Compliance Matrix: (Units=1/GPa)
#
#
# Indices 1 2 3 4 5 6 
#
# 1 0.017045 -0.004031 0.000228 0.000000 0.000000 0.000000
# 2 -0.004031 0.006968 -0.003621 0.000000 0.000000 0.000000
# 3 0.000228 -0.003621 0.018725 0.000000 0.000000 0.000000
# 4 0.000000 0.000000 0.000000 0.053344 0.000000 0.000000
# 5 0.000000 0.000000 0.000000 0.000000 0.040875 0.000000
# 6 0.000000 0.000000 0.000000 0.000000 0.000000 0.029335
#
#
# Mechanical properties :
#
#
# Convention : Reuss Voigt Hill
#
# Bulk Modulus (GPa) = 35.85403 54.55311 45.20357
# Shear Modulus (GPa) = 26.25575 30.75292 28.50434
#
# Velocity S-wave (km/s) = 3.50893 3.79757 3.65610
# Velocity P-wave (km/s) = 5.76458 6.69412 6.24666
#
# Compressibility (1/GPa) = 0.02789087
#
# Stress axis : x y z
#
# Youngs Moduli (GPa) = 58.66874 143.51466 53.40574
#
# Poissons Ratio (x) = 0.57846 -0.01220
# Poissons Ratio (y) = 0.23647 0.19338
# Poissons Ratio (z) = -0.01340 0.51966
#
# Static dielectric constant tensor:
#      x y z
#    x 1.788940 0.000000 0.000000 
#    y 0.000000 1.766060 0.000000 
#    z 0.000000 0.000000 1.836600 
# 
# From -- ./inp_files/9071.got.cif
#   From: 2010.05.17/outbox.cif.g08.bks.cpg/sg48_5_cif.got.tgz:9071.got - 2010.06.03 20:39:00.
