data_PCOD9390305
_publ_section_title
;
Structure prediction by ZEFSAII (Michael W. Deem and Ramdas Pophale) SiO2 
 PCOD9390305
Probable space group: P N N N
;
_chemical_formula_sum "Si O2"
_cell_formula_units_Z 58
_cell_length_a 11.130570
_cell_length_b 31.871785
_cell_length_c 7.523787
_cell_angle_alpha 90.000000
_cell_angle_beta 90.000000
_cell_angle_gamma 90.000000
_cell_volume 2669.071970
_symmetry_space_group_name_H-M "P N N N"
_symmetry_group_IT_number 48
_space_group.IT_coordinate_system_code '2'
_symmetry_cell_setting 'orthorhombic'
loop_
_space_group_symop_operation_xyz
x,y,z
1/2-x,1/2-y,z
x,1/2-y,1/2-z
1/2-x,y,1/2-z
-x,-y,-z
1/2+x,1/2+y,-z
-x,1/2+y,1/2+z
1/2+x,-y,1/2+z
loop_
_atom_site_type_symbol
_atom_site_label
_atom_site_fract_x
_atom_site_fract_y
_atom_site_fract_z
Si Si1 0.284408 0.545781 0.542774
Si Si2 0.394824 0.365114 0.955168
Si Si3 0.375572 0.635527 0.465263
Si Si4 0.363893 0.458141 0.381301
Si Si5 0.483282 0.548298 0.950463
Si Si6 0.633795 0.869445 0.037804
Si Si7 0.250000 0.750000 0.250000
Si Si8 0.134867 0.673277 0.431833
O O1 0.250000 0.540579 0.750000
O O2 0.359049 0.586324 0.491451
O O3 0.342114 0.503396 0.467854
O O4 0.149587 0.556385 0.474161
O O5 0.263582 0.356050 0.036077
O O6 0.375725 0.358401 0.745076
O O7 0.507343 0.337214 0.019058
O O8 0.433660 0.413799 0.980815
O O9 0.507189 0.646519 0.541871
O O10 0.252634 0.656619 0.534480
O O11 0.374383 0.648430 0.257356
O O12 0.250000 0.452498 0.250000
O O13 0.481969 0.453581 0.258664
O O14 0.364141 0.420025 0.518672
O O15 0.500000 0.500000 0.000000
O O16 0.166564 0.720324 0.371465
#
# Coordination Sequence:
#
# PCOD9390305 Si02
#       8
#     8   8   8   8   8   8   2   8
#     4  12  26  38  53  76 108 153 209 260 304 349
#     4  10  20  36  57  77 111 150 193 232 295 346
#     4   9  19  34  55  77 106 144 189 234 286 346
#     4  12  25  36  51  74 109 157 206 262 302 341
#     4  12  24  37  53  74 108 153 205 255 300 345
#     4  10  21  35  53  75 105 148 198 237 282 343
#     4   8  16  32  60 102 122 140 180 230 302 368
#     4   9  18  34  63  89 116 149 174 231 298 360
#
# _framework density 21.730401000000001
#
# number of rings (size 3 to 8) (size 9 to 14) (size 15 to 20)
#    0.000    1.655    4.138    0.828    9.655    1.103 
#    0.000    0.000    0.000   14.897    0.000    7.724 
#    0.000    0.000    7.448    0.000    0.000    0.000 
#
# Total GULP energy -323372.556260 kJ/mol
# GULP energy per Si atom -5575.388901 kJ/mol
# Density = 2.168094 g / cm^3
# Si number density = 21.730401 Si / 1000 Ang^3
#
#
#
# Elastic Constant Matrix: (Units=GPa)
#
#
# Indices 1 2 3 4 5 6 
#
# 1 224.1496 53.8719 7.1089 0.0000 0.0000 0.0000
# 2 53.8719 77.5152 15.7741 0.0000 0.0000 0.0000
# 3 7.1089 15.7741 51.5393 0.0000 0.0000 0.0000
# 4 0.0000 0.0000 0.0000 10.5830 0.0000 0.0000
# 5 0.0000 0.0000 0.0000 0.0000 17.0582 0.0000
# 6 0.0000 0.0000 0.0000 0.0000 0.0000 12.8976
#
#
#
# Elastic Compliance Matrix: (Units=1/GPa)
#
#
# Indices 1 2 3 4 5 6 
#
# 1 0.005365 -0.003815 0.000428 0.000000 0.000000 0.000000
# 2 -0.003815 0.016471 -0.004515 0.000000 0.000000 0.000000
# 3 0.000428 -0.004515 0.020725 0.000000 0.000000 0.000000
# 4 0.000000 0.000000 0.000000 0.094491 0.000000 0.000000
# 5 0.000000 0.000000 0.000000 0.000000 0.058623 0.000000
# 6 0.000000 0.000000 0.000000 0.000000 0.000000 0.077534
#
#
# Mechanical properties :
#
#
# Convention : Reuss Voigt Hill
#
# Bulk Modulus (GPa) = 37.37443 56.30155 46.83799
# Shear Modulus (GPa) = 16.78231 26.53771 21.66001
#
# Velocity S-wave (km/s) = 2.78204 3.49839 3.16058
# Velocity P-wave (km/s) = 5.24939 6.50259 5.90931
#
# Compressibility (1/GPa) = 0.02675626
#
# Stress axis : x y z
#
# Youngs Moduli (GPa) = 186.40211 60.71220 48.24977
#
# Poissons Ratio (x) = 0.23165 -0.02064
# Poissons Ratio (y) = 0.71121 0.21784
# Poissons Ratio (z) = -0.07974 0.27411
#
# Static dielectric constant tensor:
#      x y z
#    x 2.005040 0.000000 0.000000 
#    y 0.000000 1.760840 0.000000 
#    z 0.000000 0.000000 1.854880 
# 
# From -- ./inp_files/11527.got.cif
#   From: 2010.05.17/outbox.cif.g08.bks.cpg/sg48_6_cif.got.tgz:11527.got - 2010.06.03 20:39:00.
