data_PCOD9390170
_publ_section_title
;
Structure prediction by ZEFSAII (Michael W. Deem and Ramdas Pophale) SiO2 
 PCOD9390170
Probable space group: P N N N
;
_chemical_formula_sum "Si O2"
_cell_formula_units_Z 64
_cell_length_a 22.680904
_cell_length_b 8.920655
_cell_length_c 16.545244
_cell_angle_alpha 90.000000
_cell_angle_beta 90.000000
_cell_angle_gamma 90.000000
_cell_volume 3347.574726
_symmetry_space_group_name_H-M "P N N N"
_symmetry_group_IT_number 48
_space_group.IT_coordinate_system_code '2'
_symmetry_cell_setting 'orthorhombic'
loop_
_space_group_symop_operation_xyz
x,y,z
1/2-x,1/2-y,z
x,1/2-y,1/2-z
1/2-x,y,1/2-z
-x,-y,-z
1/2+x,1/2+y,-z
-x,1/2+y,1/2+z
1/2+x,-y,1/2+z
loop_
_atom_site_type_symbol
_atom_site_label
_atom_site_fract_x
_atom_site_fract_y
_atom_site_fract_z
Si Si1 0.969985 0.748189 0.496432
Si Si2 0.519859 0.015071 0.883856
Si Si3 0.689617 0.173698 0.487895
Si Si4 0.647810 0.578794 0.785426
Si Si5 0.987610 0.585521 0.710044
Si Si6 0.347874 0.607512 0.374241
Si Si7 0.758901 0.583595 0.571830
Si Si8 0.928706 0.445291 0.443056
O O1 0.972326 0.846120 0.579466
O O2 0.923071 0.616363 0.477240
O O3 0.029538 0.649310 0.496525
O O4 0.973729 0.882495 0.431880
O O5 0.505738 0.016577 0.789492
O O6 0.584290 0.085688 0.895413
O O7 0.750000 0.250000 0.457185
O O8 0.674640 0.245352 0.577310
O O9 0.630238 0.155328 0.437005
O O10 0.708610 0.005889 0.503550
O O11 0.650450 0.750000 0.750000
O O12 0.580695 0.565988 0.818309
O O13 0.655711 0.442922 0.720307
O O14 0.700512 0.571822 0.848716
O O15 0.994438 0.750000 0.750000
O O16 0.034316 0.551164 0.640410
O O17 0.305007 0.484906 0.412850
O O18 0.750000 0.750000 0.547887
#
# Coordination Sequence:
#
# PCOD9390170 Si02
#       8
#     8   8   8   8   8   8   8   8
#     4  10  22  34  62  89 121 159 193 250 301 371
#     4  10  20  39  57  91 124 157 200 241 308 365
#     4  10  24  41  55  83 117 154 207 261 300 366
#     4  10  20  32  52  81 117 153 202 240 293 368
#     4  10  21  35  58  89 124 160 195 246 301 379
#     4  10  20  35  54  76 117 159 194 243 296 347
#     4  11  22  33  55  77 109 159 206 245 289 355
#     4  11  22  38  60  87 121 159 204 251 311 355
#
# _framework density 19.118319
#
# number of rings (size 3 to 8) (size 9 to 14) (size 15 to 20)
#    0.000    1.750    3.750    0.375    5.250    1.000 
#    0.000    4.375    0.000    0.375    0.000    0.000 
#    0.000    0.000    0.000    0.000    0.000    0.000 
#
# Total GULP energy -356269.623969 kJ/mol
# GULP energy per Si atom -5566.712875 kJ/mol
# Density = 1.907481 g / cm^3
# Si number density = 19.118319 Si / 1000 Ang^3
#
#
#
# Elastic Constant Matrix: (Units=GPa)
#
#
# Indices 1 2 3 4 5 6 
#
# 1 66.2610 19.7774 15.8189 0.0000 0.0000 0.0000
# 2 19.7774 94.1210 25.7132 0.0000 0.0000 0.0000
# 3 15.8189 25.7132 59.3863 0.0000 0.0000 0.0000
# 4 0.0000 0.0000 0.0000 14.7126 0.0000 0.0000
# 5 0.0000 0.0000 0.0000 0.0000 8.7119 0.0000
# 6 0.0000 0.0000 0.0000 0.0000 0.0000 20.4685
#
#
#
# Elastic Compliance Matrix: (Units=1/GPa)
#
#
# Indices 1 2 3 4 5 6 
#
# 1 0.016657 -0.002595 -0.003314 0.000000 0.000000 0.000000
# 2 -0.002595 0.012454 -0.004701 0.000000 0.000000 0.000000
# 3 -0.003314 -0.004701 0.019757 0.000000 0.000000 0.000000
# 4 0.000000 0.000000 0.000000 0.067969 0.000000 0.000000
# 5 0.000000 0.000000 0.000000 0.000000 0.114785 0.000000
# 6 0.000000 0.000000 0.000000 0.000000 0.000000 0.048856
#
#
# Mechanical properties :
#
#
# Convention : Reuss Voigt Hill
#
# Bulk Modulus (GPa) = 36.16723 38.04303 37.10513
# Shear Modulus (GPa) = 16.08158 19.34251 17.71205
#
# Velocity S-wave (km/s) = 2.90342 3.18422 3.04706
# Velocity P-wave (km/s) = 5.49531 5.78454 5.64178
#
# Compressibility (1/GPa) = 0.02764934
#
# Stress axis : x y z
#
# Youngs Moduli (GPa) = 60.03324 80.29393 50.61482
#
# Poissons Ratio (x) = 0.20836 0.16771
# Poissons Ratio (y) = 0.15578 0.23795
# Poissons Ratio (z) = 0.19892 0.37748
#
# Static dielectric constant tensor:
#      x y z
#    x 1.719880 0.000000 0.000000 
#    y 0.000000 1.772120 0.000000 
#    z 0.000000 0.000000 1.705780 
# 
# From -- ./inp_files/32218.got.cif
#   From: 2010.05.17/outbox.cif.g08.bks.cpg/sg48_17_cif.got.tgz:32218.got - 2010.06.03 20:39:00.
