data_PCOD9390880
_publ_section_title
;
Structure prediction by ZEFSAII (Michael W. Deem and Ramdas Pophale) SiO2 
 PCOD9390880
Probable space group: P N N N
;
_chemical_formula_sum "Si O2"
_cell_formula_units_Z 34
_cell_length_a 10.230903
_cell_length_b 21.761757
_cell_length_c 7.320352
_cell_angle_alpha 90.000000
_cell_angle_beta 90.000000
_cell_angle_gamma 90.000000
_cell_volume 1629.820921
_symmetry_space_group_name_H-M "P N N N"
_symmetry_group_IT_number 48
_space_group.IT_coordinate_system_code '2'
_symmetry_cell_setting 'orthorhombic'
loop_
_space_group_symop_operation_xyz
x,y,z
1/2-x,1/2-y,z
x,1/2-y,1/2-z
1/2-x,y,1/2-z
-x,-y,-z
1/2+x,1/2+y,-z
-x,1/2+y,1/2+z
1/2+x,-y,1/2+z
loop_
_atom_site_type_symbol
_atom_site_label
_atom_site_fract_x
_atom_site_fract_y
_atom_site_fract_z
Si Si1 0.643777 0.063564 0.118558
Si Si2 0.750000 0.750000 0.750000
Si Si3 0.633701 0.947186 0.883803
Si Si4 0.830926 0.309664 0.930955
Si Si5 0.138098 0.325447 0.909145
O O1 0.750000 0.036318 0.250000
O O2 0.503741 0.064151 0.213702
O O3 0.677377 0.132317 0.062472
O O4 0.635579 0.017474 0.948627
O O5 0.825358 0.793101 0.603226
O O6 0.750000 0.933946 0.750000
O O7 0.635120 0.898526 0.050136
O O8 0.750000 0.250000 0.001607
O O9 0.750000 0.325556 0.750000
O O10 0.986357 0.304147 0.879564
O O11 0.250000 0.314793 0.750000
#
# Coordination Sequence:
#
# PCOD9390880 Si02
#       5
#     8   2   8   8   8
#     4  10  22  38  63  93 129 175 213 269 338 389
#     4  12  26  40  66 102 120 176 222 268 324 398
#     4  10  21  41  63  96 131 164 224 274 322 398
#     4  10  24  42  62  95 131 172 220 270 332 397
#     4  11  25  44  70  96 134 175 222 279 329 394
#
# _framework density 20.861187000000001
#
# number of rings (size 3 to 8) (size 9 to 14) (size 15 to 20)
#    0.000    1.647    1.176    1.765    6.588    7.059 
#    0.000    0.000    0.000    0.000    0.000    0.000 
#    0.000    0.000    0.000    0.000    0.000    0.000 
#
# Total GULP energy -189358.165556 kJ/mol
# GULP energy per Si atom -5569.357810 kJ/mol
# Density = 2.081371 g / cm^3
# Si number density = 20.861187 Si / 1000 Ang^3
#
#
#
# Elastic Constant Matrix: (Units=GPa)
#
#
# Indices 1 2 3 4 5 6 
#
# 1 190.5408 56.7948 72.2938 0.0000 0.0000 0.0000
# 2 56.7948 114.8533 10.0244 0.0000 0.0000 0.0000
# 3 72.2938 10.0244 66.4473 0.0000 0.0000 0.0000
# 4 0.0000 0.0000 0.0000 53.0042 0.0000 0.0000
# 5 0.0000 0.0000 0.0000 0.0000 31.1986 0.0000
# 6 0.0000 0.0000 0.0000 0.0000 0.0000 26.3780
#
#
#
# Elastic Compliance Matrix: (Units=1/GPa)
#
#
# Indices 1 2 3 4 5 6 
#
# 1 0.010717 -0.004339 -0.011006 0.000000 0.000000 0.000000
# 2 -0.004339 0.010580 0.003125 0.000000 0.000000 0.000000
# 3 -0.011006 0.003125 0.026552 0.000000 0.000000 0.000000
# 4 0.000000 0.000000 0.000000 0.018866 0.000000 0.000000
# 5 0.000000 0.000000 0.000000 0.000000 0.032053 0.000000
# 6 0.000000 0.000000 0.000000 0.000000 0.000000 0.037910
#
#
# Mechanical properties :
#
#
# Convention : Reuss Voigt Hill
#
# Bulk Modulus (GPa) = 42.71823 72.22971 57.47397
# Shear Modulus (GPa) = 29.59951 37.63138 33.61545
#
# Velocity S-wave (km/s) = 3.77089 4.25184 4.01856
# Velocity P-wave (km/s) = 6.28341 7.66833 7.01016
#
# Compressibility (1/GPa) = 0.02340921
#
# Stress axis : x y z
#
# Youngs Moduli (GPa) = 93.30728 94.52063 37.66176
#
# Poissons Ratio (x) = 0.41013 0.41449
# Poissons Ratio (y) = 0.40487 -0.11769
# Poissons Ratio (z) = 1.02691 -0.29536
#
# Static dielectric constant tensor:
#      x y z
#    x 1.786830 0.000000 0.000000 
#    y 0.000000 1.795560 0.000000 
#    z 0.000000 0.000000 1.143080 
# 
# From -- ./inp_files/8748.got.cif
#   From: 2010.05.17/outbox.cif.g08.bks.cpg/sg48_5_cif.got.tgz:8748.got - 2010.06.03 20:39:00.
