data_PCOD9390748
_publ_section_title
;
Structure prediction by ZEFSAII (Michael W. Deem and Ramdas Pophale) SiO2 
 PCOD9390748
Probable space group: P N N N
;
_chemical_formula_sum "Si O2"
_cell_formula_units_Z 54
_cell_length_a 28.207529
_cell_length_b 15.511552
_cell_length_c 5.159048
_cell_angle_alpha 90.000000
_cell_angle_beta 90.000000
_cell_angle_gamma 90.000000
_cell_volume 2257.303032
_symmetry_space_group_name_H-M "P N N N"
_symmetry_group_IT_number 48
_space_group.IT_coordinate_system_code '2'
_symmetry_cell_setting 'orthorhombic'
loop_
_space_group_symop_operation_xyz
x,y,z
1/2-x,1/2-y,z
x,1/2-y,1/2-z
1/2-x,y,1/2-z
-x,-y,-z
1/2+x,1/2+y,-z
-x,1/2+y,1/2+z
1/2+x,-y,1/2+z
loop_
_atom_site_type_symbol
_atom_site_label
_atom_site_fract_x
_atom_site_fract_y
_atom_site_fract_z
Si Si1 0.342095 0.695614 0.511169
Si Si2 0.896667 0.078033 0.865191
Si Si3 0.750000 0.750000 0.750000
Si Si4 0.750000 0.109091 0.250000
Si Si5 0.524402 0.433594 0.196223
Si Si6 0.325829 0.124376 0.979080
Si Si7 0.188789 0.486618 0.481485
Si Si8 0.430094 0.422305 0.434416
O O1 0.363201 0.750000 0.750000
O O2 0.378540 0.873604 0.110491
O O3 0.292566 0.661856 0.624459
O O4 0.331464 0.750000 0.250000
O O5 0.911415 0.979638 0.803119
O O6 0.939649 0.120623 0.019510
O O7 0.851409 0.058323 0.040105
O O8 0.712466 0.696279 0.569812
O O9 0.734268 0.043169 0.472211
O O10 0.481811 0.385669 0.349727
O O11 0.554623 0.499745 0.373365
O O12 0.500000 0.500000 0.000000
O O13 0.314571 0.088941 0.693645
O O14 0.316856 0.051740 0.197560
O O15 0.384241 0.135709 0.986973
#
# Coordination Sequence:
#
# PCOD9390748 Si02
#       8
#     8   8   2   4   8   8   8   8
#     4  12  29  43  60  89 136 189 233 275 343 432
#     4  10  21  38  63  93 128 172 221 289 362 404
#     4  12  28  46  68  98 148 214 222 278 344 484
#     4  12  25  44  64  89 122 174 234 290 336 377
#     4   9  17  33  65 103 125 159 214 301 369 402
#     4  11  24  42  65 102 140 177 232 274 356 420
#     4  11  23  40  69  96 126 165 232 310 338 393
#     4   9  18  35  65 101 130 162 220 300 344 415
#
# _framework density 23.922355
#
# number of rings (size 3 to 8) (size 9 to 14) (size 15 to 20)
#    0.000    1.481    1.481    3.778    2.074    7.704 
#    0.000    0.000    0.000    5.333    0.000    0.000 
#    0.000    0.000    0.000    0.000    0.000    0.000 
#
# Total GULP energy -300961.899882 kJ/mol
# GULP energy per Si atom -5573.368516 kJ/mol
# Density = 2.386791 g / cm^3
# Si number density = 23.922355 Si / 1000 Ang^3
#
#
#
# Elastic Constant Matrix: (Units=GPa)
#
#
# Indices 1 2 3 4 5 6 
#
# 1 171.2992 54.5059 47.8502 0.0000 0.0000 0.0000
# 2 54.5059 41.0136 12.4935 0.0000 0.0000 0.0000
# 3 47.8502 12.4935 93.7964 0.0000 0.0000 0.0000
# 4 0.0000 0.0000 0.0000 11.2920 0.0000 0.0000
# 5 0.0000 0.0000 0.0000 0.0000 48.9516 0.0000
# 6 0.0000 0.0000 0.0000 0.0000 0.0000 12.2867
#
#
#
# Elastic Compliance Matrix: (Units=1/GPa)
#
#
# Indices 1 2 3 4 5 6 
#
# 1 0.011362 -0.013898 -0.003945 0.000000 0.000000 0.000000
# 2 -0.013898 0.042413 0.001441 0.000000 0.000000 0.000000
# 3 -0.003945 0.001441 0.012482 0.000000 0.000000 0.000000
# 4 0.000000 0.000000 0.000000 0.088559 0.000000 0.000000
# 5 0.000000 0.000000 0.000000 0.000000 0.020428 0.000000
# 6 0.000000 0.000000 0.000000 0.000000 0.000000 0.081389
#
#
# Mechanical properties :
#
#
# Convention : Reuss Voigt Hill
#
# Bulk Modulus (GPa) = 29.89307 59.53426 44.71366
# Shear Modulus (GPa) = 16.63400 27.25669 21.94534
#
# Velocity S-wave (km/s) = 2.63978 3.37913 3.03208
# Velocity P-wave (km/s) = 4.67057 6.33760 5.56684
#
# Compressibility (1/GPa) = 0.03345257
#
# Stress axis : x y z
#
# Youngs Moduli (GPa) = 88.01282 23.57748 80.11476
#
# Poissons Ratio (x) = 0.32768 0.31606
# Poissons Ratio (y) = 1.22320 -0.11542
# Poissons Ratio (z) = 0.34722 -0.03397
#
# Static dielectric constant tensor:
#      x y z
#    x 1.992270 0.000000 0.000000 
#    y 0.000000 1.939530 0.000000 
#    z 0.000000 0.000000 2.010790 
# 
# From -- ./inp_files/7079.got.cif
#   From: 2010.05.17/outbox.cif.g08.bks.cpg/sg48_4_cif.got.tgz:7079.got - 2010.06.03 20:39:00.
