data_PCOD9390997
_publ_section_title
;
Structure prediction by ZEFSAII (Michael W. Deem and Ramdas Pophale) SiO2 
 PCOD9390997
Probable space group: P N N N
;
_chemical_formula_sum "Si O2"
_cell_formula_units_Z 48
_cell_length_a 8.509891
_cell_length_b 9.737633
_cell_length_c 27.165327
_cell_angle_alpha 90.000000
_cell_angle_beta 90.000000
_cell_angle_gamma 90.000000
_cell_volume 2251.087296
_symmetry_space_group_name_H-M "P N N N"
_symmetry_group_IT_number 48
_space_group.IT_coordinate_system_code '2'
_symmetry_cell_setting 'orthorhombic'
loop_
_space_group_symop_operation_xyz
x,y,z
1/2-x,1/2-y,z
x,1/2-y,1/2-z
1/2-x,y,1/2-z
-x,-y,-z
1/2+x,1/2+y,-z
-x,1/2+y,1/2+z
1/2+x,-y,1/2+z
loop_
_atom_site_type_symbol
_atom_site_label
_atom_site_fract_x
_atom_site_fract_y
_atom_site_fract_z
Si Si1 0.877453 0.342442 0.375388
Si Si2 0.713547 0.897782 0.479557
Si Si3 0.395384 0.966782 0.428736
Si Si4 0.821988 0.389138 0.836018
Si Si5 0.327661 0.101875 0.876859
Si Si6 0.597702 0.683847 0.696240
O O1 0.750000 0.250000 0.403153
O O2 0.785977 0.479978 0.356026
O O3 0.015734 0.396519 0.409760
O O4 0.950145 0.239823 0.334682
O O5 0.750000 0.750000 0.500985
O O6 0.708736 0.004046 0.523633
O O7 0.830100 0.931105 0.435055
O O8 0.544827 0.885152 0.451101
O O9 0.297109 0.914606 0.382131
O O10 0.750000 0.250000 0.812710
O O11 0.851566 0.524290 0.802541
O O12 0.997940 0.379598 0.857111
O O13 0.250000 0.250000 0.869519
O O14 0.750000 0.750000 0.670954
O O15 0.581459 0.750000 0.750000
#
# Coordination Sequence:
#
# PCOD9390997 Si02
#       6
#     8   8   8   8   8   8
#     4  11  21  40  65  95 126 171 218 269 335 402
#     4   9  19  36  56  86 130 176 219 286 313 377
#     4  10  22  37  59  91 129 171 230 266 328 390
#     4  12  23  41  71  94 128 178 215 271 338 408
#     4  10  22  40  61  93 132 174 226 271 329 391
#     4  11  25  45  70 103 128 162 218 279 336 409
#
# _framework density 21.323029999999999
#
# number of rings (size 3 to 8) (size 9 to 14) (size 15 to 20)
#    0.000    1.500    3.333    3.000    2.333    1.000 
#    0.000   17.500    0.000    1.000    0.000    0.000 
#    0.000    0.000    0.000    0.000    0.000    0.000 
#
# Total GULP energy -267244.556744 kJ/mol
# GULP energy per Si atom -5567.594932 kJ/mol
# Density = 2.127450 g / cm^3
# Si number density = 21.323030 Si / 1000 Ang^3
#
#
#
# Elastic Constant Matrix: (Units=GPa)
#
#
# Indices 1 2 3 4 5 6 
#
# 1 56.2239 32.0709 30.1315 0.0000 0.0000 0.0000
# 2 32.0709 142.4277 40.0220 0.0000 0.0000 0.0000
# 3 30.1315 40.0220 60.3673 0.0000 0.0000 0.0000
# 4 0.0000 0.0000 0.0000 61.5500 0.0000 0.0000
# 5 0.0000 0.0000 0.0000 0.0000 114.4277 0.0000
# 6 0.0000 0.0000 0.0000 0.0000 0.0000 50.1579
#
#
#
# Elastic Compliance Matrix: (Units=1/GPa)
#
#
# Indices 1 2 3 4 5 6 
#
# 1 0.025049 -0.002614 -0.010770 0.000000 0.000000 0.000000
# 2 -0.002614 0.008901 -0.004597 0.000000 0.000000 0.000000
# 3 -0.010770 -0.004597 0.024988 0.000000 0.000000 0.000000
# 4 0.000000 0.000000 0.000000 0.016247 0.000000 0.000000
# 5 0.000000 0.000000 0.000000 0.000000 0.008739 0.000000
# 6 0.000000 0.000000 0.000000 0.000000 0.000000 0.019937
#
#
# Mechanical properties :
#
#
# Convention : Reuss Voigt Hill
#
# Bulk Modulus (GPa) = 43.52050 51.49641 47.50845
# Shear Modulus (GPa) = 33.90257 55.68011 44.79134
#
# Velocity S-wave (km/s) = 3.99174 5.11560 4.58821
# Velocity P-wave (km/s) = 6.45754 7.68736 7.09913
#
# Compressibility (1/GPa) = 0.02297768
#
# Stress axis : x y z
#
# Youngs Moduli (GPa) = 39.92204 112.34238 40.01886
#
# Poissons Ratio (x) = 0.29367 0.43099
# Poissons Ratio (y) = 0.10436 0.18395
# Poissons Ratio (z) = 0.42995 0.51639
#
# Static dielectric constant tensor:
#      x y z
#    x 1.987600 0.000000 0.000000 
#    y 0.000000 1.842000 0.000000 
#    z 0.000000 0.000000 1.785830 
# 
# From -- ./inp_files/38697.got.cif
#   From: 2010.05.17/outbox.cif.g08.bks.cpg/sg48_20_cif.got.tgz:38697.got - 2010.06.03 20:39:00.
