data_PCOD9390803
_publ_section_title
;
Structure prediction by ZEFSAII (Michael W. Deem and Ramdas Pophale) SiO2 
 PCOD9390803
Probable space group: P N N N
;
_chemical_formula_sum "Si O2"
_cell_formula_units_Z 32
_cell_length_a 8.294775
_cell_length_b 27.918620
_cell_length_c 6.136042
_cell_angle_alpha 90.000000
_cell_angle_beta 90.000000
_cell_angle_gamma 90.000000
_cell_volume 1420.976453
_symmetry_space_group_name_H-M "P N N N"
_symmetry_group_IT_number 48
_space_group.IT_coordinate_system_code '2'
_symmetry_cell_setting 'orthorhombic'
loop_
_space_group_symop_operation_xyz
x,y,z
1/2-x,1/2-y,z
x,1/2-y,1/2-z
1/2-x,y,1/2-z
-x,-y,-z
1/2+x,1/2+y,-z
-x,1/2+y,1/2+z
1/2+x,-y,1/2+z
loop_
_atom_site_type_symbol
_atom_site_label
_atom_site_fract_x
_atom_site_fract_y
_atom_site_fract_z
Si Si1 0.928491 0.372844 0.652051
Si Si2 0.919487 0.036683 0.163728
Si Si3 0.057946 0.696552 0.710194
Si Si4 0.396451 0.106468 0.071886
O O1 0.750000 0.366413 0.750000
O O2 0.899334 0.413990 0.471818
O O3 0.975503 0.323972 0.530379
O O4 0.071456 0.390413 0.811341
O O5 0.750000 0.018377 0.250000
O O6 0.022544 0.055663 0.366449
O O7 0.000000 0.000000 0.000000
O O8 0.996191 0.750000 0.750000
O O9 0.250000 0.696908 0.750000
O O10 0.986286 0.656116 0.866520
O O11 0.250000 0.107363 0.250000
#
# Coordination Sequence:
#
# PCOD9390803 Si02
#       4
#     8   8   8   8
#     4  11  20  42  67  90 132 177 222 287 355 419
#     4  11  25  41  62  94 130 173 233 290 344 430
#     4  10  21  39  64  97 128 166 222 278 335 428
#     4  11  24  41  63  94 131 175 220 283 347 419
#
# _framework density 22.519728000000001
#
# number of rings (size 3 to 8) (size 9 to 14) (size 15 to 20)
#    0.000    1.250    5.000    1.500    3.500    6.500 
#    0.000    0.000    0.000    6.000    0.000    0.000 
#    0.000    0.000    0.000    0.000    0.000    0.000 
#
# Total GULP energy -178376.207336 kJ/mol
# GULP energy per Si atom -5574.256479 kJ/mol
# Density = 2.246847 g / cm^3
# Si number density = 22.519728 Si / 1000 Ang^3
#
#
#
# Elastic Constant Matrix: (Units=GPa)
#
#
# Indices 1 2 3 4 5 6 
#
# 1 93.0618 18.5025 26.0616 0.0000 0.0000 0.0000
# 2 18.5025 124.8322 21.2445 0.0000 0.0000 0.0000
# 3 26.0616 21.2445 106.5911 0.0000 0.0000 0.0000
# 4 0.0000 0.0000 0.0000 32.3224 0.0000 0.0000
# 5 0.0000 0.0000 0.0000 0.0000 45.4810 0.0000
# 6 0.0000 0.0000 0.0000 0.0000 0.0000 10.6974
#
#
#
# Elastic Compliance Matrix: (Units=1/GPa)
#
#
# Indices 1 2 3 4 5 6 
#
# 1 0.011734 -0.001295 -0.002611 0.000000 0.000000 0.000000
# 2 -0.001295 0.008435 -0.001365 0.000000 0.000000 0.000000
# 3 -0.002611 -0.001365 0.010292 0.000000 0.000000 0.000000
# 4 0.000000 0.000000 0.000000 0.030938 0.000000 0.000000
# 5 0.000000 0.000000 0.000000 0.000000 0.021987 0.000000
# 6 0.000000 0.000000 0.000000 0.000000 0.000000 0.093480
#
#
# Mechanical properties :
#
#
# Convention : Reuss Voigt Hill
#
# Bulk Modulus (GPa) = 50.19996 50.67804 50.43900
# Shear Modulus (GPa) = 25.76686 34.94526 30.35606
#
# Velocity S-wave (km/s) = 3.38626 3.94351 3.67546
# Velocity P-wave (km/s) = 6.13424 6.57934 6.36069
#
# Compressibility (1/GPa) = 0.01992033
#
# Stress axis : x y z
#
# Youngs Moduli (GPa) = 85.22112 118.55502 97.16297
#
# Poissons Ratio (x) = 0.15352 0.25369
# Poissons Ratio (y) = 0.11035 0.13258
# Poissons Ratio (z) = 0.22251 0.16177
#
# Static dielectric constant tensor:
#      x y z
#    x 1.935920 0.000000 0.000000 
#    y 0.000000 1.779140 0.000000 
#    z 0.000000 0.000000 2.015520 
# 
# From -- ./inp_files/1137.got.cif
#   From: 2010.05.17/outbox.cif.g08.bks.cpg/sg48_1_cif.got.tgz:1137.got - 2010.06.03 20:39:00.
