data_PCOD9390355
_publ_section_title
;
Structure prediction by ZEFSAII (Michael W. Deem and Ramdas Pophale) SiO2 
 PCOD9390355
Probable space group: P N N N
;
_chemical_formula_sum "Si O2"
_cell_formula_units_Z 36
_cell_length_a 17.409767
_cell_length_b 5.196798
_cell_length_c 21.121596
_cell_angle_alpha 90.000000
_cell_angle_beta 90.000000
_cell_angle_gamma 90.000000
_cell_volume 1910.977292
_symmetry_space_group_name_H-M "P N N N"
_symmetry_group_IT_number 48
_space_group.IT_coordinate_system_code '2'
_symmetry_cell_setting 'orthorhombic'
loop_
_space_group_symop_operation_xyz
x,y,z
1/2-x,1/2-y,z
x,1/2-y,1/2-z
1/2-x,y,1/2-z
-x,-y,-z
1/2+x,1/2+y,-z
-x,1/2+y,1/2+z
1/2+x,-y,1/2+z
loop_
_atom_site_type_symbol
_atom_site_label
_atom_site_fract_x
_atom_site_fract_y
_atom_site_fract_z
Si Si1 0.550605 0.451336 0.937654
Si Si2 0.197902 0.490767 0.665320
Si Si3 0.479417 0.561826 0.617828
Si Si4 0.339846 0.815738 0.540899
Si Si5 0.921403 0.250000 0.250000
O O1 0.540454 0.714970 0.900091
O O2 0.515169 0.211961 0.899834
O O3 0.500000 0.500000 0.000000
O O4 0.630631 0.385358 0.971340
O O5 0.250000 0.250000 0.678700
O O6 0.161821 0.464044 0.595206
O O7 0.131712 0.541321 0.715004
O O8 0.250000 0.750000 0.666411
O O9 0.401720 0.620236 0.575139
O O10 0.462313 0.606284 0.691792
O O11 0.250000 0.750000 0.535626
#
# Coordination Sequence:
#
# PCOD9390355 Si02
#       5
#     8   8   8   8   4
#     4  10  20  37  55  77 109 144 183 232 278 325
#     4  10  22  35  50  77 113 146 176 216 268 329
#     4  10  22  37  55  79 110 148 186 227 274 329
#     4   9  19  34  56  82 109 140 179 225 277 332
#     4  10  23  38  56  78 111 154 194 224 268 338
#
# _framework density 18.838529999999999
#
# number of rings (size 3 to 8) (size 9 to 14) (size 15 to 20)
#    0.000    2.222    0.000    3.000    0.000   24.889 
#    0.000    4.444    0.000    0.000    0.000    4.667 
#    0.000    0.000    0.000    0.000    0.000    0.000 
#
# Total GULP energy -200757.462921 kJ/mol
# GULP energy per Si atom -5576.596192 kJ/mol
# Density = 1.879565 g / cm^3
# Si number density = 18.838530 Si / 1000 Ang^3
#
#
#
# Elastic Constant Matrix: (Units=GPa)
#
#
# Indices 1 2 3 4 5 6 
#
# 1 72.7377 14.8766 43.2726 0.0000 0.0000 0.0000
# 2 14.8766 111.3773 38.7193 0.0000 0.0000 0.0000
# 3 43.2726 38.7193 115.9850 0.0000 0.0000 0.0000
# 4 0.0000 0.0000 0.0000 12.4098 0.0000 0.0000
# 5 0.0000 0.0000 0.0000 0.0000 16.6315 0.0000
# 6 0.0000 0.0000 0.0000 0.0000 0.0000 21.6029
#
#
#
# Elastic Compliance Matrix: (Units=1/GPa)
#
#
# Indices 1 2 3 4 5 6 
#
# 1 0.017671 -0.000077 -0.006567 0.000000 0.000000 0.000000
# 2 -0.000077 0.010158 -0.003362 0.000000 0.000000 0.000000
# 3 -0.006567 -0.003362 0.012194 0.000000 0.000000 0.000000
# 4 0.000000 0.000000 0.000000 0.080581 0.000000 0.000000
# 5 0.000000 0.000000 0.000000 0.000000 0.060127 0.000000
# 6 0.000000 0.000000 0.000000 0.000000 0.000000 0.046290
#
#
# Mechanical properties :
#
#
# Convention : Reuss Voigt Hill
#
# Bulk Modulus (GPa) = 49.97544 54.87078 52.42311
# Shear Modulus (GPa) = 19.70809 23.67762 21.69285
#
# Velocity S-wave (km/s) = 3.23795 3.54908 3.39708
# Velocity P-wave (km/s) = 6.36906 6.78121 6.57836
#
# Compressibility (1/GPa) = 0.02000983
#
# Stress axis : x y z
#
# Youngs Moduli (GPa) = 56.59133 98.44830 82.00629
#
# Poissons Ratio (x) = 0.00761 0.53852
# Poissons Ratio (y) = 0.00438 0.27571
# Poissons Ratio (z) = 0.37163 0.33099
#
# Static dielectric constant tensor:
#      x y z
#    x 1.747060 0.000000 0.000000 
#    y 0.000000 1.741160 0.000000 
#    z 0.000000 0.000000 1.721320 
# 
# From -- ./inp_files/34593.got.cif
#   From: 2010.05.17/outbox.cif.g08.bks.cpg/sg48_18_cif.got.tgz:34593.got - 2010.06.03 20:39:00.
