data_PCOD9390084
_publ_section_title
;
Structure prediction by ZEFSAII (Michael W. Deem and Ramdas Pophale) SiO2 
 PCOD9390084
Probable space group: P N N N
;
_chemical_formula_sum "Si O2"
_cell_formula_units_Z 34
_cell_length_a 13.226817
_cell_length_b 16.295530
_cell_length_c 7.791822
_cell_angle_alpha 90.000000
_cell_angle_beta 90.000000
_cell_angle_gamma 90.000000
_cell_volume 1679.433677
_symmetry_space_group_name_H-M "P N N N"
_symmetry_group_IT_number 48
_space_group.IT_coordinate_system_code '2'
_symmetry_cell_setting 'orthorhombic'
loop_
_space_group_symop_operation_xyz
x,y,z
1/2-x,1/2-y,z
x,1/2-y,1/2-z
1/2-x,y,1/2-z
-x,-y,-z
1/2+x,1/2+y,-z
-x,1/2+y,1/2+z
1/2+x,-y,1/2+z
loop_
_atom_site_type_symbol
_atom_site_label
_atom_site_fract_x
_atom_site_fract_y
_atom_site_fract_z
Si Si1 0.012134 0.907630 0.443175
Si Si2 0.266855 0.651376 0.558763
Si Si3 0.750000 0.750000 0.250000
Si Si4 0.571723 0.168756 0.625959
Si Si5 0.399697 0.250347 0.446024
O O1 0.122743 0.875383 0.500960
O O2 0.011625 0.896295 0.238993
O O3 0.928200 0.844693 0.512685
O O4 0.000000 0.000000 0.500000
O O5 0.250000 0.750000 0.563403
O O6 0.250000 0.619345 0.750000
O O7 0.176583 0.629004 0.430773
O O8 0.670713 0.782658 0.397270
O O9 0.584835 0.250000 0.750000
O O10 0.504775 0.199955 0.466683
O O11 0.363495 0.250000 0.250000
#
# Coordination Sequence:
#
# PCOD9390084 Si02
#       5
#     8   8   2   8   8
#     4  11  23  40  62 100 142 167 214 289 352 384
#     4  11  20  35  65  99 124 167 229 274 329 415
#     4  12  22  44  64  92 124 176 236 276 316 400
#     4  10  19  37  65  95 126 168 223 274 329 405
#     4  11  22  42  70  93 126 178 234 275 323 419
#
# _framework density 20.244921000000001
#
# number of rings (size 3 to 8) (size 9 to 14) (size 15 to 20)
#    0.000    1.176    8.235    2.471    0.000    0.000 
#    2.118    9.412    0.000    0.000    0.000    0.000 
#    0.000    0.000    0.000    0.000    0.000    0.000 
#
# Total GULP energy -189294.164605 kJ/mol
# GULP energy per Si atom -5567.475430 kJ/mol
# Density = 2.019884 g / cm^3
# Si number density = 20.244921 Si / 1000 Ang^3
#
#
#
# Elastic Constant Matrix: (Units=GPa)
#
#
# Indices 1 2 3 4 5 6 
#
# 1 98.1945 18.3153 31.8458 0.0000 0.0000 0.0000
# 2 18.3153 86.3127 16.1654 0.0000 0.0000 0.0000
# 3 31.8458 16.1654 135.0797 0.0000 0.0000 0.0000
# 4 0.0000 0.0000 0.0000 19.2084 0.0000 0.0000
# 5 0.0000 0.0000 0.0000 0.0000 21.3093 0.0000
# 6 0.0000 0.0000 0.0000 0.0000 0.0000 15.1344
#
#
#
# Elastic Compliance Matrix: (Units=1/GPa)
#
#
# Indices 1 2 3 4 5 6 
#
# 1 0.011339 -0.001949 -0.002440 0.000000 0.000000 0.000000
# 2 -0.001949 0.012186 -0.000999 0.000000 0.000000 0.000000
# 3 -0.002440 -0.000999 0.008098 0.000000 0.000000 0.000000
# 4 0.000000 0.000000 0.000000 0.052060 0.000000 0.000000
# 5 0.000000 0.000000 0.000000 0.000000 0.046928 0.000000
# 6 0.000000 0.000000 0.000000 0.000000 0.000000 0.066074
#
#
# Mechanical properties :
#
#
# Convention : Reuss Voigt Hill
#
# Bulk Modulus (GPa) = 47.96801 50.24886 49.10843
# Shear Modulus (GPa) = 23.31974 28.01446 25.66710
#
# Velocity S-wave (km/s) = 3.39762 3.72395 3.56452
# Velocity P-wave (km/s) = 6.25596 6.58519 6.42269
#
# Compressibility (1/GPa) = 0.02084723
#
# Stress axis : x y z
#
# Youngs Moduli (GPa) = 88.19345 82.05833 123.49033
#
# Poissons Ratio (x) = 0.15994 0.30131
# Poissons Ratio (y) = 0.17190 0.12335
# Poissons Ratio (z) = 0.21518 0.08197
#
# Static dielectric constant tensor:
#      x y z
#    x 1.811670 0.000000 0.000000 
#    y 0.000000 1.714220 0.000000 
#    z 0.000000 0.000000 1.794560 
# 
# From -- ./inp_files/10592.got.cif
#   From: 2010.05.17/outbox.cif.g08.bks.cpg/sg48_6_cif.got.tgz:10592.got - 2010.06.03 20:39:00.
