data_PCOD9390697
_publ_section_title
;
Structure prediction by ZEFSAII (Michael W. Deem and Ramdas Pophale) SiO2 
 PCOD9390697
Probable space group: P N N N
;
_chemical_formula_sum "Si O2"
_cell_formula_units_Z 56
_cell_length_a 13.519689
_cell_length_b 14.435700
_cell_length_c 15.264285
_cell_angle_alpha 90.000000
_cell_angle_beta 90.000000
_cell_angle_gamma 90.000000
_cell_volume 2979.072110
_symmetry_space_group_name_H-M "P N N N"
_symmetry_group_IT_number 48
_space_group.IT_coordinate_system_code '2'
_symmetry_cell_setting 'orthorhombic'
loop_
_space_group_symop_operation_xyz
x,y,z
1/2-x,1/2-y,z
x,1/2-y,1/2-z
1/2-x,y,1/2-z
-x,-y,-z
1/2+x,1/2+y,-z
-x,1/2+y,1/2+z
1/2+x,-y,1/2+z
loop_
_atom_site_type_symbol
_atom_site_label
_atom_site_fract_x
_atom_site_fract_y
_atom_site_fract_z
Si Si1 0.645434 0.303217 0.943528
Si Si2 0.517987 0.541132 0.859349
Si Si3 0.134752 0.504632 0.927278
Si Si4 0.864552 0.360957 0.238533
Si Si5 0.863220 0.399846 0.741535
Si Si6 0.542216 0.129764 0.925404
Si Si7 0.143505 0.489103 0.518477
O O1 0.750000 0.250000 0.958203
O O2 0.635112 0.332447 0.842012
O O3 0.558762 0.231017 0.967532
O O4 0.643127 0.400466 0.994655
O O5 0.443219 0.610761 0.812923
O O6 0.571961 0.487709 0.782504
O O7 0.442901 0.473527 0.911374
O O8 0.603965 0.562942 0.930905
O O9 0.113349 0.581489 0.851218
O O10 0.248474 0.473871 0.941181
O O11 0.065616 0.414612 0.914822
O O12 0.102394 0.555848 0.016591
O O13 0.864102 0.250000 0.250000
O O14 0.750000 0.389786 0.250000
O O15 0.750000 0.427597 0.750000
O O16 0.904903 0.361990 0.831762
#
# Coordination Sequence:
#
# PCOD9390697 Si02
#       7
#     8   8   8   8   8   8   8
#     4  11  20  33  60  93 122 148 197 261 306 358
#     4  10  21  38  58  86 116 162 203 249 304 373
#     4  11  22  38  56  90 123 161 201 243 309 368
#     4  11  23  37  63  91 120 152 201 263 309 358
#     4  11  20  35  57  88 123 154 196 248 314 360
#     4  11  22  33  55  88 127 158 188 253 306 366
#     4  10  21  37  62  84 119 163 206 248 301 368
#
# _framework density 18.797799999999999
#
# number of rings (size 3 to 8) (size 9 to 14) (size 15 to 20)
#    0.000    1.286    5.714    1.286    2.000    0.000 
#    0.000    0.000    0.000    9.857    0.000   10.000 
#    0.000    0.000    0.000    0.000    0.000    0.000 
#
# Total GULP energy -311859.371072 kJ/mol
# GULP energy per Si atom -5568.917341 kJ/mol
# Density = 1.875501 g / cm^3
# Si number density = 18.797800 Si / 1000 Ang^3
#
#
#
# Elastic Constant Matrix: (Units=GPa)
#
#
# Indices 1 2 3 4 5 6 
#
# 1 123.9022 48.5530 27.6411 0.0000 0.0000 0.0000
# 2 48.5530 62.6513 9.0232 0.0000 0.0000 0.0000
# 3 27.6411 9.0232 43.4317 0.0000 0.0000 0.0000
# 4 0.0000 0.0000 0.0000 19.2666 0.0000 0.0000
# 5 0.0000 0.0000 0.0000 0.0000 39.3888 0.0000
# 6 0.0000 0.0000 0.0000 0.0000 0.0000 26.8910
#
#
#
# Elastic Compliance Matrix: (Units=1/GPa)
#
#
# Indices 1 2 3 4 5 6 
#
# 1 0.013131 -0.009249 -0.006435 0.000000 0.000000 0.000000
# 2 -0.009249 0.022969 0.001115 0.000000 0.000000 0.000000
# 3 -0.006435 0.001115 0.026889 0.000000 0.000000 0.000000
# 4 0.000000 0.000000 0.000000 0.051903 0.000000 0.000000
# 5 0.000000 0.000000 0.000000 0.000000 0.025388 0.000000
# 6 0.000000 0.000000 0.000000 0.000000 0.000000 0.037187
#
#
# Mechanical properties :
#
#
# Convention : Reuss Voigt Hill
#
# Bulk Modulus (GPa) = 29.54347 44.49108 37.01727
# Shear Modulus (GPa) = 22.94737 26.76047 24.85392
#
# Velocity S-wave (km/s) = 3.49771 3.77715 3.64011
# Velocity P-wave (km/s) = 5.66238 6.53774 6.11574
#
# Compressibility (1/GPa) = 0.03384843
#
# Stress axis : x y z
#
# Youngs Moduli (GPa) = 76.15558 43.53732 37.19034
#
# Poissons Ratio (x) = 0.40269 0.23933
# Poissons Ratio (y) = 0.70439 -0.04145
# Poissons Ratio (z) = 0.49008 -0.04853
#
# Static dielectric constant tensor:
#      x y z
#    x 1.681410 0.000000 0.000000 
#    y 0.000000 1.667190 0.000000 
#    z 0.000000 0.000000 1.679800 
# 
# From -- ./inp_files/26551.got.cif
#   From: 2010.05.17/outbox.cif.g08.bks.cpg/sg48_14_cif.got.tgz:26551.got - 2010.06.03 20:39:00.
