data_PCOD9390883
_publ_section_title
;
Structure prediction by ZEFSAII (Michael W. Deem and Ramdas Pophale) SiO2 
 PCOD9390883
Probable space group: P N N N
;
_chemical_formula_sum "Si O2"
_cell_formula_units_Z 38
_cell_length_a 12.721864
_cell_length_b 9.692063
_cell_length_c 13.447478
_cell_angle_alpha 90.000000
_cell_angle_beta 90.000000
_cell_angle_gamma 90.000000
_cell_volume 1658.088929
_symmetry_space_group_name_H-M "P N N N"
_symmetry_group_IT_number 48
_space_group.IT_coordinate_system_code '2'
_symmetry_cell_setting 'orthorhombic'
loop_
_space_group_symop_operation_xyz
x,y,z
1/2-x,1/2-y,z
x,1/2-y,1/2-z
1/2-x,y,1/2-z
-x,-y,-z
1/2+x,1/2+y,-z
-x,1/2+y,1/2+z
1/2+x,-y,1/2+z
loop_
_atom_site_type_symbol
_atom_site_label
_atom_site_fract_x
_atom_site_fract_y
_atom_site_fract_z
Si Si1 0.750000 0.750000 0.750000
Si Si2 0.044175 0.070303 0.603712
Si Si3 0.750000 0.750000 0.435295
Si Si4 0.889500 0.593717 0.594907
Si Si5 0.588631 0.281088 0.355673
Si Si6 0.364404 0.771260 0.422702
O O1 0.818043 0.647832 0.683932
O O2 0.160024 0.143523 0.608223
O O3 0.955927 0.181976 0.627178
O O4 0.044124 0.933385 0.668083
O O5 0.000000 0.000000 0.500000
O O6 0.827777 0.653540 0.499415
O O7 0.896127 0.430832 0.583230
O O8 0.997689 0.672849 0.615193
O O9 0.640559 0.250000 0.250000
O O10 0.646025 0.283803 0.462312
O O11 0.250000 0.750000 0.376644
#
# Coordination Sequence:
#
# PCOD9390883 Si02
#       6
#     2   8   4   8   8   8
#     4  10  24  36  66  98 130 162 214 290 344 378
#     4  10  21  41  64 101 126 171 221 272 335 398
#     4  11  20  37  72  90 130 164 222 275 330 402
#     4  11  21  39  66  97 125 168 219 272 349 390
#     4  11  23  42  64  93 135 173 220 274 328 398
#     4  11  24  40  67  95 132 174 222 267 331 416
#
# _framework density 22.917949
#
# number of rings (size 3 to 8) (size 9 to 14) (size 15 to 20)
#    0.000    1.263    5.263    3.158    2.947    0.421 
#    0.000    3.684    0.000    2.526    0.000    0.000 
#    0.000    0.000    0.000    0.000    0.000    0.000 
#
# Total GULP energy -211684.705691 kJ/mol
# GULP energy per Si atom -5570.650150 kJ/mol
# Density = 2.286579 g / cm^3
# Si number density = 22.917949 Si / 1000 Ang^3
#
#
#
# Elastic Constant Matrix: (Units=GPa)
#
#
# Indices 1 2 3 4 5 6 
#
# 1 146.3615 50.3879 10.0347 0.0000 0.0000 0.0000
# 2 50.3879 201.4566 8.2816 0.0000 0.0000 0.0000
# 3 10.0347 8.2816 43.8296 0.0000 0.0000 0.0000
# 4 0.0000 0.0000 0.0000 -0.0428 0.0000 0.0000
# 5 0.0000 0.0000 0.0000 0.0000 -330.9007 0.0000
# 6 0.0000 0.0000 0.0000 0.0000 0.0000 -13.4963
#
#
#
# Elastic Compliance Matrix: (Units=1/GPa)
#
#
# Indices 1 2 3 4 5 6 
#
# 1 0.007559 -0.001834 -0.001384 0.000000 0.000000 0.000000
# 2 -0.001834 0.005448 -0.000609 0.000000 0.000000 0.000000
# 3 -0.001384 -0.000609 0.023248 0.000000 0.000000 0.000000
# 4 0.000000 0.000000 0.000000-23.359950 0.000000 0.000000
# 5 0.000000 0.000000 0.000000 0.000000 -0.003022 0.000000
# 6 0.000000 0.000000 0.000000 0.000000 0.000000 -0.074094
#
#
# Mechanical properties :
#
#
# Convention : Reuss Voigt Hill
#
# Bulk Modulus (GPa) = 34.96579 58.78400 46.87489
# Shear Modulus (GPa) = -0.21382 -47.35840 -23.78611
#
# Velocity S-wave (km/s) = -0.30578 -4.55073 -3.22511
# Velocity P-wave (km/s) = 3.89428 1.38087 2.57474
#
# Compressibility (1/GPa) = 0.02859938
#
# Stress axis : x y z
#
# Youngs Moduli (GPa) = 132.30047 183.56953 43.01507
#
# Poissons Ratio (x) = 0.33660 0.05954
# Poissons Ratio (y) = 0.24259 0.02622
# Poissons Ratio (z) = 0.18311 0.11189
#
# Static dielectric constant tensor:
#      x y z
#    x 1.862200 0.000000 0.000000 
#    y 0.000000 1.811790 0.000000 
#    z 0.000000 0.000000 1.906220 
# 
# From -- ./inp_files/30868.got.cif
#   From: 2010.05.17/outbox.cif.g08.bks.cpg/sg48_16_cif.got.tgz:30868.got - 2010.06.03 20:39:00.
