data_PCOD9390956
_publ_section_title
;
Structure prediction by ZEFSAII (Michael W. Deem and Ramdas Pophale) SiO2 
 PCOD9390956
Probable space group: P N N N
;
_chemical_formula_sum "Si O2"
_cell_formula_units_Z 56
_cell_length_a 14.197398
_cell_length_b 5.626703
_cell_length_c 30.977066
_cell_angle_alpha 90.000000
_cell_angle_beta 90.000000
_cell_angle_gamma 90.000000
_cell_volume 2474.588727
_symmetry_space_group_name_H-M "P N N N"
_symmetry_group_IT_number 48
_space_group.IT_coordinate_system_code '2'
_symmetry_cell_setting 'orthorhombic'
loop_
_space_group_symop_operation_xyz
x,y,z
1/2-x,1/2-y,z
x,1/2-y,1/2-z
1/2-x,y,1/2-z
-x,-y,-z
1/2+x,1/2+y,-z
-x,1/2+y,1/2+z
1/2+x,-y,1/2+z
loop_
_atom_site_type_symbol
_atom_site_label
_atom_site_fract_x
_atom_site_fract_y
_atom_site_fract_z
Si Si1 0.300530 0.502528 0.313383
Si Si2 0.496138 0.493962 0.123275
Si Si3 0.073578 0.895830 0.574429
Si Si4 0.501743 0.360394 0.296607
Si Si5 0.150461 0.132543 0.653569
Si Si6 0.370154 0.884743 0.094510
Si Si7 0.199575 0.993664 0.500104
O O1 0.250000 0.250000 0.301639
O O2 0.407146 0.517274 0.295410
O O3 0.314522 0.510786 0.365213
O O4 0.250000 0.750000 0.301260
O O5 0.549641 0.378762 0.082205
O O6 0.479582 0.316088 0.163209
O O7 0.572195 0.671456 0.143080
O O8 0.400029 0.615432 0.107099
O O9 0.104951 0.988959 0.528416
O O10 0.151269 0.973870 0.609889
O O11 0.974012 0.005928 0.588563
O O12 0.511322 0.250000 0.250000
O O13 0.600232 0.481824 0.309262
O O14 0.250000 0.250000 0.663088
O O15 0.319461 0.942703 0.050043
O O16 0.250000 0.750000 0.516443
O O17 0.250000 0.250000 0.505503
#
# Coordination Sequence:
#
# PCOD9390956 Si02
#       7
#     8   8   8   8   8   8   8
#     4  12  25  45  75 106 145 195 249 299 372 452
#     4  10  21  43  73 100 141 197 242 307 382 453
#     4  10  23  40  70  97 146 188 251 305 375 449
#     4  11  25  47  71 111 151 190 245 320 382 458
#     4  10  22  43  74 108 142 200 248 301 382 459
#     4  11  23  45  68  99 141 199 245 304 376 446
#     4  12  29  43  64 107 148 193 255 320 367 441
#
# _framework density 22.630023000000001
#
# number of rings (size 3 to 8) (size 9 to 14) (size 15 to 20)
#    0.000    1.143    4.286    2.571    8.000    3.143 
#    0.000    4.286    0.000    0.000    0.000    0.000 
#    0.000    0.000    0.000    0.000    0.000    0.000 
#
# Total GULP energy -312643.721184 kJ/mol
# GULP energy per Si atom -5582.923593 kJ/mol
# Density = 2.257852 g / cm^3
# Si number density = 22.630023 Si / 1000 Ang^3
#
#
#
# Elastic Constant Matrix: (Units=GPa)
#
#
# Indices 1 2 3 4 5 6 
#
# 1 79.2660 35.3800 34.0775 0.0000 0.0000 0.0000
# 2 35.3800 109.7696 31.5549 0.0000 0.0000 0.0000
# 3 34.0775 31.5549 103.2285 0.0000 0.0000 0.0000
# 4 0.0000 0.0000 0.0000 12.3140 0.0000 0.0000
# 5 0.0000 0.0000 0.0000 0.0000 16.7556 0.0000
# 6 0.0000 0.0000 0.0000 0.0000 0.0000 37.2703
#
#
#
# Elastic Compliance Matrix: (Units=1/GPa)
#
#
# Indices 1 2 3 4 5 6 
#
# 1 0.016183 -0.004035 -0.004109 0.000000 0.000000 0.000000
# 2 -0.004035 0.010994 -0.002029 0.000000 0.000000 0.000000
# 3 -0.004109 -0.002029 0.011664 0.000000 0.000000 0.000000
# 4 0.000000 0.000000 0.000000 0.081208 0.000000 0.000000
# 5 0.000000 0.000000 0.000000 0.000000 0.059682 0.000000
# 6 0.000000 0.000000 0.000000 0.000000 0.000000 0.026831
#
#
# Mechanical properties :
#
#
# Convention : Reuss Voigt Hill
#
# Bulk Modulus (GPa) = 54.06628 54.92100 54.49364
# Shear Modulus (GPa) = 21.45267 26.01810 23.73539
#
# Velocity S-wave (km/s) = 3.08226 3.39442 3.24210
# Velocity P-wave (km/s) = 6.05065 6.29957 6.17636
#
# Compressibility (1/GPa) = 0.01849582
#
# Stress axis : x y z
#
# Youngs Moduli (GPa) = 61.79256 90.96197 85.73549
#
# Poissons Ratio (x) = 0.36702 0.35228
# Poissons Ratio (y) = 0.24932 0.17392
# Poissons Ratio (z) = 0.25390 0.18452
#
# Static dielectric constant tensor:
#      x y z
#    x 1.851290 0.000000 0.000000 
#    y 0.000000 2.054440 0.000000 
#    z 0.000000 0.000000 1.814590 
# 
# From -- ./inp_files/24533.got.cif
#   From: 2010.05.17/outbox.cif.g08.bks.cpg/sg48_13_cif.got.tgz:24533.got - 2010.06.03 20:39:00.
