data_PCOD9390606
_publ_section_title
;
Structure prediction by ZEFSAII (Michael W. Deem and Ramdas Pophale) SiO2 
 PCOD9390606
Probable space group: P N N N
;
_chemical_formula_sum "Si O2"
_cell_formula_units_Z 48
_cell_length_a 19.374795
_cell_length_b 5.402186
_cell_length_c 17.515080
_cell_angle_alpha 90.000000
_cell_angle_beta 90.000000
_cell_angle_gamma 90.000000
_cell_volume 1833.237677
_symmetry_space_group_name_H-M "P N N N"
_symmetry_group_IT_number 48
_space_group.IT_coordinate_system_code '2'
_symmetry_cell_setting 'orthorhombic'
loop_
_space_group_symop_operation_xyz
x,y,z
1/2-x,1/2-y,z
x,1/2-y,1/2-z
1/2-x,y,1/2-z
-x,-y,-z
1/2+x,1/2+y,-z
-x,1/2+y,1/2+z
1/2+x,-y,1/2+z
loop_
_atom_site_type_symbol
_atom_site_label
_atom_site_fract_x
_atom_site_fract_y
_atom_site_fract_z
Si Si1 0.659952 0.497328 0.204317
Si Si2 0.993959 0.000792 0.797092
Si Si3 0.137268 0.896645 0.950962
Si Si4 0.424149 0.400859 0.515215
Si Si5 0.361106 0.872644 0.371017
Si Si6 0.680059 0.642422 0.625676
O O1 0.678073 0.250000 0.250000
O O2 0.576335 0.484829 0.193487
O O3 0.687547 0.479432 0.117351
O O4 0.674776 0.750000 0.250000
O O5 0.975246 0.750000 0.750000
O O6 0.981445 0.250000 0.750000
O O7 0.943361 0.070532 0.867512
O O8 0.109535 0.619325 0.933542
O O9 0.082740 0.123885 0.954353
O O10 0.161039 0.874724 0.039174
O O11 0.500000 0.500000 0.500000
O O12 0.380463 0.386780 0.437228
O O13 0.326942 0.625770 0.338489
O O14 0.335103 0.113332 0.326357
O O15 0.750000 0.750000 0.587856
#
# Coordination Sequence:
#
# PCOD9390606 Si02
#       6
#     8   8   8   8   8   8
#     4  10  21  34  49  75 116 160 189 230 296 365
#     4  10  21  35  51  76 111 150 191 242 303 356
#     4  10  21  34  53  81 115 146 197 238 291 352
#     4  10  21  32  53  86 113 146 185 246 298 353
#     4  10  21  36  59  82 106 149 200 247 293 357
#     4  10  21  36  55  83 118 149 188 245 303 353
#
# _framework density 26.183185999999999
#
# number of rings (size 3 to 8) (size 9 to 14) (size 15 to 20)
#    0.000    2.000    0.000    3.000    9.333    0.000 
#    0.000    0.000    0.000    7.500    0.000    0.000 
#    0.000  160.000    0.000    0.000    0.000    0.000 
#
# Total GULP energy -267441.385269 kJ/mol
# GULP energy per Si atom -5571.695526 kJ/mol
# Density = 2.612359 g / cm^3
# Si number density = 26.183186 Si / 1000 Ang^3
#
#
#
# Elastic Constant Matrix: (Units=GPa)
#
#
# Indices 1 2 3 4 5 6 
#
# 1 108.3806 32.7676 13.2138 0.0000 0.0000 0.0000
# 2 32.7676 277.6584 50.1961 0.0000 0.0000 0.0000
# 3 13.2138 50.1961 134.1529 0.0000 0.0000 0.0000
# 4 0.0000 0.0000 0.0000 33.8281 0.0000 0.0000
# 5 0.0000 0.0000 0.0000 0.0000 -7.3248 0.0000
# 6 0.0000 0.0000 0.0000 0.0000 0.0000 -215.2091
#
#
#
# Elastic Compliance Matrix: (Units=1/GPa)
#
#
# Indices 1 2 3 4 5 6 
#
# 1 0.009607 -0.001033 -0.000560 0.000000 0.000000 0.000000
# 2 -0.001033 0.003974 -0.001385 0.000000 0.000000 0.000000
# 3 -0.000560 -0.001385 0.008028 0.000000 0.000000 0.000000
# 4 0.000000 0.000000 0.000000 0.029561 0.000000 0.000000
# 5 0.000000 0.000000 0.000000 0.000000 -0.136523 0.000000
# 6 0.000000 0.000000 0.000000 0.000000 0.000000 -0.004647
#
#
# Mechanical properties :
#
#
# Convention : Reuss Voigt Hill
#
# Bulk Modulus (GPa) = 63.88436 79.17190 71.52813
# Shear Modulus (GPa) = -63.43054 -9.47354 -36.45204
#
# Velocity S-wave (km/s) = -4.92730 -1.90421 -3.73526
# Velocity P-wave (km/s) = 2.81408 5.04664 2.96223
#
# Compressibility (1/GPa) = 0.01565328
#
# Stress axis : x y z
#
# Youngs Moduli (GPa) = 104.08872 251.64691 124.56978
#
# Poissons Ratio (x) = 0.25984 0.06975
# Poissons Ratio (y) = 0.10748 0.17255
# Poissons Ratio (z) = 0.05828 0.34858
#
# Static dielectric constant tensor:
#      x y z
#    x 2.232970 0.000000 0.000000 
#    y 0.000000 2.173710 0.000000 
#    z 0.000000 0.000000 2.167300 
# 
# From -- ./inp_files/34781.got.cif
#   From: 2010.05.17/outbox.cif.g08.bks.cpg/sg48_18_cif.got.tgz:34781.got - 2010.06.03 20:39:00.
