data_PCOD9390368
_publ_section_title
;
Structure prediction by ZEFSAII (Michael W. Deem and Ramdas Pophale) SiO2 
 PCOD9390368
Probable space group: P N N N
;
_chemical_formula_sum "Si O2"
_cell_formula_units_Z 40
_cell_length_a 13.165893
_cell_length_b 8.634456
_cell_length_c 16.091171
_cell_angle_alpha 90.000000
_cell_angle_beta 90.000000
_cell_angle_gamma 90.000000
_cell_volume 1829.249530
_symmetry_space_group_name_H-M "P N N N"
_symmetry_group_IT_number 48
_space_group.IT_coordinate_system_code '2'
_symmetry_cell_setting 'orthorhombic'
loop_
_space_group_symop_operation_xyz
x,y,z
1/2-x,1/2-y,z
x,1/2-y,1/2-z
1/2-x,y,1/2-z
-x,-y,-z
1/2+x,1/2+y,-z
-x,1/2+y,1/2+z
1/2+x,-y,1/2+z
loop_
_atom_site_type_symbol
_atom_site_label
_atom_site_fract_x
_atom_site_fract_y
_atom_site_fract_z
Si Si1 0.882028 0.144106 0.831338
Si Si2 0.267916 0.068026 0.923081
Si Si3 0.322466 0.953038 0.106484
Si Si4 0.475440 0.926055 0.908235
Si Si5 0.454043 0.558904 0.912134
O O1 0.889515 0.250000 0.750000
O O2 0.777314 0.050416 0.837430
O O3 0.862748 0.275452 0.902981
O O4 0.976958 0.035644 0.847162
O O5 0.250000 0.250000 0.912098
O O6 0.371074 0.007134 0.879687
O O7 0.163469 0.984132 0.900552
O O8 0.287690 0.028185 0.020128
O O9 0.421299 0.038744 0.141291
O O10 0.463964 0.742903 0.909962
O O11 0.500000 0.000000 0.000000
O O12 0.500000 0.500000 0.000000
#
# Coordination Sequence:
#
# PCOD9390368 Si02
#       5
#     8   8   8   8   8
#     4  11  24  40  63  88 127 183 226 274 348 432
#     4  11  21  35  61  99 132 165 222 294 355 404
#     4  10  20  37  59  84 130 166 226 271 342 410
#     4  10  22  33  57  96 132 169 218 286 350 407
#     4  12  21  37  63  92 130 174 225 287 351 410
#
# _framework density 21.866890999999999
#
# number of rings (size 3 to 8) (size 9 to 14) (size 15 to 20)
#    0.000    1.200    2.000    7.800    5.600    0.000 
#    0.000    1.000    4.400    6.600    0.000    5.600 
#    0.000    0.000    0.000    0.000    0.000    0.000 
#
# Total GULP energy -223403.925780 kJ/mol
# GULP energy per Si atom -5585.098144 kJ/mol
# Density = 2.181712 g / cm^3
# Si number density = 21.866891 Si / 1000 Ang^3
#
#
#
# Elastic Constant Matrix: (Units=GPa)
#
#
# Indices 1 2 3 4 5 6 
#
# 1 261.9627 106.4670 37.3232 0.0000 0.0000 0.0000
# 2 106.4670 176.4296 12.0486 0.0000 0.0000 0.0000
# 3 37.3232 12.0486 37.9078 0.0000 0.0000 0.0000
# 4 0.0000 0.0000 0.0000 32.5023 0.0000 0.0000
# 5 0.0000 0.0000 0.0000 0.0000 14.8702 0.0000
# 6 0.0000 0.0000 0.0000 0.0000 0.0000 50.4240
#
#
#
# Elastic Compliance Matrix: (Units=1/GPa)
#
#
# Indices 1 2 3 4 5 6 
#
# 1 0.005768 -0.003162 -0.004674 0.000000 0.000000 0.000000
# 2 -0.003162 0.007527 0.000721 0.000000 0.000000 0.000000
# 3 -0.004674 0.000721 0.030753 0.000000 0.000000 0.000000
# 4 0.000000 0.000000 0.000000 0.030767 0.000000 0.000000
# 5 0.000000 0.000000 0.000000 0.000000 0.067249 0.000000
# 6 0.000000 0.000000 0.000000 0.000000 0.000000 0.019832
#
#
# Mechanical properties :
#
#
# Convention : Reuss Voigt Hill
#
# Bulk Modulus (GPa) = 33.53778 87.55306 60.54542
# Shear Modulus (GPa) = 26.87226 40.92341 33.89784
#
# Velocity S-wave (km/s) = 3.50937 4.33075 3.94152
# Velocity P-wave (km/s) = 5.63839 8.07052 6.96149
#
# Compressibility (1/GPa) = 0.02981712
#
# Stress axis : x y z
#
# Youngs Moduli (GPa) = 173.36139 132.86053 32.51709
#
# Poissons Ratio (x) = 0.42006 0.15200
# Poissons Ratio (y) = 0.54811 -0.02343
# Poissons Ratio (z) = 0.81037 -0.09574
#
# Static dielectric constant tensor:
#      x y z
#    x 1.843590 0.000000 0.000000 
#    y 0.000000 1.805700 0.000000 
#    z 0.000000 0.000000 1.927130 
# 
# From -- ./inp_files/18645.got.cif
#   From: 2010.05.17/outbox.cif.g08.bks.cpg/sg48_10_cif.got.tgz:18645.got - 2010.06.03 20:39:00.
