data_PCOD9390502
_publ_section_title
;
Structure prediction by ZEFSAII (Michael W. Deem and Ramdas Pophale) SiO2 
 PCOD9390502
Probable space group: P N N N
;
_chemical_formula_sum "Si O2"
_cell_formula_units_Z 64
_cell_length_a 14.270653
_cell_length_b 19.389345
_cell_length_c 11.213391
_cell_angle_alpha 90.000000
_cell_angle_beta 90.000000
_cell_angle_gamma 90.000000
_cell_volume 3102.729752
_symmetry_space_group_name_H-M "P N N N"
_symmetry_group_IT_number 48
_space_group.IT_coordinate_system_code '2'
_symmetry_cell_setting 'orthorhombic'
loop_
_space_group_symop_operation_xyz
x,y,z
1/2-x,1/2-y,z
x,1/2-y,1/2-z
1/2-x,y,1/2-z
-x,-y,-z
1/2+x,1/2+y,-z
-x,1/2+y,1/2+z
1/2+x,-y,1/2+z
loop_
_atom_site_type_symbol
_atom_site_label
_atom_site_fract_x
_atom_site_fract_y
_atom_site_fract_z
Si Si1 0.761093 0.332567 0.615197
Si Si2 0.952966 0.910340 0.380592
Si Si3 0.141944 0.538765 0.767267
Si Si4 0.043658 0.225217 0.122398
Si Si5 0.563595 0.421472 0.860812
Si Si6 0.142800 0.228326 0.621657
Si Si7 0.091839 0.847071 0.564318
Si Si8 0.976740 0.566352 0.600907
O O1 0.750000 0.250000 0.618999
O O2 0.750000 0.358939 0.750000
O O3 0.860626 0.367736 0.586802
O O4 0.677590 0.351107 0.527636
O O5 0.871682 0.853471 0.378822
O O6 0.023631 0.900093 0.267762
O O7 0.009451 0.891478 0.500423
O O8 0.907233 0.984385 0.357113
O O9 0.250000 0.520953 0.750000
O O10 0.130494 0.614442 0.821248
O O11 0.078400 0.542310 0.649796
O O12 0.083926 0.250000 0.250000
O O13 0.949501 0.271704 0.097869
O O14 0.038446 0.143562 0.144163
O O15 0.098368 0.240150 0.998594
O O16 0.590939 0.503387 0.858514
O O17 0.481949 0.423709 0.959384
O O18 0.250000 0.250000 0.623107
O O19 0.098636 0.250000 0.750000
#
# Coordination Sequence:
#
# PCOD9390502 Si02
#       8
#     8   8   8   8   8   8   8   8
#     4  11  22  37  61  94 130 158 214 267 323 382
#     4  10  22  40  64  89 125 169 212 267 331 384
#     4  11  23  38  62  90 128 168 214 264 324 393
#     4  11  22  42  69  92 135 176 218 266 339 397
#     4  10  20  39  63  91 127 167 212 263 324 390
#     4  10  23  41  65  97 127 161 226 277 325 388
#     4  11  22  41  63  93 126 174 213 265 325 395
#     4  10  21  39  62  91 126 169 211 259 323 397
#
# _framework density 20.626999000000001
#
# number of rings (size 3 to 8) (size 9 to 14) (size 15 to 20)
#    0.000    1.500    2.500    2.625    1.750    1.250 
#    2.250    0.625    0.000    0.000    0.000    0.000 
#    0.000    0.000    0.000    0.000    0.000    0.000 
#
# Total GULP energy -356345.501660 kJ/mol
# GULP energy per Si atom -5567.898463 kJ/mol
# Density = 2.058005 g / cm^3
# Si number density = 20.626999 Si / 1000 Ang^3
#
#
#
# Elastic Constant Matrix: (Units=GPa)
#
#
# Indices 1 2 3 4 5 6 
#
# 1 67.2525 38.7207 11.4283 0.0000 0.0000 0.0000
# 2 38.7207 131.8251 10.4781 0.0000 0.0000 0.0000
# 3 11.4283 10.4781 84.4262 0.0000 0.0000 0.0000
# 4 0.0000 0.0000 0.0000 114.2263 0.0000 0.0000
# 5 0.0000 0.0000 0.0000 0.0000 22.9719 0.0000
# 6 0.0000 0.0000 0.0000 0.0000 0.0000 25.4008
#
#
#
# Elastic Compliance Matrix: (Units=1/GPa)
#
#
# Indices 1 2 3 4 5 6 
#
# 1 0.018167 -0.005192 -0.001815 0.000000 0.000000 0.000000
# 2 -0.005192 0.009145 -0.000432 0.000000 0.000000 0.000000
# 3 -0.001815 -0.000432 0.012144 0.000000 0.000000 0.000000
# 4 0.000000 0.000000 0.000000 0.008755 0.000000 0.000000
# 5 0.000000 0.000000 0.000000 0.000000 0.043531 0.000000
# 6 0.000000 0.000000 0.000000 0.000000 0.000000 0.039369
#
#
# Mechanical properties :
#
#
# Convention : Reuss Voigt Hill
#
# Bulk Modulus (GPa) = 40.68630 44.97312 42.82971
# Shear Modulus (GPa) = 32.42935 47.37826 39.90380
#
# Velocity S-wave (km/s) = 3.96937 4.79780 4.40311
# Velocity P-wave (km/s) = 6.38557 7.24860 6.83073
#
# Compressibility (1/GPa) = 0.02457830
#
# Stress axis : x y z
#
# Youngs Moduli (GPa) = 55.04501 109.34739 82.34544
#
# Poissons Ratio (x) = 0.56772 0.14944
# Poissons Ratio (y) = 0.28579 0.03559
# Poissons Ratio (z) = 0.09990 0.04726
#
# Static dielectric constant tensor:
#      x y z
#    x 1.766510 0.000000 0.000000 
#    y 0.000000 1.894260 0.000000 
#    z 0.000000 0.000000 1.796180 
# 
# From -- ./inp_files/21576.got.cif
#   From: 2010.05.17/outbox.cif.g08.bks.cpg/sg48_11_cif.got.tgz:21576.got - 2010.06.03 20:39:00.
