data_PCOD9390535
_publ_section_title
;
Structure prediction by ZEFSAII (Michael W. Deem and Ramdas Pophale) SiO2 
 PCOD9390535
Probable space group: P N N N
;
_chemical_formula_sum "Si O2"
_cell_formula_units_Z 46
_cell_length_a 12.301238
_cell_length_b 17.469879
_cell_length_c 10.439854
_cell_angle_alpha 90.000000
_cell_angle_beta 90.000000
_cell_angle_gamma 90.000000
_cell_volume 2243.536520
_symmetry_space_group_name_H-M "P N N N"
_symmetry_group_IT_number 48
_space_group.IT_coordinate_system_code '2'
_symmetry_cell_setting 'orthorhombic'
loop_
_space_group_symop_operation_xyz
x,y,z
1/2-x,1/2-y,z
x,1/2-y,1/2-z
1/2-x,y,1/2-z
-x,-y,-z
1/2+x,1/2+y,-z
-x,1/2+y,1/2+z
1/2+x,-y,1/2+z
loop_
_atom_site_type_symbol
_atom_site_label
_atom_site_fract_x
_atom_site_fract_y
_atom_site_fract_z
Si Si1 0.725607 0.097390 0.001297
Si Si2 0.750000 0.505204 0.250000
Si Si3 0.136672 0.120426 0.903540
Si Si4 0.980490 0.155850 0.380255
Si Si5 0.250000 0.250000 0.750000
Si Si6 0.552311 0.331462 0.080631
Si Si7 0.300792 0.061197 0.115841
O O1 0.613224 0.140742 0.016368
O O2 0.829298 0.153832 0.015903
O O3 0.729125 0.046841 0.129643
O O4 0.715110 0.030853 0.895233
O O5 0.647868 0.558501 0.210569
O O6 0.171704 0.199131 0.838360
O O7 0.230804 0.097553 0.002341
O O8 0.028534 0.122094 0.987787
O O9 0.079426 0.096928 0.396586
O O10 0.942304 0.145343 0.231294
O O11 0.999266 0.246296 0.405303
O O12 0.250000 0.086994 0.250000
#
# Coordination Sequence:
#
# PCOD9390535 Si02
#       7
#     8   4   8   8   2   8   8
#     4  11  22  40  62  90 127 166 217 259 316 388
#     4   9  20  35  59  84 117 156 200 256 305 372
#     4  10  21  38  60  90 123 161 208 264 318 387
#     4  11  22  39  61  94 126 168 210 267 322 390
#     4  10  20  40  62  92 128 168 218 262 338 394
#     4  11  22  38  65  92 124 166 212 268 322 388
#     4  11  23  40  62  94 129 168 213 269 327 382
#
# _framework density 20.503342
#
# number of rings (size 3 to 8) (size 9 to 14) (size 15 to 20)
#    0.000    1.391    3.478    2.087    0.000    5.565 
#    0.000    3.478    0.000    1.043    0.000    0.000 
#    0.000    0.000    0.000    0.000    0.000    0.000 
#
# Total GULP energy -256236.702574 kJ/mol
# GULP energy per Si atom -5570.363099 kJ/mol
# Density = 2.045668 g / cm^3
# Si number density = 20.503342 Si / 1000 Ang^3
#
#
#
# Elastic Constant Matrix: (Units=GPa)
#
#
# Indices 1 2 3 4 5 6 
#
# 1 88.7693 -7.4670 8.5857 0.0000 0.0000 0.0000
# 2 -7.4670 44.3269 12.0981 0.0000 0.0000 0.0000
# 3 8.5857 12.0981 50.8482 0.0000 0.0000 0.0000
# 4 0.0000 0.0000 0.0000 27.5545 0.0000 0.0000
# 5 0.0000 0.0000 0.0000 0.0000 20.0547 0.0000
# 6 0.0000 0.0000 0.0000 0.0000 0.0000 5.4532
#
#
#
# Elastic Compliance Matrix: (Units=1/GPa)
#
#
# Indices 1 2 3 4 5 6 
#
# 1 0.011746 0.002695 -0.002624 0.000000 0.000000 0.000000
# 2 0.002695 0.024745 -0.006342 0.000000 0.000000 0.000000
# 3 -0.002624 -0.006342 0.021619 0.000000 0.000000 0.000000
# 4 0.000000 0.000000 0.000000 0.036292 0.000000 0.000000
# 5 0.000000 0.000000 0.000000 0.000000 0.049864 0.000000
# 6 0.000000 0.000000 0.000000 0.000000 0.000000 0.183379
#
#
# Mechanical properties :
#
#
# Convention : Reuss Voigt Hill
#
# Bulk Modulus (GPa) = 21.94671 23.37534 22.66102
# Shear Modulus (GPa) = 14.06964 21.99432 18.03198
#
# Velocity S-wave (km/s) = 2.62241 3.27879 2.96880
# Velocity P-wave (km/s) = 4.46056 5.07538 4.77787
#
# Compressibility (1/GPa) = 0.04556491
#
# Stress axis : x y z
#
# Youngs Moduli (GPa) = 85.13768 40.41275 46.25662
#
# Poissons Ratio (x) = -0.10891 0.12140
# Poissons Ratio (y) = -0.22944 0.29338
# Poissons Ratio (z) = 0.22344 0.25631
#
# Static dielectric constant tensor:
#      x y z
#    x 1.778880 0.000000 0.000000 
#    y 0.000000 1.824830 0.000000 
#    z 0.000000 0.000000 1.737220 
# 
# From -- ./inp_files/20114.got.cif
#   From: 2010.05.17/outbox.cif.g08.bks.cpg/sg48_11_cif.got.tgz:20114.got - 2010.06.03 20:39:00.
