data_PCOD9390065
_publ_section_title
;
Structure prediction by ZEFSAII (Michael W. Deem and Ramdas Pophale) SiO2 
 PCOD9390065
Probable space group: P N N N
;
_chemical_formula_sum "Si O2"
_cell_formula_units_Z 48
_cell_length_a 13.923386
_cell_length_b 24.349792
_cell_length_c 6.712656
_cell_angle_alpha 90.000000
_cell_angle_beta 90.000000
_cell_angle_gamma 90.000000
_cell_volume 2275.802189
_symmetry_space_group_name_H-M "P N N N"
_symmetry_group_IT_number 48
_space_group.IT_coordinate_system_code '2'
_symmetry_cell_setting 'orthorhombic'
loop_
_space_group_symop_operation_xyz
x,y,z
1/2-x,1/2-y,z
x,1/2-y,1/2-z
1/2-x,y,1/2-z
-x,-y,-z
1/2+x,1/2+y,-z
-x,1/2+y,1/2+z
1/2+x,-y,1/2+z
loop_
_atom_site_type_symbol
_atom_site_label
_atom_site_fract_x
_atom_site_fract_y
_atom_site_fract_z
Si Si1 0.997414 0.397093 0.952322
Si Si2 0.597259 0.943020 0.690519
Si Si3 0.643815 0.151749 0.291874
Si Si4 0.250000 0.150595 0.250000
Si Si5 0.098809 0.557443 0.433723
Si Si6 0.984529 0.250000 0.250000
Si Si7 0.126999 0.295733 0.919839
O O1 0.070730 0.351877 0.858631
O O2 0.937011 0.424417 0.780767
O O3 0.061799 0.439804 0.080182
O O4 0.919529 0.371224 0.106265
O O5 0.663740 0.889324 0.677847
O O6 0.498650 0.942699 0.565819
O O7 0.645808 0.997942 0.603256
O O8 0.750000 0.172231 0.250000
O O9 0.658440 0.103734 0.453857
O O10 0.579836 0.203443 0.353203
O O11 0.216569 0.185517 0.441802
O O12 0.053102 0.228176 0.420477
O O13 0.142553 0.250000 0.750000
#
# Coordination Sequence:
#
# PCOD9390065 Si02
#       7
#     8   8   8   4   8   4   8
#     4   9  19  36  59  83 113 153 196 241 293 353
#     4   9  20  37  58  84 117 156 194 240 296 353
#     4  10  21  35  56  87 116 149 195 244 296 353
#     4  10  22  41  60  92 126 150 199 260 304 350
#     4  10  19  37  60  82 116 158 196 235 293 361
#     4  10  21  41  60  80 118 158 196 247 301 354
#     4  10  21  40  62  84 114 157 201 245 303 362
#
# _framework density 21.091463999999998
#
# number of rings (size 3 to 8) (size 9 to 14) (size 15 to 20)
#    0.000    2.333    0.000    2.750    0.000    2.333 
#    0.000   15.000    0.000    3.000    0.000    0.000 
#    0.000    0.000    0.000    0.000    0.000    0.000 
#
# Total GULP energy -267582.515452 kJ/mol
# GULP energy per Si atom -5574.635739 kJ/mol
# Density = 2.104346 g / cm^3
# Si number density = 21.091464 Si / 1000 Ang^3
#
#
#
# Elastic Constant Matrix: (Units=GPa)
#
#
# Indices 1 2 3 4 5 6 
#
# 1 60.8889 20.2738 16.0095 0.0000 0.0000 0.0000
# 2 20.2738 95.9280 39.7952 0.0000 0.0000 0.0000
# 3 16.0095 39.7952 68.1062 0.0000 0.0000 0.0000
# 4 0.0000 0.0000 0.0000 -51.2023 0.0000 0.0000
# 5 0.0000 0.0000 0.0000 0.0000 9.2039 0.0000
# 6 0.0000 0.0000 0.0000 0.0000 0.0000 -42.8128
#
#
#
# Elastic Compliance Matrix: (Units=1/GPa)
#
#
# Indices 1 2 3 4 5 6 
#
# 1 0.018023 -0.002708 -0.002654 0.000000 0.000000 0.000000
# 2 -0.002708 0.014167 -0.007641 0.000000 0.000000 0.000000
# 3 -0.002654 -0.007641 0.019772 0.000000 0.000000 0.000000
# 4 0.000000 0.000000 0.000000 -0.019530 0.000000 0.000000
# 5 0.000000 0.000000 0.000000 0.000000 0.108649 0.000000
# 6 0.000000 0.000000 0.000000 0.000000 0.000000 -0.023357
#
#
# Mechanical properties :
#
#
# Convention : Reuss Voigt Hill
#
# Bulk Modulus (GPa) = 38.52904 41.89778 40.21341
# Shear Modulus (GPa) = 32.81252 -7.03926 12.88663
#
# Velocity S-wave (km/s) = 3.94855 -1.82886 2.47450
# Velocity P-wave (km/s) = 6.25262 3.93043 5.22224
#
# Compressibility (1/GPa) = 0.02595445
#
# Stress axis : x y z
#
# Youngs Moduli (GPa) = 55.48499 70.58802 50.57725
#
# Poissons Ratio (x) = 0.19115 0.13425
# Poissons Ratio (y) = 0.15025 0.38647
# Poissons Ratio (z) = 0.14727 0.53938
#
# Static dielectric constant tensor:
#      x y z
#    x 1.751600 0.000000 0.000000 
#    y 0.000000 3.559550 0.000000 
#    z 0.000000 0.000000 1.739290 
# 
# From -- ./inp_files/3567.got.cif
#   From: 2010.05.17/outbox.cif.g08.bks.cpg/sg48_2_cif.got.tgz:3567.got - 2010.06.03 20:39:00.
