data_PCOD9390823
_publ_section_title
;
Structure prediction by ZEFSAII (Michael W. Deem and Ramdas Pophale) SiO2 
 PCOD9390823
Probable space group: P N N N
;
_chemical_formula_sum "Si O2"
_cell_formula_units_Z 34
_cell_length_a 7.596062
_cell_length_b 5.851922
_cell_length_c 32.666087
_cell_angle_alpha 90.000000
_cell_angle_beta 90.000000
_cell_angle_gamma 90.000000
_cell_volume 1452.058602
_symmetry_space_group_name_H-M "P N N N"
_symmetry_group_IT_number 48
_space_group.IT_coordinate_system_code '2'
_symmetry_cell_setting 'orthorhombic'
loop_
_space_group_symop_operation_xyz
x,y,z
1/2-x,1/2-y,z
x,1/2-y,1/2-z
1/2-x,y,1/2-z
-x,-y,-z
1/2+x,1/2+y,-z
-x,1/2+y,1/2+z
1/2+x,-y,1/2+z
loop_
_atom_site_type_symbol
_atom_site_label
_atom_site_fract_x
_atom_site_fract_y
_atom_site_fract_z
Si Si1 0.750000 0.750000 0.510182
Si Si2 0.086169 0.890291 0.946853
Si Si3 0.998868 0.398878 0.790592
Si Si4 0.936659 0.616052 0.367508
Si Si5 0.750000 0.250000 0.321893
Si Si6 0.750000 0.750000 0.750000
O O1 0.571771 0.728240 0.537185
O O2 0.813254 0.537825 0.481931
O O3 0.250000 0.750000 0.928205
O O4 0.002820 0.064628 0.913568
O O5 0.006134 0.250000 0.750000
O O6 0.965355 0.259894 0.832412
O O7 0.178394 0.538395 0.796579
O O8 0.858623 0.589364 0.779864
O O9 0.750000 0.750000 0.372273
O O10 0.902881 0.365056 0.348456
#
# Coordination Sequence:
#
# PCOD9390823 Si02
#       6
#     4   8   8   8   4   2
#     4  10  24  40  71 108 141 191 240 292 362 443
#     4  11  21  43  71 105 146 188 237 298 363 428
#     4  11  25  43  68  97 132 182 235 286 355 427
#     4  10  21  39  69  98 133 182 233 288 347 431
#     4  10  22  41  68  96 128 176 226 284 346 410
#     4  12  26  46  62  90 144 182 226 304 356 406
#
# _framework density 23.415033999999999
#
# number of rings (size 3 to 8) (size 9 to 14) (size 15 to 20)
#    0.000    1.412    2.353    2.471    0.000   11.294 
#    0.000    7.059   10.353    0.000    0.000    0.000 
#    0.000    0.000    0.000    0.000    0.000    0.000 
#
# Total GULP energy -189780.523547 kJ/mol
# GULP energy per Si atom -5581.780104 kJ/mol
# Density = 2.336174 g / cm^3
# Si number density = 23.415034 Si / 1000 Ang^3
#
#
#
# Elastic Constant Matrix: (Units=GPa)
#
#
# Indices 1 2 3 4 5 6 
#
# 1 97.9200 30.8190 56.2177 0.0000 0.0000 0.0000
# 2 30.8190 90.0251 48.2877 0.0000 0.0000 0.0000
# 3 56.2177 48.2877 136.4372 0.0000 0.0000 0.0000
# 4 0.0000 0.0000 0.0000 16.7511 0.0000 0.0000
# 5 0.0000 0.0000 0.0000 0.0000 -47.7260 0.0000
# 6 0.0000 0.0000 0.0000 0.0000 0.0000-1184.5035
#
#
#
# Elastic Compliance Matrix: (Units=1/GPa)
#
#
# Indices 1 2 3 4 5 6 
#
# 1 0.013676 -0.002048 -0.004910 0.000000 0.000000 0.000000
# 2 -0.002048 0.014018 -0.004117 0.000000 0.000000 0.000000
# 3 -0.004910 -0.004117 0.010810 0.000000 0.000000 0.000000
# 4 0.000000 0.000000 0.000000 0.059698 0.000000 0.000000
# 5 0.000000 0.000000 0.000000 0.000000 -0.020953 0.000000
# 6 0.000000 0.000000 0.000000 0.000000 0.000000 -0.000844
#
#
# Mechanical properties :
#
#
# Convention : Reuss Voigt Hill
#
# Bulk Modulus (GPa) = 61.15328 66.11456 63.63392
# Shear Modulus (GPa) = 48.07439 -230.49181 -91.20871
#
# Velocity S-wave (km/s) = 4.53608 -9.93233 -6.24801
# Velocity P-wave (km/s) = 7.32178 10.16060 4.98143
#
# Compressibility (1/GPa) = 0.01635235
#
# Stress axis : x y z
#
# Youngs Moduli (GPa) = 73.12033 71.33930 92.50910
#
# Poissons Ratio (x) = 0.14611 0.45424
# Poissons Ratio (y) = 0.14976 0.38088
# Poissons Ratio (z) = 0.35904 0.29372
#
# Static dielectric constant tensor:
#      x y z
#    x 2.076000 0.000000 0.000000 
#    y 0.000000 1.727700 0.000000 
#    z 0.000000 0.000000 -0.566320 
# 
# From -- ./inp_files/7664.got.cif
#   From: 2010.05.17/outbox.cif.g08.bks.cpg/sg48_4_cif.got.tgz:7664.got - 2010.06.03 20:39:00.
