data_PCOD9390456
_publ_section_title
;
Structure prediction by ZEFSAII (Michael W. Deem and Ramdas Pophale) SiO2 
 PCOD9390456
Probable space group: P N N N
;
_chemical_formula_sum "Si O2"
_cell_formula_units_Z 64
_cell_length_a 13.431741
_cell_length_b 17.646748
_cell_length_c 13.664077
_cell_angle_alpha 90.000000
_cell_angle_beta 90.000000
_cell_angle_gamma 90.000000
_cell_volume 3238.749012
_symmetry_space_group_name_H-M "P N N N"
_symmetry_group_IT_number 48
_space_group.IT_coordinate_system_code '2'
_symmetry_cell_setting 'orthorhombic'
loop_
_space_group_symop_operation_xyz
x,y,z
1/2-x,1/2-y,z
x,1/2-y,1/2-z
1/2-x,y,1/2-z
-x,-y,-z
1/2+x,1/2+y,-z
-x,1/2+y,1/2+z
1/2+x,-y,1/2+z
loop_
_atom_site_type_symbol
_atom_site_label
_atom_site_fract_x
_atom_site_fract_y
_atom_site_fract_z
Si Si1 0.385117 0.297114 0.049014
Si Si2 0.346564 0.799256 0.030179
Si Si3 0.901402 0.053559 0.819256
Si Si4 0.968830 0.893969 0.790662
Si Si5 0.311565 0.535804 0.398070
Si Si6 0.016014 0.290092 0.647316
Si Si7 0.644198 0.176816 0.197296
Si Si8 0.170167 0.364525 0.110911
O O1 0.466833 0.339439 0.115196
O O2 0.282185 0.334552 0.088918
O O3 0.390312 0.207100 0.069438
O O4 0.398682 0.306939 0.932948
O O5 0.250000 0.750000 0.063959
O O6 0.345766 0.889392 0.047292
O O7 0.438402 0.763127 0.088311
O O8 0.346620 0.797554 0.913480
O O9 0.856401 0.046742 0.710320
O O10 0.807505 0.044124 0.890621
O O11 0.959080 0.131489 0.831055
O O12 0.966211 0.978720 0.830826
O O13 0.872054 0.874780 0.721885
O O14 0.063448 0.886602 0.719987
O O15 0.338103 0.450194 0.431137
O O16 0.044346 0.250000 0.750000
O O17 0.599980 0.250000 0.250000
O O18 0.750000 0.160772 0.250000
#
# Coordination Sequence:
#
# PCOD9390456 Si02
#       8
#     8   8   8   8   8   8   8   8
#     4  11  23  39  68  94 125 173 216 270 334 386
#     4  12  22  38  66  88 126 179 213 268 331 401
#     4  10  21  38  62  96 130 162 213 281 327 381
#     4  11  21  40  68  98 130 165 209 277 345 397
#     4  10  20  38  63  96 127 159 218 277 329 389
#     4  12  25  42  61  93 133 179 232 268 320 401
#     4  11  23  41  61  95 136 166 209 266 344 417
#     4  10  21  42  64  98 129 161 218 278 332 392
#
# _framework density 19.760715999999999
#
# number of rings (size 3 to 8) (size 9 to 14) (size 15 to 20)
#    0.000    1.125    5.000    3.000    0.000    1.750 
#    4.500    3.125    0.000    0.000    0.000    0.000 
#    0.000    0.000    0.000    0.000    0.000    0.000 
#
# Total GULP energy -356688.147425 kJ/mol
# GULP energy per Si atom -5573.252304 kJ/mol
# Density = 1.971574 g / cm^3
# Si number density = 19.760716 Si / 1000 Ang^3
#
#
#
# Elastic Constant Matrix: (Units=GPa)
#
#
# Indices 1 2 3 4 5 6 
#
# 1 35.0761 20.0404 24.5493 0.0000 0.0000 0.0000
# 2 20.0404 166.5079 30.9390 0.0000 0.0000 0.0000
# 3 24.5493 30.9390 93.7101 0.0000 0.0000 0.0000
# 4 0.0000 0.0000 0.0000 13.0178 0.0000 0.0000
# 5 0.0000 0.0000 0.0000 0.0000 12.2635 0.0000
# 6 0.0000 0.0000 0.0000 0.0000 0.0000 15.4818
#
#
#
# Elastic Compliance Matrix: (Units=1/GPa)
#
#
# Indices 1 2 3 4 5 6 
#
# 1 0.036058 -0.002754 -0.008537 0.000000 0.000000 0.000000
# 2 -0.002754 0.006609 -0.001460 0.000000 0.000000 0.000000
# 3 -0.008537 -0.001460 0.013390 0.000000 0.000000 0.000000
# 4 0.000000 0.000000 0.000000 0.076818 0.000000 0.000000
# 5 0.000000 0.000000 0.000000 0.000000 0.081543 0.000000
# 6 0.000000 0.000000 0.000000 0.000000 0.000000 0.064592
#
#
# Mechanical properties :
#
#
# Convention : Reuss Voigt Hill
#
# Bulk Modulus (GPa) = 32.72898 49.59460 41.16179
# Shear Modulus (GPa) = 15.88842 22.80366 19.34604
#
# Velocity S-wave (km/s) = 2.83864 3.40073 3.13232
# Velocity P-wave (km/s) = 5.22900 6.36961 5.82728
#
# Compressibility (1/GPa) = 0.03055396
#
# Stress axis : x y z
#
# Youngs Moduli (GPa) = 27.73346 151.32016 74.68357
#
# Poissons Ratio (x) = 0.41666 0.63757
# Poissons Ratio (y) = 0.07636 0.10908
# Poissons Ratio (z) = 0.23676 0.22100
#
# Static dielectric constant tensor:
#      x y z
#    x 1.751420 0.000000 0.000000 
#    y 0.000000 1.709530 0.000000 
#    z 0.000000 0.000000 1.715320 
# 
# From -- ./inp_files/21558.got.cif
#   From: 2010.05.17/outbox.cif.g08.bks.cpg/sg48_11_cif.got.tgz:21558.got - 2010.06.03 20:39:00.
