data_PCOD9390609
_publ_section_title
;
Structure prediction by ZEFSAII (Michael W. Deem and Ramdas Pophale) SiO2 
 PCOD9390609
Probable space group: P N N N
;
_chemical_formula_sum "Si O2"
_cell_formula_units_Z 38
_cell_length_a 5.579131
_cell_length_b 11.437183
_cell_length_c 32.160657
_cell_angle_alpha 90.000000
_cell_angle_beta 90.000000
_cell_angle_gamma 90.000000
_cell_volume 2052.156801
_symmetry_space_group_name_H-M "P N N N"
_symmetry_group_IT_number 48
_space_group.IT_coordinate_system_code '2'
_symmetry_cell_setting 'orthorhombic'
loop_
_space_group_symop_operation_xyz
x,y,z
1/2-x,1/2-y,z
x,1/2-y,1/2-z
1/2-x,y,1/2-z
-x,-y,-z
1/2+x,1/2+y,-z
-x,1/2+y,1/2+z
1/2+x,-y,1/2+z
loop_
_atom_site_type_symbol
_atom_site_label
_atom_site_fract_x
_atom_site_fract_y
_atom_site_fract_z
Si Si1 0.250000 0.250000 0.920026
Si Si2 0.492781 0.183855 0.330391
Si Si3 0.763247 0.114041 0.036536
Si Si4 0.123950 0.924887 0.449963
Si Si5 0.250000 0.250000 0.250000
Si Si6 0.007973 0.972946 0.109764
O O1 0.441716 0.183670 0.949038
O O2 0.145013 0.145086 0.892302
O O3 0.750000 0.250000 0.336162
O O4 0.421036 0.179461 0.281636
O O5 0.250000 0.250000 0.348249
O O6 0.509309 0.056943 0.351130
O O7 0.750000 0.250000 0.045777
O O8 0.511872 0.046207 0.042098
O O9 0.930857 0.052881 0.070216
O O10 0.810191 0.096695 0.987418
O O11 0.230041 0.931649 0.403883
#
# Coordination Sequence:
#
# PCOD9390609 Si02
#       6
#     4   8   8   8   2   8
#     4  10  22  36  54  75 117 160 218 259 305 366
#     4  10  23  40  66  99 130 156 195 251 319 385
#     4  10  21  33  53  75 112 153 209 264 317 358
#     4  10  22  37  49  77 110 162 210 262 308 362
#     4   8  22  40  70  94 136 152 182 244 320 394
#     4  11  22  35  58  82 117 158 205 256 308 367
#
# _framework density 18.517102999999999
#
# number of rings (size 3 to 8) (size 9 to 14) (size 15 to 20)
#    0.632    1.263    0.000    3.474    8.842    3.368 
#    0.000    0.000    0.000    0.000    0.000   20.632 
#    0.000    0.000    0.000    0.000    0.000    0.000 
#
# Total GULP energy -211582.592927 kJ/mol
# GULP energy per Si atom -5567.962972 kJ/mol
# Density = 1.847496 g / cm^3
# Si number density = 18.517103 Si / 1000 Ang^3
#
#
#
# Elastic Constant Matrix: (Units=GPa)
#
#
# Indices 1 2 3 4 5 6 
#
# 1 71.1916 45.5076 24.7174 0.0000 0.0000 0.0000
# 2 45.5076 162.4085 55.3109 0.0000 0.0000 0.0000
# 3 24.7174 55.3109 93.6974 0.0000 0.0000 0.0000
# 4 0.0000 0.0000 0.0000 31.2441 0.0000 0.0000
# 5 0.0000 0.0000 0.0000 0.0000 12.9214 0.0000
# 6 0.0000 0.0000 0.0000 0.0000 0.0000 28.9472
#
#
#
# Elastic Compliance Matrix: (Units=1/GPa)
#
#
# Indices 1 2 3 4 5 6 
#
# 1 0.017451 -0.004158 -0.002149 0.000000 0.000000 0.000000
# 2 -0.004158 0.008697 -0.004037 0.000000 0.000000 0.000000
# 3 -0.002149 -0.004037 0.013623 0.000000 0.000000 0.000000
# 4 0.000000 0.000000 0.000000 0.032006 0.000000 0.000000
# 5 0.000000 0.000000 0.000000 0.000000 0.077391 0.000000
# 6 0.000000 0.000000 0.000000 0.000000 0.000000 0.034546
#
#
# Mechanical properties :
#
#
# Convention : Reuss Voigt Hill
#
# Bulk Modulus (GPa) = 52.40441 64.26326 58.33384
# Shear Modulus (GPa) = 23.72338 28.07331 25.89835
#
# Velocity S-wave (km/s) = 3.58321 3.89790 3.74387
# Velocity P-wave (km/s) = 6.74398 7.41878 7.08941
#
# Compressibility (1/GPa) = 0.01908236
#
# Stress axis : x y z
#
# Youngs Moduli (GPa) = 57.30479 114.97775 73.40598
#
# Poissons Ratio (x) = 0.47806 0.15775
# Poissons Ratio (y) = 0.23826 0.29636
# Poissons Ratio (z) = 0.12315 0.46420
#
# Static dielectric constant tensor:
#      x y z
#    x 1.793300 0.000000 0.000000 
#    y 0.000000 1.630300 0.000000 
#    z 0.000000 0.000000 1.641740 
# 
# From -- ./inp_files/38267.got.cif
#   From: 2010.05.17/outbox.cif.g08.bks.cpg/sg48_20_cif.got.tgz:38267.got - 2010.06.03 20:39:00.
