data_PCOD9390011
_publ_section_title
;
Structure prediction by ZEFSAII (Michael W. Deem and Ramdas Pophale) SiO2 
 PCOD9390011
Probable space group: P N N N
;
_chemical_formula_sum "Si O2"
_cell_formula_units_Z 40
_cell_length_a 14.132051
_cell_length_b 21.458127
_cell_length_c 6.098480
_cell_angle_alpha 90.000000
_cell_angle_beta 90.000000
_cell_angle_gamma 90.000000
_cell_volume 1849.347869
_symmetry_space_group_name_H-M "P N N N"
_symmetry_group_IT_number 48
_space_group.IT_coordinate_system_code '2'
_symmetry_cell_setting 'orthorhombic'
loop_
_space_group_symop_operation_xyz
x,y,z
1/2-x,1/2-y,z
x,1/2-y,1/2-z
1/2-x,y,1/2-z
-x,-y,-z
1/2+x,1/2+y,-z
-x,1/2+y,1/2+z
1/2+x,-y,1/2+z
loop_
_atom_site_type_symbol
_atom_site_label
_atom_site_fract_x
_atom_site_fract_y
_atom_site_fract_z
Si Si1 0.141456 0.614364 0.300237
Si Si2 0.354146 0.020582 0.359391
Si Si3 0.487702 0.694378 0.920080
Si Si4 0.144237 0.139323 0.815217
Si Si5 0.509485 0.590848 0.562633
O O1 0.250000 0.626692 0.250000
O O2 0.134834 0.550327 0.444124
O O3 0.092171 0.674899 0.404759
O O4 0.085324 0.593597 0.081754
O O5 0.250000 0.023991 0.250000
O O6 0.356765 0.075419 0.539475
O O7 0.436970 0.033389 0.179916
O O8 0.472843 0.750000 0.750000
O O9 0.491090 0.635328 0.764173
O O10 0.587052 0.692321 0.051455
O O11 0.250000 0.156307 0.750000
O O12 0.086567 0.121915 0.598289
#
# Coordination Sequence:
#
# PCOD9390011 Si02
#       5
#     8   8   8   8   8
#     4  10  23  40  61  95 123 167 223 263 328 388
#     4  10  19  35  62  95 131 163 203 266 331 402
#     4  10  24  44  63  87 129 169 223 272 311 374
#     4  10  20  37  64  95 130 168 206 255 330 397
#     4  10  21  38  62  89 131 162 209 264 327 381
#
# _framework density 21.629248
#
# number of rings (size 3 to 8) (size 9 to 14) (size 15 to 20)
#    0.000    2.000    2.000    0.600    0.000   12.800 
#    0.000    6.000    0.000    0.000    0.000    0.000 
#    0.000    0.000    0.000    0.000    0.000    0.000 
#
# Total GULP energy -223095.999624 kJ/mol
# GULP energy per Si atom -5577.399991 kJ/mol
# Density = 2.158002 g / cm^3
# Si number density = 21.629248 Si / 1000 Ang^3
#
#
#
# Elastic Constant Matrix: (Units=GPa)
#
#
# Indices 1 2 3 4 5 6 
#
# 1 188.7570 48.3208 54.3505 0.0000 0.0000 0.0000
# 2 48.3208 74.6463 24.2048 0.0000 0.0000 0.0000
# 3 54.3505 24.2048 71.2927 0.0000 0.0000 0.0000
# 4 0.0000 0.0000 0.0000 34.7204 0.0000 0.0000
# 5 0.0000 0.0000 0.0000 0.0000 10.8006 0.0000
# 6 0.0000 0.0000 0.0000 0.0000 0.0000 16.7995
#
#
#
# Elastic Compliance Matrix: (Units=1/GPa)
#
#
# Indices 1 2 3 4 5 6 
#
# 1 0.007469 -0.003358 -0.004554 0.000000 0.000000 0.000000
# 2 -0.003358 0.016564 -0.003063 0.000000 0.000000 0.000000
# 3 -0.004554 -0.003063 0.018538 0.000000 0.000000 0.000000
# 4 0.000000 0.000000 0.000000 0.028801 0.000000 0.000000
# 5 0.000000 0.000000 0.000000 0.000000 0.092587 0.000000
# 6 0.000000 0.000000 0.000000 0.000000 0.000000 0.059525
#
#
# Mechanical properties :
#
#
# Convention : Reuss Voigt Hill
#
# Bulk Modulus (GPa) = 48.49640 65.38314 56.93977
# Shear Modulus (GPa) = 19.81700 26.31878 23.06789
#
# Velocity S-wave (km/s) = 3.03019 3.49207 3.26930
# Velocity P-wave (km/s) = 5.89178 6.82305 6.37445
#
# Compressibility (1/GPa) = 0.02062009
#
# Stress axis : x y z
#
# Youngs Moduli (GPa) = 133.89288 60.37303 53.94236
#
# Poissons Ratio (x) = 0.20274 0.24564
# Poissons Ratio (y) = 0.44963 0.16525
# Poissons Ratio (z) = 0.60970 0.18495
#
# Static dielectric constant tensor:
#      x y z
#    x 1.802330 0.000000 0.000000 
#    y 0.000000 1.839330 0.000000 
#    z 0.000000 0.000000 1.314950 
# 
# From -- ./inp_files/3340.got.cif
#   From: 2010.05.17/outbox.cif.g08.bks.cpg/sg48_2_cif.got.tgz:3340.got - 2010.06.03 20:39:00.
