data_PCOD9390809
_publ_section_title
;
Structure prediction by ZEFSAII (Michael W. Deem and Ramdas Pophale) SiO2 
 PCOD9390809
Probable space group: P N N N
;
_chemical_formula_sum "Si O2"
_cell_formula_units_Z 60
_cell_length_a 21.341507
_cell_length_b 11.703628
_cell_length_c 10.960502
_cell_angle_alpha 90.000000
_cell_angle_beta 90.000000
_cell_angle_gamma 90.000000
_cell_volume 2737.638111
_symmetry_space_group_name_H-M "P N N N"
_symmetry_group_IT_number 48
_space_group.IT_coordinate_system_code '2'
_symmetry_cell_setting 'orthorhombic'
loop_
_space_group_symop_operation_xyz
x,y,z
1/2-x,1/2-y,z
x,1/2-y,1/2-z
1/2-x,y,1/2-z
-x,-y,-z
1/2+x,1/2+y,-z
-x,1/2+y,1/2+z
1/2+x,-y,1/2+z
loop_
_atom_site_type_symbol
_atom_site_label
_atom_site_fract_x
_atom_site_fract_y
_atom_site_fract_z
Si Si1 0.720370 0.124018 0.123794
Si Si2 0.619356 0.694761 0.421643
Si Si3 0.725497 0.997940 0.612794
Si Si4 0.582709 0.021847 0.639000
Si Si5 0.045693 0.413114 0.610453
Si Si6 0.954185 0.647358 0.840991
Si Si7 0.250000 0.250000 0.011546
Si Si8 0.083677 0.554179 0.827937
O O1 0.750000 0.250000 0.111028
O O2 0.750000 0.073499 0.250000
O O3 0.645770 0.126620 0.147668
O O4 0.736803 0.054638 0.000349
O O5 0.589055 0.805993 0.362168
O O6 0.593328 0.691606 0.559273
O O7 0.693100 0.709179 0.428003
O O8 0.598758 0.572560 0.373614
O O9 0.750000 0.020348 0.750000
O O10 0.727595 0.860651 0.589005
O O11 0.654417 0.045831 0.608701
O O12 0.526896 0.114529 0.639679
O O13 0.557359 0.941233 0.530411
O O14 0.578308 0.954584 0.765901
O O15 0.065428 0.526029 0.687300
O O16 0.968752 0.750000 0.750000
O O17 0.021340 0.604368 0.889251
#
# Coordination Sequence:
#
# PCOD9390809 Si02
#       8
#     8   8   8   8   8   8   4   8
#     4  11  27  48  70  99 138 189 244 286 347 425
#     4  12  23  42  64 103 136 175 222 285 359 416
#     4  12  24  44  73 105 146 185 236 290 358 430
#     4  10  21  39  65  99 128 179 227 282 338 412
#     4  10  21  40  66  93 138 173 231 284 341 419
#     4  11  22  40  67  95 132 173 230 278 338 415
#     4  12  23  40  69 104 145 184 221 290 359 436
#     4  11  25  42  65  97 135 176 227 290 347 407
#
# _framework density 21.916701
#
# number of rings (size 3 to 8) (size 9 to 14) (size 15 to 20)
#    0.000    0.933    4.000    2.600    1.867    1.333 
#    0.000    1.000    5.867    0.000    0.000    0.000 
#    0.000    0.000    0.000    0.000    0.000    0.000 
#
# Total GULP energy -335142.325749 kJ/mol
# GULP energy per Si atom -5585.705429 kJ/mol
# Density = 2.186682 g / cm^3
# Si number density = 21.916701 Si / 1000 Ang^3
#
#
#
# Elastic Constant Matrix: (Units=GPa)
#
#
# Indices 1 2 3 4 5 6 
#
# 1 114.5842 6.0330 2.3402 0.0000 0.0000 0.0000
# 2 6.0330 50.2012 5.8494 0.0000 0.0000 0.0000
# 3 2.3402 5.8494 74.2495 0.0000 0.0000 0.0000
# 4 0.0000 0.0000 0.0000 26.2854 0.0000 0.0000
# 5 0.0000 0.0000 0.0000 0.0000 7.2419 0.0000
# 6 0.0000 0.0000 0.0000 0.0000 0.0000 59.8417
#
#
#
# Elastic Compliance Matrix: (Units=1/GPa)
#
#
# Indices 1 2 3 4 5 6 
#
# 1 0.008786 -0.001033 -0.000196 0.000000 0.000000 0.000000
# 2 -0.001033 0.020226 -0.001561 0.000000 0.000000 0.000000
# 3 -0.000196 -0.001561 0.013597 0.000000 0.000000 0.000000
# 4 0.000000 0.000000 0.000000 0.038044 0.000000 0.000000
# 5 0.000000 0.000000 0.000000 0.000000 0.138085 0.000000
# 6 0.000000 0.000000 0.000000 0.000000 0.000000 0.016711
#
#
# Mechanical properties :
#
#
# Convention : Reuss Voigt Hill
#
# Bulk Modulus (GPa) = 27.00523 29.72002 28.36262
# Shear Modulus (GPa) = 19.73394 33.66129 26.69761
#
# Velocity S-wave (km/s) = 3.00393 3.92327 3.49397
# Velocity P-wave (km/s) = 4.93761 5.84060 5.40799
#
# Compressibility (1/GPa) = 0.03702987
#
# Stress axis : x y z
#
# Youngs Moduli (GPa) = 113.82276 49.44163 73.54438
#
# Poissons Ratio (x) = 0.05108 0.01438
# Poissons Ratio (y) = 0.11758 0.11479
# Poissons Ratio (z) = 0.02225 0.07717
#
# Static dielectric constant tensor:
#      x y z
#    x 1.845800 0.000000 0.000000 
#    y 0.000000 1.795620 0.000000 
#    z 0.000000 0.000000 1.845680 
# 
# From -- ./inp_files/22927.got.cif
#   From: 2010.05.17/outbox.cif.g08.bks.cpg/sg48_12_cif.got.tgz:22927.got - 2010.06.03 20:39:00.
