data_PCOD9390397
_publ_section_title
;
Structure prediction by ZEFSAII (Michael W. Deem and Ramdas Pophale) SiO2 
 PCOD9390397
Probable space group: P N N N
;
_chemical_formula_sum "Si O2"
_cell_formula_units_Z 58
_cell_length_a 10.025967
_cell_length_b 19.943285
_cell_length_c 14.563051
_cell_angle_alpha 90.000000
_cell_angle_beta 90.000000
_cell_angle_gamma 90.000000
_cell_volume 2911.892493
_symmetry_space_group_name_H-M "P N N N"
_symmetry_group_IT_number 48
_space_group.IT_coordinate_system_code '2'
_symmetry_cell_setting 'orthorhombic'
loop_
_space_group_symop_operation_xyz
x,y,z
1/2-x,1/2-y,z
x,1/2-y,1/2-z
1/2-x,y,1/2-z
-x,-y,-z
1/2+x,1/2+y,-z
-x,1/2+y,1/2+z
1/2+x,-y,1/2+z
loop_
_atom_site_type_symbol
_atom_site_label
_atom_site_fract_x
_atom_site_fract_y
_atom_site_fract_z
Si Si1 0.993937 0.425124 0.955113
Si Si2 0.088707 0.419520 0.744604
Si Si3 0.887748 0.790392 0.509551
Si Si4 0.220791 0.869793 0.961708
Si Si5 0.924410 0.306810 0.176569
Si Si6 0.038671 0.808817 0.116045
Si Si7 0.750000 0.250000 0.750000
Si Si8 0.897225 0.065295 0.205603
O O1 0.025659 0.417997 0.846989
O O2 0.099638 0.371126 0.997437
O O3 0.000000 0.500000 0.000000
O O4 0.844881 0.400175 0.981337
O O5 0.250000 0.417414 0.750000
O O6 0.039695 0.492500 0.711139
O O7 0.049432 0.362537 0.671257
O O8 0.750000 0.750000 0.514820
O O9 0.965707 0.780983 0.605097
O O10 0.961057 0.756431 0.421572
O O11 0.296855 0.824302 0.886382
O O12 0.132539 0.918590 0.899544
O O13 0.116830 0.834820 0.027505
O O14 0.899307 0.250000 0.250000
O O15 0.960944 0.374759 0.233875
O O16 0.154161 0.792016 0.186581
O O17 0.750000 0.059250 0.250000
#
# Coordination Sequence:
#
# PCOD9390397 Si02
#       8
#     8   8   8   8   8   8   2   8
#     4  11  22  41  66  88 120 167 211 257 316 382
#     4  11  22  39  61  87 122 162 203 247 307 381
#     4  11  24  40  60  91 127 164 207 254 318 391
#     4  10  22  38  61  92 119 152 202 255 308 363
#     4  10  20  37  63  88 119 160 203 254 307 366
#     4  12  24  39  62  88 122 158 197 258 315 366
#     4  12  24  40  58  88 114 144 206 258 292 360
#     4   9  19  36  59  89 118 152 203 254 299 362
#
# _framework density 19.918317999999999
#
# number of rings (size 3 to 8) (size 9 to 14) (size 15 to 20)
#    0.000    1.379    0.000    8.276    0.000    7.724 
#    0.000    2.759    0.000    6.621    0.000    0.000 
#    0.000    0.000    0.000    0.000    0.000    0.000 
#
# Total GULP energy -323413.922551 kJ/mol
# GULP energy per Si atom -5576.102113 kJ/mol
# Density = 1.987298 g / cm^3
# Si number density = 19.918318 Si / 1000 Ang^3
#
#
#
# Elastic Constant Matrix: (Units=GPa)
#
#
# Indices 1 2 3 4 5 6 
#
# 1 68.2548 46.0881 35.0347 0.0000 0.0000 0.0000
# 2 46.0881 139.0402 51.8584 0.0000 0.0000 0.0000
# 3 35.0347 51.8584 115.2601 0.0000 0.0000 0.0000
# 4 0.0000 0.0000 0.0000 20.0194 0.0000 0.0000
# 5 0.0000 0.0000 0.0000 0.0000 27.0055 0.0000
# 6 0.0000 0.0000 0.0000 0.0000 0.0000 12.4304
#
#
#
# Elastic Compliance Matrix: (Units=1/GPa)
#
#
# Indices 1 2 3 4 5 6 
#
# 1 0.020138 -0.005278 -0.003747 0.000000 0.000000 0.000000
# 2 -0.005278 0.010026 -0.002907 0.000000 0.000000 0.000000
# 3 -0.003747 -0.002907 0.011123 0.000000 0.000000 0.000000
# 4 0.000000 0.000000 0.000000 0.049952 0.000000 0.000000
# 5 0.000000 0.000000 0.000000 0.000000 0.037030 0.000000
# 6 0.000000 0.000000 0.000000 0.000000 0.000000 0.080448
#
#
# Mechanical properties :
#
#
# Convention : Reuss Voigt Hill
#
# Bulk Modulus (GPa) = 57.39106 65.39084 61.39095
# Shear Modulus (GPa) = 20.97444 24.52928 22.75186
#
# Velocity S-wave (km/s) = 3.24855 3.51307 3.38340
# Velocity P-wave (km/s) = 6.55336 7.02541 6.79348
#
# Compressibility (1/GPa) = 0.01742432
#
# Stress axis : x y z
#
# Youngs Moduli (GPa) = 49.65782 99.74381 89.90726
#
# Poissons Ratio (x) = 0.52643 0.33684
# Poissons Ratio (y) = 0.26208 0.26132
# Poissons Ratio (z) = 0.18604 0.28991
#
# Static dielectric constant tensor:
#      x y z
#    x 1.715390 0.000000 0.000000 
#    y 0.000000 1.827140 0.000000 
#    z 0.000000 0.000000 1.645270 
# 
# From -- ./inp_files/25639.got.cif
#   From: 2010.05.17/outbox.cif.g08.bks.cpg/sg48_13_cif.got.tgz:25639.got - 2010.06.03 20:39:00.
