data_PCOD9390270
_publ_section_title
;
Structure prediction by ZEFSAII (Michael W. Deem and Ramdas Pophale) SiO2 
 PCOD9390270
Probable space group: P N N N
;
_chemical_formula_sum "Si O2"
_cell_formula_units_Z 64
_cell_length_a 22.225661
_cell_length_b 8.952125
_cell_length_c 15.604211
_cell_angle_alpha 90.000000
_cell_angle_beta 90.000000
_cell_angle_gamma 90.000000
_cell_volume 3104.721419
_symmetry_space_group_name_H-M "P N N N"
_symmetry_group_IT_number 48
_space_group.IT_coordinate_system_code '2'
_symmetry_cell_setting 'orthorhombic'
loop_
_space_group_symop_operation_xyz
x,y,z
1/2-x,1/2-y,z
x,1/2-y,1/2-z
1/2-x,y,1/2-z
-x,-y,-z
1/2+x,1/2+y,-z
-x,1/2+y,1/2+z
1/2+x,-y,1/2+z
loop_
_atom_site_type_symbol
_atom_site_label
_atom_site_fract_x
_atom_site_fract_y
_atom_site_fract_z
Si Si1 0.910674 0.998117 0.427907
Si Si2 0.849867 0.240686 0.150497
Si Si3 0.231292 0.925278 0.342840
Si Si4 0.175740 0.563913 0.485646
Si Si5 0.073927 0.169729 0.992193
Si Si6 0.519292 0.414159 0.127496
Si Si7 0.105706 0.839739 0.401830
Si Si8 0.997689 0.897892 0.285109
O O1 0.905907 0.827038 0.455207
O O2 0.960306 0.989404 0.354658
O O3 0.855441 0.092113 0.387893
O O4 0.924390 0.086571 0.514964
O O5 0.830423 0.250000 0.250000
O O6 0.918432 0.172569 0.147524
O O7 0.814903 0.137905 0.080248
O O8 0.250000 0.750000 0.337573
O O9 0.250000 0.990465 0.250000
O O10 0.266678 0.973384 0.428151
O O11 0.160749 0.934312 0.362617
O O12 0.133981 0.420779 0.488705
O O13 0.135635 0.687078 0.434563
O O14 0.038477 0.061792 0.926229
O O15 0.028205 0.179760 0.072207
O O16 0.489252 0.483335 0.211409
O O17 0.055203 0.827732 0.331135
O O18 0.963150 0.750000 0.250000
#
# Coordination Sequence:
#
# PCOD9390270 Si02
#       8
#     8   8   8   8   8   8   8   8
#     4  11  23  37  55  84 121 156 195 239 300 362
#     4  10  20  35  56  86 119 159 194 251 301 358
#     4   9  19  37  64  89 111 148 206 257 299 351
#     4   9  20  38  59  83 116 154 201 254 307 354
#     4  10  21  35  53  82 115 160 194 236 296 362
#     4  10  21  33  51  79 120 157 197 234 286 358
#     4  10  23  36  59  86 117 153 196 251 299 354
#     4  12  22  33  57  88 121 155 200 239 291 365
#
# _framework density 20.613765000000001
#
# number of rings (size 3 to 8) (size 9 to 14) (size 15 to 20)
#    0.000    1.875    2.500    1.125   12.250    0.000 
#    0.000    0.625    0.000   10.125    0.000    0.000 
#    0.000    0.000    0.000    0.000    0.000    0.000 
#
# Total GULP energy -357095.251935 kJ/mol
# GULP energy per Si atom -5579.613311 kJ/mol
# Density = 2.056685 g / cm^3
# Si number density = 20.613765 Si / 1000 Ang^3
#
#
#
# Elastic Constant Matrix: (Units=GPa)
#
#
# Indices 1 2 3 4 5 6 
#
# 1 26.6179 7.1159 24.3578 0.0000 0.0000 0.0000
# 2 7.1159 75.2605 21.3837 0.0000 0.0000 0.0000
# 3 24.3578 21.3837 133.0745 0.0000 0.0000 0.0000
# 4 0.0000 0.0000 0.0000 22.4532 0.0000 0.0000
# 5 0.0000 0.0000 0.0000 0.0000 -6.6464 0.0000
# 6 0.0000 0.0000 0.0000 0.0000 0.0000 9.0239
#
#
#
# Elastic Compliance Matrix: (Units=1/GPa)
#
#
# Indices 1 2 3 4 5 6 
#
# 1 0.045420 -0.002025 -0.007988 0.000000 0.000000 0.000000
# 2 -0.002025 0.014013 -0.001881 0.000000 0.000000 0.000000
# 3 -0.007988 -0.001881 0.009279 0.000000 0.000000 0.000000
# 4 0.000000 0.000000 0.000000 0.044537 0.000000 0.000000
# 5 0.000000 0.000000 0.000000 0.000000 -0.150456 0.000000
# 6 0.000000 0.000000 0.000000 0.000000 0.000000 0.110817
#
#
# Mechanical properties :
#
#
# Convention : Reuss Voigt Hill
#
# Bulk Modulus (GPa) = 22.25993 37.85197 30.05595
# Shear Modulus (GPa) = 44.49468 17.10583 30.80025
#
# Velocity S-wave (km/s) = 4.65100 2.88379 3.86963
# Velocity P-wave (km/s) = 6.29797 5.43053 5.88027
#
# Compressibility (1/GPa) = 0.04492378
#
# Stress axis : x y z
#
# Youngs Moduli (GPa) = 22.01671 71.36169 107.76978
#
# Poissons Ratio (x) = 0.14449 0.86090
# Poissons Ratio (y) = 0.04458 0.20273
# Poissons Ratio (z) = 0.17588 0.13424
#
# Static dielectric constant tensor:
#      x y z
#    x 1.750280 0.000000 0.000000 
#    y 0.000000 1.765040 0.000000 
#    z 0.000000 0.000000 1.810470 
# 
# From -- ./inp_files/28626.got.cif
#   From: 2010.05.17/outbox.cif.g08.bks.cpg/sg48_15_cif.got.tgz:28626.got - 2010.06.03 20:39:00.
