data_PCOD9390498
_publ_section_title
;
Structure prediction by ZEFSAII (Michael W. Deem and Ramdas Pophale) SiO2 
 PCOD9390498
Probable space group: P N N N
;
_chemical_formula_sum "Si O2"
_cell_formula_units_Z 48
_cell_length_a 12.156111
_cell_length_b 8.110238
_cell_length_c 21.838082
_cell_angle_alpha 90.000000
_cell_angle_beta 90.000000
_cell_angle_gamma 90.000000
_cell_volume 2152.993648
_symmetry_space_group_name_H-M "P N N N"
_symmetry_group_IT_number 48
_space_group.IT_coordinate_system_code '2'
_symmetry_cell_setting 'orthorhombic'
loop_
_space_group_symop_operation_xyz
x,y,z
1/2-x,1/2-y,z
x,1/2-y,1/2-z
1/2-x,y,1/2-z
-x,-y,-z
1/2+x,1/2+y,-z
-x,1/2+y,1/2+z
1/2+x,-y,1/2+z
loop_
_atom_site_type_symbol
_atom_site_label
_atom_site_fract_x
_atom_site_fract_y
_atom_site_fract_z
Si Si1 0.552104 0.880100 0.799923
Si Si2 0.385514 0.604041 0.457865
Si Si3 0.634612 0.934636 0.273075
Si Si4 0.521156 0.222162 0.069136
Si Si5 0.505647 0.425024 0.891004
Si Si6 0.761311 0.430266 0.651240
O O1 0.585116 0.750000 0.750000
O O2 0.485878 0.811267 0.858648
O O3 0.465783 0.993459 0.765422
O O4 0.665789 0.960045 0.821450
O O5 0.434830 0.417196 0.455839
O O6 0.377029 0.668976 0.526828
O O7 0.461506 0.745223 0.421460
O O8 0.273989 0.584902 0.420114
O O9 0.641168 0.750000 0.250000
O O10 0.750000 0.015112 0.250000
O O11 0.599271 0.927804 0.345004
O O12 0.502820 0.418093 0.063688
O O13 0.611803 0.472245 0.849293
O O14 0.750000 0.250000 0.679378
#
# Coordination Sequence:
#
# PCOD9390498 Si02
#       6
#     8   8   8   8   8   8
#     4  11  22  42  64  96 135 172 219 276 339 407
#     4   9  20  38  65  93 135 170 219 271 336 401
#     4  11  24  43  64  88 129 178 228 276 331 406
#     4  10  20  39  62  95 129 175 214 271 325 401
#     4  11  21  41  66  96 132 172 221 278 337 406
#     4   9  20  39  66  97 133 166 215 275 343 403
#
# _framework density 22.294540000000001
#
# number of rings (size 3 to 8) (size 9 to 14) (size 15 to 20)
#    0.000    1.833    1.667    3.500    0.000    3.667 
#    3.000   10.000    0.000   14.000    0.000    0.000 
#    0.000    0.000    0.000    0.000    0.000    0.000 
#
# Total GULP energy -267253.175299 kJ/mol
# GULP energy per Si atom -5567.774485 kJ/mol
# Density = 2.224380 g / cm^3
# Si number density = 22.294540 Si / 1000 Ang^3
#
#
#
# Elastic Constant Matrix: (Units=GPa)
#
#
# Indices 1 2 3 4 5 6 
#
# 1 94.4342 22.9795 30.5185 0.0000 0.0000 0.0000
# 2 22.9795 99.7565 34.5893 0.0000 0.0000 0.0000
# 3 30.5185 34.5893 116.8845 0.0000 0.0000 0.0000
# 4 0.0000 0.0000 0.0000 9.5178 0.0000 0.0000
# 5 0.0000 0.0000 0.0000 0.0000 14.7538 0.0000
# 6 0.0000 0.0000 0.0000 0.0000 0.0000 30.2950
#
#
#
# Elastic Compliance Matrix: (Units=1/GPa)
#
#
# Indices 1 2 3 4 5 6 
#
# 1 0.011863 -0.001848 -0.002551 0.000000 0.000000 0.000000
# 2 -0.001848 0.011459 -0.002908 0.000000 0.000000 0.000000
# 3 -0.002551 -0.002908 0.010082 0.000000 0.000000 0.000000
# 4 0.000000 0.000000 0.000000 0.105066 0.000000 0.000000
# 5 0.000000 0.000000 0.000000 0.000000 0.067779 0.000000
# 6 0.000000 0.000000 0.000000 0.000000 0.000000 0.033009
#
#
# Mechanical properties :
#
#
# Convention : Reuss Voigt Hill
#
# Bulk Modulus (GPa) = 53.22104 54.13887 53.67996
# Shear Modulus (GPa) = 19.22073 25.77918 22.49996
#
# Velocity S-wave (km/s) = 2.93939 3.40413 3.18026
# Velocity P-wave (km/s) = 5.95345 6.30769 6.13313
#
# Compressibility (1/GPa) = 0.01878956
#
# Stress axis : x y z
#
# Youngs Moduli (GPa) = 84.29251 87.27054 99.18622
#
# Poissons Ratio (x) = 0.16131 0.25298
# Poissons Ratio (y) = 0.15581 0.28846
# Poissons Ratio (z) = 0.21499 0.25381
#
# Static dielectric constant tensor:
#      x y z
#    x 1.523500 0.000000 0.000000 
#    y 0.000000 1.850960 0.000000 
#    z 0.000000 0.000000 1.874360 
# 
# From -- ./inp_files/36246.got.cif
#   From: 2010.05.17/outbox.cif.g08.bks.cpg/sg48_19_cif.got.tgz:36246.got - 2010.06.03 20:39:00.
