data_PCOD9390452
_publ_section_title
;
Structure prediction by ZEFSAII (Michael W. Deem and Ramdas Pophale) SiO2 
 PCOD9390452
Probable space group: P N N N
;
_chemical_formula_sum "Si O2"
_cell_formula_units_Z 26
_cell_length_a 8.317604
_cell_length_b 25.681634
_cell_length_c 5.465768
_cell_angle_alpha 90.000000
_cell_angle_beta 90.000000
_cell_angle_gamma 90.000000
_cell_volume 1167.540853
_symmetry_space_group_name_H-M "P N N N"
_symmetry_group_IT_number 48
_space_group.IT_coordinate_system_code '2'
_symmetry_cell_setting 'orthorhombic'
loop_
_space_group_symop_operation_xyz
x,y,z
1/2-x,1/2-y,z
x,1/2-y,1/2-z
1/2-x,y,1/2-z
-x,-y,-z
1/2+x,1/2+y,-z
-x,1/2+y,1/2+z
1/2+x,-y,1/2+z
loop_
_atom_site_type_symbol
_atom_site_label
_atom_site_fract_x
_atom_site_fract_y
_atom_site_fract_z
Si Si1 0.250000 0.750000 0.250000
Si Si2 0.051106 0.440273 0.998994
Si Si3 0.047751 0.219057 0.996131
Si Si4 0.413942 0.398905 0.002273
O O1 0.358436 0.715055 0.070235
O O2 0.994640 0.414026 0.250652
O O3 0.244968 0.430502 0.000647
O O4 0.996634 0.413509 0.747443
O O5 0.000000 0.500000 0.000000
O O6 0.096257 0.250000 0.750000
O O7 0.123447 0.162275 0.007717
O O8 0.070102 0.250000 0.250000
#
# Coordination Sequence:
#
# PCOD9390452 Si02
#       4
#     2   8   8   8
#     4   8  22  36  62  82 134 156 206 230 314 348
#     4  10  21  40  61  84 127 157 206 259 300 354
#     4  10  20  38  63  91 129 160 199 250 302 373
#     4  10  21  39  64  91 120 162 209 244 314 366
#
# _framework density 22.269027999999999
#
# number of rings (size 3 to 8) (size 9 to 14) (size 15 to 20)
#    0.923    1.231    0.000    3.231    0.000    0.000 
#    0.000   27.692    0.000    0.000    0.000    0.000 
#    0.000    0.000    0.000    0.000    0.000    0.000 
#
# Total GULP energy -144895.138791 kJ/mol
# GULP energy per Si atom -5572.889953 kJ/mol
# Density = 2.221834 g / cm^3
# Si number density = 22.269028 Si / 1000 Ang^3
#
#
#
# Elastic Constant Matrix: (Units=GPa)
#
#
# Indices 1 2 3 4 5 6 
#
# 1 57.7711 21.6028 -0.1744 0.0000 0.0000 0.0000
# 2 21.6028 198.8053 100.1008 0.0000 0.0000 0.0000
# 3 -0.1744 100.1008 289.6263 0.0000 0.0000 0.0000
# 4 0.0000 0.0000 0.0000 43.7416 0.0000 0.0000
# 5 0.0000 0.0000 0.0000 0.0000 70.1921 0.0000
# 6 0.0000 0.0000 0.0000 0.0000 0.0000 52.9547
#
#
#
# Elastic Compliance Matrix: (Units=1/GPa)
#
#
# Indices 1 2 3 4 5 6 
#
# 1 0.018211 -0.002402 0.000841 0.000000 0.000000 0.000000
# 2 -0.002402 0.006407 -0.002216 0.000000 0.000000 0.000000
# 3 0.000841 -0.002216 0.004219 0.000000 0.000000 0.000000
# 4 0.000000 0.000000 0.000000 0.022862 0.000000 0.000000
# 5 0.000000 0.000000 0.000000 0.000000 0.014247 0.000000
# 6 0.000000 0.000000 0.000000 0.000000 0.000000 0.018884
#
#
# Mechanical properties :
#
#
# Convention : Reuss Voigt Hill
#
# Bulk Modulus (GPa) = 46.98670 87.69569 67.34120
# Shear Modulus (GPa) = 50.26308 61.68923 55.97616
#
# Velocity S-wave (km/s) = 4.75603 5.26896 5.01905
# Velocity P-wave (km/s) = 7.16276 8.74537 7.99333
#
# Compressibility (1/GPa) = 0.02128262
#
# Stress axis : x y z
#
# Youngs Moduli (GPa) = 54.91313 156.08513 237.02058
#
# Poissons Ratio (x) = 0.37498 -0.19940
# Poissons Ratio (y) = 0.13192 0.52518
# Poissons Ratio (z) = -0.04620 0.34585
#
# Static dielectric constant tensor:
#      x y z
#    x 1.947550 0.000000 0.000000 
#    y 0.000000 1.749150 0.000000 
#    z 0.000000 0.000000 1.079530 
# 
# From -- ./inp_files/1615.got.cif
#   From: 2010.05.17/outbox.cif.g08.bks.cpg/sg48_1_cif.got.tgz:1615.got - 2010.06.03 20:39:00.
