data_PCOD9390286
_publ_section_title
;
Structure prediction by ZEFSAII (Michael W. Deem and Ramdas Pophale) SiO2 
 PCOD9390286
Probable space group: P N N N
;
_chemical_formula_sum "Si O2"
_cell_formula_units_Z 56
_cell_length_a 19.064363
_cell_length_b 8.330476
_cell_length_c 18.010148
_cell_angle_alpha 90.000000
_cell_angle_beta 90.000000
_cell_angle_gamma 90.000000
_cell_volume 2860.285589
_symmetry_space_group_name_H-M "P N N N"
_symmetry_group_IT_number 48
_space_group.IT_coordinate_system_code '2'
_symmetry_cell_setting 'orthorhombic'
loop_
_space_group_symop_operation_xyz
x,y,z
1/2-x,1/2-y,z
x,1/2-y,1/2-z
1/2-x,y,1/2-z
-x,-y,-z
1/2+x,1/2+y,-z
-x,1/2+y,1/2+z
1/2+x,-y,1/2+z
loop_
_atom_site_type_symbol
_atom_site_label
_atom_site_fract_x
_atom_site_fract_y
_atom_site_fract_z
Si Si1 0.040770 0.592762 0.066285
Si Si2 0.551865 0.612804 0.050791
Si Si3 0.321930 0.334017 0.567657
Si Si4 0.126510 0.653083 0.647235
Si Si5 0.877140 0.569501 0.225919
Si Si6 0.997169 0.620089 0.803840
Si Si7 0.185299 0.832286 0.506970
O O1 0.046758 0.462986 0.131730
O O2 0.995141 0.748158 0.086879
O O3 0.112125 0.665470 0.035309
O O4 0.000000 0.500000 0.000000
O O5 0.620987 0.719201 0.026623
O O6 0.588370 0.493891 0.107310
O O7 0.500000 0.500000 0.000000
O O8 0.250000 0.250000 0.591853
O O9 0.356965 0.420247 0.639340
O O10 0.298804 0.481504 0.517533
O O11 0.158206 0.567823 0.721403
O O12 0.174390 0.736981 0.585215
O O13 0.063800 0.777435 0.665104
O O14 0.861414 0.750000 0.250000
O O15 0.959468 0.524192 0.234505
O O16 0.961201 0.750000 0.750000
O O17 0.250000 0.750000 0.466888
#
# Coordination Sequence:
#
# PCOD9390286 Si02
#       7
#     8   8   8   8   8   8   8
#     4  12  19  39  62  83 118 165 204 261 326 377
#     4  12  21  35  59  84 108 160 210 249 310 372
#     4  12  25  41  54  81 123 165 214 260 304 371
#     4  11  20  36  57  82 118 156 206 248 304 371
#     4  11  20  36  55  78 116 161 207 247 297 364
#     4  10  20  35  59  88 117 155 205 266 311 380
#     4  12  25  40  56  83 122 165 209 261 319 380
#
# _framework density 19.578464
#
# number of rings (size 3 to 8) (size 9 to 14) (size 15 to 20)
#    0.000    0.571    8.571    0.857    0.000    0.286 
#    0.000    0.714    0.000    0.000    0.000    0.000 
#    0.000   32.000    0.000    0.000    0.000    0.000 
#
# Total GULP energy -311904.616582 kJ/mol
# GULP energy per Si atom -5569.725296 kJ/mol
# Density = 1.953390 g / cm^3
# Si number density = 19.578464 Si / 1000 Ang^3
#
#
#
# Elastic Constant Matrix: (Units=GPa)
#
#
# Indices 1 2 3 4 5 6 
#
# 1 95.0624 40.4329 26.2283 0.0000 0.0000 0.0000
# 2 40.4329 127.8561 27.4674 0.0000 0.0000 0.0000
# 3 26.2283 27.4674 50.1414 0.0000 0.0000 0.0000
# 4 0.0000 0.0000 0.0000 36.9518 0.0000 0.0000
# 5 0.0000 0.0000 0.0000 0.0000 8.9949 0.0000
# 6 0.0000 0.0000 0.0000 0.0000 0.0000 32.7281
#
#
#
# Elastic Compliance Matrix: (Units=1/GPa)
#
#
# Indices 1 2 3 4 5 6 
#
# 1 0.013277 -0.003068 -0.005264 0.000000 0.000000 0.000000
# 2 -0.003068 0.009573 -0.003640 0.000000 0.000000 0.000000
# 3 -0.005264 -0.003640 0.024691 0.000000 0.000000 0.000000
# 4 0.000000 0.000000 0.000000 0.027062 0.000000 0.000000
# 5 0.000000 0.000000 0.000000 0.000000 0.111175 0.000000
# 6 0.000000 0.000000 0.000000 0.000000 0.000000 0.030555
#
#
# Mechanical properties :
#
#
# Convention : Reuss Voigt Hill
#
# Bulk Modulus (GPa) = 42.37685 51.25745 46.81715
# Shear Modulus (GPa) = 20.14976 27.66369 23.90673
#
# Velocity S-wave (km/s) = 3.21156 3.76302 3.49818
# Velocity P-wave (km/s) = 5.95347 6.71698 6.34672
#
# Compressibility (1/GPa) = 0.02359779
#
# Stress axis : x y z
#
# Youngs Moduli (GPa) = 75.32028 104.45728 40.50044
#
# Poissons Ratio (x) = 0.32044 0.21321
# Poissons Ratio (y) = 0.23105 0.14741
# Poissons Ratio (z) = 0.39652 0.38018
#
# Static dielectric constant tensor:
#      x y z
#    x 1.666490 0.000000 0.000000 
#    y 0.000000 1.770990 0.000000 
#    z 0.000000 0.000000 1.772160 
# 
# From -- ./inp_files/34668.got.cif
#   From: 2010.05.17/outbox.cif.g08.bks.cpg/sg48_18_cif.got.tgz:34668.got - 2010.06.03 20:39:00.
