data_PCOD9390948
_publ_section_title
;
Structure prediction by ZEFSAII (Michael W. Deem and Ramdas Pophale) SiO2 
 PCOD9390948
Probable space group: P N N N
;
_chemical_formula_sum "Si O2"
_cell_formula_units_Z 56
_cell_length_a 14.017779
_cell_length_b 19.941961
_cell_length_c 9.418854
_cell_angle_alpha 90.000000
_cell_angle_beta 90.000000
_cell_angle_gamma 90.000000
_cell_volume 2632.965305
_symmetry_space_group_name_H-M "P N N N"
_symmetry_group_IT_number 48
_space_group.IT_coordinate_system_code '2'
_symmetry_cell_setting 'orthorhombic'
loop_
_space_group_symop_operation_xyz
x,y,z
1/2-x,1/2-y,z
x,1/2-y,1/2-z
1/2-x,y,1/2-z
-x,-y,-z
1/2+x,1/2+y,-z
-x,1/2+y,1/2+z
1/2+x,-y,1/2+z
loop_
_atom_site_type_symbol
_atom_site_label
_atom_site_fract_x
_atom_site_fract_y
_atom_site_fract_z
Si Si1 0.755114 0.327579 0.473824
Si Si2 0.066365 0.400008 0.068078
Si Si3 0.027532 0.956110 0.312615
Si Si4 0.837299 0.955144 0.139340
Si Si5 0.249782 0.327355 0.923530
Si Si6 0.696242 0.049601 0.624433
Si Si7 0.584285 0.171913 0.251893
O O1 0.750000 0.250000 0.518907
O O2 0.744505 0.384135 0.590320
O O3 0.858221 0.341077 0.398151
O O4 0.669957 0.337399 0.361548
O O5 0.072870 0.478492 0.110981
O O6 0.009252 0.366971 0.199162
O O7 0.161675 0.364428 0.006167
O O8 0.996430 0.401909 0.931924
O O9 0.095463 0.931354 0.189478
O O10 0.928887 0.972838 0.232700
O O11 0.750000 0.957477 0.250000
O O12 0.836556 0.881207 0.065392
O O13 0.817668 0.007143 0.015658
O O14 0.250000 0.250000 0.974521
O O15 0.250000 0.321644 0.750000
O O16 0.750000 0.010560 0.750000
O O17 0.558719 0.250000 0.250000
#
# Coordination Sequence:
#
# PCOD9390948 Si02
#       7
#     8   8   8   8   8   8   8
#     4   9  20  40  60  89 136 175 216 264 350 422
#     4  11  21  41  68  97 131 172 233 284 341 412
#     4  11  24  40  66  99 131 169 230 290 340 405
#     4  11  23  44  69  93 130 187 228 278 356 421
#     4  10  21  43  66  91 128 180 230 279 342 421
#     4  12  25  38  63 101 132 167 222 290 339 400
#     4   9  19  37  63  91 123 176 218 265 331 416
#
# _framework density 21.268795999999998
#
# number of rings (size 3 to 8) (size 9 to 14) (size 15 to 20)
#    0.000    1.571    2.857    3.857    6.000    0.286 
#    7.714    0.000    0.000    0.000    0.000    0.000 
#    0.000    0.000    0.000    0.000    0.000    0.000 
#
# Total GULP energy -312036.078477 kJ/mol
# GULP energy per Si atom -5572.072830 kJ/mol
# Density = 2.122039 g / cm^3
# Si number density = 21.268796 Si / 1000 Ang^3
#
#
#
# Elastic Constant Matrix: (Units=GPa)
#
#
# Indices 1 2 3 4 5 6 
#
# 1 69.2862 11.8227 16.6460 0.0000 0.0000 0.0000
# 2 11.8227 87.5758 30.2017 0.0000 0.0000 0.0000
# 3 16.6460 30.2017 66.3023 0.0000 0.0000 0.0000
# 4 0.0000 0.0000 0.0000 18.7221 0.0000 0.0000
# 5 0.0000 0.0000 0.0000 0.0000 37.0952 0.0000
# 6 0.0000 0.0000 0.0000 0.0000 0.0000 18.4065
#
#
#
# Elastic Compliance Matrix: (Units=1/GPa)
#
#
# Indices 1 2 3 4 5 6 
#
# 1 0.015417 -0.000886 -0.003467 0.000000 0.000000 0.000000
# 2 -0.000886 0.013598 -0.005972 0.000000 0.000000 0.000000
# 3 -0.003467 -0.005972 0.018673 0.000000 0.000000 0.000000
# 4 0.000000 0.000000 0.000000 0.053413 0.000000 0.000000
# 5 0.000000 0.000000 0.000000 0.000000 0.026958 0.000000
# 6 0.000000 0.000000 0.000000 0.000000 0.000000 0.054329
#
#
# Mechanical properties :
#
#
# Convention : Reuss Voigt Hill
#
# Bulk Modulus (GPa) = 36.98373 37.83389 37.40881
# Shear Modulus (GPa) = 23.57952 25.81104 24.69528
#
# Velocity S-wave (km/s) = 3.33324 3.48740 3.41119
# Velocity P-wave (km/s) = 5.67807 5.83464 5.75689
#
# Compressibility (1/GPa) = 0.02703891
#
# Stress axis : x y z
#
# Youngs Moduli (GPa) = 64.86352 73.54238 53.55305
#
# Poissons Ratio (x) = 0.06513 0.18568
# Poissons Ratio (y) = 0.05744 0.31980
# Poissons Ratio (z) = 0.22490 0.43916
#
# Static dielectric constant tensor:
#      x y z
#    x 1.825770 0.000000 0.000000 
#    y 0.000000 1.807740 0.000000 
#    z 0.000000 0.000000 1.813960 
# 
# From -- ./inp_files/13131.got.cif
#   From: 2010.05.17/outbox.cif.g08.bks.cpg/sg48_7_cif.got.tgz:13131.got - 2010.06.03 20:39:00.
