data_PCOD9390197
_publ_section_title
;
Structure prediction by ZEFSAII (Michael W. Deem and Ramdas Pophale) SiO2 
 PCOD9390197
Probable space group: P N N N
;
_chemical_formula_sum "Si O2"
_cell_formula_units_Z 52
_cell_length_a 5.186583
_cell_length_b 24.662094
_cell_length_c 17.990912
_cell_angle_alpha 90.000000
_cell_angle_beta 90.000000
_cell_angle_gamma 90.000000
_cell_volume 2301.253490
_symmetry_space_group_name_H-M "P N N N"
_symmetry_group_IT_number 48
_space_group.IT_coordinate_system_code '2'
_symmetry_cell_setting 'orthorhombic'
loop_
_space_group_symop_operation_xyz
x,y,z
1/2-x,1/2-y,z
x,1/2-y,1/2-z
1/2-x,y,1/2-z
-x,-y,-z
1/2+x,1/2+y,-z
-x,1/2+y,1/2+z
1/2+x,-y,1/2+z
loop_
_atom_site_type_symbol
_atom_site_label
_atom_site_fract_x
_atom_site_fract_y
_atom_site_fract_z
Si Si1 0.718436 0.150273 0.072540
Si Si2 0.750000 0.402478 0.750000
Si Si3 0.148543 0.445564 0.559435
Si Si4 0.727338 0.920544 0.598743
Si Si5 0.554007 0.494879 0.195382
Si Si6 0.145987 0.876880 0.412698
Si Si7 0.991786 0.189957 0.284743
O O1 0.510200 0.103444 0.090712
O O2 0.590330 0.194014 0.128879
O O3 0.005245 0.126960 0.090976
O O4 0.698087 0.162515 0.983910
O O5 0.529448 0.446738 0.771052
O O6 0.687843 0.367659 0.675875
O O7 0.188936 0.457890 0.473799
O O8 0.200657 0.491597 0.618768
O O9 0.355951 0.398347 0.577469
O O10 0.860215 0.423086 0.570991
O O11 0.678566 0.957258 0.669816
O O12 0.750000 0.467352 0.250000
O O13 0.997954 0.250000 0.250000
O O14 0.750000 0.159441 0.250000
O O15 0.250000 0.164516 0.250000
#
# Coordination Sequence:
#
# PCOD9390197 Si02
#       7
#     8   4   8   8   8   8   8
#     4  10  21  38  52  77 102 134 167 217 266 321
#     4  10  20  34  46  70  98 137 181 226 258 302
#     4   9  18  34  46  64  88 132 175 226 266 304
#     4  10  22  33  50  68  99 133 175 217 273 306
#     4  11  21  31  45  65  94 131 186 229 266 305
#     4   9  18  32  53  68  97 132 174 217 264 306
#     4  10  21  38  61  84 108 136 165 204 258 327
#
# _framework density 22.596381999999998
#
# number of rings (size 3 to 8) (size 9 to 14) (size 15 to 20)
#    0.000    2.154    1.538    1.385    2.154    1.846 
#    0.000    6.154    0.000    0.000    0.000    0.000 
#    0.000    2.462    0.000   12.000    0.000    0.000 
#
# Total GULP energy -289736.179938 kJ/mol
# GULP energy per Si atom -5571.849614 kJ/mol
# Density = 2.254495 g / cm^3
# Si number density = 22.596382 Si / 1000 Ang^3
#
#
#
# Elastic Constant Matrix: (Units=GPa)
#
#
# Indices 1 2 3 4 5 6 
#
# 1 105.3833 -0.7434 9.3174 0.0000 0.0000 0.0000
# 2 -0.7434 36.2165 30.3433 0.0000 0.0000 0.0000
# 3 9.3174 30.3433 198.3129 0.0000 0.0000 0.0000
# 4 0.0000 0.0000 0.0000 23.1011 0.0000 0.0000
# 5 0.0000 0.0000 0.0000 0.0000 -27.6497 0.0000
# 6 0.0000 0.0000 0.0000 0.0000 0.0000 10.9406
#
#
#
# Elastic Compliance Matrix: (Units=1/GPa)
#
#
# Indices 1 2 3 4 5 6 
#
# 1 0.009542 0.000656 -0.000549 0.000000 0.000000 0.000000
# 2 0.000656 0.031717 -0.004884 0.000000 0.000000 0.000000
# 3 -0.000549 -0.004884 0.005816 0.000000 0.000000 0.000000
# 4 0.000000 0.000000 0.000000 0.043288 0.000000 0.000000
# 5 0.000000 0.000000 0.000000 0.000000 -0.036167 0.000000
# 6 0.000000 0.000000 0.000000 0.000000 0.000000 0.091403
#
#
# Mechanical properties :
#
#
# Convention : Reuss Voigt Hill
#
# Bulk Modulus (GPa) = 26.65166 46.41638 36.53402
# Shear Modulus (GPa) = 29.82240 21.34477 25.58358
#
# Velocity S-wave (km/s) = 3.63683 3.07679 3.36847
# Velocity P-wave (km/s) = 5.42730 5.76266 5.59749
#
# Compressibility (1/GPa) = 0.03752111
#
# Stress axis : x y z
#
# Youngs Moduli (GPa) = 104.79653 31.52897 171.95267
#
# Poissons Ratio (x) = -0.02067 0.09434
# Poissons Ratio (y) = -0.06870 0.83977
# Poissons Ratio (z) = 0.05749 0.15398
#
# Static dielectric constant tensor:
#      x y z
#    x 1.938640 0.000000 0.000000 
#    y 0.000000 2.002700 0.000000 
#    z 0.000000 0.000000 1.999610 
# 
# From -- ./inp_files/29587.got.cif
#   From: 2010.05.17/outbox.cif.g08.bks.cpg/sg48_15_cif.got.tgz:29587.got - 2010.06.03 20:39:00.
