data_PCOD9390103
_publ_section_title
;
Structure prediction by ZEFSAII (Michael W. Deem and Ramdas Pophale) SiO2 
 PCOD9390103
Probable space group: P N N N
;
_chemical_formula_sum "Si O2"
_cell_formula_units_Z 48
_cell_length_a 10.249391
_cell_length_b 8.554585
_cell_length_c 28.337518
_cell_angle_alpha 90.000000
_cell_angle_beta 90.000000
_cell_angle_gamma 90.000000
_cell_volume 2484.613360
_symmetry_space_group_name_H-M "P N N N"
_symmetry_group_IT_number 48
_space_group.IT_coordinate_system_code '2'
_symmetry_cell_setting 'orthorhombic'
loop_
_space_group_symop_operation_xyz
x,y,z
1/2-x,1/2-y,z
x,1/2-y,1/2-z
1/2-x,y,1/2-z
-x,-y,-z
1/2+x,1/2+y,-z
-x,1/2+y,1/2+z
1/2+x,-y,1/2+z
loop_
_atom_site_type_symbol
_atom_site_label
_atom_site_fract_x
_atom_site_fract_y
_atom_site_fract_z
Si Si1 0.845548 0.104358 0.956173
Si Si2 0.990545 0.046205 0.796646
Si Si3 0.476159 0.084013 0.813851
Si Si4 0.245852 0.939598 0.356855
Si Si5 0.781135 0.070493 0.142872
Si Si6 0.645672 0.888203 0.451872
O O1 0.750000 0.250000 0.963928
O O2 0.796755 0.017137 0.908718
O O3 0.994016 0.162578 0.948165
O O4 0.843481 0.992801 0.001242
O O5 0.021593 0.226107 0.812466
O O6 0.000344 0.037217 0.740490
O O7 0.848136 0.007316 0.817178
O O8 0.099172 0.941237 0.820946
O O9 0.597591 0.021232 0.844521
O O10 0.341800 0.019328 0.834311
O O11 0.250000 0.750000 0.356057
O O12 0.750000 0.250000 0.133894
O O13 0.821898 0.987712 0.094479
O O14 0.750000 0.750000 0.454446
#
# Coordination Sequence:
#
# PCOD9390103 Si02
#       6
#     8   8   8   8   8   8
#     4  10  22  42  65  96 126 156 199 251 304 360
#     4  10  19  38  63  90 123 156 205 252 300 363
#     4  10  21  36  63  93 119 160 205 248 305 362
#     4   9  18  36  62  93 121 155 196 252 300 357
#     4  12  25  40  58  87 124 165 206 253 302 354
#     4  11  24  43  67  92 124 160 201 249 304 365
#
# _framework density 19.318899999999999
#
# number of rings (size 3 to 8) (size 9 to 14) (size 15 to 20)
#    0.000    1.667    1.667    3.000    4.667    5.333 
#    6.000    0.833    0.000    2.000    0.000    0.000 
#    0.000    0.000    0.000    0.000    0.000    0.000 
#
# Total GULP energy -268210.158958 kJ/mol
# GULP energy per Si atom -5587.711645 kJ/mol
# Density = 1.927493 g / cm^3
# Si number density = 19.318900 Si / 1000 Ang^3
#
#
#
# Elastic Constant Matrix: (Units=GPa)
#
#
# Indices 1 2 3 4 5 6 
#
# 1 121.8074 26.3080 39.9135 0.0000 0.0000 0.0000
# 2 26.3080 37.9345 15.6907 0.0000 0.0000 0.0000
# 3 39.9135 15.6907 95.4443 0.0000 0.0000 0.0000
# 4 0.0000 0.0000 0.0000 14.1227 0.0000 0.0000
# 5 0.0000 0.0000 0.0000 0.0000 30.0729 0.0000
# 6 0.0000 0.0000 0.0000 0.0000 0.0000 5.6436
#
#
#
# Elastic Compliance Matrix: (Units=1/GPa)
#
#
# Indices 1 2 3 4 5 6 
#
# 1 0.010628 -0.005936 -0.003469 0.000000 0.000000 0.000000
# 2 -0.005936 0.031600 -0.002713 0.000000 0.000000 0.000000
# 3 -0.003469 -0.002713 0.012374 0.000000 0.000000 0.000000
# 4 0.000000 0.000000 0.000000 0.070808 0.000000 0.000000
# 5 0.000000 0.000000 0.000000 0.000000 0.033253 0.000000
# 6 0.000000 0.000000 0.000000 0.000000 0.000000 0.177192
#
#
# Mechanical properties :
#
#
# Convention : Reuss Voigt Hill
#
# Bulk Modulus (GPa) = 32.93012 46.55673 39.74343
# Shear Modulus (GPa) = 13.50577 21.51945 17.51261
#
# Velocity S-wave (km/s) = 2.64691 3.34114 3.01408
# Velocity P-wave (km/s) = 5.14043 6.24786 5.72100
#
# Compressibility (1/GPa) = 0.03036734
#
# Stress axis : x y z
#
# Youngs Moduli (GPa) = 94.08755 31.64563 80.81574
#
# Poissons Ratio (x) = 0.18785 0.28033
# Poissons Ratio (y) = 0.55852 0.21921
# Poissons Ratio (z) = 0.32637 0.08584
#
# Static dielectric constant tensor:
#      x y z
#    x 1.662390 0.000000 0.000000 
#    y 0.000000 1.633680 0.000000 
#    z 0.000000 0.000000 1.666010 
# 
# From -- ./inp_files/38675.got.cif
#   From: 2010.05.17/outbox.cif.g08.bks.cpg/sg48_20_cif.got.tgz:38675.got - 2010.06.03 20:39:00.
