data_PCOD9390077
_publ_section_title
;
Structure prediction by ZEFSAII (Michael W. Deem and Ramdas Pophale) SiO2 
 PCOD9390077
Probable space group: P N N N
;
_chemical_formula_sum "Si O2"
_cell_formula_units_Z 56
_cell_length_a 7.561762
_cell_length_b 14.006583
_cell_length_c 25.094443
_cell_angle_alpha 90.000000
_cell_angle_beta 90.000000
_cell_angle_gamma 90.000000
_cell_volume 2657.864055
_symmetry_space_group_name_H-M "P N N N"
_symmetry_group_IT_number 48
_space_group.IT_coordinate_system_code '2'
_symmetry_cell_setting 'orthorhombic'
loop_
_space_group_symop_operation_xyz
x,y,z
1/2-x,1/2-y,z
x,1/2-y,1/2-z
1/2-x,y,1/2-z
-x,-y,-z
1/2+x,1/2+y,-z
-x,1/2+y,1/2+z
1/2+x,-y,1/2+z
loop_
_atom_site_type_symbol
_atom_site_label
_atom_site_fract_x
_atom_site_fract_y
_atom_site_fract_z
Si Si1 0.268574 0.999154 0.400383
Si Si2 0.907050 0.515984 0.289507
Si Si3 0.694745 0.140449 0.142009
Si Si4 0.994161 0.596165 0.964390
Si Si5 0.982074 0.663228 0.074145
Si Si6 0.853978 0.914833 0.706560
Si Si7 0.420824 0.127241 0.607068
O O1 0.452158 0.953211 0.418429
O O2 0.121698 0.914246 0.403923
O O3 0.262661 0.039146 0.340451
O O4 0.195564 0.085653 0.436071
O O5 0.750000 0.542137 0.250000
O O6 0.835161 0.426665 0.326495
O O7 0.933187 0.600557 0.330974
O O8 0.058795 0.490845 0.247221
O O9 0.750000 0.250000 0.138214
O O10 0.637495 0.103975 0.082862
O O11 0.516416 0.134763 0.177038
O O12 0.000000 0.500000 0.000000
O O13 0.006625 0.674090 0.010349
O O14 0.781711 0.628038 0.087056
O O15 0.998384 0.767948 0.098177
O O16 0.750000 0.853261 0.750000
#
# Coordination Sequence:
#
# PCOD9390077 Si02
#       7
#     8   8   8   8   8   8   8
#     4  10  20  38  63  89 122 165 212 258 315 382
#     4  10  20  37  62  88 123 167 206 253 318 392
#     4  10  22  39  64  95 121 160 213 261 325 392
#     4   9  19  38  62  87 121 160 208 261 316 376
#     4  10  22  38  58  92 126 163 210 271 309 371
#     4  10  19  37  63  89 124 160 209 256 316 385
#     4  11  21  37  62  89 127 164 213 257 321 380
#
# _framework density 21.069551000000001
#
# number of rings (size 3 to 8) (size 9 to 14) (size 15 to 20)
#    0.000    2.000    1.429    3.857    0.000    5.429 
#    0.000    9.286    0.000    0.000    0.000    0.000 
#    0.000    0.000    0.000    0.000    0.000    0.000 
#
# Total GULP energy -312084.875005 kJ/mol
# GULP energy per Si atom -5572.944197 kJ/mol
# Density = 2.102160 g / cm^3
# Si number density = 21.069551 Si / 1000 Ang^3
#
#
#
# Elastic Constant Matrix: (Units=GPa)
#
#
# Indices 1 2 3 4 5 6 
#
# 1 71.7819 12.9239 17.8179 0.0000 0.0000 0.0000
# 2 12.9239 89.1668 49.1643 0.0000 0.0000 0.0000
# 3 17.8179 49.1643 147.6938 0.0000 0.0000 0.0000
# 4 0.0000 0.0000 0.0000 26.5907 0.0000 0.0000
# 5 0.0000 0.0000 0.0000 0.0000 25.0493 0.0000
# 6 0.0000 0.0000 0.0000 0.0000 0.0000 -3.1834
#
#
#
# Elastic Compliance Matrix: (Units=1/GPa)
#
#
# Indices 1 2 3 4 5 6 
#
# 1 0.014501 -0.001393 -0.001286 0.000000 0.000000 0.000000
# 2 -0.001393 0.013870 -0.004449 0.000000 0.000000 0.000000
# 3 -0.001286 -0.004449 0.008407 0.000000 0.000000 0.000000
# 4 0.000000 0.000000 0.000000 0.037607 0.000000 0.000000
# 5 0.000000 0.000000 0.000000 0.000000 0.039921 0.000000
# 6 0.000000 0.000000 0.000000 0.000000 0.000000 -0.314129
#
#
# Mechanical properties :
#
#
# Convention : Reuss Voigt Hill
#
# Bulk Modulus (GPa) = 44.39989 52.05053 48.22521
# Shear Modulus (GPa) = -28.08040 24.94040 -1.57000
#
# Velocity S-wave (km/s) = -3.65464 3.44425 -0.86416
# Velocity P-wave (km/s) = 1.81940 6.36985 4.68429
#
# Compressibility (1/GPa) = 0.02252258
#
# Stress axis : x y z
#
# Youngs Moduli (GPa) = 68.96065 72.09873 118.95063
#
# Poissons Ratio (x) = 0.10042 0.15294
# Poissons Ratio (y) = 0.09605 0.52921
# Poissons Ratio (z) = 0.08867 0.32076
#
# Static dielectric constant tensor:
#      x y z
#    x 2.044760 0.000000 0.000000 
#    y 0.000000 1.765620 0.000000 
#    z 0.000000 0.000000 1.783320 
# 
# From -- ./inp_files/33607.got.cif
#   From: 2010.05.17/outbox.cif.g08.bks.cpg/sg48_17_cif.got.tgz:33607.got - 2010.06.03 20:39:00.
