data_PCOD9390232
_publ_section_title
;
Structure prediction by ZEFSAII (Michael W. Deem and Ramdas Pophale) SiO2 
 PCOD9390232
Probable space group: P N N N
;
_chemical_formula_sum "Si O2"
_cell_formula_units_Z 34
_cell_length_a 17.926185
_cell_length_b 4.956433
_cell_length_c 17.766220
_cell_angle_alpha 90.000000
_cell_angle_beta 90.000000
_cell_angle_gamma 90.000000
_cell_volume 1578.527490
_symmetry_space_group_name_H-M "P N N N"
_symmetry_group_IT_number 48
_space_group.IT_coordinate_system_code '2'
_symmetry_cell_setting 'orthorhombic'
loop_
_space_group_symop_operation_xyz
x,y,z
1/2-x,1/2-y,z
x,1/2-y,1/2-z
1/2-x,y,1/2-z
-x,-y,-z
1/2+x,1/2+y,-z
-x,1/2+y,1/2+z
1/2+x,-y,1/2+z
loop_
_atom_site_type_symbol
_atom_site_label
_atom_site_fract_x
_atom_site_fract_y
_atom_site_fract_z
Si Si1 0.750000 0.250000 0.750000
Si Si2 0.134548 0.864334 0.370687
Si Si3 0.250000 0.250000 0.894486
Si Si4 0.114317 0.006402 0.800867
Si Si5 0.750000 0.250000 0.502704
Si Si6 0.461308 0.150765 0.336550
O O1 0.803403 0.081370 0.694237
O O2 0.179127 0.746772 0.441732
O O3 0.081010 0.629685 0.342085
O O4 0.084613 0.128059 0.383347
O O5 0.317698 0.353585 0.843253
O O6 0.234552 0.498485 0.949214
O O7 0.138447 0.750000 0.750000
O O8 0.048444 0.895715 0.854314
O O9 0.081282 0.250000 0.750000
O O10 0.460983 0.250000 0.250000
#
# Coordination Sequence:
#
# PCOD9390232 Si02
#       6
#     2   8   4   8   4   8
#     4  10  20  34  60  94 126 184 210 274 318 370
#     4  11  22  38  61  95 137 173 227 261 324 391
#     4  12  25  48  66  91 134 176 222 280 336 389
#     4  11  24  43  72 102 124 162 220 289 353 401
#     4  11  26  43  61  92 137 188 224 264 309 412
#     4  11  20  38  63  98 133 164 208 288 341 387
#
# _framework density 21.539062999999999
#
# number of rings (size 3 to 8) (size 9 to 14) (size 15 to 20)
#    0.000    0.941    2.353    6.000    0.000    4.706 
#    0.000    7.059    0.000    0.000    0.000    0.000 
#    0.000    0.000    0.000    0.000    0.000    0.000 
#
# Total GULP energy -190059.009948 kJ/mol
# GULP energy per Si atom -5589.970881 kJ/mol
# Density = 2.149004 g / cm^3
# Si number density = 21.539063 Si / 1000 Ang^3
#
#
#
# Elastic Constant Matrix: (Units=GPa)
#
#
# Indices 1 2 3 4 5 6 
#
# 1 170.3560 60.0651 53.3720 0.0000 0.0000 0.0000
# 2 60.0651 138.3039 37.9366 0.0000 0.0000 0.0000
# 3 53.3720 37.9366 62.7326 0.0000 0.0000 0.0000
# 4 0.0000 0.0000 0.0000 38.3380 0.0000 0.0000
# 5 0.0000 0.0000 0.0000 0.0000 26.2993 0.0000
# 6 0.0000 0.0000 0.0000 0.0000 0.0000 45.8492
#
#
#
# Elastic Compliance Matrix: (Units=1/GPa)
#
#
# Indices 1 2 3 4 5 6 
#
# 1 0.008456 -0.002037 -0.005963 0.000000 0.000000 0.000000
# 2 -0.002037 0.009159 -0.003806 0.000000 0.000000 0.000000
# 3 -0.005963 -0.003806 0.023315 0.000000 0.000000 0.000000
# 4 0.000000 0.000000 0.000000 0.026084 0.000000 0.000000
# 5 0.000000 0.000000 0.000000 0.000000 0.038024 0.000000
# 6 0.000000 0.000000 0.000000 0.000000 0.000000 0.021811
#
#
# Mechanical properties :
#
#
# Convention : Reuss Voigt Hill
#
# Bulk Modulus (GPa) = 57.73795 74.90442 66.32119
# Shear Modulus (GPa) = 32.00351 36.76523 34.38437
#
# Velocity S-wave (km/s) = 3.85884 4.13596 3.99980
# Velocity P-wave (km/s) = 6.83509 7.59340 7.22421
#
# Compressibility (1/GPa) = 0.01731963
#
# Stress axis : x y z
#
# Youngs Moduli (GPa) = 118.25387 109.18183 42.89061
#
# Poissons Ratio (x) = 0.22241 0.25574
# Poissons Ratio (y) = 0.24089 0.16323
# Poissons Ratio (z) = 0.70511 0.41552
#
# Static dielectric constant tensor:
#      x y z
#    x 1.820980 0.000000 0.000000 
#    y 0.000000 1.759330 0.000000 
#    z 0.000000 0.000000 1.804850 
# 
# From -- ./inp_files/31808.got.cif
#   From: 2010.05.17/outbox.cif.g08.bks.cpg/sg48_16_cif.got.tgz:31808.got - 2010.06.03 20:39:00.
