data_PCOD9390096
_publ_section_title
;
Structure prediction by ZEFSAII (Michael W. Deem and Ramdas Pophale) SiO2 
 PCOD9390096
Probable space group: P N N N
;
_chemical_formula_sum "Si O2"
_cell_formula_units_Z 28
_cell_length_a 7.223008
_cell_length_b 10.737911
_cell_length_c 19.357036
_cell_angle_alpha 90.000000
_cell_angle_beta 90.000000
_cell_angle_gamma 90.000000
_cell_volume 1501.332042
_symmetry_space_group_name_H-M "P N N N"
_symmetry_group_IT_number 48
_space_group.IT_coordinate_system_code '2'
_symmetry_cell_setting 'orthorhombic'
loop_
_space_group_symop_operation_xyz
x,y,z
1/2-x,1/2-y,z
x,1/2-y,1/2-z
1/2-x,y,1/2-z
-x,-y,-z
1/2+x,1/2+y,-z
-x,1/2+y,1/2+z
1/2+x,-y,1/2+z
loop_
_atom_site_type_symbol
_atom_site_label
_atom_site_fract_x
_atom_site_fract_y
_atom_site_fract_z
Si Si1 0.093749 0.993042 0.424703
Si Si2 0.750000 0.750000 0.964583
Si Si3 0.262011 0.099185 0.828934
Si Si4 0.974272 0.393030 0.556317
O O1 0.189244 0.130338 0.419533
O O2 0.258729 0.892409 0.426295
O O3 0.000000 0.000000 0.500000
O O4 0.942534 0.954606 0.367881
O O5 0.580534 0.718661 0.017300
O O6 0.250000 0.250000 0.827839
O O7 0.250000 0.055692 0.750000
O O8 0.086962 0.066357 0.876174
O O9 0.000000 0.500000 0.500000
#
# Coordination Sequence:
#
# PCOD9390096 Si02
#       4
#     8   4   8   8
#     4  11  21  37  62  93 123 162 210 260 306 378
#     4  10  20  36  61  95 120 160 216 258 306 368
#     4  11  23  40  60  92 129 157 200 262 323 378
#     4  10  19  38  60  91 120 158 209 255 304 371
#
# _framework density 18.650103999999999
#
# number of rings (size 3 to 8) (size 9 to 14) (size 15 to 20)
#    0.000    1.429    7.143    0.000    0.000    5.714 
#    0.000    2.857    0.000   20.571    0.000    0.000 
#    0.000    0.000    0.000    0.000    0.000    0.000 
#
# Total GULP energy -156050.077188 kJ/mol
# GULP energy per Si atom -5573.217042 kJ/mol
# Density = 1.860766 g / cm^3
# Si number density = 18.650104 Si / 1000 Ang^3
#
#
#
# Elastic Constant Matrix: (Units=GPa)
#
#
# Indices 1 2 3 4 5 6 
#
# 1 174.4930 43.5500 74.9709 0.0000 0.0000 0.0000
# 2 43.5500 99.1317 35.0404 0.0000 0.0000 0.0000
# 3 74.9709 35.0404 162.3483 0.0000 0.0000 0.0000
# 4 0.0000 0.0000 0.0000 23.5425 0.0000 0.0000
# 5 0.0000 0.0000 0.0000 0.0000 22.7760 0.0000
# 6 0.0000 0.0000 0.0000 0.0000 0.0000 35.6918
#
#
#
# Elastic Compliance Matrix: (Units=1/GPa)
#
#
# Indices 1 2 3 4 5 6 
#
# 1 0.007593 -0.002270 -0.003017 0.000000 0.000000 0.000000
# 2 -0.002270 0.011599 -0.001455 0.000000 0.000000 0.000000
# 3 -0.003017 -0.001455 0.007867 0.000000 0.000000 0.000000
# 4 0.000000 0.000000 0.000000 0.042476 0.000000 0.000000
# 5 0.000000 0.000000 0.000000 0.000000 0.043906 0.000000
# 6 0.000000 0.000000 0.000000 0.000000 0.000000 0.028018
#
#
# Mechanical properties :
#
#
# Convention : Reuss Voigt Hill
#
# Bulk Modulus (GPa) = 73.65980 82.56617 78.11299
# Shear Modulus (GPa) = 31.35427 35.22952 33.29190
#
# Velocity S-wave (km/s) = 4.10467 4.35095 4.22960
# Velocity P-wave (km/s) = 7.87692 8.34315 8.11339
#
# Compressibility (1/GPa) = 0.01357593
#
# Stress axis : x y z
#
# Youngs Moduli (GPa) = 131.69196 86.21353 127.11608
#
# Poissons Ratio (x) = 0.19567 0.38348
# Poissons Ratio (y) = 0.29889 0.18501
# Poissons Ratio (z) = 0.39728 0.12548
#
# Static dielectric constant tensor:
#      x y z
#    x 1.689120 0.000000 0.000000 
#    y 0.000000 1.729100 0.000000 
#    z 0.000000 0.000000 1.605680 
# 
# From -- ./inp_files/29903.got.cif
#   From: 2010.05.17/outbox.cif.g08.bks.cpg/sg48_15_cif.got.tgz:29903.got - 2010.06.03 20:39:00.
