data_PCOD9390974
_publ_section_title
;
Structure prediction by ZEFSAII (Michael W. Deem and Ramdas Pophale) SiO2 
 PCOD9390974
Probable space group: P N N N
;
_chemical_formula_sum "Si O2"
_cell_formula_units_Z 58
_cell_length_a 10.273400
_cell_length_b 9.566251
_cell_length_c 26.802390
_cell_angle_alpha 90.000000
_cell_angle_beta 90.000000
_cell_angle_gamma 90.000000
_cell_volume 2634.083221
_symmetry_space_group_name_H-M "P N N N"
_symmetry_group_IT_number 48
_space_group.IT_coordinate_system_code '2'
_symmetry_cell_setting 'orthorhombic'
loop_
_space_group_symop_operation_xyz
x,y,z
1/2-x,1/2-y,z
x,1/2-y,1/2-z
1/2-x,y,1/2-z
-x,-y,-z
1/2+x,1/2+y,-z
-x,1/2+y,1/2+z
1/2+x,-y,1/2+z
loop_
_atom_site_type_symbol
_atom_site_label
_atom_site_fract_x
_atom_site_fract_y
_atom_site_fract_z
Si Si1 0.778415 0.593833 0.523618
Si Si2 0.886584 0.831510 0.872610
Si Si3 0.233947 0.012456 0.823502
Si Si4 0.753862 0.082171 0.066657
Si Si5 0.967219 0.947796 0.590988
Si Si6 0.031381 0.883413 0.315078
Si Si7 0.540813 0.428021 0.795053
Si Si8 0.750000 0.250000 0.250000
O O1 0.750000 0.750000 0.503236
O O2 0.872410 0.604416 0.571816
O O3 0.820625 0.487860 0.481039
O O4 0.641464 0.554388 0.549047
O O5 0.750000 0.750000 0.862465
O O6 0.984016 0.701489 0.880121
O O7 0.917204 0.945643 0.830884
O O8 0.196141 0.974530 0.880391
O O9 0.231481 0.870094 0.792591
O O10 0.374526 0.086993 0.820308
O O11 0.114932 0.094830 0.799507
O O12 0.750000 0.250000 0.063577
O O13 0.605877 0.023698 0.067101
O O14 0.918560 0.050123 0.634132
O O15 0.071415 0.956338 0.262945
O O16 0.084655 0.726220 0.310651
#
# Coordination Sequence:
#
# PCOD9390974 Si02
#       8
#     8   8   8   8   8   8   8   2
#     4   9  21  42  57  76 110 151 192 250 294 340
#     4   9  21  41  61  81 111 153 205 249 289 349
#     4  11  22  35  58  91 125 162 192 233 293 359
#     4  11  21  33  56  89 113 141 194 239 288 356
#     4   9  20  39  59  80 110 151 197 241 292 352
#     4  10  22  35  57  90 123 153 193 241 302 367
#     4  11  21  37  58  86 125 158 189 243 305 358
#     4  12  20  36  58  88 130 164 194 236 278 352
#
# _framework density 22.019044999999998
#
# number of rings (size 3 to 8) (size 9 to 14) (size 15 to 20)
#    0.000    2.207    2.069    1.655    1.931    4.966 
#    0.000   13.793    0.000    6.621    0.000    0.000 
#    0.000    0.000    0.000    0.000    0.000    0.000 
#
# Total GULP energy -323182.307533 kJ/mol
# GULP energy per Si atom -5572.108751 kJ/mol
# Density = 2.196893 g / cm^3
# Si number density = 22.019045 Si / 1000 Ang^3
#
#
#
# Elastic Constant Matrix: (Units=GPa)
#
#
# Indices 1 2 3 4 5 6 
#
# 1 28.6050 1.1576 1.4061 0.0000 0.0000 0.0000
# 2 1.1576 74.3670 57.6267 0.0000 0.0000 0.0000
# 3 1.4061 57.6267 134.6347 0.0000 0.0000 0.0000
# 4 0.0000 0.0000 0.0000 48.0906 0.0000 0.0000
# 5 0.0000 0.0000 0.0000 0.0000 1.4291 0.0000
# 6 0.0000 0.0000 0.0000 0.0000 0.0000 -1.3193
#
#
#
# Elastic Compliance Matrix: (Units=1/GPa)
#
#
# Indices 1 2 3 4 5 6 
#
# 1 0.034985 -0.000391 -0.000198 0.000000 0.000000 0.000000
# 2 -0.000391 0.020125 -0.008610 0.000000 0.000000 0.000000
# 3 -0.000198 -0.008610 0.011115 0.000000 0.000000 0.000000
# 4 0.000000 0.000000 0.000000 0.020794 0.000000 0.000000
# 5 0.000000 0.000000 0.000000 0.000000 0.699760 0.000000
# 6 0.000000 0.000000 0.000000 0.000000 0.000000 -0.757998
#
#
# Mechanical properties :
#
#
# Convention : Reuss Voigt Hill
#
# Bulk Modulus (GPa) = 20.90906 39.77638 30.34272
# Shear Modulus (GPa) = 79.21500 21.46782 50.34141
#
# Velocity S-wave (km/s) = 6.00448 3.12583 4.78668
# Velocity P-wave (km/s) = 7.58869 5.57956 6.66032
#
# Compressibility (1/GPa) = 0.04782617
#
# Stress axis : x y z
#
# Youngs Moduli (GPa) = 28.58407 49.69060 89.97082
#
# Poissons Ratio (x) = 0.01944 0.01781
# Poissons Ratio (y) = 0.01118 0.77462
# Poissons Ratio (z) = 0.00566 0.42782
#
# Static dielectric constant tensor:
#      x y z
#    x 1.887910 0.000000 0.000000 
#    y 0.000000 2.390000 0.000000 
#    z 0.000000 0.000000 1.787850 
# 
# From -- ./inp_files/37771.got.cif
#   From: 2010.05.17/outbox.cif.g08.bks.cpg/sg48_19_cif.got.tgz:37771.got - 2010.06.03 20:39:00.
