data_PCOD9390657
_publ_section_title
;
Structure prediction by ZEFSAII (Michael W. Deem and Ramdas Pophale) SiO2 
 PCOD9390657
Probable space group: P N N N
;
_chemical_formula_sum "Si O2"
_cell_formula_units_Z 36
_cell_length_a 17.518824
_cell_length_b 5.160849
_cell_length_c 22.047778
_cell_angle_alpha 90.000000
_cell_angle_beta 90.000000
_cell_angle_gamma 90.000000
_cell_volume 1993.383822
_symmetry_space_group_name_H-M "P N N N"
_symmetry_group_IT_number 48
_space_group.IT_coordinate_system_code '2'
_symmetry_cell_setting 'orthorhombic'
loop_
_space_group_symop_operation_xyz
x,y,z
1/2-x,1/2-y,z
x,1/2-y,1/2-z
1/2-x,y,1/2-z
-x,-y,-z
1/2+x,1/2+y,-z
-x,1/2+y,1/2+z
1/2+x,-y,1/2+z
loop_
_atom_site_type_symbol
_atom_site_label
_atom_site_fract_x
_atom_site_fract_y
_atom_site_fract_z
Si Si1 0.955814 0.083634 0.061276
Si Si2 0.833361 0.370964 0.528928
Si Si3 0.149018 0.996309 0.291715
Si Si4 0.033625 0.607549 0.107167
Si Si5 0.250000 0.250000 0.388239
O O1 0.987572 0.362114 0.081264
O O2 0.869459 0.080892 0.037089
O O3 0.979447 0.859989 0.108026
O O4 0.000000 0.000000 0.000000
O O5 0.750000 0.250000 0.523770
O O6 0.894610 0.190552 0.564064
O O7 0.816275 0.623243 0.570507
O O8 0.147454 0.250000 0.250000
O O9 0.213121 0.041127 0.343044
O O10 0.162591 0.750000 0.250000
O O11 0.070785 0.959328 0.328623
#
# Coordination Sequence:
#
# PCOD9390657 Si02
#       5
#     8   8   8   8   4
#     4  10  21  36  57  77 108 152 189 228 286 338
#     4  11  22  34  58  82 118 152 189 225 285 349
#     4  12  25  39  56  78 111 158 201 239 270 319
#     4  11  22  40  53  78 111 152 194 239 275 324
#     4  12  25  36  54  84 126 152 191 228 282 332
#
# _framework density 18.059743000000001
#
# number of rings (size 3 to 8) (size 9 to 14) (size 15 to 20)
#    0.000    0.889    2.222    8.333    3.111    2.667 
#    0.000    0.000    0.000    0.000    0.000    0.000 
#    0.000   13.333    0.000    0.000    0.000    0.000 
#
# Total GULP energy -201080.387152 kJ/mol
# GULP energy per Si atom -5585.566310 kJ/mol
# Density = 1.801864 g / cm^3
# Si number density = 18.059743 Si / 1000 Ang^3
#
#
#
# Elastic Constant Matrix: (Units=GPa)
#
#
# Indices 1 2 3 4 5 6 
#
# 1 96.2267 58.2158 53.6425 0.0000 0.0000 0.0000
# 2 58.2158 156.0695 51.1080 0.0000 0.0000 0.0000
# 3 53.6425 51.1080 67.9503 0.0000 0.0000 0.0000
# 4 0.0000 0.0000 0.0000 34.5223 0.0000 0.0000
# 5 0.0000 0.0000 0.0000 0.0000 22.8535 0.0000
# 6 0.0000 0.0000 0.0000 0.0000 0.0000 27.2084
#
#
#
# Elastic Compliance Matrix: (Units=1/GPa)
#
#
# Indices 1 2 3 4 5 6 
#
# 1 0.019545 -0.002969 -0.013196 0.000000 0.000000 0.000000
# 2 -0.002969 0.008952 -0.004389 0.000000 0.000000 0.000000
# 3 -0.013196 -0.004389 0.028436 0.000000 0.000000 0.000000
# 4 0.000000 0.000000 0.000000 0.028967 0.000000 0.000000
# 5 0.000000 0.000000 0.000000 0.000000 0.043757 0.000000
# 6 0.000000 0.000000 0.000000 0.000000 0.000000 0.036753
#
#
# Mechanical properties :
#
#
# Convention : Reuss Voigt Hill
#
# Bulk Modulus (GPa) = 63.19808 71.79768 67.49788
# Shear Modulus (GPa) = 23.49693 27.40219 25.44956
#
# Velocity S-wave (km/s) = 3.61094 3.89949 3.75799
# Velocity P-wave (km/s) = 7.24259 7.75349 7.50239
#
# Compressibility (1/GPa) = 0.01582327
#
# Stress axis : x y z
#
# Youngs Moduli (GPa) = 51.16475 111.70278 35.16702
#
# Poissons Ratio (x) = 0.33165 0.46407
# Poissons Ratio (y) = 0.15191 0.15437
# Poissons Ratio (z) = 0.67518 0.49032
#
# Static dielectric constant tensor:
#      x y z
#    x 1.711330 0.000000 0.000000 
#    y 0.000000 1.700680 0.000000 
#    z 0.000000 0.000000 1.639650 
# 
# From -- ./inp_files/36611.got.cif
#   From: 2010.05.17/outbox.cif.g08.bks.cpg/sg48_19_cif.got.tgz:36611.got - 2010.06.03 20:39:00.
