data_PCOD9390082
_publ_section_title
;
Structure prediction by ZEFSAII (Michael W. Deem and Ramdas Pophale) SiO2 
 PCOD9390082
Probable space group: P N N N
;
_chemical_formula_sum "Si O2"
_cell_formula_units_Z 40
_cell_length_a 9.140307
_cell_length_b 20.899619
_cell_length_c 10.802501
_cell_angle_alpha 90.000000
_cell_angle_beta 90.000000
_cell_angle_gamma 90.000000
_cell_volume 2063.590249
_symmetry_space_group_name_H-M "P N N N"
_symmetry_group_IT_number 48
_space_group.IT_coordinate_system_code '2'
_symmetry_cell_setting 'orthorhombic'
loop_
_space_group_symop_operation_xyz
x,y,z
1/2-x,1/2-y,z
x,1/2-y,1/2-z
1/2-x,y,1/2-z
-x,-y,-z
1/2+x,1/2+y,-z
-x,1/2+y,1/2+z
1/2+x,-y,1/2+z
loop_
_atom_site_type_symbol
_atom_site_label
_atom_site_fract_x
_atom_site_fract_y
_atom_site_fract_z
Si Si1 0.131279 0.980333 0.355682
Si Si2 0.890967 0.218906 0.383984
Si Si3 0.849867 0.433655 0.126886
Si Si4 0.074640 0.845891 0.254469
Si Si5 0.419472 0.239179 0.581622
O O1 0.250000 0.994708 0.250000
O O2 0.198585 0.962367 0.491555
O O3 0.049551 0.916306 0.307139
O O4 0.010930 0.035527 0.361408
O O5 0.750000 0.250000 0.452691
O O6 0.890326 0.250000 0.250000
O O7 0.867638 0.143019 0.383166
O O8 0.039339 0.244590 0.443043
O O9 0.750000 0.447004 0.250000
O O10 0.250000 0.838421 0.250000
O O11 0.008948 0.794332 0.347547
O O12 0.988706 0.827566 0.128765
O O13 0.250000 0.250000 0.607659
#
# Coordination Sequence:
#
# PCOD9390082 Si02
#       5
#     8   8   8   8   8
#     4  10  24  43  67  96 132 171 219 273 327 387
#     4  11  22  41  66  90 122 174 219 264 319 397
#     4  11  23  45  67  94 132 172 220 270 325 392
#     4  10  19  37  65  89 123 164 214 259 320 377
#     4  11  22  35  57  96 132 158 207 276 330 378
#
# _framework density 19.383693999999998
#
# number of rings (size 3 to 8) (size 9 to 14) (size 15 to 20)
#    0.000    1.400    4.000    3.600    2.800    2.800 
#    3.600    0.000    0.000    0.000    0.000    0.000 
#    0.000    0.000    0.000    0.000    0.000    0.000 
#
# Total GULP energy -222840.982897 kJ/mol
# GULP energy per Si atom -5571.024572 kJ/mol
# Density = 1.933958 g / cm^3
# Si number density = 19.383694 Si / 1000 Ang^3
#
#
#
# Elastic Constant Matrix: (Units=GPa)
#
#
# Indices 1 2 3 4 5 6 
#
# 1 82.8190 46.8035 48.2340 0.0000 0.0000 0.0000
# 2 46.8035 105.7799 26.5418 0.0000 0.0000 0.0000
# 3 48.2340 26.5418 130.4974 0.0000 0.0000 0.0000
# 4 0.0000 0.0000 0.0000 18.8524 0.0000 0.0000
# 5 0.0000 0.0000 0.0000 0.0000 13.1755 0.0000
# 6 0.0000 0.0000 0.0000 0.0000 0.0000 53.5070
#
#
#
# Elastic Compliance Matrix: (Units=1/GPa)
#
#
# Indices 1 2 3 4 5 6 
#
# 1 0.019471 -0.007176 -0.005737 0.000000 0.000000 0.000000
# 2 -0.007176 0.012606 0.000088 0.000000 0.000000 0.000000
# 3 -0.005737 0.000088 0.009766 0.000000 0.000000 0.000000
# 4 0.000000 0.000000 0.000000 0.053044 0.000000 0.000000
# 5 0.000000 0.000000 0.000000 0.000000 0.075899 0.000000
# 6 0.000000 0.000000 0.000000 0.000000 0.000000 0.018689
#
#
# Mechanical properties :
#
#
# Convention : Reuss Voigt Hill
#
# Bulk Modulus (GPa) = 61.75277 62.47275 62.11276
# Shear Modulus (GPa) = 22.67348 30.27478 26.47413
#
# Velocity S-wave (km/s) = 3.42383 3.95634 3.69967
# Velocity P-wave (km/s) = 6.89619 7.29175 7.09672
#
# Compressibility (1/GPa) = 0.01619361
#
# Stress axis : x y z
#
# Youngs Moduli (GPa) = 51.35793 79.32480 102.39927
#
# Poissons Ratio (x) = 0.56921 0.58751
# Poissons Ratio (y) = 0.36853 -0.00903
# Poissons Ratio (z) = 0.29466 -0.00700
#
# Static dielectric constant tensor:
#      x y z
#    x 1.734530 0.000000 0.000000 
#    y 0.000000 1.661770 0.000000 
#    z 0.000000 0.000000 1.815510 
# 
# From -- ./inp_files/10982.got.cif
#   From: 2010.05.17/outbox.cif.g08.bks.cpg/sg48_6_cif.got.tgz:10982.got - 2010.06.03 20:39:00.
