data_PCOD9390568
_publ_section_title
;
Structure prediction by ZEFSAII (Michael W. Deem and Ramdas Pophale) SiO2 
 PCOD9390568
Probable space group: P N N N
;
_chemical_formula_sum "Si O2"
_cell_formula_units_Z 58
_cell_length_a 5.342366
_cell_length_b 17.020746
_cell_length_c 28.725135
_cell_angle_alpha 90.000000
_cell_angle_beta 90.000000
_cell_angle_gamma 90.000000
_cell_volume 2612.006823
_symmetry_space_group_name_H-M "P N N N"
_symmetry_group_IT_number 48
_space_group.IT_coordinate_system_code '2'
_symmetry_cell_setting 'orthorhombic'
loop_
_space_group_symop_operation_xyz
x,y,z
1/2-x,1/2-y,z
x,1/2-y,1/2-z
1/2-x,y,1/2-z
-x,-y,-z
1/2+x,1/2+y,-z
-x,1/2+y,1/2+z
1/2+x,-y,1/2+z
loop_
_atom_site_type_symbol
_atom_site_label
_atom_site_fract_x
_atom_site_fract_y
_atom_site_fract_z
Si Si1 0.250000 0.250000 0.750000
Si Si2 0.696255 0.458904 0.035126
Si Si3 0.094301 0.387002 0.964635
Si Si4 0.148179 0.137870 0.824918
Si Si5 0.332026 0.443307 0.360308
Si Si6 0.815207 0.838768 0.943144
Si Si7 0.162652 0.869645 0.376236
Si Si8 0.833758 0.454007 0.303275
O O1 0.089940 0.193309 0.781963
O O2 0.780314 0.537945 0.061869
O O3 0.578958 0.385168 0.061723
O O4 0.500000 0.500000 0.000000
O O5 0.904961 0.424944 0.001487
O O6 0.935840 0.342590 0.926372
O O7 0.272751 0.342977 0.000744
O O8 0.433180 0.150472 0.841831
O O9 0.938963 0.158048 0.863138
O O10 0.132250 0.048206 0.807970
O O11 0.340290 0.393752 0.407950
O O12 0.306665 0.535153 0.374005
O O13 0.592478 0.431976 0.333825
O O14 0.093608 0.422464 0.326605
O O15 0.750000 0.750000 0.929767
O O16 0.750000 0.435445 0.250000
#
# Coordination Sequence:
#
# PCOD9390568 Si02
#       8
#     2   8   8   8   8   8   8   8
#     4  12  24  50  64  94 144 186 210 278 360 430
#     4   9  19  35  62  91 119 175 217 272 320 393
#     4  10  21  38  65  89 130 174 231 277 326 385
#     4  10  24  38  66  93 130 173 216 272 333 408
#     4  10  22  37  67  95 132 163 220 276 324 399
#     4  11  25  41  60  97 134 183 215 274 351 412
#     4  10  22  40  63 100 122 168 232 277 317 381
#     4  10  20  41  66  99 123 163 222 281 326 385
#
# _framework density 22.205148000000001
#
# number of rings (size 3 to 8) (size 9 to 14) (size 15 to 20)
#    0.000    1.931    0.690    2.897   11.586    2.207 
#    1.241    1.379    0.000    2.483    0.000    0.000 
#    0.000    0.000    0.000    0.000    0.000    0.000 
#
# Total GULP energy -323352.552435 kJ/mol
# GULP energy per Si atom -5575.044007 kJ/mol
# Density = 2.215461 g / cm^3
# Si number density = 22.205148 Si / 1000 Ang^3
#
#
#
# Elastic Constant Matrix: (Units=GPa)
#
#
# Indices 1 2 3 4 5 6 
#
# 1 98.5936 33.1280 25.1857 0.0000 0.0000 0.0000
# 2 33.1280 74.8139 22.8157 0.0000 0.0000 0.0000
# 3 25.1857 22.8157 107.3527 0.0000 0.0000 0.0000
# 4 0.0000 0.0000 0.0000 24.1049 0.0000 0.0000
# 5 0.0000 0.0000 0.0000 0.0000 34.8642 0.0000
# 6 0.0000 0.0000 0.0000 0.0000 0.0000 4.1972
#
#
#
# Elastic Compliance Matrix: (Units=1/GPa)
#
#
# Indices 1 2 3 4 5 6 
#
# 1 0.012246 -0.004862 -0.001840 0.000000 0.000000 0.000000
# 2 -0.004862 0.016223 -0.002307 0.000000 0.000000 0.000000
# 3 -0.001840 -0.002307 0.010237 0.000000 0.000000 0.000000
# 4 0.000000 0.000000 0.000000 0.041485 0.000000 0.000000
# 5 0.000000 0.000000 0.000000 0.000000 0.028683 0.000000
# 6 0.000000 0.000000 0.000000 0.000000 0.000000 0.238254
#
#
# Mechanical properties :
#
#
# Convention : Reuss Voigt Hill
#
# Bulk Modulus (GPa) = 48.33540 49.22433 48.77987
# Shear Modulus (GPa) = 13.43936 25.94199 19.69067
#
# Velocity S-wave (km/s) = 2.46282 3.42173 2.98108
# Velocity P-wave (km/s) = 5.46829 6.15037 5.81934
#
# Compressibility (1/GPa) = 0.02068877
#
# Stress axis : x y z
#
# Youngs Moduli (GPa) = 81.65843 61.64137 97.68407
#
# Poissons Ratio (x) = 0.29967 0.17972
# Poissons Ratio (y) = 0.39699 0.22538
# Poissons Ratio (z) = 0.15024 0.14222
#
# Static dielectric constant tensor:
#      x y z
#    x 1.919630 0.000000 0.000000 
#    y 0.000000 1.850460 0.000000 
#    z 0.000000 0.000000 1.919450 
# 
# From -- ./inp_files/37189.got.cif
#   From: 2010.05.17/outbox.cif.g08.bks.cpg/sg48_19_cif.got.tgz:37189.got - 2010.06.03 20:39:00.
