data_PCOD9390235
_publ_section_title
;
Structure prediction by ZEFSAII (Michael W. Deem and Ramdas Pophale) SiO2 
 PCOD9390235
Probable space group: P N N N
;
_chemical_formula_sum "Si O2"
_cell_formula_units_Z 64
_cell_length_a 31.538330
_cell_length_b 16.898947
_cell_length_c 5.432792
_cell_angle_alpha 90.000000
_cell_angle_beta 90.000000
_cell_angle_gamma 90.000000
_cell_volume 2895.485637
_symmetry_space_group_name_H-M "P N N N"
_symmetry_group_IT_number 48
_space_group.IT_coordinate_system_code '2'
_symmetry_cell_setting 'orthorhombic'
loop_
_space_group_symop_operation_xyz
x,y,z
1/2-x,1/2-y,z
x,1/2-y,1/2-z
1/2-x,y,1/2-z
-x,-y,-z
1/2+x,1/2+y,-z
-x,1/2+y,1/2+z
1/2+x,-y,1/2+z
loop_
_atom_site_type_symbol
_atom_site_label
_atom_site_fract_x
_atom_site_fract_y
_atom_site_fract_z
Si Si1 0.172547 0.990254 0.653627
Si Si2 0.295642 0.437615 0.145094
Si Si3 0.458975 0.928963 0.550336
Si Si4 0.556267 0.333751 0.663804
Si Si5 0.024646 0.330884 0.138336
Si Si6 0.880054 0.156169 0.254142
Si Si7 0.361683 0.199722 0.495630
Si Si8 0.916255 0.581136 0.238252
O O1 0.187635 0.007265 0.373512
O O2 0.128510 0.040150 0.670062
O O3 0.160195 0.900545 0.729986
O O4 0.202791 0.019254 0.878008
O O5 0.250000 0.412516 0.250000
O O6 0.325016 0.362069 0.085597
O O7 0.465960 0.914094 0.265773
O O8 0.498531 0.889818 0.684073
O O9 0.416277 0.871639 0.557011
O O10 0.444680 0.012230 0.645987
O O11 0.574835 0.250000 0.750000
O O12 0.515135 0.298881 0.521142
O O13 0.593460 0.366037 0.495306
O O14 0.041709 0.250000 0.250000
O O15 0.059725 0.376867 0.983795
O O16 0.872147 0.250000 0.250000
O O17 0.352316 0.250000 0.750000
O O18 0.402737 0.147578 0.566065
O O19 0.367166 0.250000 0.250000
#
# Coordination Sequence:
#
# PCOD9390235 Si02
#       8
#     8   8   8   8   8   8   8   8
#     4  10  24  42  69 105 138 172 226 277 331 415
#     4  11  24  48  76 103 136 177 215 266 336 411
#     4  10  20  40  58  90 130 172 240 287 332 398
#     4  11  19  34  60  89 126 177 233 297 337 390
#     4  11  22  39  59  89 129 180 237 288 348 403
#     4  10  20  34  62  94 133 179 226 283 338 386
#     4  11  25  48  71 103 139 169 220 278 338 420
#     4  10  24  42  64  94 130 179 217 284 353 406
#
# _framework density 22.103373000000001
#
# number of rings (size 3 to 8) (size 9 to 14) (size 15 to 20)
#    0.000    1.500    2.500    3.000    5.250    2.750 
#    9.000    1.875    0.000    2.250    0.000    0.875 
#    0.000    0.000    0.000    0.000    0.000    0.000 
#
# Total GULP energy -356733.425422 kJ/mol
# GULP energy per Si atom -5573.959772 kJ/mol
# Density = 2.205306 g / cm^3
# Si number density = 22.103373 Si / 1000 Ang^3
#
#
#
# Elastic Constant Matrix: (Units=GPa)
#
#
# Indices 1 2 3 4 5 6 
#
# 1 85.5978 52.8547 38.5830 0.0000 0.0000 0.0000
# 2 52.8547 146.7680 47.6607 0.0000 0.0000 0.0000
# 3 38.5830 47.6607 63.6939 0.0000 0.0000 0.0000
# 4 0.0000 0.0000 0.0000 28.1599 0.0000 0.0000
# 5 0.0000 0.0000 0.0000 0.0000 9.5914 0.0000
# 6 0.0000 0.0000 0.0000 0.0000 0.0000 12.0644
#
#
#
# Elastic Compliance Matrix: (Units=1/GPa)
#
#
# Indices 1 2 3 4 5 6 
#
# 1 0.017529 -0.003784 -0.007787 0.000000 0.000000 0.000000
# 2 -0.003784 0.009817 -0.005054 0.000000 0.000000 0.000000
# 3 -0.007787 -0.005054 0.024199 0.000000 0.000000 0.000000
# 4 0.000000 0.000000 0.000000 0.035511 0.000000 0.000000
# 5 0.000000 0.000000 0.000000 0.000000 0.104260 0.000000
# 6 0.000000 0.000000 0.000000 0.000000 0.000000 0.082888
#
#
# Mechanical properties :
#
#
# Convention : Reuss Voigt Hill
#
# Bulk Modulus (GPa) = 54.65792 63.80628 59.23210
# Shear Modulus (GPa) = 15.94626 20.42723 18.18675
#
# Velocity S-wave (km/s) = 2.68888 3.04331 2.87157
# Velocity P-wave (km/s) = 5.86703 6.42486 6.15227
#
# Compressibility (1/GPa) = 0.01829561
#
# Stress axis : x y z
#
# Youngs Moduli (GPa) = 57.04853 101.86029 41.32440
#
# Poissons Ratio (x) = 0.38543 0.32179
# Poissons Ratio (y) = 0.21587 0.20885
# Poissons Ratio (z) = 0.44423 0.51480
#
# Static dielectric constant tensor:
#      x y z
#    x 1.863160 0.000000 0.000000 
#    y 0.000000 1.862100 0.000000 
#    z 0.000000 0.000000 2.249440 
# 
# From -- ./inp_files/7141.got.cif
#   From: 2010.05.17/outbox.cif.g08.bks.cpg/sg48_4_cif.got.tgz:7141.got - 2010.06.03 20:39:00.
