data_PCOD9390555
_publ_section_title
;
Structure prediction by ZEFSAII (Michael W. Deem and Ramdas Pophale) SiO2 
 PCOD9390555
Probable space group: P N N N
;
_chemical_formula_sum "Si O2"
_cell_formula_units_Z 64
_cell_length_a 18.210180
_cell_length_b 28.551357
_cell_length_c 5.892066
_cell_angle_alpha 90.000000
_cell_angle_beta 90.000000
_cell_angle_gamma 90.000000
_cell_volume 3063.434479
_symmetry_space_group_name_H-M "P N N N"
_symmetry_group_IT_number 48
_space_group.IT_coordinate_system_code '2'
_symmetry_cell_setting 'orthorhombic'
loop_
_space_group_symop_operation_xyz
x,y,z
1/2-x,1/2-y,z
x,1/2-y,1/2-z
1/2-x,y,1/2-z
-x,-y,-z
1/2+x,1/2+y,-z
-x,1/2+y,1/2+z
1/2+x,-y,1/2+z
loop_
_atom_site_type_symbol
_atom_site_label
_atom_site_fract_x
_atom_site_fract_y
_atom_site_fract_z
Si Si1 0.933142 0.070920 0.662174
Si Si2 0.552392 0.145487 0.448122
Si Si3 0.836099 0.409187 0.229397
Si Si4 0.182843 0.424890 0.373657
Si Si5 0.282971 0.323981 0.999580
Si Si6 0.564151 0.803214 0.321414
Si Si7 0.088191 0.504585 0.510071
Si Si8 0.558313 0.615587 0.556680
O O1 0.869349 0.095702 0.520736
O O2 0.899054 0.023488 0.754449
O O3 0.010127 0.071184 0.530819
O O4 0.955406 0.102696 0.876032
O O5 0.634583 0.136799 0.362347
O O6 0.517101 0.188994 0.576080
O O7 0.498246 0.137560 0.237569
O O8 0.750000 0.415207 0.250000
O O9 0.878481 0.455712 0.324714
O O10 0.250000 0.451013 0.250000
O O11 0.217981 0.380401 0.498649
O O12 0.132802 0.456881 0.533781
O O13 0.128977 0.403031 0.184533
O O14 0.250000 0.308242 0.750000
O O15 0.368870 0.310907 0.995071
O O16 0.250000 0.309461 0.250000
O O17 0.570943 0.750000 0.250000
O O18 0.574287 0.843874 0.128885
O O19 0.000000 0.500000 0.500000
#
# Coordination Sequence:
#
# PCOD9390555 Si02
#       8
#     8   8   8   8   8   8   8   8
#     4   9  20  38  63  83 121 167 215 272 328 408
#     4   9  19  39  63  91 125 160 215 268 343 419
#     4  10  22  38  62  92 126 171 219 283 344 410
#     4  11  23  39  59  85 126 178 224 279 338 397
#     4  11  25  47  65  93 133 183 233 280 342 413
#     4  11  23  40  69  99 125 169 219 283 341 418
#     4  11  24  38  55  89 125 170 228 282 333 396
#     4  10  20  41  63  87 124 168 218 267 343 411
#
# _framework density 20.891584000000002
#
# number of rings (size 3 to 8) (size 9 to 14) (size 15 to 20)
#    0.000    1.750    1.250    3.750    3.500    4.750 
#    2.250    2.500    0.000    0.000    0.000   25.375 
#    0.000    0.000    0.000    0.000    0.000    0.000 
#
# Total GULP energy -356458.950436 kJ/mol
# GULP energy per Si atom -5569.671101 kJ/mol
# Density = 2.084403 g / cm^3
# Si number density = 20.891584 Si / 1000 Ang^3
#
#
#
# Elastic Constant Matrix: (Units=GPa)
#
#
# Indices 1 2 3 4 5 6 
#
# 1 123.2948 19.2209 28.2952 0.0000 0.0000 0.0000
# 2 19.2209 53.0829 12.6632 0.0000 0.0000 0.0000
# 3 28.2952 12.6632 79.4195 0.0000 0.0000 0.0000
# 4 0.0000 0.0000 0.0000 9.6241 0.0000 0.0000
# 5 0.0000 0.0000 0.0000 0.0000 27.7701 0.0000
# 6 0.0000 0.0000 0.0000 0.0000 0.0000 18.4560
#
#
#
# Elastic Compliance Matrix: (Units=1/GPa)
#
#
# Indices 1 2 3 4 5 6 
#
# 1 0.009176 -0.002643 -0.002848 0.000000 0.000000 0.000000
# 2 -0.002643 0.020345 -0.002302 0.000000 0.000000 0.000000
# 3 -0.002848 -0.002302 0.013973 0.000000 0.000000 0.000000
# 4 0.000000 0.000000 0.000000 0.103906 0.000000 0.000000
# 5 0.000000 0.000000 0.000000 0.000000 0.036010 0.000000
# 6 0.000000 0.000000 0.000000 0.000000 0.000000 0.054183
#
#
# Mechanical properties :
#
#
# Convention : Reuss Voigt Hill
#
# Bulk Modulus (GPa) = 35.83264 41.79509 38.81386
# Shear Modulus (GPa) = 19.04891 24.21122 21.63007
#
# Velocity S-wave (km/s) = 3.02288 3.40795 3.22117
# Velocity P-wave (km/s) = 5.41965 5.96110 5.69681
#
# Compressibility (1/GPa) = 0.02790752
#
# Stress axis : x y z
#
# Youngs Moduli (GPa) = 108.97682 49.15273 71.56642
#
# Poissons Ratio (x) = 0.12992 0.20381
# Poissons Ratio (y) = 0.28806 0.16476
# Poissons Ratio (z) = 0.31034 0.11316
#
# Static dielectric constant tensor:
#      x y z
#    x 1.763660 0.000000 0.000000 
#    y 0.000000 1.800510 0.000000 
#    z 0.000000 0.000000 1.890430 
# 
# From -- ./inp_files/4719.got.cif
#   From: 2010.05.17/outbox.cif.g08.bks.cpg/sg48_3_cif.got.tgz:4719.got - 2010.06.03 20:39:00.
