data_PCOD9390735
_publ_section_title
;
Structure prediction by ZEFSAII (Michael W. Deem and Ramdas Pophale) SiO2 
 PCOD9390735
Probable space group: P N N N
;
_chemical_formula_sum "Si O2"
_cell_formula_units_Z 44
_cell_length_a 30.499330
_cell_length_b 5.003286
_cell_length_c 14.445384
_cell_angle_alpha 90.000000
_cell_angle_beta 90.000000
_cell_angle_gamma 90.000000
_cell_volume 2204.320396
_symmetry_space_group_name_H-M "P N N N"
_symmetry_group_IT_number 48
_space_group.IT_coordinate_system_code '2'
_symmetry_cell_setting 'orthorhombic'
loop_
_space_group_symop_operation_xyz
x,y,z
1/2-x,1/2-y,z
x,1/2-y,1/2-z
1/2-x,y,1/2-z
-x,-y,-z
1/2+x,1/2+y,-z
-x,1/2+y,1/2+z
1/2+x,-y,1/2+z
loop_
_atom_site_type_symbol
_atom_site_label
_atom_site_fract_x
_atom_site_fract_y
_atom_site_fract_z
Si Si1 0.912187 0.005471 0.688008
Si Si2 0.750000 0.750000 0.474843
Si Si3 0.804922 0.492796 0.314463
Si Si4 0.624309 0.203593 0.441698
Si Si5 0.342940 0.199246 0.041848
Si Si6 0.469007 0.754157 0.019757
O O1 0.928504 0.750000 0.750000
O O2 0.871617 0.895700 0.628000
O O3 0.896495 0.250000 0.750000
O O4 0.946668 0.153379 0.617903
O O5 0.773458 0.543501 0.403183
O O6 0.709342 0.664527 0.539022
O O7 0.804219 0.750000 0.250000
O O8 0.853211 0.421659 0.352324
O O9 0.792688 0.250000 0.250000
O O10 0.641643 0.502524 0.458741
O O11 0.572433 0.214981 0.451846
O O12 0.642588 0.002779 0.521078
O O13 0.500000 0.500000 0.000000
O O14 0.500000 0.000000 0.000000
#
# Coordination Sequence:
#
# PCOD9390735 Si02
#       6
#     8   4   8   8   8   8
#     4  11  22  41  65  92 122 157 198 252 308 357
#     4  10  23  38  61  88 118 160 212 250 289 360
#     4  11  23  37  56  86 121 161 202 251 299 349
#     4  10  21  39  57  84 122 162 198 237 299 368
#     4  10  21  38  62  86 117 160 197 240 298 361
#     4  11  22  40  66  91 117 157 203 244 298 373
#
# _framework density 19.960801
#
# number of rings (size 3 to 8) (size 9 to 14) (size 15 to 20)
#    0.000    1.455    0.000    7.909    0.000    8.727 
#    0.000    5.909    0.000    5.455    0.000    0.000 
#    0.000    0.000    0.000    0.000    0.000    0.000 
#
# Total GULP energy -245223.373420 kJ/mol
# GULP energy per Si atom -5573.258487 kJ/mol
# Density = 1.991537 g / cm^3
# Si number density = 19.960801 Si / 1000 Ang^3
#
#
#
# Elastic Constant Matrix: (Units=GPa)
#
#
# Indices 1 2 3 4 5 6 
#
# 1 178.1553 41.5679 37.9805 0.0000 0.0000 0.0000
# 2 41.5679 125.0142 32.3175 0.0000 0.0000 0.0000
# 3 37.9805 32.3175 83.8581 0.0000 0.0000 0.0000
# 4 0.0000 0.0000 0.0000 12.6260 0.0000 0.0000
# 5 0.0000 0.0000 0.0000 0.0000 24.2736 0.0000
# 6 0.0000 0.0000 0.0000 0.0000 0.0000 33.5910
#
#
#
# Elastic Compliance Matrix: (Units=1/GPa)
#
#
# Indices 1 2 3 4 5 6 
#
# 1 0.006472 -0.001549 -0.002335 0.000000 0.000000 0.000000
# 2 -0.001549 0.009255 -0.002865 0.000000 0.000000 0.000000
# 3 -0.002335 -0.002865 0.014086 0.000000 0.000000 0.000000
# 4 0.000000 0.000000 0.000000 0.079202 0.000000 0.000000
# 5 0.000000 0.000000 0.000000 0.000000 0.041197 0.000000
# 6 0.000000 0.000000 0.000000 0.000000 0.000000 0.029770
#
#
# Mechanical properties :
#
#
# Convention : Reuss Voigt Hill
#
# Bulk Modulus (GPa) = 61.28709 67.86215 64.57462
# Shear Modulus (GPa) = 25.13605 32.44222 28.78913
#
# Velocity S-wave (km/s) = 3.55247 4.03587 3.80186
# Velocity P-wave (km/s) = 6.89907 7.46922 7.18979
#
# Compressibility (1/GPa) = 0.01631665
#
# Stress axis : x y z
#
# Youngs Moduli (GPa) = 154.50989 108.05345 70.99008
#
# Poissons Ratio (x) = 0.16732 0.16573
# Poissons Ratio (y) = 0.23926 0.20340
# Poissons Ratio (z) = 0.36071 0.30960
#
# Static dielectric constant tensor:
#      x y z
#    x 1.752180 0.000000 0.000000 
#    y 0.000000 1.704010 0.000000 
#    z 0.000000 0.000000 1.762550 
# 
# From -- ./inp_files/28869.got.cif
#   From: 2010.05.17/outbox.cif.g08.bks.cpg/sg48_15_cif.got.tgz:28869.got - 2010.06.03 20:39:00.
