data_PCOD9390135
_publ_section_title
;
Structure prediction by ZEFSAII (Michael W. Deem and Ramdas Pophale) SiO2 
 PCOD9390135
Probable space group: P N N N
;
_chemical_formula_sum "Si O2"
_cell_formula_units_Z 38
_cell_length_a 25.449315
_cell_length_b 6.649675
_cell_length_c 10.692561
_cell_angle_alpha 90.000000
_cell_angle_beta 90.000000
_cell_angle_gamma 90.000000
_cell_volume 1809.498609
_symmetry_space_group_name_H-M "P N N N"
_symmetry_group_IT_number 48
_space_group.IT_coordinate_system_code '2'
_symmetry_cell_setting 'orthorhombic'
loop_
_space_group_symop_operation_xyz
x,y,z
1/2-x,1/2-y,z
x,1/2-y,1/2-z
1/2-x,y,1/2-z
-x,-y,-z
1/2+x,1/2+y,-z
-x,1/2+y,1/2+z
1/2+x,-y,1/2+z
loop_
_atom_site_type_symbol
_atom_site_label
_atom_site_fract_x
_atom_site_fract_y
_atom_site_fract_z
Si Si1 0.862645 0.288798 0.109447
Si Si2 0.903877 0.630688 0.489444
Si Si3 0.750000 0.750000 0.750000
Si Si4 0.798626 0.879985 0.506583
Si Si5 0.542208 0.750000 0.750000
Si Si6 0.967698 0.550922 0.125325
O O1 0.843860 0.250000 0.250000
O O2 0.913149 0.431707 0.125763
O O3 0.815136 0.399631 0.038253
O O4 0.887206 0.096530 0.039052
O O5 0.849679 0.750002 0.476588
O O6 0.924518 0.687564 0.627874
O O7 0.947504 0.719316 0.392559
O O8 0.785401 0.878286 0.654688
O O9 0.750000 0.750000 0.451154
O O10 0.505853 0.554810 0.724499
O O11 0.000000 0.500000 0.000000
#
# Coordination Sequence:
#
# PCOD9390135 Si02
#       6
#     8   8   2   8   4   8
#     4  11  23  43  64 102 141 181 231 278 347 424
#     4  10  22  40  65  96 135 178 229 289 337 412
#     4   8  18  44  70  94 128 162 220 286 352 416
#     4   9  21  43  70  97 131 174 221 291 356 410
#     4  10  19  40  65  96 136 185 238 280 345 406
#     4   9  20  39  58  94 135 184 234 275 339 400
#
# _framework density 21.000292000000002
#
# number of rings (size 3 to 8) (size 9 to 14) (size 15 to 20)
#    0.632    1.684    1.053    0.632    0.000    7.579 
#    3.789   20.000    0.000    0.000    0.000    0.000 
#    0.000    0.000    0.000    0.000    0.000    0.000 
#
# Total GULP energy -211603.155130 kJ/mol
# GULP energy per Si atom -5568.504082 kJ/mol
# Density = 2.095249 g / cm^3
# Si number density = 21.000292 Si / 1000 Ang^3
#
#
#
# Elastic Constant Matrix: (Units=GPa)
#
#
# Indices 1 2 3 4 5 6 
#
# 1 117.8733 53.3144 42.9228 0.0000 0.0000 0.0000
# 2 53.3144 134.8943 54.6502 0.0000 0.0000 0.0000
# 3 42.9228 54.6502 88.6748 0.0000 0.0000 0.0000
# 4 0.0000 0.0000 0.0000 30.0630 0.0000 0.0000
# 5 0.0000 0.0000 0.0000 0.0000 42.7109 0.0000
# 6 0.0000 0.0000 0.0000 0.0000 0.0000 34.7189
#
#
#
# Elastic Compliance Matrix: (Units=1/GPa)
#
#
# Indices 1 2 3 4 5 6 
#
# 1 0.011115 -0.002950 -0.003562 0.000000 0.000000 0.000000
# 2 -0.002950 0.010663 -0.005144 0.000000 0.000000 0.000000
# 3 -0.003562 -0.005144 0.016172 0.000000 0.000000 0.000000
# 4 0.000000 0.000000 0.000000 0.033263 0.000000 0.000000
# 5 0.000000 0.000000 0.000000 0.000000 0.023413 0.000000
# 6 0.000000 0.000000 0.000000 0.000000 0.000000 0.028803
#
#
# Mechanical properties :
#
#
# Convention : Reuss Voigt Hill
#
# Bulk Modulus (GPa) = 68.31545 71.46858 69.89201
# Shear Modulus (GPa) = 32.97718 34.20222 33.58970
#
# Velocity S-wave (km/s) = 3.96703 4.04004 4.00370
# Velocity P-wave (km/s) = 7.32014 7.47453 7.39774
#
# Compressibility (1/GPa) = 0.01463798
#
# Stress axis : x y z
#
# Youngs Moduli (GPa) = 89.96796 93.78242 61.83705
#
# Poissons Ratio (x) = 0.27664 0.22028
# Poissons Ratio (y) = 0.26539 0.31807
# Poissons Ratio (z) = 0.32049 0.48239
#
# Static dielectric constant tensor:
#      x y z
#    x 1.704640 0.000000 0.000000 
#    y 0.000000 1.847610 0.000000 
#    z 0.000000 0.000000 1.609420 
# 
# From -- ./inp_files/23517.got.cif
#   From: 2010.05.17/outbox.cif.g08.bks.cpg/sg48_12_cif.got.tgz:23517.got - 2010.06.03 20:39:00.
