data_PCOD9390296
_publ_section_title
;
Structure prediction by ZEFSAII (Michael W. Deem and Ramdas Pophale) SiO2 
 PCOD9390296
Probable space group: P N N N
;
_chemical_formula_sum "Si O2"
_cell_formula_units_Z 48
_cell_length_a 5.863835
_cell_length_b 14.520737
_cell_length_c 27.204580
_cell_angle_alpha 90.000000
_cell_angle_beta 90.000000
_cell_angle_gamma 90.000000
_cell_volume 2316.393973
_symmetry_space_group_name_H-M "P N N N"
_symmetry_group_IT_number 48
_space_group.IT_coordinate_system_code '2'
_symmetry_cell_setting 'orthorhombic'
loop_
_space_group_symop_operation_xyz
x,y,z
1/2-x,1/2-y,z
x,1/2-y,1/2-z
1/2-x,y,1/2-z
-x,-y,-z
1/2+x,1/2+y,-z
-x,1/2+y,1/2+z
1/2+x,-y,1/2+z
loop_
_atom_site_type_symbol
_atom_site_label
_atom_site_fract_x
_atom_site_fract_y
_atom_site_fract_z
Si Si1 0.684196 0.350976 0.375765
Si Si2 0.111166 0.580470 0.205341
Si Si3 0.453057 0.496885 0.125571
Si Si4 0.496108 0.879869 0.772418
Si Si5 0.837721 0.649942 0.118950
Si Si6 0.065938 0.000005 0.443466
O O1 0.750000 0.250000 0.393607
O O2 0.518638 0.345418 0.328754
O O3 0.573537 0.419137 0.415692
O O4 0.911335 0.405828 0.359178
O O5 0.250000 0.624469 0.250000
O O6 0.275714 0.529302 0.166411
O O7 0.982624 0.491658 0.227128
O O8 0.959470 0.647450 0.172274
O O9 0.628600 0.580012 0.121841
O O10 0.324950 0.482917 0.073760
O O11 0.250000 0.849149 0.750000
O O12 0.750000 0.857766 0.750000
O O13 0.750000 0.750000 0.105567
O O14 0.001678 0.599366 0.079956
O O15 0.000000 0.000000 0.500000
#
# Coordination Sequence:
#
# PCOD9390296 Si02
#       6
#     8   8   8   8   8   8
#     4  11  23  41  63 101 137 175 230 288 343 424
#     4  10  20  35  63  88 125 176 219 263 341 405
#     4  10  20  43  64  85 133 177 211 285 343 409
#     4  11  22  39  67  94 134 188 228 276 347 423
#     4  10  22  40  64  93 126 168 226 282 347 411
#     4  10  23  45  65  95 128 176 228 285 366 423
#
# _framework density 20.721862000000002
#
# number of rings (size 3 to 8) (size 9 to 14) (size 15 to 20)
#    0.000    1.667    5.000    2.000    0.000    6.333 
#    6.000    5.833    0.000    0.000    0.000    0.000 
#    0.000    0.000    0.000    0.000    0.000    0.000 
#
# Total GULP energy -267817.185201 kJ/mol
# GULP energy per Si atom -5579.524692 kJ/mol
# Density = 2.067470 g / cm^3
# Si number density = 20.721862 Si / 1000 Ang^3
#
#
#
# Elastic Constant Matrix: (Units=GPa)
#
#
# Indices 1 2 3 4 5 6 
#
# 1 99.4741 12.1798 42.3730 0.0000 0.0000 0.0000
# 2 12.1798 112.6337 14.8023 0.0000 0.0000 0.0000
# 3 42.3730 14.8023 140.8094 0.0000 0.0000 0.0000
# 4 0.0000 0.0000 0.0000 9.3404 0.0000 0.0000
# 5 0.0000 0.0000 0.0000 0.0000 27.3938 0.0000
# 6 0.0000 0.0000 0.0000 0.0000 0.0000 -7.9181
#
#
#
# Elastic Compliance Matrix: (Units=1/GPa)
#
#
# Indices 1 2 3 4 5 6 
#
# 1 0.011603 -0.000807 -0.003407 0.000000 0.000000 0.000000
# 2 -0.000807 0.009059 -0.000709 0.000000 0.000000 0.000000
# 3 -0.003407 -0.000709 0.008202 0.000000 0.000000 0.000000
# 4 0.000000 0.000000 0.000000 0.107062 0.000000 0.000000
# 5 0.000000 0.000000 0.000000 0.000000 0.036505 0.000000
# 6 0.000000 0.000000 0.000000 0.000000 0.000000 -0.126293
#
#
# Mechanical properties :
#
#
# Convention : Reuss Voigt Hill
#
# Bulk Modulus (GPa) = 52.58486 54.62527 53.60506
# Shear Modulus (GPa) = 80.22777 24.66735 52.44756
#
# Velocity S-wave (km/s) = 6.22901 3.45396 5.03639
# Velocity P-wave (km/s) = 8.78440 6.50576 7.72951
#
# Compressibility (1/GPa) = 0.01901688
#
# Stress axis : x y z
#
# Youngs Moduli (GPa) = 86.18573 110.38949 121.92812
#
# Poissons Ratio (x) = 0.08908 0.41538
# Poissons Ratio (y) = 0.06955 0.08650
# Poissons Ratio (z) = 0.29361 0.07832
#
# Static dielectric constant tensor:
#      x y z
#    x 1.830350 0.000000 0.000000 
#    y 0.000000 1.705540 0.000000 
#    z 0.000000 0.000000 1.774230 
# 
# From -- ./inp_files/24421.got.cif
#   From: 2010.05.17/outbox.cif.g08.bks.cpg/sg48_13_cif.got.tgz:24421.got - 2010.06.03 20:39:00.
