data_PCOD9390780
_publ_section_title
;
Structure prediction by ZEFSAII (Michael W. Deem and Ramdas Pophale) SiO2 
 PCOD9390780
Probable space group: P N N N
;
_chemical_formula_sum "Si O2"
_cell_formula_units_Z 64
_cell_length_a 7.798276
_cell_length_b 14.909878
_cell_length_c 25.870042
_cell_angle_alpha 90.000000
_cell_angle_beta 90.000000
_cell_angle_gamma 90.000000
_cell_volume 3007.944547
_symmetry_space_group_name_H-M "P N N N"
_symmetry_group_IT_number 48
_space_group.IT_coordinate_system_code '2'
_symmetry_cell_setting 'orthorhombic'
loop_
_space_group_symop_operation_xyz
x,y,z
1/2-x,1/2-y,z
x,1/2-y,1/2-z
1/2-x,y,1/2-z
-x,-y,-z
1/2+x,1/2+y,-z
-x,1/2+y,1/2+z
1/2+x,-y,1/2+z
loop_
_atom_site_type_symbol
_atom_site_label
_atom_site_fract_x
_atom_site_fract_y
_atom_site_fract_z
Si Si1 0.549592 0.025497 0.240134
Si Si2 0.464909 0.402899 0.156372
Si Si3 0.076811 0.067984 0.370783
Si Si4 0.479442 0.064334 0.948951
Si Si5 0.062708 0.338776 0.724212
Si Si6 0.109687 0.411004 0.609804
Si Si7 0.040275 0.249961 0.415660
Si Si8 0.957828 0.766698 0.030113
O O1 0.750000 0.019615 0.250000
O O2 0.486731 0.095774 0.282312
O O3 0.523929 0.047229 0.180998
O O4 0.471003 0.929258 0.256175
O O5 0.263457 0.403085 0.146536
O O6 0.540985 0.492840 0.129727
O O7 0.531550 0.314435 0.128301
O O8 0.992972 0.147439 0.404228
O O9 0.096210 0.981558 0.406120
O O10 0.290820 0.068709 0.920201
O O11 0.529000 0.167591 0.958107
O O12 0.500000 0.000000 0.000000
O O13 0.980741 0.250000 0.750000
O O14 0.250000 0.340133 0.750000
O O15 0.101846 0.350484 0.662812
O O16 0.008005 0.348886 0.568609
O O17 0.250000 0.250000 0.416332
O O18 0.989848 0.286782 0.471542
O O19 0.750000 0.750000 0.031649
#
# Coordination Sequence:
#
# PCOD9390780 Si02
#       8
#     8   8   8   8   8   8   8   8
#     4  10  21  39  60  87 118 153 197 244 301 362
#     4  10  22  40  60  88 119 155 200 245 305 356
#     4  11  21  37  64  84 121 155 198 252 297 354
#     4  11  21  37  61  90 119 158 202 249 295 353
#     4   9  18  30  54  87 111 145 198 240 287 348
#     4  10  22  37  60  87 122 158 204 247 297 362
#     4   9  19  37  57  85 112 157 205 242 287 365
#     4   9  19  35  59  84 114 156 209 239 285 360
#
# _framework density 21.276986000000001
#
# number of rings (size 3 to 8) (size 9 to 14) (size 15 to 20)
#    0.000    2.125    1.250    2.625    8.750    1.000 
#    0.000    5.625    0.000    0.750    0.000    0.000 
#    0.000    0.000    0.000    0.000    0.000    0.000 
#
# Total GULP energy -356520.872168 kJ/mol
# GULP energy per Si atom -5570.638628 kJ/mol
# Density = 2.122856 g / cm^3
# Si number density = 21.276986 Si / 1000 Ang^3
#
#
#
# Elastic Constant Matrix: (Units=GPa)
#
#
# Indices 1 2 3 4 5 6 
#
# 1 19.3155 -10.4965 0.2626 0.0000 0.0000 0.0000
# 2 -10.4965 62.1538 26.8573 0.0000 0.0000 0.0000
# 3 0.2626 26.8573 143.5790 0.0000 0.0000 0.0000
# 4 0.0000 0.0000 0.0000 40.1012 0.0000 0.0000
# 5 0.0000 0.0000 0.0000 0.0000 20.0373 0.0000
# 6 0.0000 0.0000 0.0000 0.0000 0.0000 4812.4096
#
#
#
# Elastic Compliance Matrix: (Units=1/GPa)
#
#
# Indices 1 2 3 4 5 6 
#
# 1 0.057576 0.010628 -0.002093 0.000000 0.000000 0.000000
# 2 0.010628 0.019466 -0.003661 0.000000 0.000000 0.000000
# 3 -0.002093 -0.003661 0.007653 0.000000 0.000000 0.000000
# 4 0.000000 0.000000 0.000000 0.024937 0.000000 0.000000
# 5 0.000000 0.000000 0.000000 0.000000 0.049907 0.000000
# 6 0.000000 0.000000 0.000000 0.000000 0.000000 0.000208
#
#
# Mechanical properties :
#
#
# Convention : Reuss Voigt Hill
#
# Bulk Modulus (GPa) = 10.58837 28.69943 19.64390
# Shear Modulus (GPa) = 27.55127 988.40461 507.97794
#
# Velocity S-wave (km/s) = 3.60236 21.57661 15.46815
# Velocity P-wave (km/s) = 4.72122 25.18435 18.11824
#
# Compressibility (1/GPa) = 0.09444321
#
# Stress axis : x y z
#
# Youngs Moduli (GPa) = 17.36835 51.37225 130.66130
#
# Poissons Ratio (x) = -0.54598 0.27352
# Poissons Ratio (y) = -0.18459 0.47830
# Poissons Ratio (z) = 0.03636 0.18805
#
# Static dielectric constant tensor:
#      x y z
#    x 1.808320 0.000000 0.000000 
#    y 0.000000 2.060370 0.000000 
#    z 0.000000 0.000000 1.870170 
# 
# From -- ./inp_files/35988.got.cif
#   From: 2010.05.17/outbox.cif.g08.bks.cpg/sg48_18_cif.got.tgz:35988.got - 2010.06.03 20:39:00.
