data_PCOD9390891
_publ_section_title
;
Structure prediction by ZEFSAII (Michael W. Deem and Ramdas Pophale) SiO2 
 PCOD9390891
Probable space group: P N N N
;
_chemical_formula_sum "Si O2"
_cell_formula_units_Z 40
_cell_length_a 5.182869
_cell_length_b 12.883113
_cell_length_c 28.388706
_cell_angle_alpha 90.000000
_cell_angle_beta 90.000000
_cell_angle_gamma 90.000000
_cell_volume 1895.556113
_symmetry_space_group_name_H-M "P N N N"
_symmetry_group_IT_number 48
_space_group.IT_coordinate_system_code '2'
_symmetry_cell_setting 'orthorhombic'
loop_
_space_group_symop_operation_xyz
x,y,z
1/2-x,1/2-y,z
x,1/2-y,1/2-z
1/2-x,y,1/2-z
-x,-y,-z
1/2+x,1/2+y,-z
-x,1/2+y,1/2+z
1/2+x,-y,1/2+z
loop_
_atom_site_type_symbol
_atom_site_label
_atom_site_fract_x
_atom_site_fract_y
_atom_site_fract_z
Si Si1 0.174025 0.628951 0.803130
Si Si2 0.149856 0.017640 0.166972
Si Si3 0.779375 0.372808 0.472539
Si Si4 0.781360 0.992091 0.561743
Si Si5 0.006897 0.796973 0.197079
O O1 0.250000 0.750000 0.805699
O O2 0.250000 0.596429 0.750000
O O3 0.380592 0.577772 0.837847
O O4 0.881447 0.590447 0.812773
O O5 0.241659 0.980840 0.116006
O O6 0.064863 0.918586 0.198059
O O7 0.750000 0.250000 0.467234
O O8 0.744060 0.410715 0.526569
O O9 0.553474 0.434777 0.445525
O O10 0.055622 0.412810 0.454390
O O11 0.750000 0.750000 0.174833
O O12 0.003118 0.750000 0.250000
O O13 0.250000 0.750000 0.170950
#
# Coordination Sequence:
#
# PCOD9390891 Si02
#       5
#     8   8   8   8   8
#     4  11  26  43  63  92 127 174 219 264 330 384
#     4  12  24  41  68  93 132 166 213 287 308 385
#     4  10  21  41  65  88 131 168 198 260 325 397
#     4  10  23  39  61 100 122 161 219 251 325 389
#     4  10  23  39  60  91 120 164 217 257 316 388
#
# _framework density 21.101987000000001
#
# number of rings (size 3 to 8) (size 9 to 14) (size 15 to 20)
#    0.000    1.400    0.000    4.200    8.400    7.200 
#    0.000    4.000    0.000    0.000    0.000    0.000 
#    0.000    0.000    0.000    0.000    0.000    0.000 
#
# Total GULP energy -223177.193327 kJ/mol
# GULP energy per Si atom -5579.429833 kJ/mol
# Density = 2.105396 g / cm^3
# Si number density = 21.101987 Si / 1000 Ang^3
#
#
#
# Elastic Constant Matrix: (Units=GPa)
#
#
# Indices 1 2 3 4 5 6 
#
# 1 141.3813 16.9151 -7.6789 0.0000 0.0000 0.0000
# 2 16.9151 98.6592 8.3640 0.0000 0.0000 0.0000
# 3 -7.6789 8.3640 84.5345 0.0000 0.0000 0.0000
# 4 0.0000 0.0000 0.0000 3.5132 0.0000 0.0000
# 5 0.0000 0.0000 0.0000 0.0000 16.2439 0.0000
# 6 0.0000 0.0000 0.0000 0.0000 0.0000 32.9629
#
#
#
# Elastic Compliance Matrix: (Units=1/GPa)
#
#
# Indices 1 2 3 4 5 6 
#
# 1 0.007273 -0.001314 0.000791 0.000000 0.000000 0.000000
# 2 -0.001314 0.010459 -0.001154 0.000000 0.000000 0.000000
# 3 0.000791 -0.001154 0.012016 0.000000 0.000000 0.000000
# 4 0.000000 0.000000 0.000000 0.284638 0.000000 0.000000
# 5 0.000000 0.000000 0.000000 0.000000 0.061562 0.000000
# 6 0.000000 0.000000 0.000000 0.000000 0.000000 0.030337
#
#
# Mechanical properties :
#
#
# Convention : Reuss Voigt Hill
#
# Bulk Modulus (GPa) = 37.88925 39.97506 38.93216
# Shear Modulus (GPa) = 11.94923 31.00899 21.47911
#
# Velocity S-wave (km/s) = 2.38221 3.83754 3.19387
# Velocity P-wave (km/s) = 5.05577 6.21454 5.66486
#
# Compressibility (1/GPa) = 0.02639271
#
# Stress axis : x y z
#
# Youngs Moduli (GPa) = 137.49055 95.61103 83.22570
#
# Poissons Ratio (x) = 0.12564 -0.06581
# Poissons Ratio (y) = 0.18067 0.09606
# Poissons Ratio (z) = -0.10871 0.11035
#
# Static dielectric constant tensor:
#      x y z
#    x 1.779300 0.000000 0.000000 
#    y 0.000000 1.933730 0.000000 
#    z 0.000000 0.000000 1.763280 
# 
# From -- ./inp_files/6942.got.cif
#   From: 2010.05.17/outbox.cif.g08.bks.cpg/sg48_4_cif.got.tgz:6942.got - 2010.06.03 20:39:00.
