data_PCOD9390644
_publ_section_title
;
Structure prediction by ZEFSAII (Michael W. Deem and Ramdas Pophale) SiO2 
 PCOD9390644
Probable space group: P N N N
;
_chemical_formula_sum "Si O2"
_cell_formula_units_Z 42
_cell_length_a 23.432176
_cell_length_b 4.826310
_cell_length_c 19.980247
_cell_angle_alpha 90.000000
_cell_angle_beta 90.000000
_cell_angle_gamma 90.000000
_cell_volume 2259.585022
_symmetry_space_group_name_H-M "P N N N"
_symmetry_group_IT_number 48
_space_group.IT_coordinate_system_code '2'
_symmetry_cell_setting 'orthorhombic'
loop_
_space_group_symop_operation_xyz
x,y,z
1/2-x,1/2-y,z
x,1/2-y,1/2-z
1/2-x,y,1/2-z
-x,-y,-z
1/2+x,1/2+y,-z
-x,1/2+y,1/2+z
1/2+x,-y,1/2+z
loop_
_atom_site_type_symbol
_atom_site_label
_atom_site_fract_x
_atom_site_fract_y
_atom_site_fract_z
Si Si1 0.183185 0.203641 0.044905
Si Si2 0.950480 0.496606 0.704110
Si Si3 0.486037 0.715240 0.586014
Si Si4 0.574676 0.767132 0.469270
Si Si5 0.155656 0.707073 0.132766
Si Si6 0.750000 0.250000 0.750000
O O1 0.250000 0.250000 0.033902
O O2 0.160980 0.393785 0.106832
O O3 0.173364 0.891339 0.069243
O O4 0.141230 0.264520 0.983369
O O5 0.975302 0.250000 0.750000
O O6 0.903680 0.330323 0.660010
O O7 0.993958 0.650774 0.654846
O O8 0.925756 0.750000 0.750000
O O9 0.541550 0.688162 0.538172
O O10 0.453627 0.424951 0.587132
O O11 0.443341 0.922036 0.547641
O O12 0.200653 0.743882 0.191846
#
# Coordination Sequence:
#
# PCOD9390644 Si02
#       6
#     8   8   8   8   8   2
#     4  12  23  39  54  79 109 145 191 243 273 323
#     4  12  24  37  56  80 114 148 191 239 278 338
#     4  10  21  36  56  81 106 143 187 232 288 338
#     4  10  21  35  59  78 106 142 187 239 285 334
#     4  12  25  35  52  75 109 152 202 230 267 305
#     4  12  24  38  48  70 112 162 200 230 256 302
#
# _framework density 18.587484
#
# number of rings (size 3 to 8) (size 9 to 14) (size 15 to 20)
#    0.000    0.762    4.762    3.429    5.333    0.762 
#    0.000    0.000    0.000    0.000    0.000    0.000 
#    0.000   11.429    0.000    0.000    0.000    0.000 
#
# Total GULP energy -234136.994115 kJ/mol
# GULP energy per Si atom -5574.690336 kJ/mol
# Density = 1.854518 g / cm^3
# Si number density = 18.587484 Si / 1000 Ang^3
#
#
#
# Elastic Constant Matrix: (Units=GPa)
#
#
# Indices 1 2 3 4 5 6 
#
# 1 94.2750 10.7065 42.5632 0.0000 0.0000 0.0000
# 2 10.7065 67.4276 7.9077 0.0000 0.0000 0.0000
# 3 42.5632 7.9077 41.3716 0.0000 0.0000 0.0000
# 4 0.0000 0.0000 0.0000 20.1594 0.0000 0.0000
# 5 0.0000 0.0000 0.0000 0.0000 23.7564 0.0000
# 6 0.0000 0.0000 0.0000 0.0000 0.0000 3.8484
#
#
#
# Elastic Compliance Matrix: (Units=1/GPa)
#
#
# Indices 1 2 3 4 5 6 
#
# 1 0.019847 -0.000774 -0.020271 0.000000 0.000000 0.000000
# 2 -0.000774 0.015201 -0.002109 0.000000 0.000000 0.000000
# 3 -0.020271 -0.002109 0.045429 0.000000 0.000000 0.000000
# 4 0.000000 0.000000 0.000000 0.049605 0.000000 0.000000
# 5 0.000000 0.000000 0.000000 0.000000 0.042094 0.000000
# 6 0.000000 0.000000 0.000000 0.000000 0.000000 0.259851
#
#
# Mechanical properties :
#
#
# Convention : Reuss Voigt Hill
#
# Bulk Modulus (GPa) = 29.26624 36.15875 32.71250
# Shear Modulus (GPa) = 10.20984 19.01261 14.61123
#
# Velocity S-wave (km/s) = 2.34623 3.20171 2.80675
# Velocity P-wave (km/s) = 4.80822 5.75877 5.30483
#
# Compressibility (1/GPa) = 0.03416906
#
# Stress axis : x y z
#
# Youngs Moduli (GPa) = 50.38569 65.78522 22.01255
#
# Poissons Ratio (x) = 0.05093 0.44621
# Poissons Ratio (y) = 0.03900 0.04643
# Poissons Ratio (z) = 1.02135 0.13875
#
# Static dielectric constant tensor:
#      x y z
#    x 1.642300 0.000000 0.000000 
#    y 0.000000 1.677140 0.000000 
#    z 0.000000 0.000000 1.652840 
# 
# From -- ./inp_files/32866.got.cif
#   From: 2010.05.17/outbox.cif.g08.bks.cpg/sg48_17_cif.got.tgz:32866.got - 2010.06.03 20:39:00.
