data_PCOD9390144
_publ_section_title
;
Structure prediction by ZEFSAII (Michael W. Deem and Ramdas Pophale) SiO2 
 PCOD9390144
Probable space group: P N N N
;
_chemical_formula_sum "Si O2"
_cell_formula_units_Z 32
_cell_length_a 6.649820
_cell_length_b 13.249644
_cell_length_c 17.084085
_cell_angle_alpha 90.000000
_cell_angle_beta 90.000000
_cell_angle_gamma 90.000000
_cell_volume 1505.240250
_symmetry_space_group_name_H-M "P N N N"
_symmetry_group_IT_number 48
_space_group.IT_coordinate_system_code '2'
_symmetry_cell_setting 'orthorhombic'
loop_
_space_group_symop_operation_xyz
x,y,z
1/2-x,1/2-y,z
x,1/2-y,1/2-z
1/2-x,y,1/2-z
-x,-y,-z
1/2+x,1/2+y,-z
-x,1/2+y,1/2+z
1/2+x,-y,1/2+z
loop_
_atom_site_type_symbol
_atom_site_label
_atom_site_fract_x
_atom_site_fract_y
_atom_site_fract_z
Si Si1 0.337798 0.442165 0.170606
Si Si2 0.750000 0.750000 0.750000
Si Si3 0.871976 0.853252 0.531073
Si Si4 0.750000 0.750000 0.250000
Si Si5 0.250000 0.750000 0.023923
Si Si6 0.085700 0.116713 0.887758
O O1 0.250000 0.492194 0.250000
O O2 0.382921 0.328476 0.200432
O O3 0.176029 0.429050 0.101312
O O4 0.516811 0.505323 0.134923
O O5 0.750000 0.750000 0.548063
O O6 0.771892 0.885876 0.448433
O O7 0.102977 0.823775 0.523397
O O8 0.867869 0.822365 0.190860
O O9 0.402304 0.678508 0.072264
#
# Coordination Sequence:
#
# PCOD9390144 Si02
#       6
#     8   2   8   2   4   8
#     4  10  21  39  70  95 131 183 225 283 338 414
#     4   8  20  38  64  92 128 174 222 280 330 388
#     4  10  19  43  64  95 135 179 221 280 347 403
#     4  12  24  44  64 102 140 172 232 290 358 410
#     4  10  22  39  66  99 132 174 222 286 333 423
#     4  11  24  39  66  96 133 180 222 286 351 410
#
# _framework density 21.259063999999999
#
# number of rings (size 3 to 8) (size 9 to 14) (size 15 to 20)
#    0.750    1.000    5.000    0.750    3.500    1.000 
#    0.000    5.000    0.000    7.500    0.000    0.000 
#    0.000    0.000    0.000    0.000    0.000    0.000 
#
# Total GULP energy -178426.664237 kJ/mol
# GULP energy per Si atom -5575.833257 kJ/mol
# Density = 2.121068 g / cm^3
# Si number density = 21.259064 Si / 1000 Ang^3
#
#
#
# Elastic Constant Matrix: (Units=GPa)
#
#
# Indices 1 2 3 4 5 6 
#
# 1 110.7517 33.6399 60.9540 0.0000 0.0000 0.0000
# 2 33.6399 94.7852 34.2757 0.0000 0.0000 0.0000
# 3 60.9540 34.2757 147.7057 0.0000 0.0000 0.0000
# 4 0.0000 0.0000 0.0000 -61.1963 0.0000 0.0000
# 5 0.0000 0.0000 0.0000 0.0000 -12.7021 0.0000
# 6 0.0000 0.0000 0.0000 0.0000 0.0000 31.6927
#
#
#
# Elastic Compliance Matrix: (Units=1/GPa)
#
#
# Indices 1 2 3 4 5 6 
#
# 1 0.012312 -0.002764 -0.004439 0.000000 0.000000 0.000000
# 2 -0.002764 0.012137 -0.001676 0.000000 0.000000 0.000000
# 3 -0.004439 -0.001676 0.008991 0.000000 0.000000 0.000000
# 4 0.000000 0.000000 0.000000 -0.016341 0.000000 0.000000
# 5 0.000000 0.000000 0.000000 0.000000 -0.078727 0.000000
# 6 0.000000 0.000000 0.000000 0.000000 0.000000 0.031553
#
#
# Mechanical properties :
#
#
# Convention : Reuss Voigt Hill
#
# Bulk Modulus (GPa) = 63.76920 67.88687 65.82803
# Shear Modulus (GPa) = -705.33636 6.51709 -349.40964
#
# Velocity S-wave (km/s) = -18.23463 1.75277 -12.83413
# Velocity P-wave (km/s) = 20.32915 6.00822 13.73273
#
# Compressibility (1/GPa) = 0.01568155
#
# Stress axis : x y z
#
# Youngs Moduli (GPa) = 81.22066 82.39128 111.22104
#
# Poissons Ratio (x) = 0.22775 0.49376
# Poissons Ratio (y) = 0.22452 0.18638
# Poissons Ratio (z) = 0.36057 0.13807
#
# Static dielectric constant tensor:
#      x y z
#    x 1.743090 0.000000 0.000000 
#    y 0.000000 1.800280 0.000000 
#    z 0.000000 0.000000 1.818330 
# 
# From -- ./inp_files/3136.got.cif
#   From: 2010.05.17/outbox.cif.g08.bks.cpg/sg48_2_cif.got.tgz:3136.got - 2010.06.03 20:39:00.
