data_PCOD9390663
_publ_section_title
;
Structure prediction by ZEFSAII (Michael W. Deem and Ramdas Pophale) SiO2 
 PCOD9390663
Probable space group: P N N N
;
_chemical_formula_sum "Si O2"
_cell_formula_units_Z 64
_cell_length_a 10.803645
_cell_length_b 9.309571
_cell_length_c 30.489398
_cell_angle_alpha 90.000000
_cell_angle_beta 90.000000
_cell_angle_gamma 90.000000
_cell_volume 3066.541335
_symmetry_space_group_name_H-M "P N N N"
_symmetry_group_IT_number 48
_space_group.IT_coordinate_system_code '2'
_symmetry_cell_setting 'orthorhombic'
loop_
_space_group_symop_operation_xyz
x,y,z
1/2-x,1/2-y,z
x,1/2-y,1/2-z
1/2-x,y,1/2-z
-x,-y,-z
1/2+x,1/2+y,-z
-x,1/2+y,1/2+z
1/2+x,-y,1/2+z
loop_
_atom_site_type_symbol
_atom_site_label
_atom_site_fract_x
_atom_site_fract_y
_atom_site_fract_z
Si Si1 0.394614 0.121556 0.806717
Si Si2 0.101631 0.437411 0.710310
Si Si3 0.720296 0.090655 0.924719
Si Si4 0.115999 0.670448 0.641882
Si Si5 0.680485 0.983616 0.018373
Si Si6 0.935722 0.807973 0.009999
Si Si7 0.964532 0.454993 0.105967
Si Si8 0.478547 0.490484 0.073804
O O1 0.443662 0.057609 0.760592
O O2 0.248196 0.097493 0.796770
O O3 0.445590 0.285068 0.809100
O O4 0.416530 0.045736 0.852632
O O5 0.084458 0.589810 0.686861
O O6 0.750000 0.250000 0.908454
O O7 0.594346 0.021765 0.907692
O O8 0.836118 0.987881 0.911407
O O9 0.705049 0.089036 0.977971
O O10 0.250000 0.750000 0.642869
O O11 0.025409 0.793857 0.624349
O O12 0.087778 0.542845 0.607308
O O13 0.807618 0.891803 0.020493
O O14 0.583710 0.859400 0.004246
O O15 0.630807 0.041886 0.064643
O O16 0.990592 0.879058 0.966536
O O17 0.013173 0.851269 0.052365
#
# Coordination Sequence:
#
# PCOD9390663 Si02
#       8
#     8   8   8   8   8   8   8   8
#     4   9  20  40  65  97 131 165 201 253 329 411
#     4   9  20  40  65  94 137 162 194 260 338 397
#     4  11  25  42  60  85 127 189 230 271 321 382
#     4  12  24  38  62 102 131 163 203 275 337 399
#     4  10  21  36  58  86 125 163 218 285 329 375
#     4   9  19  36  58  83 114 173 218 269 333 383
#     4  12  24  37  62  98 131 166 228 272 319 399
#     4  10  22  39  57  83 125 167 221 265 323 386
#
# _framework density 20.870417
#
# number of rings (size 3 to 8) (size 9 to 14) (size 15 to 20)
#    0.000    1.750    1.250    3.375    3.500    6.500 
#    0.000    0.000    0.000    0.750    0.000    1.750 
#    0.000    0.000    0.000    0.000    0.000    0.000 
#
# Total GULP energy -356756.264247 kJ/mol
# GULP energy per Si atom -5574.316629 kJ/mol
# Density = 2.082292 g / cm^3
# Si number density = 20.870417 Si / 1000 Ang^3
#
#
#
# Elastic Constant Matrix: (Units=GPa)
#
#
# Indices 1 2 3 4 5 6 
#
# 1 64.8171 11.4399 21.7192 0.0000 0.0000 0.0000
# 2 11.4399 100.2357 41.2164 0.0000 0.0000 0.0000
# 3 21.7192 41.2164 97.1937 0.0000 0.0000 0.0000
# 4 0.0000 0.0000 0.0000 27.5247 0.0000 0.0000
# 5 0.0000 0.0000 0.0000 0.0000 15.9840 0.0000
# 6 0.0000 0.0000 0.0000 0.0000 0.0000 26.9017
#
#
#
# Elastic Compliance Matrix: (Units=1/GPa)
#
#
# Indices 1 2 3 4 5 6 
#
# 1 0.016693 -0.000450 -0.003540 0.000000 0.000000 0.000000
# 2 -0.000450 0.012096 -0.005029 0.000000 0.000000 0.000000
# 3 -0.003540 -0.005029 0.013212 0.000000 0.000000 0.000000
# 4 0.000000 0.000000 0.000000 0.036331 0.000000 0.000000
# 5 0.000000 0.000000 0.000000 0.000000 0.062563 0.000000
# 6 0.000000 0.000000 0.000000 0.000000 0.000000 0.037172
#
#
# Mechanical properties :
#
#
# Convention : Reuss Voigt Hill
#
# Bulk Modulus (GPa) = 41.72763 45.66639 43.69701
# Shear Modulus (GPa) = 24.49874 26.60681 25.55277
#
# Velocity S-wave (km/s) = 3.42987 3.57439 3.50287
# Velocity P-wave (km/s) = 5.97682 6.24207 6.11088
#
# Compressibility (1/GPa) = 0.02396494
#
# Stress axis : x y z
#
# Youngs Moduli (GPa) = 59.90357 82.67440 75.68730
#
# Poissons Ratio (x) = 0.03718 0.26791
# Poissons Ratio (y) = 0.02694 0.38062
# Poissons Ratio (z) = 0.21204 0.41576
#
# Static dielectric constant tensor:
#      x y z
#    x 1.832280 0.000000 0.000000 
#    y 0.000000 1.812570 0.000000 
#    z 0.000000 0.000000 1.782180 
# 
# From -- ./inp_files/38968.got.cif
#   From: 2010.05.17/outbox.cif.g08.bks.cpg/sg48_20_cif.got.tgz:38968.got - 2010.06.03 20:39:00.
