data_PCOD9390490
_publ_section_title
;
Structure prediction by ZEFSAII (Michael W. Deem and Ramdas Pophale) SiO2 
 PCOD9390490
Probable space group: P N N N
;
_chemical_formula_sum "Si O2"
_cell_formula_units_Z 48
_cell_length_a 17.308918
_cell_length_b 13.148554
_cell_length_c 10.964206
_cell_angle_alpha 90.000000
_cell_angle_beta 90.000000
_cell_angle_gamma 90.000000
_cell_volume 2495.313415
_symmetry_space_group_name_H-M "P N N N"
_symmetry_group_IT_number 48
_space_group.IT_coordinate_system_code '2'
_symmetry_cell_setting 'orthorhombic'
loop_
_space_group_symop_operation_xyz
x,y,z
1/2-x,1/2-y,z
x,1/2-y,1/2-z
1/2-x,y,1/2-z
-x,-y,-z
1/2+x,1/2+y,-z
-x,1/2+y,1/2+z
1/2+x,-y,1/2+z
loop_
_atom_site_type_symbol
_atom_site_label
_atom_site_fract_x
_atom_site_fract_y
_atom_site_fract_z
Si Si1 0.838461 0.718111 0.620401
Si Si2 0.957011 0.160569 0.946885
Si Si3 0.159120 0.723083 0.889701
Si Si4 0.408352 0.301705 0.630284
Si Si5 0.947764 0.470237 0.115667
Si Si6 0.556527 0.551606 0.840441
O O1 0.750000 0.750000 0.624849
O O2 0.876311 0.750000 0.750000
O O3 0.869552 0.771689 0.498462
O O4 0.859316 0.599084 0.630002
O O5 0.007570 0.249750 0.887290
O O6 0.939972 0.069428 0.854905
O O7 0.883604 0.206689 0.012797
O O8 0.006848 0.106371 0.053646
O O9 0.250000 0.750000 0.900373
O O10 0.138112 0.750000 0.750000
O O11 0.120754 0.610972 0.907806
O O12 0.371837 0.250000 0.750000
O O13 0.411853 0.421462 0.654013
O O14 0.008478 0.429519 0.216648
O O15 0.000000 0.500000 0.000000
#
# Coordination Sequence:
#
# PCOD9390490 Si02
#       6
#     8   8   8   8   8   8
#     4  10  23  41  61  89 128 171 214 265 327 394
#     4  10  20  39  61  87 127 164 206 262 326 390
#     4  11  24  40  61  94 133 172 215 276 332 393
#     4  11  22  38  64 100 129 161 215 280 325 381
#     4  12  22  36  66  98 121 166 228 268 317 390
#     4  10  21  36  64  88 118 167 212 258 324 388
#
# _framework density 19.236059999999998
#
# number of rings (size 3 to 8) (size 9 to 14) (size 15 to 20)
#    0.000    1.333    5.000    1.000    2.333    1.667 
#    0.000    1.667    0.000    3.500    0.000    0.000 
#    0.000    0.000    0.000    0.000    0.000    0.000 
#
# Total GULP energy -267288.055411 kJ/mol
# GULP energy per Si atom -5568.501154 kJ/mol
# Density = 1.919228 g / cm^3
# Si number density = 19.236060 Si / 1000 Ang^3
#
#
#
# Elastic Constant Matrix: (Units=GPa)
#
#
# Indices 1 2 3 4 5 6 
#
# 1 99.6724 67.2394 37.5193 0.0000 0.0000 0.0000
# 2 67.2394 122.3108 9.8689 0.0000 0.0000 0.0000
# 3 37.5193 9.8689 94.6851 0.0000 0.0000 0.0000
# 4 0.0000 0.0000 0.0000 23.5346 0.0000 0.0000
# 5 0.0000 0.0000 0.0000 0.0000 14.3936 0.0000
# 6 0.0000 0.0000 0.0000 0.0000 0.0000 16.4345
#
#
#
# Elastic Compliance Matrix: (Units=1/GPa)
#
#
# Indices 1 2 3 4 5 6 
#
# 1 0.019328 -0.010093 -0.006607 0.000000 0.000000 0.000000
# 2 -0.010093 0.013515 0.002591 0.000000 0.000000 0.000000
# 3 -0.006607 0.002591 0.012909 0.000000 0.000000 0.000000
# 4 0.000000 0.000000 0.000000 0.042491 0.000000 0.000000
# 5 0.000000 0.000000 0.000000 0.000000 0.069475 0.000000
# 6 0.000000 0.000000 0.000000 0.000000 0.000000 0.060847
#
#
# Mechanical properties :
#
#
# Convention : Reuss Voigt Hill
#
# Bulk Modulus (GPa) = 57.02915 60.65819 58.84367
# Shear Modulus (GPa) = 19.79186 24.34194 22.06690
#
# Velocity S-wave (km/s) = 3.21112 3.56115 3.39065
# Velocity P-wave (km/s) = 6.59240 6.96499 6.78125
#
# Compressibility (1/GPa) = 0.01753489
#
# Stress axis : x y z
#
# Youngs Moduli (GPa) = 51.73737 73.99100 77.46313
#
# Poissons Ratio (x) = 0.74676 0.51180
# Poissons Ratio (y) = 0.52216 -0.20067
# Poissons Ratio (z) = 0.34183 -0.19168
#
# Static dielectric constant tensor:
#      x y z
#    x 1.686410 0.000000 0.000000 
#    y 0.000000 1.735310 0.000000 
#    z 0.000000 0.000000 1.722860 
# 
# From -- ./inp_files/22151.got.cif
#   From: 2010.05.17/outbox.cif.g08.bks.cpg/sg48_12_cif.got.tgz:22151.got - 2010.06.03 20:39:00.
