data_PCOD9390828
_publ_section_title
;
Structure prediction by ZEFSAII (Michael W. Deem and Ramdas Pophale) SiO2 
 PCOD9390828
Probable space group: P N N N
;
_chemical_formula_sum "Si O2"
_cell_formula_units_Z 40
_cell_length_a 8.398921
_cell_length_b 27.624342
_cell_length_c 8.832921
_cell_angle_alpha 90.000000
_cell_angle_beta 90.000000
_cell_angle_gamma 90.000000
_cell_volume 2049.367217
_symmetry_space_group_name_H-M "P N N N"
_symmetry_group_IT_number 48
_space_group.IT_coordinate_system_code '2'
_symmetry_cell_setting 'orthorhombic'
loop_
_space_group_symop_operation_xyz
x,y,z
1/2-x,1/2-y,z
x,1/2-y,1/2-z
1/2-x,y,1/2-z
-x,-y,-z
1/2+x,1/2+y,-z
-x,1/2+y,1/2+z
1/2+x,-y,1/2+z
loop_
_atom_site_type_symbol
_atom_site_label
_atom_site_fract_x
_atom_site_fract_y
_atom_site_fract_z
Si Si1 0.187913 0.300149 0.078773
Si Si2 0.313412 0.998194 0.570826
Si Si3 0.310599 0.698843 0.577521
Si Si4 0.309570 0.601514 0.079558
Si Si5 0.308176 0.103406 0.578318
O O1 0.250000 0.250000 0.006333
O O2 0.250000 0.300631 0.250000
O O3 0.999329 0.299268 0.078308
O O4 0.246858 0.349366 0.004643
O O5 0.250000 0.997276 0.750000
O O6 0.253481 0.947443 0.504497
O O7 0.500000 0.000000 0.500000
O O8 0.251481 0.050883 0.516449
O O9 0.250000 0.750000 0.511576
O O10 0.250000 0.696131 0.750000
O O11 0.253137 0.650911 0.493511
O O12 0.250000 0.598580 0.250000
O O13 0.500774 0.603333 0.074944
O O14 0.250000 0.106362 0.750000
#
# Coordination Sequence:
#
# PCOD9390828 Si02
#       5
#     8   8   8   8   8
#     4  11  22  38  60  87 115 153 196 242 297 359
#     4   9  20  39  62  87 122 163 205 253 308 370
#     4  11  22  39  61  87 118 156 199 251 305 366
#     4  11  22  38  60  90 122 159 202 251 305 364
#     4  10  21  40  59  85 120 156 197 245 297 358
#
# _framework density 19.518218999999998
#
# number of rings (size 3 to 8) (size 9 to 14) (size 15 to 20)
#    0.000    1.600    0.000    6.600    0.000    3.200 
#    0.000   20.000    0.000    0.000    0.000    0.000 
#    0.000    0.000    0.000    0.000    0.000    0.000 
#
# Total GULP energy -222828.004294 kJ/mol
# GULP energy per Si atom -5570.700107 kJ/mol
# Density = 1.947379 g / cm^3
# Si number density = 19.518219 Si / 1000 Ang^3
#
#
#
# Elastic Constant Matrix: (Units=GPa)
#
#
# Indices 1 2 3 4 5 6 
#
# 1 126.2902 70.9662 29.9911 0.0000 0.0000 0.0000
# 2 70.9662 270.6282 86.7063 0.0000 0.0000 0.0000
# 3 29.9911 86.7063 75.0659 0.0000 0.0000 0.0000
# 4 0.0000 0.0000 0.0000 47.1091 0.0000 0.0000
# 5 0.0000 0.0000 0.0000 0.0000 31.3645 0.0000
# 6 0.0000 0.0000 0.0000 0.0000 0.0000 27.3109
#
#
#
# Elastic Compliance Matrix: (Units=1/GPa)
#
#
# Indices 1 2 3 4 5 6 
#
# 1 0.009384 -0.001999 -0.001440 0.000000 0.000000 0.000000
# 2 -0.001999 0.006292 -0.006469 0.000000 0.000000 0.000000
# 3 -0.001440 -0.006469 0.021369 0.000000 0.000000 0.000000
# 4 0.000000 0.000000 0.000000 0.021227 0.000000 0.000000
# 5 0.000000 0.000000 0.000000 0.000000 0.031883 0.000000
# 6 0.000000 0.000000 0.000000 0.000000 0.000000 0.036615
#
#
# Mechanical properties :
#
#
# Convention : Reuss Voigt Hill
#
# Bulk Modulus (GPa) = 58.04273 94.14571 76.09422
# Shear Modulus (GPa) = 32.82375 40.11161 36.46768
#
# Velocity S-wave (km/s) = 4.10530 4.53822 4.32718
# Velocity P-wave (km/s) = 7.23005 8.70633 8.00230
#
# Compressibility (1/GPa) = 0.01722869
#
# Stress axis : x y z
#
# Youngs Moduli (GPa) = 106.56797 158.93350 46.79752
#
# Poissons Ratio (x) = 0.31778 0.06737
# Poissons Ratio (y) = 0.21308 0.30272
# Poissons Ratio (z) = 0.15341 1.02811
#
# Static dielectric constant tensor:
#      x y z
#    x 1.689190 0.000000 0.000000 
#    y 0.000000 1.713590 0.000000 
#    z 0.000000 0.000000 1.674030 
# 
# From -- ./inp_files/9017.got.cif
#   From: 2010.05.17/outbox.cif.g08.bks.cpg/sg48_5_cif.got.tgz:9017.got - 2010.06.03 20:39:00.
