data_PCOD9390698
_publ_section_title
;
Structure prediction by ZEFSAII (Michael W. Deem and Ramdas Pophale) SiO2 
 PCOD9390698
Probable space group: P N N N
;
_chemical_formula_sum "Si O2"
_cell_formula_units_Z 48
_cell_length_a 15.726183
_cell_length_b 9.938403
_cell_length_c 16.645738
_cell_angle_alpha 90.000000
_cell_angle_beta 90.000000
_cell_angle_gamma 90.000000
_cell_volume 2601.614731
_symmetry_space_group_name_H-M "P N N N"
_symmetry_group_IT_number 48
_space_group.IT_coordinate_system_code '2'
_symmetry_cell_setting 'orthorhombic'
loop_
_space_group_symop_operation_xyz
x,y,z
1/2-x,1/2-y,z
x,1/2-y,1/2-z
1/2-x,y,1/2-z
-x,-y,-z
1/2+x,1/2+y,-z
-x,1/2+y,1/2+z
1/2+x,-y,1/2+z
loop_
_atom_site_type_symbol
_atom_site_label
_atom_site_fract_x
_atom_site_fract_y
_atom_site_fract_z
Si Si1 0.040682 0.489160 0.883880
Si Si2 0.250000 0.039612 0.250000
Si Si3 0.649071 0.249802 0.152986
Si Si4 0.568187 0.409666 0.762102
Si Si5 0.589521 0.663111 0.527505
Si Si6 0.750000 0.750000 0.612083
Si Si7 0.997344 0.069585 0.086478
O O1 0.107245 0.612222 0.881363
O O2 0.006411 0.462218 0.795805
O O3 0.956363 0.537482 0.930882
O O4 0.075666 0.361200 0.933053
O O5 0.275813 0.133800 0.325152
O O6 0.162735 0.958518 0.264202
O O7 0.750000 0.250000 0.135362
O O8 0.638414 0.250000 0.250000
O O9 0.594725 0.375285 0.117015
O O10 0.567933 0.250000 0.750000
O O11 0.542609 0.472347 0.848584
O O12 0.685248 0.676221 0.553685
O O13 0.548301 0.792811 0.569551
O O14 0.000000 0.000000 0.000000
#
# Coordination Sequence:
#
# PCOD9390698 Si02
#       7
#     8   4   8   8   8   4   8
#     4  10  21  39  62  90 122 167 215 251 317 386
#     4  11  23  38  62  98 125 163 206 254 328 385
#     4  10  21  40  68  92 120 166 218 270 319 381
#     4  12  23  40  62  90 132 169 212 262 319 389
#     4  10  21  37  62  90 125 166 203 259 310 380
#     4  11  20  36  66  92 127 156 210 263 310 386
#     4  11  23  40  62  94 128 166 215 262 323 384
#
# _framework density 18.450081000000001
#
# number of rings (size 3 to 8) (size 9 to 14) (size 15 to 20)
#    0.000    1.333    5.000    1.250    0.000    1.333 
#    0.000    0.000    0.000    1.000    0.000    0.000 
#    0.000    0.000    0.000    0.000    0.000    0.000 
#
# Total GULP energy -267262.051725 kJ/mol
# GULP energy per Si atom -5567.959411 kJ/mol
# Density = 1.840809 g / cm^3
# Si number density = 18.450081 Si / 1000 Ang^3
#
#
#
# Elastic Constant Matrix: (Units=GPa)
#
#
# Indices 1 2 3 4 5 6 
#
# 1 99.7893 41.2176 41.1774 0.0000 0.0000 0.0000
# 2 41.2176 85.2350 32.9525 0.0000 0.0000 0.0000
# 3 41.1774 32.9525 120.3588 0.0000 0.0000 0.0000
# 4 0.0000 0.0000 0.0000 24.9437 0.0000 0.0000
# 5 0.0000 0.0000 0.0000 0.0000 22.0277 0.0000
# 6 0.0000 0.0000 0.0000 0.0000 0.0000 -11.3836
#
#
#
# Elastic Compliance Matrix: (Units=1/GPa)
#
#
# Indices 1 2 3 4 5 6 
#
# 1 0.013525 -0.005314 -0.003172 0.000000 0.000000 0.000000
# 2 -0.005314 0.015209 -0.002346 0.000000 0.000000 0.000000
# 3 -0.003172 -0.002346 0.010036 0.000000 0.000000 0.000000
# 4 0.000000 0.000000 0.000000 0.040090 0.000000 0.000000
# 5 0.000000 0.000000 0.000000 0.000000 0.045397 0.000000
# 6 0.000000 0.000000 0.000000 0.000000 0.000000 -0.087846
#
#
# Mechanical properties :
#
#
# Convention : Reuss Voigt Hill
#
# Bulk Modulus (GPa) = 58.46040 59.56424 59.01232
# Shear Modulus (GPa) = 78.39606 19.78659 49.09133
#
# Velocity S-wave (km/s) = 6.52558 3.27836 5.16386
# Velocity P-wave (km/s) = 9.40915 6.83259 8.22242
#
# Compressibility (1/GPa) = 0.01710560
#
# Stress axis : x y z
#
# Youngs Moduli (GPa) = 73.93677 65.75083 99.64018
#
# Poissons Ratio (x) = 0.34940 0.31609
# Poissons Ratio (y) = 0.39290 0.23375
# Poissons Ratio (z) = 0.23455 0.15425
#
# Static dielectric constant tensor:
#      x y z
#    x 1.637310 0.000000 0.000000 
#    y 0.000000 1.791720 0.000000 
#    z 0.000000 0.000000 1.395060 
# 
# From -- ./inp_files/12819.got.cif
#   From: 2010.05.17/outbox.cif.g08.bks.cpg/sg48_7_cif.got.tgz:12819.got - 2010.06.03 20:39:00.
