data_PCOD9390478
_publ_section_title
;
Structure prediction by ZEFSAII (Michael W. Deem and Ramdas Pophale) SiO2 
 PCOD9390478
Probable space group: P N N N
;
_chemical_formula_sum "Si O2"
_cell_formula_units_Z 58
_cell_length_a 18.714915
_cell_length_b 10.416777
_cell_length_c 13.711216
_cell_angle_alpha 90.000000
_cell_angle_beta 90.000000
_cell_angle_gamma 90.000000
_cell_volume 2672.989166
_symmetry_space_group_name_H-M "P N N N"
_symmetry_group_IT_number 48
_space_group.IT_coordinate_system_code '2'
_symmetry_cell_setting 'orthorhombic'
loop_
_space_group_symop_operation_xyz
x,y,z
1/2-x,1/2-y,z
x,1/2-y,1/2-z
1/2-x,y,1/2-z
-x,-y,-z
1/2+x,1/2+y,-z
-x,1/2+y,1/2+z
1/2+x,-y,1/2+z
loop_
_atom_site_type_symbol
_atom_site_label
_atom_site_fract_x
_atom_site_fract_y
_atom_site_fract_z
Si Si1 0.557709 0.594911 0.553839
Si Si2 0.920443 0.151217 0.337977
Si Si3 0.543401 0.845787 0.448021
Si Si4 0.409715 0.536265 0.106618
Si Si5 0.319911 0.823742 0.544640
Si Si6 0.665883 0.900758 0.779153
Si Si7 0.651422 0.525187 0.195562
Si Si8 0.750000 0.750000 0.250000
O O1 0.500000 0.500000 0.500000
O O2 0.503521 0.639155 0.639020
O O3 0.571218 0.705487 0.473688
O O4 0.632847 0.571839 0.611898
O O5 0.913541 0.250000 0.250000
O O6 0.879967 0.218483 0.427713
O O7 0.880155 0.024152 0.298369
O O8 0.464901 0.846313 0.401621
O O9 0.549175 0.920099 0.551541
O O10 0.586381 0.933858 0.373023
O O11 0.381448 0.489946 0.208798
O O12 0.344755 0.579264 0.038342
O O13 0.250000 0.750000 0.515330
O O14 0.307929 0.908741 0.642119
O O15 0.655064 0.750000 0.750000
O O16 0.750000 0.925149 0.750000
O O17 0.699609 0.650711 0.195016
#
# Coordination Sequence:
#
# PCOD9390478 Si02
#       8
#     8   8   8   8   8   8   8   2
#     4  12  25  41  69 100 132 175 231 293 342 422
#     4  10  21  40  67  93 123 170 232 279 333 405
#     4  10  21  41  64  98 126 164 227 282 339 391
#     4  10  20  41  71  94 128 169 224 285 337 398
#     4  10  20  38  66  96 129 172 229 281 333 413
#     4  11  24  45  69 101 138 186 231 282 359 445
#     4  10  23  38  60  92 129 176 208 277 338 410
#     4  12  24  40  54  84 140 174 198 250 352 420
#
# _framework density 21.698554999999999
#
# number of rings (size 3 to 8) (size 9 to 14) (size 15 to 20)
#    0.000    1.517    2.759    2.069    3.862    3.034 
#    4.966    0.000    0.000    0.000    0.000    0.000 
#    0.000    0.000    0.000    0.000    0.000    0.000 
#
# Total GULP energy -323159.620268 kJ/mol
# GULP energy per Si atom -5571.717591 kJ/mol
# Density = 2.164917 g / cm^3
# Si number density = 21.698555 Si / 1000 Ang^3
#
#
#
# Elastic Constant Matrix: (Units=GPa)
#
#
# Indices 1 2 3 4 5 6 
#
# 1 90.2977 21.6411 18.2317 0.0000 0.0000 0.0000
# 2 21.6411 69.6735 33.2901 0.0000 0.0000 0.0000
# 3 18.2317 33.2901 63.5078 0.0000 0.0000 0.0000
# 4 0.0000 0.0000 0.0000 16.5279 0.0000 0.0000
# 5 0.0000 0.0000 0.0000 0.0000 30.5857 0.0000
# 6 0.0000 0.0000 0.0000 0.0000 0.0000 31.8071
#
#
#
# Elastic Compliance Matrix: (Units=1/GPa)
#
#
# Indices 1 2 3 4 5 6 
#
# 1 0.012155 -0.002813 -0.002015 0.000000 0.000000 0.000000
# 2 -0.002813 0.019799 -0.009571 0.000000 0.000000 0.000000
# 3 -0.002015 -0.009571 0.021342 0.000000 0.000000 0.000000
# 4 0.000000 0.000000 0.000000 0.060504 0.000000 0.000000
# 5 0.000000 0.000000 0.000000 0.000000 0.032695 0.000000
# 6 0.000000 0.000000 0.000000 0.000000 0.000000 0.031440
#
#
# Mechanical properties :
#
#
# Convention : Reuss Voigt Hill
#
# Bulk Modulus (GPa) = 40.81886 41.08942 40.95414
# Shear Modulus (GPa) = 23.26673 25.80522 24.53597
#
# Velocity S-wave (km/s) = 3.27811 3.45231 3.36633
# Velocity P-wave (km/s) = 5.76026 5.90498 5.83307
#
# Compressibility (1/GPa) = 0.02449848
#
# Stress axis : x y z
#
# Youngs Moduli (GPa) = 82.26759 50.50656 46.85665
#
# Poissons Ratio (x) = 0.14206 0.09442
# Poissons Ratio (y) = 0.23140 0.44847
# Poissons Ratio (z) = 0.16578 0.48341
#
# Static dielectric constant tensor:
#      x y z
#    x 3.597300 0.000000 0.000000 
#    y 0.000000 1.777720 0.000000 
#    z 0.000000 0.000000 2.620850 
# 
# From -- ./inp_files/28036.got.cif
#   From: 2010.05.17/outbox.cif.g08.bks.cpg/sg48_15_cif.got.tgz:28036.got - 2010.06.03 20:39:00.
