data_PCOD9390942
_publ_section_title
;
Structure prediction by ZEFSAII (Michael W. Deem and Ramdas Pophale) SiO2 
 PCOD9390942
Probable space group: P N N N
;
_chemical_formula_sum "Si O2"
_cell_formula_units_Z 48
_cell_length_a 9.713611
_cell_length_b 8.167623
_cell_length_c 29.036366
_cell_angle_alpha 90.000000
_cell_angle_beta 90.000000
_cell_angle_gamma 90.000000
_cell_volume 2303.661439
_symmetry_space_group_name_H-M "P N N N"
_symmetry_group_IT_number 48
_space_group.IT_coordinate_system_code '2'
_symmetry_cell_setting 'orthorhombic'
loop_
_space_group_symop_operation_xyz
x,y,z
1/2-x,1/2-y,z
x,1/2-y,1/2-z
1/2-x,y,1/2-z
-x,-y,-z
1/2+x,1/2+y,-z
-x,1/2+y,1/2+z
1/2+x,-y,1/2+z
loop_
_atom_site_type_symbol
_atom_site_label
_atom_site_fract_x
_atom_site_fract_y
_atom_site_fract_z
Si Si1 0.907452 0.937554 0.802910
Si Si2 0.369926 0.364823 0.633231
Si Si3 0.849372 0.121882 0.139314
Si Si4 0.902978 0.313871 0.456665
Si Si5 0.598000 0.960620 0.804665
Si Si6 0.093683 0.294471 0.537253
O O1 0.756647 0.995881 0.818857
O O2 0.913424 0.738127 0.806855
O O3 0.918784 0.992077 0.749948
O O4 0.041766 0.981823 0.831844
O O5 0.250000 0.250000 0.655359
O O6 0.266796 0.508260 0.616552
O O7 0.485262 0.440487 0.666411
O O8 0.434386 0.281376 0.587829
O O9 0.750000 0.250000 0.166444
O O10 0.930278 0.211324 0.097846
O O11 0.750000 0.250000 0.465786
O O12 0.918123 0.509701 0.460746
O O13 0.000019 0.235376 0.495064
O O14 0.250000 0.250000 0.526668
#
# Coordination Sequence:
#
# PCOD9390942 Si02
#       6
#     8   8   8   8   8   8
#     4   9  19  38  65  94 128 166 217 268 312 388
#     4  11  21  40  63  91 133 166 205 272 331 383
#     4  11  20  38  62  92 126 164 214 266 317 387
#     4  10  22  41  64  88 120 166 214 259 317 388
#     4   9  19  39  63  95 129 166 214 269 321 378
#     4  10  21  43  61  88 127 161 204 269 324 376
#
# _framework density 20.836395
#
# number of rings (size 3 to 8) (size 9 to 14) (size 15 to 20)
#    0.000    2.000    5.000    1.000    0.000    1.333 
#    9.000    2.500    0.000    2.000    0.000    0.000 
#    0.000    0.000    0.000    0.000    0.000    0.000 
#
# Total GULP energy -267232.838958 kJ/mol
# GULP energy per Si atom -5567.350812 kJ/mol
# Density = 2.078897 g / cm^3
# Si number density = 20.836395 Si / 1000 Ang^3
#
#
#
# Elastic Constant Matrix: (Units=GPa)
#
#
# Indices 1 2 3 4 5 6 
#
# 1 147.4916 27.0603 105.5483 0.0000 0.0000 0.0000
# 2 27.0603 43.9088 29.2619 0.0000 0.0000 0.0000
# 3 105.5483 29.2619 116.6860 0.0000 0.0000 0.0000
# 4 0.0000 0.0000 0.0000 -33.8649 0.0000 0.0000
# 5 0.0000 0.0000 0.0000 0.0000 44.5678 0.0000
# 6 0.0000 0.0000 0.0000 0.0000 0.0000 30.3590
#
#
#
# Elastic Compliance Matrix: (Units=1/GPa)
#
#
# Indices 1 2 3 4 5 6 
#
# 1 0.019228 -0.000311 -0.017314 0.000000 0.000000 0.000000
# 2 -0.000311 0.027349 -0.006577 0.000000 0.000000 0.000000
# 3 -0.017314 -0.006577 0.025881 0.000000 0.000000 0.000000
# 4 0.000000 0.000000 0.000000 -0.029529 0.000000 0.000000
# 5 0.000000 0.000000 0.000000 0.000000 0.022438 0.000000
# 6 0.000000 0.000000 0.000000 0.000000 0.000000 0.032939
#
#
# Mechanical properties :
#
#
# Convention : Reuss Voigt Hill
#
# Bulk Modulus (GPa) = 41.57491 70.20305 55.88898
# Shear Modulus (GPa) = 32.31456 17.96010 25.13733
#
# Velocity S-wave (km/s) = 3.94238 2.93910 3.47712
# Velocity P-wave (km/s) = 6.38118 6.72929 6.55755
#
# Compressibility (1/GPa) = 0.02405297
#
# Stress axis : x y z
#
# Youngs Moduli (GPa) = 52.00837 36.56387 38.63811
#
# Poissons Ratio (x) = 0.01137 0.66900
# Poissons Ratio (y) = 0.01617 0.25413
# Poissons Ratio (z) = 0.90049 0.24049
#
# Static dielectric constant tensor:
#      x y z
#    x 1.761670 0.000000 0.000000 
#    y 0.000000 1.884600 0.000000 
#    z 0.000000 0.000000 1.777550 
# 
# From -- ./inp_files/38685.got.cif
#   From: 2010.05.17/outbox.cif.g08.bks.cpg/sg48_20_cif.got.tgz:38685.got - 2010.06.03 20:39:00.
