data_PCOD9390079
_publ_section_title
;
Structure prediction by ZEFSAII (Michael W. Deem and Ramdas Pophale) SiO2 
 PCOD9390079
Probable space group: P N N N
;
_chemical_formula_sum "Si O2"
_cell_formula_units_Z 56
_cell_length_a 12.600133
_cell_length_b 20.204018
_cell_length_c 10.859954
_cell_angle_alpha 90.000000
_cell_angle_beta 90.000000
_cell_angle_gamma 90.000000
_cell_volume 2764.654479
_symmetry_space_group_name_H-M "P N N N"
_symmetry_group_IT_number 48
_space_group.IT_coordinate_system_code '2'
_symmetry_cell_setting 'orthorhombic'
loop_
_space_group_symop_operation_xyz
x,y,z
1/2-x,1/2-y,z
x,1/2-y,1/2-z
1/2-x,y,1/2-z
-x,-y,-z
1/2+x,1/2+y,-z
-x,1/2+y,1/2+z
1/2+x,-y,1/2+z
loop_
_atom_site_type_symbol
_atom_site_label
_atom_site_fract_x
_atom_site_fract_y
_atom_site_fract_z
Si Si1 0.611392 0.426119 0.156669
Si Si2 0.139982 0.073758 0.766528
Si Si3 0.561751 0.863838 0.491684
Si Si4 0.498918 0.771870 0.895259
Si Si5 0.121833 0.485990 0.004108
Si Si6 0.831138 0.379573 0.081216
Si Si7 0.708449 0.638451 0.614986
O O1 0.648652 0.503047 0.158855
O O2 0.506200 0.414093 0.077817
O O3 0.706946 0.377203 0.115275
O O4 0.603025 0.407856 0.300289
O O5 0.250000 0.112485 0.750000
O O6 0.128499 0.052116 0.626308
O O7 0.058816 0.114520 0.849157
O O8 0.512727 0.793484 0.524393
O O9 0.686114 0.860349 0.530217
O O10 0.488408 0.750000 0.750000
O O11 0.396731 0.813451 0.941460
O O12 0.607395 0.814612 0.911110
O O13 0.170333 0.559215 0.012922
O O14 0.164725 0.436213 0.105745
O O15 0.000000 0.500000 0.000000
O O16 0.750000 0.655829 0.750000
#
# Coordination Sequence:
#
# PCOD9390079 Si02
#       7
#     8   8   8   8   8   8   8
#     4  10  19  37  63  92 122 156 209 275 319 381
#     4  11  21  40  63  91 128 162 213 268 321 386
#     4  12  24  37  59  92 131 169 207 261 329 384
#     4  12  23  38  58  90 134 169 215 262 315 393
#     4  11  22  41  66  88 121 163 210 268 323 383
#     4  10  19  38  62  89 121 163 208 259 327 372
#     4  12  23  38  63  93 126 164 209 265 327 384
#
# _framework density 20.255693999999998
#
# number of rings (size 3 to 8) (size 9 to 14) (size 15 to 20)
#    0.000    0.857    8.571    0.857    2.000    0.571 
#    0.000    0.714    0.000    0.000    0.000    0.000 
#    0.000    0.000    0.000    0.000    0.000    0.000 
#
# Total GULP energy -311796.847200 kJ/mol
# GULP energy per Si atom -5567.800843 kJ/mol
# Density = 2.020959 g / cm^3
# Si number density = 20.255694 Si / 1000 Ang^3
#
#
#
# Elastic Constant Matrix: (Units=GPa)
#
#
# Indices 1 2 3 4 5 6 
#
# 1 55.9980 9.4472 5.0396 0.0000 0.0000 0.0000
# 2 9.4472 86.7292 2.3222 0.0000 0.0000 0.0000
# 3 5.0396 2.3222 21.3021 0.0000 0.0000 0.0000
# 4 0.0000 0.0000 0.0000 13.2346 0.0000 0.0000
# 5 0.0000 0.0000 0.0000 0.0000 22.1471 0.0000
# 6 0.0000 0.0000 0.0000 0.0000 0.0000 25.5667
#
#
#
# Elastic Compliance Matrix: (Units=1/GPa)
#
#
# Indices 1 2 3 4 5 6 
#
# 1 0.018556 -0.001909 -0.004182 0.000000 0.000000 0.000000
# 2 -0.001909 0.011760 -0.000830 0.000000 0.000000 0.000000
# 3 -0.004182 -0.000830 0.048024 0.000000 0.000000 0.000000
# 4 0.000000 0.000000 0.000000 0.075560 0.000000 0.000000
# 5 0.000000 0.000000 0.000000 0.000000 0.045153 0.000000
# 6 0.000000 0.000000 0.000000 0.000000 0.000000 0.039113
#
#
# Mechanical properties :
#
#
# Convention : Reuss Voigt Hill
#
# Bulk Modulus (GPa) = 15.50454 21.96081 18.73267
# Shear Modulus (GPa) = 18.28100 22.00435 20.14267
#
# Velocity S-wave (km/s) = 3.00744 3.29953 3.15686
# Velocity P-wave (km/s) = 4.44192 5.03797 4.74931
#
# Compressibility (1/GPa) = 0.06449725
#
# Stress axis : x y z
#
# Youngs Moduli (GPa) = 53.89018 85.03144 20.82308
#
# Poissons Ratio (x) = 0.16235 0.08708
# Poissons Ratio (y) = 0.10289 0.01729
# Poissons Ratio (z) = 0.22536 0.07060
#
# Static dielectric constant tensor:
#      x y z
#    x 2.271610 0.000000 0.000000 
#    y 0.000000 1.506130 0.000000 
#    z 0.000000 0.000000 1.753070 
# 
# From -- ./inp_files/20257.got.cif
#   From: 2010.05.17/outbox.cif.g08.bks.cpg/sg48_11_cif.got.tgz:20257.got - 2010.06.03 20:39:00.
