data_PCOD9390687
_publ_section_title
;
Structure prediction by ZEFSAII (Michael W. Deem and Ramdas Pophale) SiO2 
 PCOD9390687
Probable space group: P N N N
;
_chemical_formula_sum "Si O2"
_cell_formula_units_Z 64
_cell_length_a 8.684580
_cell_length_b 14.362770
_cell_length_c 24.862824
_cell_angle_alpha 90.000000
_cell_angle_beta 90.000000
_cell_angle_gamma 90.000000
_cell_volume 3101.255030
_symmetry_space_group_name_H-M "P N N N"
_symmetry_group_IT_number 48
_space_group.IT_coordinate_system_code '2'
_symmetry_cell_setting 'orthorhombic'
loop_
_space_group_symop_operation_xyz
x,y,z
1/2-x,1/2-y,z
x,1/2-y,1/2-z
1/2-x,y,1/2-z
-x,-y,-z
1/2+x,1/2+y,-z
-x,1/2+y,1/2+z
1/2+x,-y,1/2+z
loop_
_atom_site_type_symbol
_atom_site_label
_atom_site_fract_x
_atom_site_fract_y
_atom_site_fract_z
Si Si1 0.684754 0.354732 0.911490
Si Si2 0.315384 0.644624 0.521663
Si Si3 0.815246 0.645268 0.411490
Si Si4 0.315499 0.853848 0.857935
Si Si5 0.684616 0.644624 0.521663
Si Si6 0.816076 0.530336 0.306013
Si Si7 0.316076 0.969664 0.306013
Si Si8 0.315499 0.146152 0.142065
O O1 0.750000 0.250000 0.907713
O O2 0.747935 0.398458 0.967194
O O3 0.500000 0.351573 0.914661
O O4 0.731538 0.409491 0.857925
O O5 0.250000 0.750000 0.521386
O O6 0.273643 0.611079 0.581480
O O7 0.500000 0.645264 0.517423
O O8 0.750000 0.750000 0.407713
O O9 0.752065 0.601542 0.467194
O O10 0.768462 0.590509 0.357925
O O11 0.250000 0.750000 0.851191
O O12 0.246703 0.926725 0.816377
O O13 0.500000 0.850869 0.854208
O O14 0.750000 0.750000 0.521386
O O15 0.726357 0.611079 0.581480
O O16 0.750000 0.567164 0.250000
O O17 0.000000 0.529064 0.303660
O O18 0.250000 0.932836 0.250000
O O19 0.253297 0.073275 0.316377
O O20 0.250000 0.250000 0.148809
#
# Coordination Sequence:
#
# PCOD9390687 Si02
#       8
#     8   8   8   8   8   8   8   8
#     4  10  21  37  59  86 116 150 187 232 284 337
#     4   9  17  31  55  86 117 148 183 225 277 337
#     4  10  21  37  59  86 116 150 187 232 284 337
#     4  10  21  38  61  88 118 151 187 231 282 336
#     4   9  17  31  55  86 117 148 183 225 277 337
#     4  11  25  42  59  82 112 149 195 241 283 333
#     4  11  25  42  59  82 112 149 195 241 283 333
#     4  10  21  38  61  88 118 151 187 231 282 336
#
# _framework density 20.636806
#
# number of rings (size 3 to 8) (size 9 to 14) (size 15 to 20)
#    0.000    2.000    0.000    4.500    0.000    9.000 
#    0.000   10.000    0.000    0.000    0.000    0.000 
#    0.000    0.000    0.000    0.000    0.000    0.000 
#
# Total GULP energy -357525.402310 kJ/mol
# GULP energy per Si atom -5586.334411 kJ/mol
# Density = 2.058984 g / cm^3
# Si number density = 20.636806 Si / 1000 Ang^3
#
#
#
# Elastic Constant Matrix: (Units=GPa)
#
#
# Indices 1 2 3 4 5 6 
#
# 1 42.7302 3.4890 30.1397 0.0000 0.0000 0.0000
# 2 3.4890 47.1609 13.5659 0.0000 0.0000 0.0000
# 3 30.1397 13.5659 114.0400 0.0000 0.0000 0.0000
# 4 0.0000 0.0000 0.0000 30.2721 0.0000 0.0000
# 5 0.0000 0.0000 0.0000 0.0000 37.6407 0.0000
# 6 0.0000 0.0000 0.0000 0.0000 0.0000 -0.1255
#
#
#
# Elastic Compliance Matrix: (Units=1/GPa)
#
#
# Indices 1 2 3 4 5 6 
#
# 1 0.028765 0.000061 -0.007610 0.000000 0.000000 0.000000
# 2 0.000061 0.021955 -0.002628 0.000000 0.000000 0.000000
# 3 -0.007610 -0.002628 0.011093 0.000000 0.000000 0.000000
# 4 0.000000 0.000000 0.000000 0.033034 0.000000 0.000000
# 5 0.000000 0.000000 0.000000 0.000000 0.026567 0.000000
# 6 0.000000 0.000000 0.000000 0.000000 0.000000 -7.971168
#
#
# Mechanical properties :
#
#
# Convention : Reuss Voigt Hill
#
# Bulk Modulus (GPa) = 24.11967 33.14671 28.63319
# Shear Modulus (GPa) = -0.63975 24.00657 11.68341
#
# Velocity S-wave (km/s) = -0.55738 3.41440 2.38196
# Velocity P-wave (km/s) = 3.36137 5.62503 4.63356
#
# Compressibility (1/GPa) = 0.04145994
#
# Stress axis : x y z
#
# Youngs Moduli (GPa) = 34.76433 45.54692 90.15022
#
# Poissons Ratio (x) = -0.00277 0.68601
# Poissons Ratio (y) = -0.00212 0.23690
# Poissons Ratio (z) = 0.26454 0.11969
#
# Static dielectric constant tensor:
#      x y z
#    x 1.687270 0.000000 0.000000 
#    y 0.000000 1.725250 0.000000 
#    z 0.000000 0.000000 1.768570 
# 
# From -- ./inp_files/35976.got.cif
#   From: 2010.05.17/outbox.cif.g08.bks.cpg/sg48_18_cif.got.tgz:35976.got - 2010.06.03 20:39:00.
