data_PCOD9390745
_publ_section_title
;
Structure prediction by ZEFSAII (Michael W. Deem and Ramdas Pophale) SiO2 
 PCOD9390745
Probable space group: P N N N
;
_chemical_formula_sum "Si O2"
_cell_formula_units_Z 64
_cell_length_a 9.024680
_cell_length_b 11.669578
_cell_length_c 26.331025
_cell_angle_alpha 90.000000
_cell_angle_beta 90.000000
_cell_angle_gamma 90.000000
_cell_volume 2773.031022
_symmetry_space_group_name_H-M "P N N N"
_symmetry_group_IT_number 48
_space_group.IT_coordinate_system_code '2'
_symmetry_cell_setting 'orthorhombic'
loop_
_space_group_symop_operation_xyz
x,y,z
1/2-x,1/2-y,z
x,1/2-y,1/2-z
1/2-x,y,1/2-z
-x,-y,-z
1/2+x,1/2+y,-z
-x,1/2+y,1/2+z
1/2+x,-y,1/2+z
loop_
_atom_site_type_symbol
_atom_site_label
_atom_site_fract_x
_atom_site_fract_y
_atom_site_fract_z
Si Si1 0.502163 0.344752 0.614974
Si Si2 0.830657 0.434394 0.799399
Si Si3 0.671846 0.627222 0.861590
Si Si4 0.331429 0.079567 0.798567
Si Si5 0.312828 0.119530 0.477652
Si Si6 0.819423 0.367847 0.352028
Si Si7 0.427012 0.753841 0.487484
Si Si8 0.637145 0.453595 0.446569
O O1 0.643844 0.354118 0.651457
O O2 0.368560 0.335529 0.654959
O O3 0.513917 0.256610 0.569795
O O4 0.469997 0.465907 0.586853
O O5 0.750000 0.386428 0.750000
O O6 0.740086 0.542249 0.820182
O O7 0.001604 0.463632 0.785499
O O8 0.750000 0.750000 0.857046
O O9 0.495628 0.639030 0.855581
O O10 0.703269 0.584480 0.919082
O O11 0.250000 0.127532 0.750000
O O12 0.233461 0.974986 0.818783
O O13 0.250000 0.250000 0.484533
O O14 0.487241 0.139497 0.488959
O O15 0.233108 0.033489 0.516066
O O16 0.750000 0.250000 0.331967
O O17 0.744405 0.389384 0.407088
O O18 0.250000 0.750000 0.484836
O O19 0.454135 0.640677 0.521948
#
# Coordination Sequence:
#
# PCOD9390745 Si02
#       8
#     8   8   8   8   8   8   8   8
#     4   9  22  38  66  91 129 173 212 276 340 394
#     4  10  21  38  63  92 121 167 222 276 345 389
#     4  11  23  35  54  91 136 170 215 274 327 396
#     4   9  20  39  64  91 120 170 221 273 334 406
#     4  11  24  38  65  97 135 183 230 266 335 417
#     4  11  22  38  60  89 128 180 222 266 327 407
#     4  12  24  40  66 103 140 180 223 277 338 412
#     4  11  22  41  65  94 138 180 225 273 339 403
#
# _framework density 23.079440000000002
#
# number of rings (size 3 to 8) (size 9 to 14) (size 15 to 20)
#    0.750    0.750    1.250    4.500    3.500    3.500 
#    0.000    2.500    0.000    0.375    3.250    0.000 
#    0.000    0.000    0.000    0.000    0.000    0.000 
#
# Total GULP energy -357820.628299 kJ/mol
# GULP energy per Si atom -5590.947317 kJ/mol
# Density = 2.302691 g / cm^3
# Si number density = 23.079440 Si / 1000 Ang^3
#
#
#
# Elastic Constant Matrix: (Units=GPa)
#
#
# Indices 1 2 3 4 5 6 
#
# 1 145.9699 40.6517 43.1022 0.0000 0.0000 0.0000
# 2 40.6517 63.5992 35.1456 0.0000 0.0000 0.0000
# 3 43.1022 35.1456 131.0823 0.0000 0.0000 0.0000
# 4 0.0000 0.0000 0.0000 3.5665 0.0000 0.0000
# 5 0.0000 0.0000 0.0000 0.0000 49.7625 0.0000
# 6 0.0000 0.0000 0.0000 0.0000 0.0000 29.9158
#
#
#
# Elastic Compliance Matrix: (Units=1/GPa)
#
#
# Indices 1 2 3 4 5 6 
#
# 1 0.008608 -0.004623 -0.001591 0.000000 0.000000 0.000000
# 2 -0.004623 0.020941 -0.004095 0.000000 0.000000 0.000000
# 3 -0.001591 -0.004095 0.009250 0.000000 0.000000 0.000000
# 4 0.000000 0.000000 0.000000 0.280385 0.000000 0.000000
# 5 0.000000 0.000000 0.000000 0.000000 0.020095 0.000000
# 6 0.000000 0.000000 0.000000 0.000000 0.000000 0.033427
#
#
# Mechanical properties :
#
#
# Convention : Reuss Voigt Hill
#
# Bulk Modulus (GPa) = 54.99983 64.27228 59.63606
# Shear Modulus (GPa) = 12.51928 31.43242 21.97585
#
# Velocity S-wave (km/s) = 2.33157 3.69443 3.08909
# Velocity P-wave (km/s) = 5.57949 6.79022 6.21441
#
# Compressibility (1/GPa) = 0.01818187
#
# Stress axis : x y z
#
# Youngs Moduli (GPa) = 116.17160 47.75303 108.11081
#
# Poissons Ratio (x) = 0.22076 0.17200
# Poissons Ratio (y) = 0.53705 0.44267
# Poissons Ratio (z) = 0.18482 0.19553
#
# Static dielectric constant tensor:
#      x y z
#    x 1.898360 0.000000 0.000000 
#    y 0.000000 1.849170 0.000000 
#    z 0.000000 0.000000 1.855320 
# 
# From -- ./inp_files/36001.got.cif
#   From: 2010.05.17/outbox.cif.g08.bks.cpg/sg48_19_cif.got.tgz:36001.got - 2010.06.03 20:39:00.
