data_PCOD9390182
_publ_section_title
;
Structure prediction by ZEFSAII (Michael W. Deem and Ramdas Pophale) SiO2 
 PCOD9390182
Probable space group: P N N N
;
_chemical_formula_sum "Si O2"
_cell_formula_units_Z 64
_cell_length_a 8.808694
_cell_length_b 12.819686
_cell_length_c 33.123337
_cell_angle_alpha 90.000000
_cell_angle_beta 90.000000
_cell_angle_gamma 90.000000
_cell_volume 3740.442601
_symmetry_space_group_name_H-M "P N N N"
_symmetry_group_IT_number 48
_space_group.IT_coordinate_system_code '2'
_symmetry_cell_setting 'orthorhombic'
loop_
_space_group_symop_operation_xyz
x,y,z
1/2-x,1/2-y,z
x,1/2-y,1/2-z
1/2-x,y,1/2-z
-x,-y,-z
1/2+x,1/2+y,-z
-x,1/2+y,1/2+z
1/2+x,-y,1/2+z
loop_
_atom_site_type_symbol
_atom_site_label
_atom_site_fract_x
_atom_site_fract_y
_atom_site_fract_z
Si Si1 0.926261 0.876592 0.247633
Si Si2 0.189809 0.368506 0.593914
Si Si3 0.958354 0.349267 0.662832
Si Si4 0.602090 0.386854 0.672570
Si Si5 0.870335 0.667425 0.952919
Si Si6 0.170585 0.027605 0.990400
Si Si7 0.000393 0.479367 0.907896
Si Si8 0.128777 0.660108 0.016242
O O1 0.941160 0.750000 0.250000
O O2 0.750000 0.903782 0.250000
O O3 0.971087 0.902511 0.202119
O O4 0.032054 0.918600 0.284002
O O5 0.250000 0.250000 0.597963
O O6 0.159010 0.397183 0.547891
O O7 0.327556 0.447709 0.602220
O O8 0.043949 0.384876 0.622413
O O9 0.780815 0.365624 0.670514
O O10 0.979985 0.223760 0.663236
O O11 0.578886 0.461207 0.634713
O O12 0.750000 0.750000 0.935350
O O13 0.754323 0.590110 0.974908
O O14 0.966396 0.595901 0.922636
O O15 0.990235 0.701637 0.988135
O O16 0.276972 0.924118 0.989092
O O17 0.000000 0.000000 0.000000
O O18 0.940567 0.400207 0.944130
O O19 0.250000 0.750000 0.027900
#
# Coordination Sequence:
#
# PCOD9390182 Si02
#       8
#     8   8   8   8   8   8   8   8
#     4   9  17  31  50  70 103 144 179 207 259 321
#     4  12  22  34  53  76 108 146 188 231 278 333
#     4  10  21  30  50  76 105 146 179 216 268 322
#     4  10  20  33  48  75 109 139 181 225 259 319
#     4  11  22  41  55  73 104 145 185 239 284 330
#     4  11  23  36  54  78 104 140 187 230 284 332
#     4  11  22  36  53  78 106 140 189 231 273 335
#     4  11  23  37  55  76 104 141 184 235 281 337
#
# _framework density 17.110274
#
# number of rings (size 3 to 8) (size 9 to 14) (size 15 to 20)
#    0.000    1.375    3.750    3.000    8.750    1.500 
#    0.000    0.000    0.000    0.000    0.000    0.000 
#    0.000    2.000    0.000    2.875    0.000    0.500 
#
# Total GULP energy -356330.951622 kJ/mol
# GULP energy per Si atom -5567.671119 kJ/mol
# Density = 1.707133 g / cm^3
# Si number density = 17.110274 Si / 1000 Ang^3
#
#
#
# Elastic Constant Matrix: (Units=GPa)
#
#
# Indices 1 2 3 4 5 6 
#
# 1 76.6384 16.9454 7.4182 0.0000 0.0000 0.0000
# 2 16.9454 40.4214 13.0726 0.0000 0.0000 0.0000
# 3 7.4182 13.0726 52.0912 0.0000 0.0000 0.0000
# 4 0.0000 0.0000 0.0000 13.9826 0.0000 0.0000
# 5 0.0000 0.0000 0.0000 0.0000 43.6055 0.0000
# 6 0.0000 0.0000 0.0000 0.0000 0.0000 20.4077
#
#
#
# Elastic Compliance Matrix: (Units=1/GPa)
#
#
# Indices 1 2 3 4 5 6 
#
# 1 0.014398 -0.005847 -0.000583 0.000000 0.000000 0.000000
# 2 -0.005847 0.029299 -0.006520 0.000000 0.000000 0.000000
# 3 -0.000583 -0.006520 0.020916 0.000000 0.000000 0.000000
# 4 0.000000 0.000000 0.000000 0.071517 0.000000 0.000000
# 5 0.000000 0.000000 0.000000 0.000000 0.022933 0.000000
# 6 0.000000 0.000000 0.000000 0.000000 0.000000 0.049001
#
#
# Mechanical properties :
#
#
# Convention : Reuss Voigt Hill
#
# Bulk Modulus (GPa) = 25.83132 27.11371 26.47252
# Shear Modulus (GPa) = 20.25362 24.38015 22.31688
#
# Velocity S-wave (km/s) = 3.44424 3.77886 3.61542
# Velocity P-wave (km/s) = 5.56299 5.90936 5.73879
#
# Compressibility (1/GPa) = 0.03871269
#
# Stress axis : x y z
#
# Youngs Moduli (GPa) = 69.45618 34.13052 47.80935
#
# Poissons Ratio (x) = 0.19957 0.02787
# Poissons Ratio (y) = 0.40612 0.31172
# Poissons Ratio (z) = 0.04049 0.22254
#
# Static dielectric constant tensor:
#      x y z
#    x 1.810090 0.000000 0.000000 
#    y 0.000000 1.614470 0.000000 
#    z 0.000000 0.000000 1.551910 
# 
# From -- ./inp_files/38817.got.cif
#   From: 2010.05.17/outbox.cif.g08.bks.cpg/sg48_20_cif.got.tgz:38817.got - 2010.06.03 20:39:00.
