data_PCOD9390787
_publ_section_title
;
Structure prediction by ZEFSAII (Michael W. Deem and Ramdas Pophale) SiO2 
 PCOD9390787
Probable space group: P N N N
;
_chemical_formula_sum "Si O2"
_cell_formula_units_Z 56
_cell_length_a 9.880861
_cell_length_b 11.761884
_cell_length_c 20.682058
_cell_angle_alpha 90.000000
_cell_angle_beta 90.000000
_cell_angle_gamma 90.000000
_cell_volume 2403.617922
_symmetry_space_group_name_H-M "P N N N"
_symmetry_group_IT_number 48
_space_group.IT_coordinate_system_code '2'
_symmetry_cell_setting 'orthorhombic'
loop_
_space_group_symop_operation_xyz
x,y,z
1/2-x,1/2-y,z
x,1/2-y,1/2-z
1/2-x,y,1/2-z
-x,-y,-z
1/2+x,1/2+y,-z
-x,1/2+y,1/2+z
1/2+x,-y,1/2+z
loop_
_atom_site_type_symbol
_atom_site_label
_atom_site_fract_x
_atom_site_fract_y
_atom_site_fract_z
Si Si1 0.306422 0.976873 0.464968
Si Si2 0.900388 0.383356 0.743477
Si Si3 0.395793 0.346722 0.528340
Si Si4 0.055542 0.117708 0.891059
Si Si5 0.196389 0.594328 0.604260
Si Si6 0.930676 0.485004 0.873914
Si Si7 0.974936 0.208647 0.392145
O O1 0.239248 0.097041 0.492602
O O2 0.458109 0.952456 0.440364
O O3 0.291651 0.895912 0.526663
O O4 0.210796 0.944065 0.404739
O O5 0.884325 0.250000 0.750000
O O6 0.750000 0.436583 0.750000
O O7 0.977049 0.390264 0.676196
O O8 0.973841 0.428161 0.807520
O O9 0.403648 0.239823 0.578823
O O10 0.467662 0.449041 0.567872
O O11 0.484916 0.302460 0.467649
O O12 0.184496 0.037588 0.880044
O O13 0.060414 0.662128 0.624711
O O14 0.333555 0.649416 0.628013
O O15 0.919531 0.620501 0.861856
#
# Coordination Sequence:
#
# PCOD9390787 Si02
#       7
#     8   8   8   8   8   8   8
#     4  11  21  38  61  98 137 167 212 273 344 400
#     4  11  23  40  66  95 130 175 218 271 332 406
#     4  11  21  37  64  96 133 170 211 272 337 401
#     4  12  25  40  62 101 139 167 219 279 340 411
#     4  11  22  39  62  94 127 168 212 273 336 389
#     4  11  20  40  63  94 128 172 217 259 328 406
#     4  10  21  39  63  90 126 171 218 266 326 402
#
# _framework density 23.298211999999999
#
# number of rings (size 3 to 8) (size 9 to 14) (size 15 to 20)
#    0.000    1.000    7.143    1.286    0.000    1.143 
#    2.571    1.429    0.000    3.429    0.000    0.000 
#    0.000    0.000    0.000    0.000    0.000    0.000 
#
# Total GULP energy -311737.225969 kJ/mol
# GULP energy per Si atom -5566.736178 kJ/mol
# Density = 2.324518 g / cm^3
# Si number density = 23.298212 Si / 1000 Ang^3
#
#
#
# Elastic Constant Matrix: (Units=GPa)
#
#
# Indices 1 2 3 4 5 6 
#
# 1 64.1467 5.7106 4.4609 0.0000 0.0000 0.0000
# 2 5.7106 104.1877 16.8177 0.0000 0.0000 0.0000
# 3 4.4609 16.8177 112.0941 0.0000 0.0000 0.0000
# 4 0.0000 0.0000 0.0000 26.8774 0.0000 0.0000
# 5 0.0000 0.0000 0.0000 0.0000 77.9820 0.0000
# 6 0.0000 0.0000 0.0000 0.0000 0.0000 33.1688
#
#
#
# Elastic Compliance Matrix: (Units=1/GPa)
#
#
# Indices 1 2 3 4 5 6 
#
# 1 0.015694 -0.000778 -0.000508 0.000000 0.000000 0.000000
# 2 -0.000778 0.009875 -0.001451 0.000000 0.000000 0.000000
# 3 -0.000508 -0.001451 0.009159 0.000000 0.000000 0.000000
# 4 0.000000 0.000000 0.000000 0.037206 0.000000 0.000000
# 5 0.000000 0.000000 0.000000 0.000000 0.012823 0.000000
# 6 0.000000 0.000000 0.000000 0.000000 0.000000 0.030149
#
#
# Mechanical properties :
#
#
# Convention : Reuss Voigt Hill
#
# Bulk Modulus (GPa) = 34.18282 37.15632 35.66957
# Shear Modulus (GPa) = 38.42295 44.50159 41.46227
#
# Velocity S-wave (km/s) = 4.06542 4.37519 4.22315
# Velocity P-wave (km/s) = 6.06140 6.44250 6.25485
#
# Compressibility (1/GPa) = 0.02925446
#
# Stress axis : x y z
#
# Youngs Moduli (GPa) = 63.71915 101.26724 109.18327
#
# Poissons Ratio (x) = 0.07881 0.05544
# Poissons Ratio (y) = 0.04959 0.15838
# Poissons Ratio (z) = 0.03236 0.14690
#
# Static dielectric constant tensor:
#      x y z
#    x 2.088710 0.000000 0.000000 
#    y 0.000000 1.975750 0.000000 
#    z 0.000000 0.000000 1.935200 
# 
# From -- ./inp_files/34174.got.cif
#   From: 2010.05.17/outbox.cif.g08.bks.cpg/sg48_18_cif.got.tgz:34174.got - 2010.06.03 20:39:00.
