data_PCOD9390678
_publ_section_title
;
Structure prediction by ZEFSAII (Michael W. Deem and Ramdas Pophale) SiO2 
 PCOD9390678
Probable space group: P N N N
;
_chemical_formula_sum "Si O2"
_cell_formula_units_Z 32
_cell_length_a 8.061588
_cell_length_b 13.179223
_cell_length_c 15.791690
_cell_angle_alpha 90.000000
_cell_angle_beta 90.000000
_cell_angle_gamma 90.000000
_cell_volume 1677.795463
_symmetry_space_group_name_H-M "P N N N"
_symmetry_group_IT_number 48
_space_group.IT_coordinate_system_code '2'
_symmetry_cell_setting 'orthorhombic'
loop_
_space_group_symop_operation_xyz
x,y,z
1/2-x,1/2-y,z
x,1/2-y,1/2-z
1/2-x,y,1/2-z
-x,-y,-z
1/2+x,1/2+y,-z
-x,1/2+y,1/2+z
1/2+x,-y,1/2+z
loop_
_atom_site_type_symbol
_atom_site_label
_atom_site_fract_x
_atom_site_fract_y
_atom_site_fract_z
Si Si1 0.376913 0.626532 0.170178
Si Si2 0.804635 0.135230 0.494122
Si Si3 0.589726 0.686710 0.398322
Si Si4 0.289021 0.498462 0.836327
O O1 0.250000 0.622902 0.250000
O O2 0.467233 0.736060 0.151983
O O3 0.526007 0.545752 0.170527
O O4 0.278266 0.605930 0.083471
O O5 0.750000 0.250000 0.473624
O O6 0.997197 0.141243 0.520225
O O7 0.747603 0.062450 0.419774
O O8 0.750000 0.750000 0.425539
O O9 0.662216 0.597360 0.340668
O O10 0.250000 0.557129 0.750000
#
# Coordination Sequence:
#
# PCOD9390678 Si02
#       4
#     8   8   8   8
#     4  10  21  37  57  84 112 141 181 236 294 343
#     4  10  21  37  56  78 109 150 187 228 279 339
#     4   9  20  35  56  84 112 141 183 237 294 343
#     4  11  22  35  54  82 112 147 187 230 279 341
#
# _framework density 19.072645999999999
#
# number of rings (size 3 to 8) (size 9 to 14) (size 15 to 20)
#    0.000    2.000    0.000    3.000    0.000   17.500 
#    0.000    0.000    0.000    0.000    0.000   21.000 
#    0.000    0.000    0.000    0.000    0.000    0.000 
#
# Total GULP energy -178562.121590 kJ/mol
# GULP energy per Si atom -5580.066300 kJ/mol
# Density = 1.902924 g / cm^3
# Si number density = 19.072646 Si / 1000 Ang^3
#
#
#
# Elastic Constant Matrix: (Units=GPa)
#
#
# Indices 1 2 3 4 5 6 
#
# 1 132.3781 45.9736 90.9838 0.0000 0.0000 0.0000
# 2 45.9736 55.2109 70.5623 0.0000 0.0000 0.0000
# 3 90.9838 70.5623 183.7613 0.0000 0.0000 0.0000
# 4 0.0000 0.0000 0.0000 9.0109 0.0000 0.0000
# 5 0.0000 0.0000 0.0000 0.0000 20.3869 0.0000
# 6 0.0000 0.0000 0.0000 0.0000 0.0000 18.5422
#
#
#
# Elastic Compliance Matrix: (Units=1/GPa)
#
#
# Indices 1 2 3 4 5 6 
#
# 1 0.012049 -0.004730 -0.004149 0.000000 0.000000 0.000000
# 2 -0.004730 0.037424 -0.012029 0.000000 0.000000 0.000000
# 3 -0.004149 -0.012029 0.012115 0.000000 0.000000 0.000000
# 4 0.000000 0.000000 0.000000 0.110977 0.000000 0.000000
# 5 0.000000 0.000000 0.000000 0.000000 0.049051 0.000000
# 6 0.000000 0.000000 0.000000 0.000000 0.000000 0.053931
#
#
# Mechanical properties :
#
#
# Convention : Reuss Voigt Hill
#
# Bulk Modulus (GPa) = 50.57576 87.37664 68.97620
# Shear Modulus (GPa) = 15.43438 20.51004 17.97221
#
# Velocity S-wave (km/s) = 2.84780 3.28283 3.07303
# Velocity P-wave (km/s) = 6.11460 7.76410 6.98819
#
# Compressibility (1/GPa) = 0.01977232
#
# Stress axis : x y z
#
# Youngs Moduli (GPa) = 82.99773 26.72098 82.54162
#
# Poissons Ratio (x) = 0.12638 0.34249
# Poissons Ratio (y) = 0.39255 0.99286
# Poissons Ratio (z) = 0.34439 0.32142
#
# Static dielectric constant tensor:
#      x y z
#    x 1.740030 0.000000 0.000000 
#    y 0.000000 1.679600 0.000000 
#    z 0.000000 0.000000 1.666800 
# 
# From -- ./inp_files/18187.got.cif
#   From: 2010.05.17/outbox.cif.g08.bks.cpg/sg48_10_cif.got.tgz:18187.got - 2010.06.03 20:39:00.
