data_PCOD9390378
_publ_section_title
;
Structure prediction by ZEFSAII (Michael W. Deem and Ramdas Pophale) SiO2 
 PCOD9390378
Probable space group: P N N N
;
_chemical_formula_sum "Si O2"
_cell_formula_units_Z 32
_cell_length_a 15.189584
_cell_length_b 10.887845
_cell_length_c 8.505106
_cell_angle_alpha 90.000000
_cell_angle_beta 90.000000
_cell_angle_gamma 90.000000
_cell_volume 1406.590047
_symmetry_space_group_name_H-M "P N N N"
_symmetry_group_IT_number 48
_space_group.IT_coordinate_system_code '2'
_symmetry_cell_setting 'orthorhombic'
loop_
_space_group_symop_operation_xyz
x,y,z
1/2-x,1/2-y,z
x,1/2-y,1/2-z
1/2-x,y,1/2-z
-x,-y,-z
1/2+x,1/2+y,-z
-x,1/2+y,1/2+z
1/2+x,-y,1/2+z
loop_
_atom_site_type_symbol
_atom_site_label
_atom_site_fract_x
_atom_site_fract_y
_atom_site_fract_z
Si Si1 0.107177 0.240380 0.062652
Si Si2 0.902673 0.502896 0.065141
Si Si3 0.101568 0.737777 0.560665
Si Si4 0.329839 0.490689 0.879420
O O1 0.114699 0.250000 0.250000
O O2 0.138547 0.370962 0.994162
O O3 0.002430 0.224769 0.022521
O O4 0.159805 0.128384 0.985872
O O5 0.864318 0.372004 0.008295
O O6 0.909623 0.510299 0.253414
O O7 0.000000 0.500000 0.000000
O O8 0.108056 0.750000 0.750000
O O9 0.156528 0.616019 0.523491
O O10 0.250000 0.494201 0.750000
#
# Coordination Sequence:
#
# PCOD9390378 Si02
#       4
#     8   8   8   8
#     4  10  20  37  60  88 121 159 206 258 310 371
#     4   9  19  36  57  86 120 160 207 252 304 371
#     4   8  17  34  58  87 117 155 204 253 299 364
#     4  11  22  37  60  91 123 162 206 257 322 384
#
# _framework density 22.750053999999999
#
# number of rings (size 3 to 8) (size 9 to 14) (size 15 to 20)
#    0.000    2.500    0.000    3.000    0.000    6.500 
#    0.000    6.250    0.000    0.000    0.000   24.500 
#    0.000    0.000    0.000    0.000    0.000    0.000 
#
# Total GULP energy -178363.625187 kJ/mol
# GULP energy per Si atom -5573.863287 kJ/mol
# Density = 2.269827 g / cm^3
# Si number density = 22.750054 Si / 1000 Ang^3
#
#
#
# Elastic Constant Matrix: (Units=GPa)
#
#
# Indices 1 2 3 4 5 6 
#
# 1 100.3887 59.7240 15.6469 0.0000 0.0000 0.0000
# 2 59.7240 303.9879 53.8085 0.0000 0.0000 0.0000
# 3 15.6469 53.8085 42.9368 0.0000 0.0000 0.0000
# 4 0.0000 0.0000 0.0000 32.6332 0.0000 0.0000
# 5 0.0000 0.0000 0.0000 0.0000 26.8622 0.0000
# 6 0.0000 0.0000 0.0000 0.0000 0.0000 -7.0088
#
#
#
# Elastic Compliance Matrix: (Units=1/GPa)
#
#
# Indices 1 2 3 4 5 6 
#
# 1 0.011379 -0.001930 -0.001728 0.000000 0.000000 0.000000
# 2 -0.001930 0.004555 -0.005005 0.000000 0.000000 0.000000
# 3 -0.001728 -0.005005 0.030192 0.000000 0.000000 0.000000
# 4 0.000000 0.000000 0.000000 0.030644 0.000000 0.000000
# 5 0.000000 0.000000 0.000000 0.000000 0.037227 0.000000
# 6 0.000000 0.000000 0.000000 0.000000 0.000000 -0.142677
#
#
# Mechanical properties :
#
#
# Convention : Reuss Voigt Hill
#
# Bulk Modulus (GPa) = 34.72260 78.40803 56.56532
# Shear Modulus (GPa) = -2847.21060 31.70624 -1407.75218
#
# Velocity S-wave (km/s) = -35.41518 3.73725 -24.90249
# Velocity P-wave (km/s) = 40.70648 7.29126 28.31833
#
# Compressibility (1/GPa) = 0.02879969
#
# Stress axis : x y z
#
# Youngs Moduli (GPa) = 87.88387 219.55974 33.12168
#
# Poissons Ratio (x) = 0.42366 0.05725
# Poissons Ratio (y) = 0.16958 0.16576
# Poissons Ratio (z) = 0.15190 1.09881
#
# Static dielectric constant tensor:
#      x y z
#    x 1.987460 0.000000 0.000000 
#    y 0.000000 -1.215610 0.000000 
#    z 0.000000 0.000000 1.785240 
# 
# From -- ./inp_files/11872.got.cif
#   From: 2010.05.17/outbox.cif.g08.bks.cpg/sg48_6_cif.got.tgz:11872.got - 2010.06.03 20:39:00.
