data_PCOD9390208
_publ_section_title
;
Structure prediction by ZEFSAII (Michael W. Deem and Ramdas Pophale) SiO2 
 PCOD9390208
Probable space group: P N N N
;
_chemical_formula_sum "Si O2"
_cell_formula_units_Z 40
_cell_length_a 7.653293
_cell_length_b 8.782293
_cell_length_c 28.024542
_cell_angle_alpha 90.000000
_cell_angle_beta 90.000000
_cell_angle_gamma 90.000000
_cell_volume 1883.626476
_symmetry_space_group_name_H-M "P N N N"
_symmetry_group_IT_number 48
_space_group.IT_coordinate_system_code '2'
_symmetry_cell_setting 'orthorhombic'
loop_
_space_group_symop_operation_xyz
x,y,z
1/2-x,1/2-y,z
x,1/2-y,1/2-z
1/2-x,y,1/2-z
-x,-y,-z
1/2+x,1/2+y,-z
-x,1/2+y,1/2+z
1/2+x,-y,1/2+z
loop_
_atom_site_type_symbol
_atom_site_label
_atom_site_fract_x
_atom_site_fract_y
_atom_site_fract_z
Si Si1 0.206215 0.927912 0.801901
Si Si2 0.208595 0.573119 0.399787
Si Si3 0.287653 0.071430 0.601695
Si Si4 0.294512 0.428570 0.197438
Si Si5 0.202980 0.067345 0.001588
O O1 0.250000 0.750000 0.800725
O O2 0.250000 0.995809 0.750000
O O3 0.000572 0.943038 0.805905
O O4 0.285014 0.996573 0.850201
O O5 0.250000 0.750000 0.401500
O O6 0.280836 0.505073 0.350187
O O7 0.274865 0.497502 0.448714
O O8 0.998116 0.552173 0.399205
O O9 0.250000 0.250000 0.604432
O O10 0.222966 0.013757 0.549923
O O11 0.250000 0.250000 0.196922
O O12 0.250000 0.491154 0.250000
O O13 0.250000 0.250000 0.002478
O O14 0.000000 0.000000 0.000000
#
# Coordination Sequence:
#
# PCOD9390208 Si02
#       5
#     8   8   8   8   8
#     4  10  20  34  53  78 103 135 179 220 263 322
#     4  10  21  35  55  82 110 142 183 226 276 334
#     4   9  20  37  54  76 108 141 176 221 271 323
#     4  10  20  35  54  77 107 142 179 225 276 328
#     4   9  18  37  58  79 111 147 184 230 280 336
#
# _framework density 21.235631999999999
#
# number of rings (size 3 to 8) (size 9 to 14) (size 15 to 20)
#    0.000    2.400    0.000    3.000    0.000    4.800 
#    0.000   13.000    0.000    0.000    0.000    0.000 
#    0.000    0.000    0.000    0.000    0.000    0.000 
#
# Total GULP energy -222728.585611 kJ/mol
# GULP energy per Si atom -5568.214640 kJ/mol
# Density = 2.118730 g / cm^3
# Si number density = 21.235632 Si / 1000 Ang^3
#
#
#
# Elastic Constant Matrix: (Units=GPa)
#
#
# Indices 1 2 3 4 5 6 
#
# 1 57.9127 0.5957 22.0876 0.0000 0.0000 0.0000
# 2 0.5957 70.0766 87.5344 0.0000 0.0000 0.0000
# 3 22.0876 87.5344 301.9065 0.0000 0.0000 0.0000
# 4 0.0000 0.0000 0.0000 47.9434 0.0000 0.0000
# 5 0.0000 0.0000 0.0000 0.0000 14.1032 0.0000
# 6 0.0000 0.0000 0.0000 0.0000 0.0000 21.0710
#
#
#
# Elastic Compliance Matrix: (Units=1/GPa)
#
#
# Indices 1 2 3 4 5 6 
#
# 1 0.018004 0.002340 -0.001996 0.000000 0.000000 0.000000
# 2 0.002340 0.022677 -0.006746 0.000000 0.000000 0.000000
# 3 -0.001996 -0.006746 0.005414 0.000000 0.000000 0.000000
# 4 0.000000 0.000000 0.000000 0.020858 0.000000 0.000000
# 5 0.000000 0.000000 0.000000 0.000000 0.070906 0.000000
# 6 0.000000 0.000000 0.000000 0.000000 0.000000 0.047459
#
#
# Mechanical properties :
#
#
# Convention : Reuss Voigt Hill
#
# Bulk Modulus (GPa) = 30.03763 72.25903 51.14833
# Shear Modulus (GPa) = 23.89838 37.93539 30.91688
#
# Velocity S-wave (km/s) = 3.35832 4.23117 3.81976
# Velocity P-wave (km/s) = 5.40494 7.61390 6.60246
#
# Compressibility (1/GPa) = 0.03329157
#
# Stress axis : x y z
#
# Youngs Moduli (GPa) = 55.54200 44.09766 184.69820
#
# Poissons Ratio (x) = -0.10317 0.36858
# Poissons Ratio (y) = -0.12995 1.24599
# Poissons Ratio (z) = 0.11084 0.29749
#
# Static dielectric constant tensor:
#      x y z
#    x 1.871350 0.000000 0.000000 
#    y 0.000000 2.214160 0.000000 
#    z 0.000000 0.000000 1.869210 
# 
# From -- ./inp_files/9198.got.cif
#   From: 2010.05.17/outbox.cif.g08.bks.cpg/sg48_5_cif.got.tgz:9198.got - 2010.06.03 20:39:00.
