data_PCOD9390317
_publ_section_title
;
Structure prediction by ZEFSAII (Michael W. Deem and Ramdas Pophale) SiO2 
 PCOD9390317
Probable space group: P N N N
;
_chemical_formula_sum "Si O2"
_cell_formula_units_Z 64
_cell_length_a 25.907070
_cell_length_b 14.714421
_cell_length_c 9.091815
_cell_angle_alpha 90.000000
_cell_angle_beta 90.000000
_cell_angle_gamma 90.000000
_cell_volume 3465.868384
_symmetry_space_group_name_H-M "P N N N"
_symmetry_group_IT_number 48
_space_group.IT_coordinate_system_code '2'
_symmetry_cell_setting 'orthorhombic'
loop_
_space_group_symop_operation_xyz
x,y,z
1/2-x,1/2-y,z
x,1/2-y,1/2-z
1/2-x,y,1/2-z
-x,-y,-z
1/2+x,1/2+y,-z
-x,1/2+y,1/2+z
1/2+x,-y,1/2+z
loop_
_atom_site_type_symbol
_atom_site_label
_atom_site_fract_x
_atom_site_fract_y
_atom_site_fract_z
Si Si1 0.863694 0.924360 0.057577
Si Si2 0.062694 0.906808 0.990361
Si Si3 0.574785 0.748728 0.427087
Si Si4 0.542600 0.221746 0.922225
Si Si5 0.505059 0.990135 0.746350
Si Si6 0.071982 0.984663 0.493020
Si Si7 0.342561 0.406933 0.595041
Si Si8 0.742393 0.859102 0.579616
O O1 0.907078 0.848352 0.024581
O O2 0.847404 0.913066 0.228846
O O3 0.890572 0.021495 0.026572
O O4 0.813244 0.896590 0.967394
O O5 0.025188 0.918977 0.851414
O O6 0.075883 0.801561 0.003686
O O7 0.027828 0.936786 0.131687
O O8 0.571981 0.750000 0.250000
O O9 0.516811 0.727914 0.476613
O O10 0.620200 0.676174 0.458630
O O11 0.543757 0.250000 0.750000
O O12 0.561324 0.120574 0.958018
O O13 0.552419 0.962129 0.848895
O O14 0.462236 0.019756 0.867904
O O15 0.130365 0.004214 0.529711
O O16 0.285981 0.396281 0.530745
O O17 0.750000 0.750000 0.568918
O O18 0.750000 0.884015 0.750000
#
# Coordination Sequence:
#
# PCOD9390317 Si02
#       8
#     8   8   8   8   8   8   8   8
#     4  11  22  40  63  87 120 167 206 249 305 363
#     4  11  22  37  58  90 125 165 208 254 300 364
#     4   9  18  31  57  86 118 162 204 236 287 359
#     4  11  22  37  56  89 128 172 209 242 298 369
#     4  10  20  36  58  86 126 162 208 252 298 358
#     4  11  22  37  58  90 125 165 208 254 300 364
#     4  11  22  40  63  87 120 167 206 249 305 363
#     4  11  25  43  61  94 123 148 203 265 310 362
#
# _framework density 18.465789999999998
#
# number of rings (size 3 to 8) (size 9 to 14) (size 15 to 20)
#    0.000    1.375    3.750    3.375    5.250    1.000 
#    0.000    1.250    0.000    0.750    0.000    3.500 
#    0.000    0.000    0.000    0.000    0.000    0.000 
#
# Total GULP energy -357066.720583 kJ/mol
# GULP energy per Si atom -5579.167509 kJ/mol
# Density = 1.842376 g / cm^3
# Si number density = 18.465790 Si / 1000 Ang^3
#
#
#
# Elastic Constant Matrix: (Units=GPa)
#
#
# Indices 1 2 3 4 5 6 
#
# 1 84.4692 54.8551 28.7195 0.0000 0.0000 0.0000
# 2 54.8551 103.7104 28.0472 0.0000 0.0000 0.0000
# 3 28.7195 28.0472 90.7325 0.0000 0.0000 0.0000
# 4 0.0000 0.0000 0.0000 16.9003 0.0000 0.0000
# 5 0.0000 0.0000 0.0000 0.0000 25.3956 0.0000
# 6 0.0000 0.0000 0.0000 0.0000 0.0000 24.9523
#
#
#
# Elastic Compliance Matrix: (Units=1/GPa)
#
#
# Indices 1 2 3 4 5 6 
#
# 1 0.018819 -0.009104 -0.003143 0.000000 0.000000 0.000000
# 2 -0.009104 0.014926 -0.001732 0.000000 0.000000 0.000000
# 3 -0.003143 -0.001732 0.012552 0.000000 0.000000 0.000000
# 4 0.000000 0.000000 0.000000 0.059170 0.000000 0.000000
# 5 0.000000 0.000000 0.000000 0.000000 0.039377 0.000000
# 6 0.000000 0.000000 0.000000 0.000000 0.000000 0.040076
#
#
# Mechanical properties :
#
#
# Convention : Reuss Voigt Hill
#
# Bulk Modulus (GPa) = 54.52825 55.79507 55.16166
# Shear Modulus (GPa) = 22.83187 24.60235 23.71711
#
# Velocity S-wave (km/s) = 3.52012 3.65406 3.58771
# Velocity P-wave (km/s) = 6.79081 6.93425 6.86290
#
# Compressibility (1/GPa) = 0.01833912
#
# Stress axis : x y z
#
# Youngs Moduli (GPa) = 53.13640 66.99657 79.67115
#
# Poissons Ratio (x) = 0.60995 0.25038
# Poissons Ratio (y) = 0.48377 0.13801
# Poissons Ratio (z) = 0.16699 0.11605
#
# Static dielectric constant tensor:
#      x y z
#    x 1.617520 0.000000 0.000000 
#    y 0.000000 1.675840 0.000000 
#    z 0.000000 0.000000 1.685780 
# 
# From -- ./inp_files/16048.got.cif
#   From: 2010.05.17/outbox.cif.g08.bks.cpg/sg48_9_cif.got.tgz:16048.got - 2010.06.03 20:39:00.
