data_PCOD9390008
_publ_section_title
;
Structure prediction by ZEFSAII (Michael W. Deem and Ramdas Pophale) SiO2 
 PCOD9390008
Probable space group: P N N N
;
_chemical_formula_sum "Si O2"
_cell_formula_units_Z 64
_cell_length_a 8.620703
_cell_length_b 22.133962
_cell_length_c 18.431911
_cell_angle_alpha 90.000000
_cell_angle_beta 90.000000
_cell_angle_gamma 90.000000
_cell_volume 3516.998700
_symmetry_space_group_name_H-M "P N N N"
_symmetry_group_IT_number 48
_space_group.IT_coordinate_system_code '2'
_symmetry_cell_setting 'orthorhombic'
loop_
_space_group_symop_operation_xyz
x,y,z
1/2-x,1/2-y,z
x,1/2-y,1/2-z
1/2-x,y,1/2-z
-x,-y,-z
1/2+x,1/2+y,-z
-x,1/2+y,1/2+z
1/2+x,-y,1/2+z
loop_
_atom_site_type_symbol
_atom_site_label
_atom_site_fract_x
_atom_site_fract_y
_atom_site_fract_z
Si Si1 0.148452 0.347592 0.436341
Si Si2 0.581906 0.309815 0.285100
Si Si3 0.136153 0.144392 0.688199
Si Si4 0.927270 0.237377 0.602875
Si Si5 0.571309 0.629836 0.094136
Si Si6 0.586670 0.918882 0.710882
Si Si7 0.484265 0.287740 0.442474
Si Si8 0.925797 0.056605 0.781304
O O1 0.084718 0.379861 0.508470
O O2 0.112054 0.388065 0.367005
O O3 0.330565 0.329897 0.443490
O O4 0.067999 0.281798 0.430733
O O5 0.500394 0.250000 0.250000
O O6 0.750000 0.310463 0.250000
O O7 0.505314 0.371382 0.259541
O O8 0.582963 0.304736 0.371801
O O9 0.250000 0.171032 0.750000
O O10 0.256639 0.122470 0.627264
O O11 0.016383 0.192010 0.655633
O O12 0.039712 0.090914 0.725705
O O13 0.750000 0.250000 0.623729
O O14 0.020528 0.300302 0.602861
O O15 0.934002 0.210906 0.520731
O O16 0.452805 0.590340 0.141747
O O17 0.750000 0.924954 0.750000
O O18 0.524654 0.987021 0.708294
O O19 0.750000 0.060968 0.750000
#
# Coordination Sequence:
#
# PCOD9390008 Si02
#       8
#     8   8   8   8   8   8   8   8
#     4  10  19  35  62  88 119 156 199 239 294 365
#     4  11  23  35  56  90 126 155 196 242 297 352
#     4  10  21  39  60  82 116 155 198 243 294 360
#     4  11  22  35  61  93 125 154 190 245 312 354
#     4  10  21  38  60  89 117 157 197 238 297 367
#     4  11  22  38  61  85 113 163 205 244 293 356
#     4  10  20  35  58  91 129 155 189 243 302 360
#     4  10  23  40  59  83 117 153 202 255 295 343
#
# _framework density 18.197333
#
# number of rings (size 3 to 8) (size 9 to 14) (size 15 to 20)
#    0.000    1.625    3.750    1.125    1.750    5.750 
#    0.000    3.125    0.000    8.250    0.000    0.000 
#    0.000    0.000    0.000    0.000    0.000    0.000 
#
# Total GULP energy -357113.998910 kJ/mol
# GULP energy per Si atom -5579.906233 kJ/mol
# Density = 1.815591 g / cm^3
# Si number density = 18.197333 Si / 1000 Ang^3
#
#
#
# Elastic Constant Matrix: (Units=GPa)
#
#
# Indices 1 2 3 4 5 6 
#
# 1 81.5693 30.4738 38.8543 0.0000 0.0000 0.0000
# 2 30.4738 112.4512 60.5301 0.0000 0.0000 0.0000
# 3 38.8543 60.5301 134.9219 0.0000 0.0000 0.0000
# 4 0.0000 0.0000 0.0000 15.6537 0.0000 0.0000
# 5 0.0000 0.0000 0.0000 0.0000 26.9032 0.0000
# 6 0.0000 0.0000 0.0000 0.0000 0.0000 25.9410
#
#
#
# Elastic Compliance Matrix: (Units=1/GPa)
#
#
# Indices 1 2 3 4 5 6 
#
# 1 0.014623 -0.002236 -0.003208 0.000000 0.000000 0.000000
# 2 -0.002236 0.012066 -0.004769 0.000000 0.000000 0.000000
# 3 -0.003208 -0.004769 0.010475 0.000000 0.000000 0.000000
# 4 0.000000 0.000000 0.000000 0.063883 0.000000 0.000000
# 5 0.000000 0.000000 0.000000 0.000000 0.037170 0.000000
# 6 0.000000 0.000000 0.000000 0.000000 0.000000 0.038549
#
#
# Mechanical properties :
#
#
# Convention : Reuss Voigt Hill
#
# Bulk Modulus (GPa) = 59.74551 65.40652 62.57602
# Shear Modulus (GPa) = 24.65832 26.97186 25.81509
#
# Velocity S-wave (km/s) = 3.68510 3.85410 3.77054
# Velocity P-wave (km/s) = 7.14212 7.47170 7.30877
#
# Compressibility (1/GPa) = 0.01673766
#
# Stress axis : x y z
#
# Youngs Moduli (GPa) = 68.38580 82.87859 95.46444
#
# Poissons Ratio (x) = 0.18532 0.30624
# Poissons Ratio (y) = 0.15291 0.45529
# Poissons Ratio (z) = 0.21938 0.39526
#
# Static dielectric constant tensor:
#      x y z
#    x 1.628630 0.000000 0.000000 
#    y 0.000000 1.637900 0.000000 
#    z 0.000000 0.000000 1.636150 
# 
# From -- ./inp_files/30600.got.cif
#   From: 2010.05.17/outbox.cif.g08.bks.cpg/sg48_16_cif.got.tgz:30600.got - 2010.06.03 20:39:00.
