data_PCOD9390314
_publ_section_title
;
Structure prediction by ZEFSAII (Michael W. Deem and Ramdas Pophale) SiO2 
 PCOD9390314
Probable space group: P N N N
;
_chemical_formula_sum "Si O2"
_cell_formula_units_Z 34
_cell_length_a 17.744847
_cell_length_b 6.404410
_cell_length_c 15.527742
_cell_angle_alpha 90.000000
_cell_angle_beta 90.000000
_cell_angle_gamma 90.000000
_cell_volume 1764.654519
_symmetry_space_group_name_H-M "P N N N"
_symmetry_group_IT_number 48
_space_group.IT_coordinate_system_code '2'
_symmetry_cell_setting 'orthorhombic'
loop_
_space_group_symop_operation_xyz
x,y,z
1/2-x,1/2-y,z
x,1/2-y,1/2-z
1/2-x,y,1/2-z
-x,-y,-z
1/2+x,1/2+y,-z
-x,1/2+y,1/2+z
1/2+x,-y,1/2+z
loop_
_atom_site_type_symbol
_atom_site_label
_atom_site_fract_x
_atom_site_fract_y
_atom_site_fract_z
Si Si1 0.466910 0.132260 0.160835
Si Si2 0.043787 0.250000 0.750000
Si Si3 0.693027 0.557519 0.606905
Si Si4 0.750000 0.250000 0.461814
Si Si5 0.750000 0.250000 0.750000
Si Si6 0.115387 0.869904 0.839679
O O1 0.446214 0.250000 0.250000
O O2 0.393361 0.129211 0.102885
O O3 0.539454 0.256775 0.125532
O O4 0.494220 0.903857 0.190909
O O5 0.093769 0.397230 0.688801
O O6 0.750000 0.750000 0.619276
O O7 0.716539 0.428764 0.523095
O O8 0.701679 0.399849 0.687916
O O9 0.815910 0.345109 0.403481
O O10 0.132706 0.750000 0.750000
#
# Coordination Sequence:
#
# PCOD9390314 Si02
#       6
#     8   4   8   4   2   8
#     4   9  18  35  59  85 110 145 199 243 285 347
#     4   8  17  36  67  88 104 150 198 247 296 337
#     4  11  23  37  57  85 120 158 191 238 296 348
#     4  11  25  39  53  88 126 152 195 239 285 355
#     4  10  20  36  58  80 110 152 198 242 284 352
#     4   9  20  39  62  84 111 150 197 245 289 345
#
# _framework density 19.267227999999999
#
# number of rings (size 3 to 8) (size 9 to 14) (size 15 to 20)
#    0.000    2.824    0.000    2.824    0.000   10.353 
#    0.000    7.059    0.000    0.000    0.000    0.000 
#    0.000    0.000    0.000    0.000    0.000    0.000 
#
# Total GULP energy -189804.073998 kJ/mol
# GULP energy per Si atom -5582.472765 kJ/mol
# Density = 1.922338 g / cm^3
# Si number density = 19.267228 Si / 1000 Ang^3
#
#
#
# Elastic Constant Matrix: (Units=GPa)
#
#
# Indices 1 2 3 4 5 6 
#
# 1 178.8899 68.6965 77.2930 0.0000 0.0000 0.0000
# 2 68.6965 138.3656 42.2832 0.0000 0.0000 0.0000
# 3 77.2930 42.2832 73.8313 0.0000 0.0000 0.0000
# 4 0.0000 0.0000 0.0000 6.8621 0.0000 0.0000
# 5 0.0000 0.0000 0.0000 0.0000 -95.7481 0.0000
# 6 0.0000 0.0000 0.0000 0.0000 0.0000 1.6632
#
#
#
# Elastic Compliance Matrix: (Units=1/GPa)
#
#
# Indices 1 2 3 4 5 6 
#
# 1 0.010782 -0.002308 -0.009966 0.000000 0.000000 0.000000
# 2 -0.002308 0.009254 -0.002884 0.000000 0.000000 0.000000
# 3 -0.009966 -0.002884 0.025630 0.000000 0.000000 0.000000
# 4 0.000000 0.000000 0.000000 0.145728 0.000000 0.000000
# 5 0.000000 0.000000 0.000000 0.000000 -0.010444 0.000000
# 6 0.000000 0.000000 0.000000 0.000000 0.000000 0.601240
#
#
# Mechanical properties :
#
#
# Convention : Reuss Voigt Hill
#
# Bulk Modulus (GPa) = 65.14550 85.29248 75.21899
# Shear Modulus (GPa) = 6.11529 -3.92361 1.09584
#
# Velocity S-wave (km/s) = 1.78349 -1.42858 0.75498
# Velocity P-wave (km/s) = 6.17463 6.45315 6.31543
#
# Compressibility (1/GPa) = 0.01535025
#
# Stress axis : x y z
#
# Youngs Moduli (GPa) = 92.74407 108.05788 39.01725
#
# Poissons Ratio (x) = 0.24936 0.38886
# Poissons Ratio (y) = 0.21402 0.11253
# Poissons Ratio (z) = 0.92432 0.31165
#
# Static dielectric constant tensor:
#      x y z
#    x 1.675180 0.000000 0.000000 
#    y 0.000000 1.688920 0.000000 
#    z 0.000000 0.000000 1.650320 
# 
# From -- ./inp_files/4077.got.cif
#   From: 2010.05.17/outbox.cif.g08.bks.cpg/sg48_3_cif.got.tgz:4077.got - 2010.06.03 20:39:00.
