data_PCOD9390234
_publ_section_title
;
Structure prediction by ZEFSAII (Michael W. Deem and Ramdas Pophale) SiO2 
 PCOD9390234
Probable space group: P N N N
;
_chemical_formula_sum "Si O2"
_cell_formula_units_Z 48
_cell_length_a 8.245234
_cell_length_b 9.139414
_cell_length_c 28.659195
_cell_angle_alpha 90.000000
_cell_angle_beta 90.000000
_cell_angle_gamma 90.000000
_cell_volume 2159.659696
_symmetry_space_group_name_H-M "P N N N"
_symmetry_group_IT_number 48
_space_group.IT_coordinate_system_code '2'
_symmetry_cell_setting 'orthorhombic'
loop_
_space_group_symop_operation_xyz
x,y,z
1/2-x,1/2-y,z
x,1/2-y,1/2-z
1/2-x,y,1/2-z
-x,-y,-z
1/2+x,1/2+y,-z
-x,1/2+y,1/2+z
1/2+x,-y,1/2+z
loop_
_atom_site_type_symbol
_atom_site_label
_atom_site_fract_x
_atom_site_fract_y
_atom_site_fract_z
Si Si1 0.564704 0.547397 0.950161
Si Si2 0.563238 0.702620 0.102066
Si Si3 0.935680 0.041133 0.551160
Si Si4 0.938741 0.291189 0.104161
Si Si5 0.070079 0.176080 0.795623
Si Si6 0.931043 0.320965 0.296559
O O1 0.455870 0.465597 0.911630
O O2 0.749447 0.501955 0.945281
O O3 0.536577 0.715265 0.937914
O O4 0.500000 0.500000 0.000000
O O5 0.750000 0.750000 0.099545
O O6 0.464199 0.790136 0.063153
O O7 0.496867 0.719119 0.154420
O O8 0.000000 0.000000 0.500000
O O9 0.034377 0.960528 0.592815
O O10 0.750000 0.250000 0.100241
O O11 0.002775 0.235712 0.154295
O O12 0.250000 0.250000 0.797392
O O13 0.991826 0.250000 0.750000
O O14 0.077976 0.998239 0.792868
O O15 0.750000 0.250000 0.298039
O O16 0.008024 0.250000 0.250000
#
# Coordination Sequence:
#
# PCOD9390234 Si02
#       6
#     8   8   8   8   8   8
#     4  12  24  44  65  90 131 165 214 267 319 392
#     4  11  23  40  65  96 129 166 216 265 319 378
#     4  12  26  42  65  94 125 175 214 263 327 380
#     4  11  23  40  65  96 129 166 216 265 319 378
#     4  10  20  34  61  96 132 167 213 268 320 375
#     4  10  20  34  61  96 132 167 213 268 320 375
#
# _framework density 22.225724
#
# number of rings (size 3 to 8) (size 9 to 14) (size 15 to 20)
#    0.000    1.000    1.667    7.000    9.333    0.000 
#    0.000    0.000    0.000    6.000    0.000    0.000 
#    0.000    0.000    0.000    0.000    0.000    0.000 
#
# Total GULP energy -268143.842621 kJ/mol
# GULP energy per Si atom -5586.330055 kJ/mol
# Density = 2.217514 g / cm^3
# Si number density = 22.225724 Si / 1000 Ang^3
#
#
#
# Elastic Constant Matrix: (Units=GPa)
#
#
# Indices 1 2 3 4 5 6 
#
# 1 76.2483 10.0253 10.0096 0.0000 0.0000 0.0000
# 2 10.0253 110.7193 33.2496 0.0000 0.0000 0.0000
# 3 10.0096 33.2496 162.2127 0.0000 0.0000 0.0000
# 4 0.0000 0.0000 0.0000 43.1487 0.0000 0.0000
# 5 0.0000 0.0000 0.0000 0.0000 12.5176 0.0000
# 6 0.0000 0.0000 0.0000 0.0000 0.0000 35.1406
#
#
#
# Elastic Compliance Matrix: (Units=1/GPa)
#
#
# Indices 1 2 3 4 5 6 
#
# 1 0.013330 -0.001023 -0.000613 0.000000 0.000000 0.000000
# 2 -0.001023 0.009703 -0.001926 0.000000 0.000000 0.000000
# 3 -0.000613 -0.001926 0.006597 0.000000 0.000000 0.000000
# 4 0.000000 0.000000 0.000000 0.023176 0.000000 0.000000
# 5 0.000000 0.000000 0.000000 0.000000 0.079887 0.000000
# 6 0.000000 0.000000 0.000000 0.000000 0.000000 0.028457
#
#
# Mechanical properties :
#
#
# Convention : Reuss Voigt Hill
#
# Bulk Modulus (GPa) = 44.43060 50.63882 47.53471
# Shear Modulus (GPa) = 28.44536 37.88777 33.16657
#
# Velocity S-wave (km/s) = 3.58137 4.13326 3.86717
# Velocity P-wave (km/s) = 6.09390 6.75365 6.43224
#
# Compressibility (1/GPa) = 0.02250701
#
# Stress axis : x y z
#
# Youngs Moduli (GPa) = 75.01878 103.06329 151.57745
#
# Poissons Ratio (x) = 0.10543 0.09290
# Poissons Ratio (y) = 0.07674 0.29189
# Poissons Ratio (z) = 0.04598 0.19847
#
# Static dielectric constant tensor:
#      x y z
#    x 1.807090 0.000000 0.000000 
#    y 0.000000 1.762420 0.000000 
#    z 0.000000 0.000000 1.877450 
# 
# From -- ./inp_files/38681.got.cif
#   From: 2010.05.17/outbox.cif.g08.bks.cpg/sg48_20_cif.got.tgz:38681.got - 2010.06.03 20:39:00.
