data_PCOD9390181
_publ_section_title
;
Structure prediction by ZEFSAII (Michael W. Deem and Ramdas Pophale) SiO2 
 PCOD9390181
Probable space group: P N N N
;
_chemical_formula_sum "Si O2"
_cell_formula_units_Z 38
_cell_length_a 22.455024
_cell_length_b 17.774937
_cell_length_c 6.034538
_cell_angle_alpha 90.000000
_cell_angle_beta 90.000000
_cell_angle_gamma 90.000000
_cell_volume 2408.605203
_symmetry_space_group_name_H-M "P N N N"
_symmetry_group_IT_number 48
_space_group.IT_coordinate_system_code '2'
_symmetry_cell_setting 'orthorhombic'
loop_
_space_group_symop_operation_xyz
x,y,z
1/2-x,1/2-y,z
x,1/2-y,1/2-z
1/2-x,y,1/2-z
-x,-y,-z
1/2+x,1/2+y,-z
-x,1/2+y,1/2+z
1/2+x,-y,1/2+z
loop_
_atom_site_type_symbol
_atom_site_label
_atom_site_fract_x
_atom_site_fract_y
_atom_site_fract_z
Si Si1 0.521518 0.686783 0.105705
Si Si2 0.250000 0.250000 0.750000
Si Si3 0.607812 0.750000 0.750000
Si Si4 0.804889 0.631119 0.906959
Si Si5 0.582657 0.559737 0.419793
Si Si6 0.513528 0.439250 0.189999
O O1 0.488748 0.750000 0.250000
O O2 0.557660 0.624516 0.251876
O O3 0.567440 0.736844 0.963440
O O4 0.481257 0.639680 0.935359
O O5 0.215159 0.193038 0.588325
O O6 0.649614 0.822241 0.755711
O O7 0.750000 0.606766 0.750000
O O8 0.847982 0.571392 0.025703
O O9 0.567520 0.477513 0.322275
O O10 0.541831 0.566990 0.640091
O O11 0.500000 0.500000 0.000000
#
# Coordination Sequence:
#
# PCOD9390181 Si02
#       6
#     8   2   4   8   8   8
#     4  11  18  28  50  65  89 120 162 215 251 292
#     4  12  22  32  44  66  96 136 170 218 230 254
#     4  12  19  32  42  68  98 124 168 217 240 280
#     4  12  22  30  43  64  94 128 169 213 244 277
#     4  10  20  33  45  64  90 126 166 205 244 293
#     4   9  19  32  48  63  85 120 166 204 242 302
#
# _framework density 15.776767
#
# number of rings (size 3 to 8) (size 9 to 14) (size 15 to 20)
#    0.000    1.263    6.316    1.263    0.000    0.000 
#    0.000    0.000    0.000    0.000    0.000    0.000 
#    0.000    0.000    0.000    0.000    0.000 1229.474 
#
# Total GULP energy -211558.082760 kJ/mol
# GULP energy per Si atom -5567.317967 kJ/mol
# Density = 1.574086 g / cm^3
# Si number density = 15.776767 Si / 1000 Ang^3
#
#
#
# Elastic Constant Matrix: (Units=GPa)
#
#
# Indices 1 2 3 4 5 6 
#
# 1 81.0127 46.9542 34.8269 0.0000 0.0000 0.0000
# 2 46.9542 77.3964 32.5672 0.0000 0.0000 0.0000
# 3 34.8269 32.5672 78.3462 0.0000 0.0000 0.0000
# 4 0.0000 0.0000 0.0000 41.6548 0.0000 0.0000
# 5 0.0000 0.0000 0.0000 0.0000 18.2423 0.0000
# 6 0.0000 0.0000 0.0000 0.0000 0.0000 27.6207
#
#
#
# Elastic Compliance Matrix: (Units=1/GPa)
#
#
# Indices 1 2 3 4 5 6 
#
# 1 0.020402 -0.010376 -0.004756 0.000000 0.000000 0.000000
# 2 -0.010376 0.020937 -0.004091 0.000000 0.000000 0.000000
# 3 -0.004756 -0.004091 0.016578 0.000000 0.000000 0.000000
# 4 0.000000 0.000000 0.000000 0.024007 0.000000 0.000000
# 5 0.000000 0.000000 0.000000 0.000000 0.054818 0.000000
# 6 0.000000 0.000000 0.000000 0.000000 0.000000 0.036205
#
#
# Mechanical properties :
#
#
# Convention : Reuss Voigt Hill
#
# Bulk Modulus (GPa) = 51.35659 51.71687 51.53673
# Shear Modulus (GPa) = 22.94809 25.66403 24.30606
#
# Velocity S-wave (km/s) = 3.81799 4.03761 3.92934
# Velocity P-wave (km/s) = 7.21518 7.38837 7.30229
#
# Compressibility (1/GPa) = 0.01947170
#
# Stress axis : x y z
#
# Youngs Moduli (GPa) = 49.01399 47.76307 60.31918
#
# Poissons Ratio (x) = 0.49560 0.28689
# Poissons Ratio (y) = 0.50858 0.24674
# Poissons Ratio (z) = 0.23312 0.19538
#
# Static dielectric constant tensor:
#      x y z
#    x 1.529560 0.000000 0.000000 
#    y 0.000000 1.566760 0.000000 
#    z 0.000000 0.000000 1.665370 
# 
# From -- ./inp_files/3454.got.cif
#   From: 2010.05.17/outbox.cif.g08.bks.cpg/sg48_2_cif.got.tgz:3454.got - 2010.06.03 20:39:00.
