data_PCOD9390312
_publ_section_title
;
Structure prediction by ZEFSAII (Michael W. Deem and Ramdas Pophale) SiO2 
 PCOD9390312
Probable space group: P N N N
;
_chemical_formula_sum "Si O2"
_cell_formula_units_Z 48
_cell_length_a 10.622145
_cell_length_b 8.774056
_cell_length_c 24.302620
_cell_angle_alpha 90.000000
_cell_angle_beta 90.000000
_cell_angle_gamma 90.000000
_cell_volume 2264.987052
_symmetry_space_group_name_H-M "P N N N"
_symmetry_group_IT_number 48
_space_group.IT_coordinate_system_code '2'
_symmetry_cell_setting 'orthorhombic'
loop_
_space_group_symop_operation_xyz
x,y,z
1/2-x,1/2-y,z
x,1/2-y,1/2-z
1/2-x,y,1/2-z
-x,-y,-z
1/2+x,1/2+y,-z
-x,1/2+y,1/2+z
1/2+x,-y,1/2+z
loop_
_atom_site_type_symbol
_atom_site_label
_atom_site_fract_x
_atom_site_fract_y
_atom_site_fract_z
Si Si1 0.319223 0.974879 0.393111
Si Si2 0.041099 0.261682 0.607449
Si Si3 0.558079 0.820402 0.694902
Si Si4 0.105483 0.200252 0.017505
Si Si5 0.381672 0.103641 0.718239
Si Si6 0.030807 0.068673 0.397337
O O1 0.345572 0.082416 0.341008
O O2 0.392482 0.050141 0.444992
O O3 0.171035 0.994772 0.401695
O O4 0.396511 0.820054 0.382574
O O5 0.077175 0.310720 0.546226
O O6 0.122010 0.341419 0.654974
O O7 0.054720 0.079304 0.609234
O O8 0.610720 0.750000 0.750000
O O9 0.516159 0.684555 0.653749
O O10 0.453740 0.943132 0.714921
O O11 0.250000 0.250000 0.022583
O O12 0.019260 0.327035 0.048024
O O13 0.444773 0.250000 0.750000
O O14 0.250000 0.083809 0.750000
#
# Coordination Sequence:
#
# PCOD9390312 Si02
#       6
#     8   8   8   8   8   8
#     4   9  20  36  56  87 122 151 202 253 299 366
#     4  11  20  35  61  85 116 167 200 249 312 361
#     4  10  20  37  59  83 111 155 193 241 313 361
#     4   9  19  34  56  85 117 161 205 248 308 364
#     4  10  23  40  58  82 116 154 205 252 292 368
#     4  10  20  36  57  90 122 150 203 258 303 365
#
# _framework density 21.192174000000001
#
# number of rings (size 3 to 8) (size 9 to 14) (size 15 to 20)
#    0.000    2.167    0.000    4.000    2.333    1.667 
#    0.000    0.833    0.000    3.000    0.000    0.000 
#    0.000    0.000    0.000    0.000    0.000    0.000 
#
# Total GULP energy -267552.260475 kJ/mol
# GULP energy per Si atom -5574.005427 kJ/mol
# Density = 2.114394 g / cm^3
# Si number density = 21.192174 Si / 1000 Ang^3
#
#
#
# Elastic Constant Matrix: (Units=GPa)
#
#
# Indices 1 2 3 4 5 6 
#
# 1 40.2063 25.0906 9.9038 0.0000 0.0000 0.0000
# 2 25.0906 124.4334 47.5071 0.0000 0.0000 0.0000
# 3 9.9038 47.5071 171.6580 0.0000 0.0000 0.0000
# 4 0.0000 0.0000 0.0000 -11.3060 0.0000 0.0000
# 5 0.0000 0.0000 0.0000 0.0000 16.3864 0.0000
# 6 0.0000 0.0000 0.0000 0.0000 0.0000 8.4978
#
#
#
# Elastic Compliance Matrix: (Units=1/GPa)
#
#
# Indices 1 2 3 4 5 6 
#
# 1 0.028452 -0.005714 -0.000060 0.000000 0.000000 0.000000
# 2 -0.005714 0.010133 -0.002475 0.000000 0.000000 0.000000
# 3 -0.000060 -0.002475 0.006514 0.000000 0.000000 0.000000
# 4 0.000000 0.000000 0.000000 -0.088449 0.000000 0.000000
# 5 0.000000 0.000000 0.000000 0.000000 0.061026 0.000000
# 6 0.000000 0.000000 0.000000 0.000000 0.000000 0.117677
#
#
# Mechanical properties :
#
#
# Convention : Reuss Voigt Hill
#
# Bulk Modulus (GPa) = 34.96305 55.70006 45.33156
# Shear Modulus (GPa) = 30.98153 19.63541 25.30847
#
# Velocity S-wave (km/s) = 3.82767 3.04721 3.45952
# Velocity P-wave (km/s) = 6.00572 6.22263 6.11513
#
# Compressibility (1/GPa) = 0.02860162
#
# Stress axis : x y z
#
# Youngs Moduli (GPa) = 35.14641 98.68290 153.51745
#
# Poissons Ratio (x) = 0.56389 0.00923
# Poissons Ratio (y) = 0.20083 0.37993
# Poissons Ratio (z) = 0.00211 0.24422
#
# Static dielectric constant tensor:
#      x y z
#    x 1.793920 0.000000 0.000000 
#    y 0.000000 1.795110 0.000000 
#    z 0.000000 0.000000 1.747330 
# 
# From -- ./inp_files/11236.got.cif
#   From: 2010.05.17/outbox.cif.g08.bks.cpg/sg48_6_cif.got.tgz:11236.got - 2010.06.03 20:39:00.
