data_PCOD9390866
_publ_section_title
;
Structure prediction by ZEFSAII (Michael W. Deem and Ramdas Pophale) SiO2 
 PCOD9390866
Probable space group: P N N N
;
_chemical_formula_sum "Si O2"
_cell_formula_units_Z 32
_cell_length_a 14.556977
_cell_length_b 14.238810
_cell_length_c 7.916488
_cell_angle_alpha 90.000000
_cell_angle_beta 90.000000
_cell_angle_gamma 90.000000
_cell_volume 1640.882369
_symmetry_space_group_name_H-M "P N N N"
_symmetry_group_IT_number 48
_space_group.IT_coordinate_system_code '2'
_symmetry_cell_setting 'orthorhombic'
loop_
_space_group_symop_operation_xyz
x,y,z
1/2-x,1/2-y,z
x,1/2-y,1/2-z
1/2-x,y,1/2-z
-x,-y,-z
1/2+x,1/2+y,-z
-x,1/2+y,1/2+z
1/2+x,-y,1/2+z
loop_
_atom_site_type_symbol
_atom_site_label
_atom_site_fract_x
_atom_site_fract_y
_atom_site_fract_z
Si Si1 0.143980 0.352077 0.699561
Si Si2 0.074287 0.539478 0.874771
Si Si3 0.147538 0.722027 0.050610
Si Si4 0.026801 0.326500 0.381575
O O1 0.101585 0.250000 0.750000
O O2 0.250000 0.343130 0.750000
O O3 0.118923 0.446727 0.797481
O O4 0.105335 0.360998 0.509344
O O5 0.020423 0.592088 0.725784
O O6 0.133366 0.615161 0.982936
O O7 0.000000 0.500000 0.000000
O O8 0.250000 0.750000 0.990540
O O9 0.145353 0.750000 0.250000
O O10 0.060556 0.777009 0.972422
O O11 0.066116 0.250000 0.250000
#
# Coordination Sequence:
#
# PCOD9390866 Si02
#       4
#     8   8   8   8
#     4  11  24  42  63  93 132 176 224 273 328 409
#     4  11  23  40  65  95 131 176 223 275 345 405
#     4  10  22  40  67 101 136 170 223 287 342 405
#     4  10  21  40  69  92 131 176 218 278 342 400
#
# _framework density 19.501702000000002
#
# number of rings (size 3 to 8) (size 9 to 14) (size 15 to 20)
#    0.000    1.500    0.000    6.000    3.500    3.500 
#    4.500    7.500    0.000    0.000    0.000    0.000 
#    0.000    0.000    0.000    0.000    0.000    0.000 
#
# Total GULP energy -178172.780349 kJ/mol
# GULP energy per Si atom -5567.899386 kJ/mol
# Density = 1.945732 g / cm^3
# Si number density = 19.501702 Si / 1000 Ang^3
#
#
#
# Elastic Constant Matrix: (Units=GPa)
#
#
# Indices 1 2 3 4 5 6 
#
# 1 120.4663 62.7518 63.7042 0.0000 0.0000 0.0000
# 2 62.7518 183.6150 75.7624 0.0000 0.0000 0.0000
# 3 63.7042 75.7624 114.2226 0.0000 0.0000 0.0000
# 4 0.0000 0.0000 0.0000 31.2610 0.0000 0.0000
# 5 0.0000 0.0000 0.0000 0.0000 166.8809 0.0000
# 6 0.0000 0.0000 0.0000 0.0000 0.0000 17.9049
#
#
#
# Elastic Compliance Matrix: (Units=1/GPa)
#
#
# Indices 1 2 3 4 5 6 
#
# 1 0.012227 -0.001879 -0.005573 0.000000 0.000000 0.000000
# 2 -0.001879 0.007787 -0.004117 0.000000 0.000000 0.000000
# 3 -0.005573 -0.004117 0.014594 0.000000 0.000000 0.000000
# 4 0.000000 0.000000 0.000000 0.031989 0.000000 0.000000
# 5 0.000000 0.000000 0.000000 0.000000 0.005992 0.000000
# 6 0.000000 0.000000 0.000000 0.000000 0.000000 0.055851
#
#
# Mechanical properties :
#
#
# Convention : Reuss Voigt Hill
#
# Bulk Modulus (GPa) = 87.18610 91.41563 89.30086
# Shear Modulus (GPa) = 32.17488 57.61505 44.89496
#
# Velocity S-wave (km/s) = 4.06624 5.44130 4.80323
# Velocity P-wave (km/s) = 8.17617 9.29809 8.75512
#
# Compressibility (1/GPa) = 0.01146972
#
# Stress axis : x y z
#
# Youngs Moduli (GPa) = 81.78680 128.41614 68.52308
#
# Poissons Ratio (x) = 0.24133 0.38186
# Poissons Ratio (y) = 0.15370 0.28211
# Poissons Ratio (z) = 0.45577 0.52869
#
# Static dielectric constant tensor:
#      x y z
#    x 1.687290 0.000000 0.000000 
#    y 0.000000 1.672150 0.000000 
#    z 0.000000 0.000000 1.668770 
# 
# From -- ./inp_files/10278.got.cif
#   From: 2010.05.17/outbox.cif.g08.bks.cpg/sg48_6_cif.got.tgz:10278.got - 2010.06.03 20:39:00.
