data_PCOD9390106
_publ_section_title
;
Structure prediction by ZEFSAII (Michael W. Deem and Ramdas Pophale) SiO2 
 PCOD9390106
Probable space group: P N N N
;
_chemical_formula_sum "Si O2"
_cell_formula_units_Z 48
_cell_length_a 7.814789
_cell_length_b 11.852880
_cell_length_c 22.184596
_cell_angle_alpha 90.000000
_cell_angle_beta 90.000000
_cell_angle_gamma 90.000000
_cell_volume 2054.909351
_symmetry_space_group_name_H-M "P N N N"
_symmetry_group_IT_number 48
_space_group.IT_coordinate_system_code '2'
_symmetry_cell_setting 'orthorhombic'
loop_
_space_group_symop_operation_xyz
x,y,z
1/2-x,1/2-y,z
x,1/2-y,1/2-z
1/2-x,y,1/2-z
-x,-y,-z
1/2+x,1/2+y,-z
-x,1/2+y,1/2+z
1/2+x,-y,1/2+z
loop_
_atom_site_type_symbol
_atom_site_label
_atom_site_fract_x
_atom_site_fract_y
_atom_site_fract_z
Si Si1 0.432663 0.522047 0.328083
Si Si2 0.452913 0.232880 0.182046
Si Si3 0.540106 0.080617 0.695353
Si Si4 0.868978 0.139134 0.969574
Si Si5 0.035569 0.937526 0.904106
Si Si6 0.440789 0.268662 0.617086
O O1 0.488201 0.394441 0.337414
O O2 0.227503 0.524998 0.315317
O O3 0.506254 0.568447 0.264549
O O4 0.492840 0.604280 0.381172
O O5 0.250000 0.250000 0.187800
O O6 0.524709 0.250000 0.250000
O O7 0.501620 0.322254 0.131336
O O8 0.554783 0.204166 0.667260
O O9 0.407238 0.017009 0.651249
O O10 0.750000 0.250000 0.957729
O O11 0.042446 0.200305 0.945706
O O12 0.884557 0.018879 0.933386
O O13 0.856541 0.099200 0.038023
O O14 0.250000 0.250000 0.638539
#
# Coordination Sequence:
#
# PCOD9390106 Si02
#       6
#     8   8   8   8   8   8
#     4  11  20  36  65  99 125 169 213 252 315 399
#     4  11  19  35  63  99 134 158 208 265 323 385
#     4  10  19  38  65  90 129 167 210 255 318 381
#     4  10  23  44  70  88 123 173 228 261 321 386
#     4  10  20  40  65  94 127 166 208 277 322 370
#     4  11  24  40  60  94 130 167 214 270 322 371
#
# _framework density 23.358694
#
# number of rings (size 3 to 8) (size 9 to 14) (size 15 to 20)
#    0.000    1.500    3.333    4.000    0.000    3.333 
#    9.000    0.833    0.000    0.500    0.000    0.000 
#    0.000    0.000    0.000    0.000    0.000    0.000 
#
# Total GULP energy -267241.555617 kJ/mol
# GULP energy per Si atom -5567.532409 kJ/mol
# Density = 2.330553 g / cm^3
# Si number density = 23.358694 Si / 1000 Ang^3
#
#
#
# Elastic Constant Matrix: (Units=GPa)
#
#
# Indices 1 2 3 4 5 6 
#
# 1 26.8511 14.1996 -6.4920 0.0000 0.0000 0.0000
# 2 14.1996 183.0796 22.7601 0.0000 0.0000 0.0000
# 3 -6.4920 22.7601 94.4491 0.0000 0.0000 0.0000
# 4 0.0000 0.0000 0.0000 104.3088 0.0000 0.0000
# 5 0.0000 0.0000 0.0000 0.0000 11.5160 0.0000
# 6 0.0000 0.0000 0.0000 0.0000 0.0000 16.3488
#
#
#
# Elastic Compliance Matrix: (Units=1/GPa)
#
#
# Indices 1 2 3 4 5 6 
#
# 1 0.039991 -0.003550 0.003604 0.000000 0.000000 0.000000
# 2 -0.003550 0.005946 -0.001677 0.000000 0.000000 0.000000
# 3 0.003604 -0.001677 0.011240 0.000000 0.000000 0.000000
# 4 0.000000 0.000000 0.000000 0.009587 0.000000 0.000000
# 5 0.000000 0.000000 0.000000 0.000000 0.086835 0.000000
# 6 0.000000 0.000000 0.000000 0.000000 0.000000 0.061166
#
#
# Mechanical properties :
#
#
# Convention : Reuss Voigt Hill
#
# Bulk Modulus (GPa) = 18.54194 40.59057 29.56625
# Shear Modulus (GPa) = 21.18758 44.69553 32.94156
#
# Velocity S-wave (km/s) = 3.01500 4.37904 3.75940
# Velocity P-wave (km/s) = 4.48056 6.55612 5.61508
#
# Compressibility (1/GPa) = 0.05393179
#
# Stress axis : x y z
#
# Youngs Moduli (GPa) = 25.00556 168.18371 88.97173
#
# Poissons Ratio (x) = 0.59701 -0.32067
# Poissons Ratio (y) = 0.08876 0.14919
# Poissons Ratio (z) = -0.09013 0.28201
#
# Static dielectric constant tensor:
#      x y z
#    x 1.930360 0.000000 0.000000 
#    y 0.000000 1.971290 0.000000 
#    z 0.000000 0.000000 1.910300 
# 
# From -- ./inp_files/35856.got.cif
#   From: 2010.05.17/outbox.cif.g08.bks.cpg/sg48_18_cif.got.tgz:35856.got - 2010.06.03 20:39:00.
