data_PCOD9390393
_publ_section_title
;
Structure prediction by ZEFSAII (Michael W. Deem and Ramdas Pophale) SiO2 
 PCOD9390393
Probable space group: P N N N
;
_chemical_formula_sum "Si O2"
_cell_formula_units_Z 44
_cell_length_a 25.924225
_cell_length_b 5.398208
_cell_length_c 13.220725
_cell_angle_alpha 90.000000
_cell_angle_beta 90.000000
_cell_angle_gamma 90.000000
_cell_volume 1850.165883
_symmetry_space_group_name_H-M "P N N N"
_symmetry_group_IT_number 48
_space_group.IT_coordinate_system_code '2'
_symmetry_cell_setting 'orthorhombic'
loop_
_space_group_symop_operation_xyz
x,y,z
1/2-x,1/2-y,z
x,1/2-y,1/2-z
1/2-x,y,1/2-z
-x,-y,-z
1/2+x,1/2+y,-z
-x,1/2+y,1/2+z
1/2+x,-y,1/2+z
loop_
_atom_site_type_symbol
_atom_site_label
_atom_site_fract_x
_atom_site_fract_y
_atom_site_fract_z
Si Si1 0.250000 0.750000 0.558234
Si Si2 0.329064 0.401705 0.646963
Si Si3 0.457439 0.705519 0.372684
Si Si4 0.588725 0.711477 0.865655
Si Si5 0.060334 0.504998 0.813614
Si Si6 0.194201 0.121501 0.054572
O O1 0.277330 0.555018 0.629407
O O2 0.207086 0.653002 0.481045
O O3 0.325136 0.250000 0.750000
O O4 0.382006 0.557335 0.647650
O O5 0.330088 0.233652 0.547646
O O6 0.452564 0.750000 0.250000
O O7 0.419605 0.487185 0.409065
O O8 0.513967 0.582716 0.386236
O O9 0.442877 0.979362 0.413292
O O10 0.571723 0.750000 0.750000
O O11 0.649001 0.641365 0.865633
O O12 0.066886 0.250000 0.750000
O O13 0.044911 0.750000 0.750000
O O14 0.250000 0.250000 0.076514
#
# Coordination Sequence:
#
# PCOD9390393 Si02
#       6
#     4   8   8   8   8   8
#     4  10  24  43  64  85 134 172 220 273 332 379
#     4  10  24  41  62  93 122 169 218 265 319 389
#     4   9  18  36  63  93 124 162 204 255 314 377
#     4  10  21  39  67  95 123 166 211 255 313 386
#     4  10  20  37  62  94 129 163 208 261 320 377
#     4  10  24  42  62  88 128 168 209 272 324 374
#
# _framework density 23.781652000000001
#
# number of rings (size 3 to 8) (size 9 to 14) (size 15 to 20)
#    0.000    2.182    0.000    2.727   10.182    4.364 
#    0.000    1.818    0.000    0.000    0.000    0.000 
#    0.000    0.000    0.000    0.000    0.000    0.000 
#
# Total GULP energy -245355.453259 kJ/mol
# GULP energy per Si atom -5576.260301 kJ/mol
# Density = 2.372752 g / cm^3
# Si number density = 23.781652 Si / 1000 Ang^3
#
#
#
# Elastic Constant Matrix: (Units=GPa)
#
#
# Indices 1 2 3 4 5 6 
#
# 1 92.7885 26.7821 10.1579 0.0000 0.0000 0.0000
# 2 26.7821 134.1457 24.5089 0.0000 0.0000 0.0000
# 3 10.1579 24.5089 31.4173 0.0000 0.0000 0.0000
# 4 0.0000 0.0000 0.0000 5.9637 0.0000 0.0000
# 5 0.0000 0.0000 0.0000 0.0000 6.9388 0.0000
# 6 0.0000 0.0000 0.0000 0.0000 0.0000 -54.2672
#
#
#
# Elastic Compliance Matrix: (Units=1/GPa)
#
#
# Indices 1 2 3 4 5 6 
#
# 1 0.011572 -0.001897 -0.002262 0.000000 0.000000 0.000000
# 2 -0.001897 0.009005 -0.006411 0.000000 0.000000 0.000000
# 3 -0.002262 -0.006411 0.037562 0.000000 0.000000 0.000000
# 4 0.000000 0.000000 0.000000 0.167681 0.000000 0.000000
# 5 0.000000 0.000000 0.000000 0.000000 0.144118 0.000000
# 6 0.000000 0.000000 0.000000 0.000000 0.000000 -0.018427
#
#
# Mechanical properties :
#
#
# Convention : Reuss Voigt Hill
#
# Bulk Modulus (GPa) = 27.02754 42.36102 34.69428
# Shear Modulus (GPa) = 12.98754 4.85389 8.92071
#
# Velocity S-wave (km/s) = 2.33945 1.43019 1.93887
# Velocity P-wave (km/s) = 4.32283 4.53634 4.43088
#
# Compressibility (1/GPa) = 0.03699930
#
# Stress axis : x y z
#
# Youngs Moduli (GPa) = 86.41258 111.05289 26.62247
#
# Poissons Ratio (x) = 0.21069 0.06021
# Poissons Ratio (y) = 0.16394 0.17068
# Poissons Ratio (z) = 0.19543 0.71199
#
# Static dielectric constant tensor:
#      x y z
#    x 1.954760 0.000000 0.000000 
#    y 0.000000 1.947260 0.000000 
#    z 0.000000 0.000000 1.918140 
# 
# From -- ./inp_files/28726.got.cif
#   From: 2010.05.17/outbox.cif.g08.bks.cpg/sg48_15_cif.got.tgz:28726.got - 2010.06.03 20:39:00.
