data_PCOD9390640
_publ_section_title
;
Structure prediction by ZEFSAII (Michael W. Deem and Ramdas Pophale) SiO2 
 PCOD9390640
Probable space group: P N N N
;
_chemical_formula_sum "Si O2"
_cell_formula_units_Z 48
_cell_length_a 22.023094
_cell_length_b 8.825070
_cell_length_c 11.299388
_cell_angle_alpha 90.000000
_cell_angle_beta 90.000000
_cell_angle_gamma 90.000000
_cell_volume 2196.096466
_symmetry_space_group_name_H-M "P N N N"
_symmetry_group_IT_number 48
_space_group.IT_coordinate_system_code '2'
_symmetry_cell_setting 'orthorhombic'
loop_
_space_group_symop_operation_xyz
x,y,z
1/2-x,1/2-y,z
x,1/2-y,1/2-z
1/2-x,y,1/2-z
-x,-y,-z
1/2+x,1/2+y,-z
-x,1/2+y,1/2+z
1/2+x,-y,1/2+z
loop_
_atom_site_type_symbol
_atom_site_label
_atom_site_fract_x
_atom_site_fract_y
_atom_site_fract_z
Si Si1 0.138604 0.856529 0.853776
Si Si2 0.505423 0.468136 0.182607
Si Si3 0.925025 0.014704 0.587539
Si Si4 0.735530 0.581696 0.111228
Si Si5 0.693957 0.345798 0.554525
Si Si6 0.524945 0.753061 0.473038
O O1 0.167031 0.750000 0.750000
O O2 0.070941 0.890404 0.811652
O O3 0.153966 0.764040 0.971596
O O4 0.167207 0.019695 0.885248
O O5 0.465871 0.465407 0.300684
O O6 0.518428 0.639777 0.140546
O O7 0.471863 0.373297 0.079945
O O8 0.858348 0.068608 0.627581
O O9 0.964147 0.149565 0.527813
O O10 0.923605 0.874290 0.494797
O O11 0.750000 0.750000 0.069428
O O12 0.750000 0.573822 0.250000
O O13 0.774129 0.465605 0.033010
O O14 0.750000 0.250000 0.608591
#
# Coordination Sequence:
#
# PCOD9390640 Si02
#       6
#     8   8   8   8   8   8
#     4  11  20  36  60  84 131 176 217 272 349 414
#     4  11  23  40  63  98 133 178 221 279 353 406
#     4  11  22  41  64  95 140 174 224 283 345 416
#     4  10  21  35  56  91 123 168 228 285 339 394
#     4  10  22  39  63  91 130 183 226 283 344 419
#     4  10  23  39  62  96 131 175 225 276 344 409
#
# _framework density 21.856963
#
# number of rings (size 3 to 8) (size 9 to 14) (size 15 to 20)
#    0.000    1.500    3.333    2.000    4.667    0.000 
#    3.000    0.000    0.000    2.000    0.000    0.000 
#    0.000    0.000    0.000    0.000    0.000    0.000 
#
# Total GULP energy -267613.626811 kJ/mol
# GULP energy per Si atom -5575.283892 kJ/mol
# Density = 2.180722 g / cm^3
# Si number density = 21.856963 Si / 1000 Ang^3
#
#
#
# Elastic Constant Matrix: (Units=GPa)
#
#
# Indices 1 2 3 4 5 6 
#
# 1 120.7037 24.3778 5.8774 0.0000 0.0000 0.0000
# 2 24.3778 125.9023 7.8676 0.0000 0.0000 0.0000
# 3 5.8774 7.8676 45.9742 0.0000 0.0000 0.0000
# 4 0.0000 0.0000 0.0000 23.1281 0.0000 0.0000
# 5 0.0000 0.0000 0.0000 0.0000 12.3055 0.0000
# 6 0.0000 0.0000 0.0000 0.0000 0.0000 19.9292
#
#
#
# Elastic Compliance Matrix: (Units=1/GPa)
#
#
# Indices 1 2 3 4 5 6 
#
# 1 0.008653 -0.001624 -0.000828 0.000000 0.000000 0.000000
# 2 -0.001624 0.008333 -0.001218 0.000000 0.000000 0.000000
# 3 -0.000828 -0.001218 0.022066 0.000000 0.000000 0.000000
# 4 0.000000 0.000000 0.000000 0.043238 0.000000 0.000000
# 5 0.000000 0.000000 0.000000 0.000000 0.081264 0.000000
# 6 0.000000 0.000000 0.000000 0.000000 0.000000 0.050178
#
#
# Mechanical properties :
#
#
# Convention : Reuss Voigt Hill
#
# Bulk Modulus (GPa) = 31.53487 40.98063 36.25775
# Shear Modulus (GPa) = 21.58497 28.03639 24.81068
#
# Velocity S-wave (km/s) = 3.14595 3.58540 3.37284
# Velocity P-wave (km/s) = 5.25882 5.99418 5.63850
#
# Compressibility (1/GPa) = 0.03171093
#
# Stress axis : x y z
#
# Youngs Moduli (GPa) = 115.56680 120.00199 45.31910
#
# Poissons Ratio (x) = 0.19484 0.03754
# Poissons Ratio (y) = 0.18764 0.05522
# Poissons Ratio (z) = 0.09573 0.14622
#
# Static dielectric constant tensor:
#      x y z
#    x 1.912990 0.000000 0.000000 
#    y 0.000000 1.863460 0.000000 
#    z 0.000000 0.000000 1.690350 
# 
# From -- ./inp_files/23277.got.cif
#   From: 2010.05.17/outbox.cif.g08.bks.cpg/sg48_12_cif.got.tgz:23277.got - 2010.06.03 20:39:00.
