data_PCOD9390936
_publ_section_title
;
Structure prediction by ZEFSAII (Michael W. Deem and Ramdas Pophale) SiO2 
 PCOD9390936
Probable space group: P N N N
;
_chemical_formula_sum "Si O2"
_cell_formula_units_Z 32
_cell_length_a 29.214632
_cell_length_b 9.297592
_cell_length_c 5.185898
_cell_angle_alpha 90.000000
_cell_angle_beta 90.000000
_cell_angle_gamma 90.000000
_cell_volume 1408.623324
_symmetry_space_group_name_H-M "P N N N"
_symmetry_group_IT_number 48
_space_group.IT_coordinate_system_code '2'
_symmetry_cell_setting 'orthorhombic'
loop_
_space_group_symop_operation_xyz
x,y,z
1/2-x,1/2-y,z
x,1/2-y,1/2-z
1/2-x,y,1/2-z
-x,-y,-z
1/2+x,1/2+y,-z
-x,1/2+y,1/2+z
1/2+x,-y,1/2+z
loop_
_atom_site_type_symbol
_atom_site_label
_atom_site_fract_x
_atom_site_fract_y
_atom_site_fract_z
Si Si1 0.540569 0.591321 0.373452
Si Si2 0.750000 0.750000 0.750000
Si Si3 0.250000 0.750000 0.250000
Si Si4 0.313924 0.986943 0.077423
Si Si5 0.397870 0.250000 0.250000
Si Si6 0.872883 0.519413 0.426328
O O1 0.528265 0.750000 0.250000
O O2 0.500000 0.500000 0.500000
O O3 0.571541 0.629409 0.620326
O O4 0.573774 0.507546 0.169504
O O5 0.715935 0.865757 0.889865
O O6 0.220565 0.644379 0.075973
O O7 0.348650 0.954962 0.318967
O O8 0.342581 0.988534 0.818366
O O9 0.370385 0.185167 0.483913
#
# Coordination Sequence:
#
# PCOD9390936 Si02
#       6
#     8   2   2   8   4   8
#     4  10  23  43  69 105 144 188 237 301 365 434
#     4  10  26  36  72 100 128 172 232 304 332 446
#     4  10  28  52  64 104 152 200 228 328 364 452
#     4  11  25  45  69 100 141 183 245 286 380 419
#     4  10  21  42  70 103 138 184 232 303 354 417
#     4  11  23  41  72  99 136 187 234 296 348 444
#
# _framework density 22.717213999999998
#
# number of rings (size 3 to 8) (size 9 to 14) (size 15 to 20)
#    0.000    1.500    2.500    0.750    7.000   11.000 
#    2.250    2.500    0.000    0.000    0.000    0.000 
#    0.000    0.000    0.000    0.000    0.000    0.000 
#
# Total GULP energy -178280.881513 kJ/mol
# GULP energy per Si atom -5571.277547 kJ/mol
# Density = 2.266551 g / cm^3
# Si number density = 22.717214 Si / 1000 Ang^3
#
#
#
# Elastic Constant Matrix: (Units=GPa)
#
#
# Indices 1 2 3 4 5 6 
#
# 1 124.2077 70.1285 62.9390 0.0000 0.0000 0.0000
# 2 70.1285 111.0453 39.2298 0.0000 0.0000 0.0000
# 3 62.9390 39.2298 183.2232 0.0000 0.0000 0.0000
# 4 0.0000 0.0000 0.0000 8.5109 0.0000 0.0000
# 5 0.0000 0.0000 0.0000 0.0000 -2.0826 0.0000
# 6 0.0000 0.0000 0.0000 0.0000 0.0000 54.8823
#
#
#
# Elastic Compliance Matrix: (Units=1/GPa)
#
#
# Indices 1 2 3 4 5 6 
#
# 1 0.014021 -0.007739 -0.003160 0.000000 0.000000 0.000000
# 2 -0.007739 0.014013 -0.000342 0.000000 0.000000 0.000000
# 3 -0.003160 -0.000342 0.006616 0.000000 0.000000 0.000000
# 4 0.000000 0.000000 0.000000 0.117497 0.000000 0.000000
# 5 0.000000 0.000000 0.000000 0.000000 -0.480168 0.000000
# 6 0.000000 0.000000 0.000000 0.000000 0.000000 0.018221
#
#
# Mechanical properties :
#
#
# Convention : Reuss Voigt Hill
#
# Bulk Modulus (GPa) = 82.16589 84.78564 83.47576
# Shear Modulus (GPa) = -17.65153 28.67404 5.51126
#
# Velocity S-wave (km/s) = -2.79052 3.55662 1.55926
# Velocity P-wave (km/s) = 5.08575 7.36677 6.32986
#
# Compressibility (1/GPa) = 0.01217050
#
# Stress axis : x y z
#
# Youngs Moduli (GPa) = 71.31967 71.36016 151.13952
#
# Poissons Ratio (x) = 0.55224 0.47753
# Poissons Ratio (y) = 0.55192 0.05170
# Poissons Ratio (z) = 0.22534 0.02441
#
# Static dielectric constant tensor:
#      x y z
#    x 1.964800 0.000000 0.000000 
#    y 0.000000 1.880230 0.000000 
#    z 0.000000 0.000000 1.906540 
# 
# From -- ./inp_files/6857.got.cif
#   From: 2010.05.17/outbox.cif.g08.bks.cpg/sg48_4_cif.got.tgz:6857.got - 2010.06.03 20:39:00.
