data_PCOD9390043
_publ_section_title
;
Structure prediction by ZEFSAII (Michael W. Deem and Ramdas Pophale) SiO2 
 PCOD9390043
Probable space group: P N N N
;
_chemical_formula_sum "Si O2"
_cell_formula_units_Z 42
_cell_length_a 6.546172
_cell_length_b 18.655942
_cell_length_c 19.934642
_cell_angle_alpha 90.000000
_cell_angle_beta 90.000000
_cell_angle_gamma 90.000000
_cell_volume 2434.518257
_symmetry_space_group_name_H-M "P N N N"
_symmetry_group_IT_number 48
_space_group.IT_coordinate_system_code '2'
_symmetry_cell_setting 'orthorhombic'
loop_
_space_group_symop_operation_xyz
x,y,z
1/2-x,1/2-y,z
x,1/2-y,1/2-z
1/2-x,y,1/2-z
-x,-y,-z
1/2+x,1/2+y,-z
-x,1/2+y,1/2+z
1/2+x,-y,1/2+z
loop_
_atom_site_type_symbol
_atom_site_label
_atom_site_fract_x
_atom_site_fract_y
_atom_site_fract_z
Si Si1 0.777015 0.835090 0.534661
Si Si2 0.250000 0.750000 0.750000
Si Si3 0.067004 0.868111 0.661790
Si Si4 0.042966 0.939393 0.901769
Si Si5 0.828784 0.003959 0.681512
Si Si6 0.389452 0.454610 0.558657
O O1 0.750000 0.750000 0.528412
O O2 0.571638 0.879699 0.553268
O O3 0.861099 0.874647 0.468593
O O4 0.935223 0.851059 0.595452
O O5 0.104196 0.798646 0.705078
O O6 0.288939 0.897259 0.641400
O O7 0.951474 0.931462 0.700792
O O8 0.867774 0.978032 0.859510
O O9 0.175839 0.002970 0.934495
O O10 0.750000 0.040410 0.750000
O O11 0.980259 0.041400 0.627542
O O12 0.500000 0.500000 0.500000
#
# Coordination Sequence:
#
# PCOD9390043 Si02
#       6
#     8   2   8   8   8   8
#     4  11  22  35  54  85 113 146 188 238 282 330
#     4  12  20  32  50  72 124 166 168 216 270 308
#     4  10  21  34  49  77 113 155 196 211 259 341
#     4  10  19  36  61  76 114 155 183 231 274 322
#     4  10  21  35  56  82 108 142 194 234 274 330
#     4  11  20  38  58  83 111 144 197 230 277 346
#
# _framework density 17.251873
#
# number of rings (size 3 to 8) (size 9 to 14) (size 15 to 20)
#    0.000    1.524    5.714    2.857    0.000    3.810 
#    0.000    3.810    0.000    0.000    0.000    4.000 
#    0.000    0.000    0.000    0.000    0.000    0.000 
#
# Total GULP energy -234201.634865 kJ/mol
# GULP energy per Si atom -5576.229402 kJ/mol
# Density = 1.721261 g / cm^3
# Si number density = 17.251873 Si / 1000 Ang^3
#
#
#
# Elastic Constant Matrix: (Units=GPa)
#
#
# Indices 1 2 3 4 5 6 
#
# 1 107.0598 33.0717 41.8345 0.0000 0.0000 0.0000
# 2 33.0717 76.6397 45.0791 0.0000 0.0000 0.0000
# 3 41.8345 45.0791 89.5175 0.0000 0.0000 0.0000
# 4 0.0000 0.0000 0.0000 28.6110 0.0000 0.0000
# 5 0.0000 0.0000 0.0000 0.0000 22.9688 0.0000
# 6 0.0000 0.0000 0.0000 0.0000 0.0000 11.8706
#
#
#
# Elastic Compliance Matrix: (Units=1/GPa)
#
#
# Indices 1 2 3 4 5 6 
#
# 1 0.011787 -0.002623 -0.004187 0.000000 0.000000 0.000000
# 2 -0.002623 0.019123 -0.008404 0.000000 0.000000 0.000000
# 3 -0.004187 -0.008404 0.017360 0.000000 0.000000 0.000000
# 4 0.000000 0.000000 0.000000 0.034952 0.000000 0.000000
# 5 0.000000 0.000000 0.000000 0.000000 0.043537 0.000000
# 6 0.000000 0.000000 0.000000 0.000000 0.000000 0.084242
#
#
# Mechanical properties :
#
#
# Convention : Reuss Voigt Hill
#
# Bulk Modulus (GPa) = 56.05158 57.02084 56.53621
# Shear Modulus (GPa) = 20.21192 22.90551 21.55872
#
# Velocity S-wave (km/s) = 3.42655 3.64773 3.53887
# Velocity P-wave (km/s) = 6.94375 7.13197 7.03849
#
# Compressibility (1/GPa) = 0.01784071
#
# Stress axis : x y z
#
# Youngs Moduli (GPa) = 84.83735 52.29193 57.60332
#
# Poissons Ratio (x) = 0.13718 0.24121
# Poissons Ratio (y) = 0.22256 0.48411
# Poissons Ratio (z) = 0.35526 0.43947
#
# Static dielectric constant tensor:
#      x y z
#    x 1.606210 0.000000 0.000000 
#    y 0.000000 1.583420 0.000000 
#    z 0.000000 0.000000 1.623800 
# 
# From -- ./inp_files/5168.got.cif
#   From: 2010.05.17/outbox.cif.g08.bks.cpg/sg48_3_cif.got.tgz:5168.got - 2010.06.03 20:39:00.
