data_PCOD9390766
_publ_section_title
;
Structure prediction by ZEFSAII (Michael W. Deem and Ramdas Pophale) SiO2 
 PCOD9390766
Probable space group: P N N N
;
_chemical_formula_sum "Si O2"
_cell_formula_units_Z 40
_cell_length_a 16.531638
_cell_length_b 8.154197
_cell_length_c 12.486953
_cell_angle_alpha 90.000000
_cell_angle_beta 90.000000
_cell_angle_gamma 90.000000
_cell_volume 1683.269148
_symmetry_space_group_name_H-M "P N N N"
_symmetry_group_IT_number 48
_space_group.IT_coordinate_system_code '2'
_symmetry_cell_setting 'orthorhombic'
loop_
_space_group_symop_operation_xyz
x,y,z
1/2-x,1/2-y,z
x,1/2-y,1/2-z
1/2-x,y,1/2-z
-x,-y,-z
1/2+x,1/2+y,-z
-x,1/2+y,1/2+z
1/2+x,-y,1/2+z
loop_
_atom_site_type_symbol
_atom_site_label
_atom_site_fract_x
_atom_site_fract_y
_atom_site_fract_z
Si Si1 0.883158 0.083114 0.314941
Si Si2 0.494665 0.260267 0.484571
Si Si3 0.016740 0.544279 0.326218
Si Si4 0.814201 0.603050 0.015388
Si Si5 0.327602 0.932792 0.199725
O O1 0.865072 0.250000 0.250000
O O2 0.945077 0.130195 0.413069
O O3 0.809837 0.989479 0.371101
O O4 0.932556 0.963177 0.236448
O O5 0.528933 0.206702 0.601365
O O6 0.404062 0.322041 0.503230
O O7 0.485644 0.100883 0.411164
O O8 0.087790 0.501484 0.243476
O O9 0.750000 0.750000 0.003046
O O10 0.811556 0.462363 0.924455
O O11 0.327502 0.750000 0.250000
O O12 0.250000 0.022259 0.250000
#
# Coordination Sequence:
#
# PCOD9390766 Si02
#       5
#     8   8   8   8   8
#     4  10  22  42  68 101 141 196 244 294 360 437
#     4  10  21  39  67 103 138 186 244 292 354 429
#     4  10  21  38  66  98 142 184 239 296 353 428
#     4  12  25  42  71 107 147 182 244 308 366 437
#     4  11  24  40  66 104 144 186 230 300 383 430
#
# _framework density 23.763280999999999
#
# number of rings (size 3 to 8) (size 9 to 14) (size 15 to 20)
#    0.000    1.400    2.000    3.000    2.800    2.000 
#    0.000    2.000    0.000    8.400    0.000    0.000 
#    0.000    0.000    0.000    0.000    0.000    0.000 
#
# Total GULP energy -223471.538465 kJ/mol
# GULP energy per Si atom -5586.788462 kJ/mol
# Density = 2.370919 g / cm^3
# Si number density = 23.763281 Si / 1000 Ang^3
#
#
#
# Elastic Constant Matrix: (Units=GPa)
#
#
# Indices 1 2 3 4 5 6 
#
# 1 46.6727 36.7767 30.2312 0.0000 0.0000 0.0000
# 2 36.7767 94.7799 66.6137 0.0000 0.0000 0.0000
# 3 30.2312 66.6137 142.3492 0.0000 0.0000 0.0000
# 4 0.0000 0.0000 0.0000 18.0745 0.0000 0.0000
# 5 0.0000 0.0000 0.0000 0.0000 28.4234 0.0000
# 6 0.0000 0.0000 0.0000 0.0000 0.0000 18.9105
#
#
#
# Elastic Compliance Matrix: (Units=1/GPa)
#
#
# Indices 1 2 3 4 5 6 
#
# 1 0.031055 -0.011048 -0.001425 0.000000 0.000000 0.000000
# 2 -0.011048 0.019652 -0.006850 0.000000 0.000000 0.000000
# 3 -0.001425 -0.006850 0.010533 0.000000 0.000000 0.000000
# 4 0.000000 0.000000 0.000000 0.055327 0.000000 0.000000
# 5 0.000000 0.000000 0.000000 0.000000 0.035182 0.000000
# 6 0.000000 0.000000 0.000000 0.000000 0.000000 0.052881
#
#
# Mechanical properties :
#
#
# Convention : Reuss Voigt Hill
#
# Bulk Modulus (GPa) = 44.26123 61.22722 52.74423
# Shear Modulus (GPa) = 19.93562 23.09369 21.51466
#
# Velocity S-wave (km/s) = 2.89956 3.12079 3.01221
# Velocity P-wave (km/s) = 5.46592 6.22954 5.86018
#
# Compressibility (1/GPa) = 0.02259314
#
# Stress axis : x y z
#
# Youngs Moduli (GPa) = 32.20130 50.88500 94.93840
#
# Poissons Ratio (x) = 0.56220 0.13529
# Poissons Ratio (y) = 0.35577 0.65033
# Poissons Ratio (z) = 0.04589 0.34856
#
# Static dielectric constant tensor:
#      x y z
#    x 1.935190 0.000000 0.000000 
#    y 0.000000 1.974770 0.000000 
#    z 0.000000 0.000000 1.936140 
# 
# From -- ./inp_files/13815.got.cif
#   From: 2010.05.17/outbox.cif.g08.bks.cpg/sg48_7_cif.got.tgz:13815.got - 2010.06.03 20:39:00.
