data_PCOD9390112
_publ_section_title
;
Structure prediction by ZEFSAII (Michael W. Deem and Ramdas Pophale) SiO2 
 PCOD9390112
Probable space group: P N N N
;
_chemical_formula_sum "Si O2"
_cell_formula_units_Z 38
_cell_length_a 10.297764
_cell_length_b 16.626786
_cell_length_c 10.122775
_cell_angle_alpha 90.000000
_cell_angle_beta 90.000000
_cell_angle_gamma 90.000000
_cell_volume 1733.208561
_symmetry_space_group_name_H-M "P N N N"
_symmetry_group_IT_number 48
_space_group.IT_coordinate_system_code '2'
_symmetry_cell_setting 'orthorhombic'
loop_
_space_group_symop_operation_xyz
x,y,z
1/2-x,1/2-y,z
x,1/2-y,1/2-z
1/2-x,y,1/2-z
-x,-y,-z
1/2+x,1/2+y,-z
-x,1/2+y,1/2+z
1/2+x,-y,1/2+z
loop_
_atom_site_type_symbol
_atom_site_label
_atom_site_fract_x
_atom_site_fract_y
_atom_site_fract_z
Si Si1 0.920681 0.873018 0.579781
Si Si2 0.750000 0.129086 0.750000
Si Si3 0.548817 0.485615 0.209289
Si Si4 0.250000 0.250000 0.250000
Si Si5 0.525889 0.832194 0.207375
Si Si6 0.288979 0.993010 0.465827
O O1 0.844751 0.806932 0.665184
O O2 0.982231 0.833470 0.450700
O O3 0.808871 0.933393 0.528157
O O4 0.018853 0.926787 0.668493
O O5 0.615434 0.171773 0.722915
O O6 0.778719 0.073797 0.623613
O O7 0.573695 0.579012 0.248372
O O8 0.415862 0.483379 0.121540
O O9 0.662314 0.463211 0.107397
O O10 0.596635 0.750000 0.250000
#
# Coordination Sequence:
#
# PCOD9390112 Si02
#       6
#     8   4   8   2   8   8
#     4  12  23  44  64  98 137 176 214 282 339 407
#     4  10  20  44  67  87 126 172 228 278 328 395
#     4  10  21  40  65  94 128 176 221 267 329 406
#     4  12  26  40  68  92 144 168 212 268 356 392
#     4  11  25  41  64  94 132 170 225 278 339 399
#     4  10  19  38  68  91 125 170 225 263 327 397
#
# _framework density 21.924655000000001
#
# number of rings (size 3 to 8) (size 9 to 14) (size 15 to 20)
#    0.000    1.263    6.316    0.947    2.947    2.526 
#    0.000    0.000    0.000    0.000    0.000    0.000 
#    0.000    0.000    0.000    0.000    0.000    0.000 
#
# Total GULP energy -212206.728766 kJ/mol
# GULP energy per Si atom -5584.387599 kJ/mol
# Density = 2.187475 g / cm^3
# Si number density = 21.924655 Si / 1000 Ang^3
#
#
#
# Elastic Constant Matrix: (Units=GPa)
#
#
# Indices 1 2 3 4 5 6 
#
# 1 62.0440 22.8148 23.8711 0.0000 0.0000 0.0000
# 2 22.8148 119.2177 47.0755 0.0000 0.0000 0.0000
# 3 23.8711 47.0755 131.6278 0.0000 0.0000 0.0000
# 4 0.0000 0.0000 0.0000 23.8301 0.0000 0.0000
# 5 0.0000 0.0000 0.0000 0.0000 35.6828 0.0000
# 6 0.0000 0.0000 0.0000 0.0000 0.0000 -5.2145
#
#
#
# Elastic Compliance Matrix: (Units=1/GPa)
#
#
# Indices 1 2 3 4 5 6 
#
# 1 0.017946 -0.002503 -0.002359 0.000000 0.000000 0.000000
# 2 -0.002503 0.010116 -0.003164 0.000000 0.000000 0.000000
# 3 -0.002359 -0.003164 0.009157 0.000000 0.000000 0.000000
# 4 0.000000 0.000000 0.000000 0.041964 0.000000 0.000000
# 5 0.000000 0.000000 0.000000 0.000000 0.028025 0.000000
# 6 0.000000 0.000000 0.000000 0.000000 0.000000 -0.191773
#
#
# Mechanical properties :
#
#
# Convention : Reuss Voigt Hill
#
# Bulk Modulus (GPa) = 47.24499 55.60136 51.42318
# Shear Modulus (GPa) = -81.35642 25.46822 -27.94410
#
# Velocity S-wave (km/s) = -6.09818 3.41196 -3.57396
# Velocity P-wave (km/s) = 5.29039 6.39822 2.54450
#
# Compressibility (1/GPa) = 0.02116626
#
# Stress axis : x y z
#
# Youngs Moduli (GPa) = 55.72379 98.84958 109.20943
#
# Poissons Ratio (x) = 0.24738 0.25768
# Poissons Ratio (y) = 0.13945 0.34556
# Poissons Ratio (z) = 0.13148 0.31278
#
# Static dielectric constant tensor:
#      x y z
#    x 1.847450 0.000000 0.000000 
#    y 0.000000 1.861470 0.000000 
#    z 0.000000 0.000000 1.818580 
# 
# From -- ./inp_files/10727.got.cif
#   From: 2010.05.17/outbox.cif.g08.bks.cpg/sg48_6_cif.got.tgz:10727.got - 2010.06.03 20:39:00.
