data_PCOD9390080
_publ_section_title
;
Structure prediction by ZEFSAII (Michael W. Deem and Ramdas Pophale) SiO2 
 PCOD9390080
Probable space group: P N N N
;
_chemical_formula_sum "Si O2"
_cell_formula_units_Z 30
_cell_length_a 7.830406
_cell_length_b 12.486267
_cell_length_c 14.140985
_cell_angle_alpha 90.000000
_cell_angle_beta 90.000000
_cell_angle_gamma 90.000000
_cell_volume 1382.600022
_symmetry_space_group_name_H-M "P N N N"
_symmetry_group_IT_number 48
_space_group.IT_coordinate_system_code '2'
_symmetry_cell_setting 'orthorhombic'
loop_
_space_group_symop_operation_xyz
x,y,z
1/2-x,1/2-y,z
x,1/2-y,1/2-z
1/2-x,y,1/2-z
-x,-y,-z
1/2+x,1/2+y,-z
-x,1/2+y,1/2+z
1/2+x,-y,1/2+z
loop_
_atom_site_type_symbol
_atom_site_label
_atom_site_fract_x
_atom_site_fract_y
_atom_site_fract_z
Si Si1 0.683063 0.911874 0.905838
Si Si2 0.036311 0.387959 0.896650
Si Si3 0.250000 0.750000 0.997641
Si Si4 0.508225 0.196388 0.349586
Si Si5 0.750000 0.750000 0.250000
O O1 0.589652 0.799339 0.891004
O O2 0.866614 0.897257 0.855951
O O3 0.566981 0.006683 0.865598
O O4 0.669894 0.922123 0.020045
O O5 0.134824 0.325484 0.815886
O O6 0.890050 0.310157 0.940020
O O7 0.342479 0.670427 0.923118
O O8 0.560516 0.250000 0.250000
#
# Coordination Sequence:
#
# PCOD9390080 Si02
#       5
#     8   8   4   8   2
#     4   9  19  40  63  86 126 173 207 256 334 391
#     4  10  22  41  62  90 126 171 217 262 332 399
#     4  10  21  39  60  92 132 168 206 261 329 394
#     4  10  19  37  63  93 127 160 210 271 313 386
#     4  12  24  46  64  92 136 174 224 288 320 396
#
# _framework density 21.698246999999999
#
# number of rings (size 3 to 8) (size 9 to 14) (size 15 to 20)
#    0.000    2.133    0.000    5.200    0.000    1.600 
#   24.000    0.000    0.000    0.000    0.000    0.000 
#    0.000    0.000    0.000    0.000    0.000    0.000 
#
# Total GULP energy -167158.007085 kJ/mol
# GULP energy per Si atom -5571.933570 kJ/mol
# Density = 2.164886 g / cm^3
# Si number density = 21.698247 Si / 1000 Ang^3
#
#
#
# Elastic Constant Matrix: (Units=GPa)
#
#
# Indices 1 2 3 4 5 6 
#
# 1 127.6844 49.9497 83.8914 0.0000 0.0000 0.0000
# 2 49.9497 95.3847 50.5584 0.0000 0.0000 0.0000
# 3 83.8914 50.5584 109.7157 0.0000 0.0000 0.0000
# 4 0.0000 0.0000 0.0000 -2.1946 0.0000 0.0000
# 5 0.0000 0.0000 0.0000 0.0000 39.5707 0.0000
# 6 0.0000 0.0000 0.0000 0.0000 0.0000 32.6469
#
#
#
# Elastic Compliance Matrix: (Units=1/GPa)
#
#
# Indices 1 2 3 4 5 6 
#
# 1 0.016189 -0.002536 -0.011210 0.000000 0.000000 0.000000
# 2 -0.002536 0.014269 -0.004637 0.000000 0.000000 0.000000
# 3 -0.011210 -0.004637 0.019823 0.000000 0.000000 0.000000
# 4 0.000000 0.000000 0.000000 -0.455671 0.000000 0.000000
# 5 0.000000 0.000000 0.000000 0.000000 0.025271 0.000000
# 6 0.000000 0.000000 0.000000 0.000000 0.000000 0.030631
#
#
# Mechanical properties :
#
#
# Convention : Reuss Voigt Hill
#
# Bulk Modulus (GPa) = 73.98557 77.95376 75.96967
# Shear Modulus (GPa) = -16.22231 23.89695 3.83732
#
# Velocity S-wave (km/s) = -2.73725 3.32223 1.33129
# Velocity P-wave (km/s) = 4.91746 7.12184 6.11972
#
# Compressibility (1/GPa) = 0.01351615
#
# Stress axis : x y z
#
# Youngs Moduli (GPa) = 61.77018 70.08016 50.44769
#
# Poissons Ratio (x) = 0.17771 0.56552
# Poissons Ratio (y) = 0.15664 0.23390
# Poissons Ratio (z) = 0.69244 0.32493
#
# Static dielectric constant tensor:
#      x y z
#    x 1.874350 0.000000 0.000000 
#    y 0.000000 1.732990 0.000000 
#    z 0.000000 0.000000 1.888600 
# 
# From -- ./inp_files/11931.got.cif
#   From: 2010.05.17/outbox.cif.g08.bks.cpg/sg48_6_cif.got.tgz:11931.got - 2010.06.03 20:39:00.
