data_PCOD9390388
_publ_section_title
;
Structure prediction by ZEFSAII (Michael W. Deem and Ramdas Pophale) SiO2 
 PCOD9390388
Probable space group: P N N N
;
_chemical_formula_sum "Si O2"
_cell_formula_units_Z 26
_cell_length_a 26.558222
_cell_length_b 5.169335
_cell_length_c 10.226243
_cell_angle_alpha 90.000000
_cell_angle_beta 90.000000
_cell_angle_gamma 90.000000
_cell_volume 1403.943993
_symmetry_space_group_name_H-M "P N N N"
_symmetry_group_IT_number 48
_space_group.IT_coordinate_system_code '2'
_symmetry_cell_setting 'orthorhombic'
loop_
_space_group_symop_operation_xyz
x,y,z
1/2-x,1/2-y,z
x,1/2-y,1/2-z
1/2-x,y,1/2-z
-x,-y,-z
1/2+x,1/2+y,-z
-x,1/2+y,1/2+z
1/2+x,-y,1/2+z
loop_
_atom_site_type_symbol
_atom_site_label
_atom_site_fract_x
_atom_site_fract_y
_atom_site_fract_z
Si Si1 0.040263 0.750000 0.750000
Si Si2 0.897980 0.320703 0.989216
Si Si3 0.346999 0.188781 0.392242
Si Si4 0.473379 0.750000 0.250000
Si Si5 0.750000 0.750000 0.750000
O O1 0.074240 0.829984 0.626918
O O2 0.006734 0.500085 0.714032
O O3 0.857211 0.548718 0.970549
O O4 0.939339 0.331578 0.873519
O O5 0.871412 0.046859 0.966508
O O6 0.371622 0.250000 0.250000
O O7 0.290086 0.116162 0.347254
#
# Coordination Sequence:
#
# PCOD9390388 Si02
#       5
#     4   8   8   4   2
#     4  12  26  35  56  85 118 157 190 231 282 344
#     4  12  22  39  58  84 119 151 187 238 288 323
#     4  10  20  37  62  87 111 139 188 246 278 333
#     4  12  20  40  56  81 112 155 210 230 262 322
#     4   8  20  36  64 100  96 142 196 242 272 330
#
# _framework density 18.519259000000002
#
# number of rings (size 3 to 8) (size 9 to 14) (size 15 to 20)
#    0.923    0.000    3.077    5.538    0.000    2.462 
#    0.000    0.000    0.000    5.538    0.000    0.000 
#    0.000    0.000    0.000    0.000    0.000    0.000 
#
# Total GULP energy -144891.055158 kJ/mol
# GULP energy per Si atom -5572.732891 kJ/mol
# Density = 1.847711 g / cm^3
# Si number density = 18.519259 Si / 1000 Ang^3
#
#
#
# Elastic Constant Matrix: (Units=GPa)
#
#
# Indices 1 2 3 4 5 6 
#
# 1 72.1935 19.0961 32.5546 0.0000 0.0000 0.0000
# 2 19.0961 107.7959 -2.6150 0.0000 0.0000 0.0000
# 3 32.5546 -2.6150 84.8330 0.0000 0.0000 0.0000
# 4 0.0000 0.0000 0.0000 12.7213 0.0000 0.0000
# 5 0.0000 0.0000 0.0000 0.0000 -30.4291 0.0000
# 6 0.0000 0.0000 0.0000 0.0000 0.0000 212.6883
#
#
#
# Elastic Compliance Matrix: (Units=1/GPa)
#
#
# Indices 1 2 3 4 5 6 
#
# 1 0.017873 -0.003335 -0.006962 0.000000 0.000000 0.000000
# 2 -0.003335 0.009906 0.001585 0.000000 0.000000 0.000000
# 3 -0.006962 0.001585 0.014508 0.000000 0.000000 0.000000
# 4 0.000000 0.000000 0.000000 0.078608 0.000000 0.000000
# 5 0.000000 0.000000 0.000000 0.000000 -0.032863 0.000000
# 6 0.000000 0.000000 0.000000 0.000000 0.000000 0.004702
#
#
# Mechanical properties :
#
#
# Convention : Reuss Voigt Hill
#
# Bulk Modulus (GPa) = 40.21818 40.32155 40.26986
# Shear Modulus (GPa) = 42.21357 53.38187 47.79772
#
# Velocity S-wave (km/s) = 4.77953 5.37472 5.08584
# Velocity P-wave (km/s) = 7.22652 7.76768 7.50198
#
# Compressibility (1/GPa) = 0.02486438
#
# Stress axis : x y z
#
# Youngs Moduli (GPa) = 55.95006 100.94830 68.92637
#
# Poissons Ratio (x) = 0.33667 0.47984
# Poissons Ratio (y) = 0.18660 -0.10926
# Poissons Ratio (z) = 0.38950 -0.16002
#
# Static dielectric constant tensor:
#      x y z
#    x 1.674170 0.000000 0.000000 
#    y 0.000000 1.648010 0.000000 
#    z 0.000000 0.000000 1.594990 
# 
# From -- ./inp_files/1002.got.cif
#   From: 2010.05.17/outbox.cif.g08.bks.cpg/sg48_1_cif.got.tgz:1002.got - 2010.06.03 20:39:00.
