data_PCOD9390418
_publ_section_title
;
Structure prediction by ZEFSAII (Michael W. Deem and Ramdas Pophale) SiO2 
 PCOD9390418
Probable space group: P N N N
;
_chemical_formula_sum "Si O2"
_cell_formula_units_Z 38
_cell_length_a 5.430260
_cell_length_b 28.295501
_cell_length_c 12.731746
_cell_angle_alpha 90.000000
_cell_angle_beta 90.000000
_cell_angle_gamma 90.000000
_cell_volume 1956.257310
_symmetry_space_group_name_H-M "P N N N"
_symmetry_group_IT_number 48
_space_group.IT_coordinate_system_code '2'
_symmetry_cell_setting 'orthorhombic'
loop_
_space_group_symop_operation_xyz
x,y,z
1/2-x,1/2-y,z
x,1/2-y,1/2-z
1/2-x,y,1/2-z
-x,-y,-z
1/2+x,1/2+y,-z
-x,1/2+y,1/2+z
1/2+x,-y,1/2+z
loop_
_atom_site_type_symbol
_atom_site_label
_atom_site_fract_x
_atom_site_fract_y
_atom_site_fract_z
Si Si1 0.232315 0.444365 0.973027
Si Si2 0.934763 0.502147 0.827333
Si Si3 0.272799 0.612813 0.984568
Si Si4 0.642133 0.302177 0.862432
Si Si5 0.250000 0.913707 0.750000
Si Si6 0.750000 0.750000 0.250000
O O1 0.168742 0.472914 0.867629
O O2 0.210686 0.481758 0.068255
O O3 0.494290 0.419045 0.978867
O O4 0.994050 0.409894 0.988269
O O5 0.750000 0.475808 0.750000
O O6 0.025997 0.550153 0.771995
O O7 0.287483 0.614802 0.857581
O O8 0.307114 0.661734 0.045650
O O9 0.750000 0.250000 0.883209
O O10 0.750000 0.319449 0.750000
O O11 0.368867 0.287461 0.830981
#
# Coordination Sequence:
#
# PCOD9390418 Si02
#       6
#     8   8   8   8   4   2
#     4  10  24  36  59  84 121 163 210 256 290 363
#     4  10  20  38  55  82 121 169 211 245 310 348
#     4  11  23  41  60  95 119 159 211 251 308 368
#     4   9  21  40  64  93 119 160 191 257 313 381
#     4  10  22  38  64  82 126 168 199 251 300 364
#     4   8  18  40  66  82 122 156 194 242 334 362
#
# _framework density 19.424848000000001
#
# number of rings (size 3 to 8) (size 9 to 14) (size 15 to 20)
#    0.000    2.316    2.105    0.000    8.842    3.368 
#    0.000    0.526    0.000    0.000    0.000    0.000 
#    0.000    0.000    0.000    0.000    0.000    0.000 
#
# Total GULP energy -211806.302066 kJ/mol
# GULP energy per Si atom -5573.850054 kJ/mol
# Density = 1.938064 g / cm^3
# Si number density = 19.424848 Si / 1000 Ang^3
#
#
#
# Elastic Constant Matrix: (Units=GPa)
#
#
# Indices 1 2 3 4 5 6 
#
# 1 77.0288 20.7937 31.2488 0.0000 0.0000 0.0000
# 2 20.7937 76.0241 71.1661 0.0000 0.0000 0.0000
# 3 31.2488 71.1661 155.6380 0.0000 0.0000 0.0000
# 4 0.0000 0.0000 0.0000 41.0313 0.0000 0.0000
# 5 0.0000 0.0000 0.0000 0.0000 38.0024 0.0000
# 6 0.0000 0.0000 0.0000 0.0000 0.0000 94.5136
#
#
#
# Elastic Compliance Matrix: (Units=1/GPa)
#
#
# Indices 1 2 3 4 5 6 
#
# 1 0.014330 -0.002144 -0.001897 0.000000 0.000000 0.000000
# 2 -0.002144 0.023318 -0.010232 0.000000 0.000000 0.000000
# 3 -0.001897 -0.010232 0.011485 0.000000 0.000000 0.000000
# 4 0.000000 0.000000 0.000000 0.024372 0.000000 0.000000
# 5 0.000000 0.000000 0.000000 0.000000 0.026314 0.000000
# 6 0.000000 0.000000 0.000000 0.000000 0.000000 0.010580
#
#
# Mechanical properties :
#
#
# Convention : Reuss Voigt Hill
#
# Bulk Modulus (GPa) = 48.57240 61.67868 55.12554
# Shear Modulus (GPa) = 34.29180 47.07495 40.68338
#
# Velocity S-wave (km/s) = 4.20617 4.92819 4.58142
# Velocity P-wave (km/s) = 6.97487 8.01274 7.51175
#
# Compressibility (1/GPa) = 0.02058782
#
# Stress axis : x y z
#
# Youngs Moduli (GPa) = 69.78152 42.88505 87.07305
#
# Poissons Ratio (x) = 0.09194 0.16517
# Poissons Ratio (y) = 0.14960 0.89092
# Poissons Ratio (z) = 0.13237 0.43879
#
# Static dielectric constant tensor:
#      x y z
#    x 1.728180 0.000000 0.000000 
#    y 0.000000 1.649790 0.000000 
#    z 0.000000 0.000000 1.693290 
# 
# From -- ./inp_files/2590.got.cif
#   From: 2010.05.17/outbox.cif.g08.bks.cpg/sg48_2_cif.got.tgz:2590.got - 2010.06.03 20:39:00.
