data_PCOD9390658
_publ_section_title
;
Structure prediction by ZEFSAII (Michael W. Deem and Ramdas Pophale) SiO2 
 PCOD9390658
Probable space group: P N N N
;
_chemical_formula_sum "Si O2"
_cell_formula_units_Z 48
_cell_length_a 11.428631
_cell_length_b 17.865787
_cell_length_c 9.558517
_cell_angle_alpha 90.000000
_cell_angle_beta 90.000000
_cell_angle_gamma 90.000000
_cell_volume 1951.672216
_symmetry_space_group_name_H-M "P N N N"
_symmetry_group_IT_number 48
_space_group.IT_coordinate_system_code '2'
_symmetry_cell_setting 'orthorhombic'
loop_
_space_group_symop_operation_xyz
x,y,z
1/2-x,1/2-y,z
x,1/2-y,1/2-z
1/2-x,y,1/2-z
-x,-y,-z
1/2+x,1/2+y,-z
-x,1/2+y,1/2+z
1/2+x,-y,1/2+z
loop_
_atom_site_type_symbol
_atom_site_label
_atom_site_fract_x
_atom_site_fract_y
_atom_site_fract_z
Si Si1 0.122970 0.880615 0.175773
Si Si2 0.484630 0.686420 0.636827
Si Si3 0.679746 0.528617 0.429086
Si Si4 0.258635 0.628478 0.907788
Si Si5 0.441209 0.029658 0.214042
Si Si6 0.099197 0.183081 0.651164
O O1 0.250000 0.872918 0.250000
O O2 0.018240 0.845393 0.265681
O O3 0.091189 0.969211 0.169921
O O4 0.146598 0.846938 0.021181
O O5 0.462814 0.750000 0.750000
O O6 0.372125 0.653651 0.551412
O O7 0.533538 0.617041 0.730641
O O8 0.568597 0.707703 0.507987
O O9 0.769262 0.461886 0.398812
O O10 0.559123 0.500975 0.358420
O O11 0.657952 0.527105 0.594657
O O12 0.687095 0.613233 0.376513
O O13 0.250000 0.656727 0.750000
O O14 0.136713 0.250000 0.750000
#
# Coordination Sequence:
#
# PCOD9390658 Si02
#       6
#     8   8   8   8   8   8
#     4  11  18  35  58  84 105 139 190 229 273 333
#     4  10  21  38  53  79 117 149 180 224 287 333
#     4   8  15  34  55  75 104 140 186 226 266 315
#     4  11  22  35  53  84 115 144 175 235 296 329
#     4   8  15  32  59  76  98 142 190 227 257 320
#     4  10  21  36  57  80 107 151 193 225 265 341
#
# _framework density 24.594294999999999
#
# number of rings (size 3 to 8) (size 9 to 14) (size 15 to 20)
#    0.000    2.333    3.333    2.000    2.333    0.667 
#    3.000    2.500    0.000    1.000    0.000    0.000 
#    0.000    0.000    0.000    0.000    0.000    0.000 
#
# Total GULP energy -267685.215511 kJ/mol
# GULP energy per Si atom -5576.775323 kJ/mol
# Density = 2.453832 g / cm^3
# Si number density = 24.594295 Si / 1000 Ang^3
#
#
#
# Elastic Constant Matrix: (Units=GPa)
#
#
# Indices 1 2 3 4 5 6 
#
# 1 44.7023 14.4054 21.8268 0.0000 0.0000 0.0000
# 2 14.4054 141.3171 43.0817 0.0000 0.0000 0.0000
# 3 21.8268 43.0817 134.7918 0.0000 0.0000 0.0000
# 4 0.0000 0.0000 0.0000 36.8599 0.0000 0.0000
# 5 0.0000 0.0000 0.0000 0.0000 1.9756 0.0000
# 6 0.0000 0.0000 0.0000 0.0000 0.0000 -0.0028
#
#
#
# Elastic Compliance Matrix: (Units=1/GPa)
#
#
# Indices 1 2 3 4 5 6 
#
# 1 0.024549 -0.001430 -0.003518 0.000000 0.000000 0.000000
# 2 -0.001430 0.007924 -0.002301 0.000000 0.000000 0.000000
# 3 -0.003518 -0.002301 0.008724 0.000000 0.000000 0.000000
# 4 0.000000 0.000000 0.000000 0.027130 0.000000 0.000000
# 5 0.000000 0.000000 0.000000 0.000000 0.506179 0.000000
# 6 0.000000 0.000000 0.000000 0.000000 0.000000**********
#
#
# Mechanical properties :
#
#
# Convention : Reuss Voigt Hill
#
# Bulk Modulus (GPa) = 37.45561 53.27100 45.36330
# Shear Modulus (GPa) = -0.01390 23.86637 11.92624
#
# Velocity S-wave (km/s) = -0.07525 3.11851 2.20448
# Velocity P-wave (km/s) = 3.90575 5.88844 4.99643
#
# Compressibility (1/GPa) = 0.02669827
#
# Stress axis : x y z
#
# Youngs Moduli (GPa) = 40.73521 126.20677 114.62684
#
# Poissons Ratio (x) = 0.18046 0.40328
# Poissons Ratio (y) = 0.05825 0.26375
# Poissons Ratio (z) = 0.14331 0.29039
#
# Static dielectric constant tensor:
#      x y z
#    x 2.059290 0.000000 0.000000 
#    y 0.000000 2.017300 0.000000 
#    z 0.000000 0.000000 1.998550 
# 
# From -- ./inp_files/12796.got.cif
#   From: 2010.05.17/outbox.cif.g08.bks.cpg/sg48_7_cif.got.tgz:12796.got - 2010.06.03 20:39:00.
