data_PCOD9390914
_publ_section_title
;
Structure prediction by ZEFSAII (Michael W. Deem and Ramdas Pophale) SiO2 
 PCOD9390914
Probable space group: P N N N
;
_chemical_formula_sum "Si O2"
_cell_formula_units_Z 60
_cell_length_a 21.157187
_cell_length_b 5.788773
_cell_length_c 22.147914
_cell_angle_alpha 90.000000
_cell_angle_beta 90.000000
_cell_angle_gamma 90.000000
_cell_volume 2712.547005
_symmetry_space_group_name_H-M "P N N N"
_symmetry_group_IT_number 48
_space_group.IT_coordinate_system_code '2'
_symmetry_cell_setting 'orthorhombic'
loop_
_space_group_symop_operation_xyz
x,y,z
1/2-x,1/2-y,z
x,1/2-y,1/2-z
1/2-x,y,1/2-z
-x,-y,-z
1/2+x,1/2+y,-z
-x,1/2+y,1/2+z
1/2+x,-y,1/2+z
loop_
_atom_site_type_symbol
_atom_site_label
_atom_site_fract_x
_atom_site_fract_y
_atom_site_fract_z
Si Si1 0.273393 0.502573 0.679362
Si Si2 0.750000 0.250000 0.574467
Si Si3 0.459777 0.496195 0.284150
Si Si4 0.589232 0.837112 0.181713
Si Si5 0.073787 0.450672 0.570028
Si Si6 0.181911 0.136348 0.016988
Si Si7 0.140485 0.037485 0.384848
Si Si8 0.045847 0.802937 0.477682
O O1 0.250000 0.750000 0.653637
O O2 0.250000 0.502830 0.750000
O O3 0.348858 0.490705 0.672516
O O4 0.250000 0.250000 0.655307
O O5 0.798403 0.376627 0.530122
O O6 0.708951 0.419537 0.615413
O O7 0.469473 0.250000 0.250000
O O8 0.522952 0.529784 0.324664
O O9 0.396729 0.458125 0.322882
O O10 0.454620 0.750000 0.250000
O O11 0.593444 0.750000 0.250000
O O12 0.587654 0.613864 0.138413
O O13 0.128428 0.317787 0.532215
O O14 0.076743 0.697993 0.538138
O O15 0.001841 0.374306 0.555610
O O16 0.250000 0.250000 0.003770
O O17 0.152989 0.223904 0.080459
O O18 0.095293 0.895660 0.429936
O O19 0.000000 0.000000 0.500000
#
# Coordination Sequence:
#
# PCOD9390914 Si02
#       8
#     8   4   8   8   8   8   8   8
#     4  10  21  41  69  90 129 190 252 297 344 427
#     4  10  22  42  75  98 136 185 228 298 376 450
#     4  11  28  45  72 108 152 191 245 307 367 450
#     4  11  24  45  68 103 147 200 250 302 374 438
#     4  11  23  41  68 101 141 184 237 303 359 438
#     4  10  22  40  70 101 138 175 240 296 369 434
#     4  11  22  44  73 103 138 189 235 303 378 440
#     4  11  22  39  67 105 136 178 236 303 370 434
#
# _framework density 22.119432
#
# number of rings (size 3 to 8) (size 9 to 14) (size 15 to 20)
#    0.000    1.333    5.333    0.000    3.733    2.667 
#    2.400    0.333    8.800    0.000    0.000    0.000 
#    0.000    0.000    0.000    0.000    0.000    0.000 
#
# Total GULP energy -334604.998190 kJ/mol
# GULP energy per Si atom -5576.749970 kJ/mol
# Density = 2.206909 g / cm^3
# Si number density = 22.119432 Si / 1000 Ang^3
#
#
#
# Elastic Constant Matrix: (Units=GPa)
#
#
# Indices 1 2 3 4 5 6 
#
# 1 98.2747 16.6092 25.4910 0.0000 0.0000 0.0000
# 2 16.6092 92.4374 28.5474 0.0000 0.0000 0.0000
# 3 25.4910 28.5474 72.9596 0.0000 0.0000 0.0000
# 4 0.0000 0.0000 0.0000 19.3902 0.0000 0.0000
# 5 0.0000 0.0000 0.0000 0.0000 24.1233 0.0000
# 6 0.0000 0.0000 0.0000 0.0000 0.0000 43.9558
#
#
#
# Elastic Compliance Matrix: (Units=1/GPa)
#
#
# Indices 1 2 3 4 5 6 
#
# 1 0.011258 -0.000919 -0.003574 0.000000 0.000000 0.000000
# 2 -0.000919 0.012380 -0.004523 0.000000 0.000000 0.000000
# 3 -0.003574 -0.004523 0.016725 0.000000 0.000000 0.000000
# 4 0.000000 0.000000 0.000000 0.051572 0.000000 0.000000
# 5 0.000000 0.000000 0.000000 0.000000 0.041454 0.000000
# 6 0.000000 0.000000 0.000000 0.000000 0.000000 0.022750
#
#
# Mechanical properties :
#
#
# Convention : Reuss Voigt Hill
#
# Bulk Modulus (GPa) = 44.78083 44.99631 44.88857
# Shear Modulus (GPa) = 27.53093 30.36214 28.94653
#
# Velocity S-wave (km/s) = 3.53179 3.70894 3.62145
# Velocity P-wave (km/s) = 6.07621 6.22320 6.15015
#
# Compressibility (1/GPa) = 0.02233098
#
# Stress axis : x y z
#
# Youngs Moduli (GPa) = 88.82683 80.77479 59.79249
#
# Poissons Ratio (x) = 0.07424 0.21368
# Poissons Ratio (y) = 0.08165 0.27044
# Poissons Ratio (z) = 0.31744 0.36534
#
# Static dielectric constant tensor:
#      x y z
#    x 1.856240 0.000000 0.000000 
#    y 0.000000 1.905570 0.000000 
#    z 0.000000 0.000000 1.770580 
# 
# From -- ./inp_files/36783.got.cif
#   From: 2010.05.17/outbox.cif.g08.bks.cpg/sg48_19_cif.got.tgz:36783.got - 2010.06.03 20:39:00.
