data_PCOD9390260
_publ_section_title
;
Structure prediction by ZEFSAII (Michael W. Deem and Ramdas Pophale) SiO2 
 PCOD9390260
Probable space group: P N N N
;
_chemical_formula_sum "Si O2"
_cell_formula_units_Z 52
_cell_length_a 14.047656
_cell_length_b 8.356464
_cell_length_c 23.285957
_cell_angle_alpha 90.000000
_cell_angle_beta 90.000000
_cell_angle_gamma 90.000000
_cell_volume 2733.508957
_symmetry_space_group_name_H-M "P N N N"
_symmetry_group_IT_number 48
_space_group.IT_coordinate_system_code '2'
_symmetry_cell_setting 'orthorhombic'
loop_
_space_group_symop_operation_xyz
x,y,z
1/2-x,1/2-y,z
x,1/2-y,1/2-z
1/2-x,y,1/2-z
-x,-y,-z
1/2+x,1/2+y,-z
-x,1/2+y,1/2+z
1/2+x,-y,1/2+z
loop_
_atom_site_type_symbol
_atom_site_label
_atom_site_fract_x
_atom_site_fract_y
_atom_site_fract_z
Si Si1 0.250000 0.250000 0.928899
Si Si2 0.651839 0.847545 0.634623
Si Si3 0.572811 0.955632 0.092188
Si Si4 0.310287 0.500044 0.023252
Si Si5 0.147450 0.566485 0.267876
Si Si6 0.495056 0.640872 0.700121
Si Si7 0.388778 0.649093 0.474181
O O1 0.342226 0.171704 0.899772
O O2 0.290770 0.395646 0.967303
O O3 0.750000 0.750000 0.643276
O O4 0.568220 0.749219 0.663835
O O5 0.640854 0.879990 0.567712
O O6 0.646759 0.021216 0.665251
O O7 0.473224 0.875903 0.071545
O O8 0.564687 0.051883 0.151541
O O9 0.591971 0.070014 0.036744
O O10 0.367208 0.664146 0.016085
O O11 0.206732 0.557393 0.047035
O O12 0.146172 0.750000 0.250000
O O13 0.250000 0.496366 0.250000
O O14 0.061852 0.482015 0.234868
O O15 0.447584 0.750000 0.750000
#
# Coordination Sequence:
#
# PCOD9390260 Si02
#       7
#     4   8   8   8   8   8   8
#     4  10  22  38  58  86 120 156 206 254 298 352
#     4  11  19  31  52  79 125 165 191 224 286 366
#     4  10  21  40  58  85 121 158 197 252 301 353
#     4  10  20  35  55  91 123 158 192 229 296 373
#     4  10  21  32  50  80 116 158 200 229 274 343
#     4  10  22  37  55  80 117 159 200 244 298 363
#     4   9  21  35  58  87 127 159 191 234 298 371
#
# _framework density 19.023167999999998
#
# number of rings (size 3 to 8) (size 9 to 14) (size 15 to 20)
#    0.000    2.000    2.308    0.923    6.462    1.846 
#    0.000    0.000    0.000    0.000    0.000   18.846 
#    0.000    0.000    0.000    0.000    0.000    0.000 
#
# Total GULP energy -289837.714691 kJ/mol
# GULP energy per Si atom -5573.802206 kJ/mol
# Density = 1.897987 g / cm^3
# Si number density = 19.023168 Si / 1000 Ang^3
#
#
#
# Elastic Constant Matrix: (Units=GPa)
#
#
# Indices 1 2 3 4 5 6 
#
# 1 63.4451 34.5053 31.3262 0.0000 0.0000 0.0000
# 2 34.5053 97.8779 24.3168 0.0000 0.0000 0.0000
# 3 31.3262 24.3168 66.1705 0.0000 0.0000 0.0000
# 4 0.0000 0.0000 0.0000 27.5467 0.0000 0.0000
# 5 0.0000 0.0000 0.0000 0.0000 22.2879 0.0000
# 6 0.0000 0.0000 0.0000 0.0000 0.0000 22.2438
#
#
#
# Elastic Compliance Matrix: (Units=1/GPa)
#
#
# Indices 1 2 3 4 5 6 
#
# 1 0.023435 -0.006059 -0.008868 0.000000 0.000000 0.000000
# 2 -0.006059 0.012810 -0.001839 0.000000 0.000000 0.000000
# 3 -0.008868 -0.001839 0.019987 0.000000 0.000000 0.000000
# 4 0.000000 0.000000 0.000000 0.036302 0.000000 0.000000
# 5 0.000000 0.000000 0.000000 0.000000 0.044867 0.000000
# 6 0.000000 0.000000 0.000000 0.000000 0.000000 0.044956
#
#
# Mechanical properties :
#
#
# Convention : Reuss Voigt Hill
#
# Bulk Modulus (GPa) = 44.05324 45.30999 44.68162
# Shear Modulus (GPa) = 22.37577 23.57201 22.97389
#
# Velocity S-wave (km/s) = 3.43335 3.52393 3.47894
# Velocity P-wave (km/s) = 6.23900 6.35826 6.29892
#
# Compressibility (1/GPa) = 0.02269980
#
# Stress axis : x y z
#
# Youngs Moduli (GPa) = 42.67049 78.06660 50.03320
#
# Poissons Ratio (x) = 0.47297 0.44371
# Poissons Ratio (y) = 0.25852 0.09202
# Poissons Ratio (z) = 0.37841 0.14358
#
# Static dielectric constant tensor:
#      x y z
#    x 1.694070 0.000000 0.000000 
#    y 0.000000 1.680090 0.000000 
#    z 0.000000 0.000000 1.681880 
# 
# From -- ./inp_files/25572.got.cif
#   From: 2010.05.17/outbox.cif.g08.bks.cpg/sg48_13_cif.got.tgz:25572.got - 2010.06.03 20:39:00.
