data_PCOD9390387
_publ_section_title
;
Structure prediction by ZEFSAII (Michael W. Deem and Ramdas Pophale) SiO2 
 PCOD9390387
Probable space group: P N N N
;
_chemical_formula_sum "Si O2"
_cell_formula_units_Z 58
_cell_length_a 10.655033
_cell_length_b 15.852811
_cell_length_c 18.081315
_cell_angle_alpha 90.000000
_cell_angle_beta 90.000000
_cell_angle_gamma 90.000000
_cell_volume 3054.155136
_symmetry_space_group_name_H-M "P N N N"
_symmetry_group_IT_number 48
_space_group.IT_coordinate_system_code '2'
_symmetry_cell_setting 'orthorhombic'
loop_
_space_group_symop_operation_xyz
x,y,z
1/2-x,1/2-y,z
x,1/2-y,1/2-z
1/2-x,y,1/2-z
-x,-y,-z
1/2+x,1/2+y,-z
-x,1/2+y,1/2+z
1/2+x,-y,1/2+z
loop_
_atom_site_type_symbol
_atom_site_label
_atom_site_fract_x
_atom_site_fract_y
_atom_site_fract_z
Si Si1 0.869186 0.376654 0.301625
Si Si2 0.563420 0.884847 0.825259
Si Si3 0.757501 0.962430 0.160915
Si Si4 0.472696 0.933891 0.154108
Si Si5 0.250000 0.250000 0.250000
Si Si6 0.897066 0.235609 0.579596
Si Si7 0.550370 0.669606 0.202700
Si Si8 0.097864 0.739349 0.914501
O O1 0.750000 0.349174 0.250000
O O2 0.974883 0.405611 0.244932
O O3 0.823631 0.449566 0.357852
O O4 0.932385 0.304155 0.349314
O O5 0.664846 0.814564 0.799850
O O6 0.468462 0.845734 0.886161
O O7 0.605069 0.979045 0.848399
O O8 0.750000 0.972860 0.250000
O O9 0.617811 0.952528 0.131932
O O10 0.843669 0.880272 0.156843
O O11 0.422509 0.861179 0.101100
O O12 0.486151 0.892205 0.236565
O O13 0.750000 0.250000 0.579066
O O14 0.946669 0.256165 0.497581
O O15 0.955734 0.292515 0.643559
O O16 0.599749 0.750000 0.250000
O O17 0.250000 0.750000 0.915557
#
# Coordination Sequence:
#
# PCOD9390387 Si02
#       8
#     8   8   8   8   2   8   8   8
#     4  11  17  34  66  96 110 137 200 254 301 333
#     4  12  22  38  60  89 118 153 189 247 296 354
#     4   9  16  31  59  97 110 133 199 262 301 324
#     4  10  20  37  62  84 115 152 202 253 289 344
#     4  12  28  36  54  96 126 148 190 222 304 376
#     4  10  24  39  52  84 123 166 201 233 295 362
#     4   9  18  33  57  82 115 153 200 254 288 341
#     4  11  21  36  62  86 117 152 200 251 291 343
#
# _framework density 18.990521999999999
#
# number of rings (size 3 to 8) (size 9 to 14) (size 15 to 20)
#    0.000    1.655    6.897    0.000    0.000   10.483 
#    0.000    2.069    0.000    0.000    0.000    0.000 
#    0.000    0.000    0.000    0.000    0.000    0.000 
#
# Total GULP energy -322962.287874 kJ/mol
# GULP energy per Si atom -5568.315308 kJ/mol
# Density = 1.894730 g / cm^3
# Si number density = 18.990522 Si / 1000 Ang^3
#
#
#
# Elastic Constant Matrix: (Units=GPa)
#
#
# Indices 1 2 3 4 5 6 
#
# 1 54.2854 30.9283 12.6082 0.0000 0.0000 0.0000
# 2 30.9283 120.7712 23.1291 0.0000 0.0000 0.0000
# 3 12.6082 23.1291 62.9697 0.0000 0.0000 0.0000
# 4 0.0000 0.0000 0.0000 -7.0580 0.0000 0.0000
# 5 0.0000 0.0000 0.0000 0.0000 7.7445 0.0000
# 6 0.0000 0.0000 0.0000 0.0000 0.0000 27.2233
#
#
#
# Elastic Compliance Matrix: (Units=1/GPa)
#
#
# Indices 1 2 3 4 5 6 
#
# 1 0.021929 -0.005136 -0.002504 0.000000 0.000000 0.000000
# 2 -0.005136 0.010110 -0.002685 0.000000 0.000000 0.000000
# 3 -0.002504 -0.002685 0.017368 0.000000 0.000000 0.000000
# 4 0.000000 0.000000 0.000000 -0.141682 0.000000 0.000000
# 5 0.000000 0.000000 0.000000 0.000000 0.129123 0.000000
# 6 0.000000 0.000000 0.000000 0.000000 0.000000 0.036733
#
#
# Mechanical properties :
#
#
# Convention : Reuss Voigt Hill
#
# Bulk Modulus (GPa) = 34.77508 41.26195 38.01852
# Shear Modulus (GPa) = 48.16157 17.00600 32.58379
#
# Velocity S-wave (km/s) = 5.04142 2.99574 4.14671
# Velocity P-wave (km/s) = 7.22768 5.80868 6.55668
#
# Compressibility (1/GPa) = 0.02875623
#
# Stress axis : x y z
#
# Youngs Moduli (GPa) = 45.60159 98.91539 57.57631
#
# Poissons Ratio (x) = 0.50805 0.14418
# Poissons Ratio (y) = 0.23422 0.15459
# Poissons Ratio (z) = 0.11420 0.26558
#
# Static dielectric constant tensor:
#      x y z
#    x 1.676110 0.000000 0.000000 
#    y 0.000000 1.835190 0.000000 
#    z 0.000000 0.000000 1.647150 
# 
# From -- ./inp_files/31143.got.cif
#   From: 2010.05.17/outbox.cif.g08.bks.cpg/sg48_16_cif.got.tgz:31143.got - 2010.06.03 20:39:00.
