data_PCOD9390639
_publ_section_title
;
Structure prediction by ZEFSAII (Michael W. Deem and Ramdas Pophale) SiO2 
 PCOD9390639
Probable space group: P N N N
;
_chemical_formula_sum "Si O2"
_cell_formula_units_Z 48
_cell_length_a 5.002888
_cell_length_b 29.721309
_cell_length_c 14.779747
_cell_angle_alpha 90.000000
_cell_angle_beta 90.000000
_cell_angle_gamma 90.000000
_cell_volume 2197.635759
_symmetry_space_group_name_H-M "P N N N"
_symmetry_group_IT_number 48
_space_group.IT_coordinate_system_code '2'
_symmetry_cell_setting 'orthorhombic'
loop_
_space_group_symop_operation_xyz
x,y,z
1/2-x,1/2-y,z
x,1/2-y,1/2-z
1/2-x,y,1/2-z
-x,-y,-z
1/2+x,1/2+y,-z
-x,1/2+y,1/2+z
1/2+x,-y,1/2+z
loop_
_atom_site_type_symbol
_atom_site_label
_atom_site_fract_x
_atom_site_fract_y
_atom_site_fract_z
Si Si1 0.198515 0.992363 0.415679
Si Si2 0.750000 0.250000 0.250000
Si Si3 0.499041 0.323997 0.002110
Si Si4 0.898102 0.924578 0.986704
Si Si5 0.055566 0.415291 0.835160
Si Si6 0.250000 0.750000 0.250000
Si Si7 0.487786 0.820089 0.117462
Si Si8 0.750000 0.750000 0.867745
O O1 0.406205 0.956347 0.455499
O O2 0.073114 0.964898 0.333287
O O3 0.314159 0.042552 0.404560
O O4 0.000000 0.000000 0.500000
O O5 0.514027 0.229178 0.185030
O O6 0.504530 0.375502 0.037565
O O7 0.791989 0.311761 0.967064
O O8 0.292640 0.321708 0.916892
O O9 0.381605 0.289556 0.074088
O O10 0.675071 0.915183 0.062864
O O11 0.250000 0.411508 0.750000
O O12 0.898652 0.368290 0.840266
O O13 0.433513 0.781417 0.188341
#
# Coordination Sequence:
#
# PCOD9390639 Si02
#       8
#     8   2   8   8   8   2   8   4
#     4   9  17  35  57  83 114 154 205 270 316 374
#     4  10  24  44  68 106 116 156 192 262 344 420
#     4  11  22  42  65  96 121 173 221 267 312 402
#     4   9  19  34  59  88 115 156 219 265 309 377
#     4  10  21  35  56  84 122 168 214 264 321 385
#     4  12  28  40  56  82 144 180 220 282 312 354
#     4  11  25  38  57  89 128 177 228 263 315 365
#     4  11  22  42  74  93 132 158 206 263 336 398
#
# _framework density 21.841652
#
# number of rings (size 3 to 8) (size 9 to 14) (size 15 to 20)
#    0.000    1.833    1.667    2.000    4.667    1.333 
#    0.000    0.000    1.833    4.000    0.000    0.000 
#    0.000    0.000    0.000    0.000    0.000    0.000 
#
# Total GULP energy -267320.038236 kJ/mol
# GULP energy per Si atom -5569.167463 kJ/mol
# Density = 2.179194 g / cm^3
# Si number density = 21.841652 Si / 1000 Ang^3
#
#
#
# Elastic Constant Matrix: (Units=GPa)
#
#
# Indices 1 2 3 4 5 6 
#
# 1 67.3861 10.3401 7.3878 0.0000 0.0000 0.0000
# 2 10.3401 151.2982 37.0896 0.0000 0.0000 0.0000
# 3 7.3878 37.0896 50.4809 0.0000 0.0000 0.0000
# 4 0.0000 0.0000 0.0000 94.0627 0.0000 0.0000
# 5 0.0000 0.0000 0.0000 0.0000 37.6633 0.0000
# 6 0.0000 0.0000 0.0000 0.0000 0.0000 20.1161
#
#
#
# Elastic Compliance Matrix: (Units=1/GPa)
#
#
# Indices 1 2 3 4 5 6 
#
# 1 0.015126 -0.000599 -0.001774 0.000000 0.000000 0.000000
# 2 -0.000599 0.008085 -0.005853 0.000000 0.000000 0.000000
# 3 -0.001774 -0.005853 0.024369 0.000000 0.000000 0.000000
# 4 0.000000 0.000000 0.000000 0.010631 0.000000 0.000000
# 5 0.000000 0.000000 0.000000 0.000000 0.026551 0.000000
# 6 0.000000 0.000000 0.000000 0.000000 0.000000 0.049711
#
#
# Mechanical properties :
#
#
# Convention : Reuss Voigt Hill
#
# Bulk Modulus (GPa) = 32.12342 42.08892 37.10617
# Shear Modulus (GPa) = 30.99786 44.65827 37.82806
#
# Velocity S-wave (km/s) = 3.77133 4.52667 4.16615
# Velocity P-wave (km/s) = 5.80545 6.82883 6.33783
#
# Compressibility (1/GPa) = 0.03112994
#
# Stress axis : x y z
#
# Youngs Moduli (GPa) = 66.11042 123.68356 41.03541
#
# Poissons Ratio (x) = 0.07408 0.07278
# Poissons Ratio (y) = 0.03960 0.24017
# Poissons Ratio (z) = 0.11725 0.72388
#
# Static dielectric constant tensor:
#      x y z
#    x 1.898430 0.000000 0.000000 
#    y 0.000000 1.801070 0.000000 
#    z 0.000000 0.000000 1.781160 
# 
# From -- ./inp_files/24523.got.cif
#   From: 2010.05.17/outbox.cif.g08.bks.cpg/sg48_13_cif.got.tgz:24523.got - 2010.06.03 20:39:00.
