data_PCOD9390179
_publ_section_title
;
Structure prediction by ZEFSAII (Michael W. Deem and Ramdas Pophale) SiO2 
 PCOD9390179
Probable space group: P N N N
;
_chemical_formula_sum "Si O2"
_cell_formula_units_Z 54
_cell_length_a 13.335463
_cell_length_b 13.619706
_cell_length_c 13.974315
_cell_angle_alpha 90.000000
_cell_angle_beta 90.000000
_cell_angle_gamma 90.000000
_cell_volume 2538.086156
_symmetry_space_group_name_H-M "P N N N"
_symmetry_group_IT_number 48
_space_group.IT_coordinate_system_code '2'
_symmetry_cell_setting 'orthorhombic'
loop_
_space_group_symop_operation_xyz
x,y,z
1/2-x,1/2-y,z
x,1/2-y,1/2-z
1/2-x,y,1/2-z
-x,-y,-z
1/2+x,1/2+y,-z
-x,1/2+y,1/2+z
1/2+x,-y,1/2+z
loop_
_atom_site_type_symbol
_atom_site_label
_atom_site_fract_x
_atom_site_fract_y
_atom_site_fract_z
Si Si1 0.904398 0.010190 0.865708
Si Si2 0.199969 0.604504 0.095551
Si Si3 0.985051 0.660673 0.506675
Si Si4 0.999719 0.025045 0.653410
Si Si5 0.633351 0.786349 0.146330
Si Si6 0.250000 0.750000 0.250000
Si Si7 0.250000 0.750000 0.574077
Si Si8 0.931546 0.194215 0.344218
O O1 0.785752 0.030925 0.866731
O O2 0.954858 0.024744 0.762209
O O3 0.927650 0.905819 0.915228
O O4 0.955772 0.089324 0.935865
O O5 0.091428 0.556865 0.083968
O O6 0.184496 0.684342 0.179771
O O7 0.246161 0.660866 0.005513
O O8 0.916452 0.728984 0.441345
O O9 0.057415 0.731430 0.566367
O O10 0.093926 0.100215 0.642252
O O11 0.023324 0.911176 0.638443
O O12 0.750000 0.750000 0.143819
O O13 0.594975 0.750000 0.250000
O O14 0.186497 0.812325 0.653243
O O15 0.969742 0.250000 0.250000
#
# Coordination Sequence:
#
# PCOD9390179 Si02
#       8
#     8   8   8   8   8   2   4   8
#     4  11  22  43  71 106 142 189 241 293 366 431
#     4  11  23  39  72 109 138 182 246 304 362 424
#     4  11  24  44  74  97 144 193 237 292 358 439
#     4  12  25  44  76 105 145 188 246 303 364 437
#     4  11  26  47  70 103 143 189 240 299 361 434
#     4  10  20  32  66 104 142 172 230 304 358 392
#     4  11  25  43  65 102 144 188 238 304 360 432
#     4  12  26  48  69 106 149 195 239 300 366 435
#
# _framework density 21.275874000000002
#
# number of rings (size 3 to 8) (size 9 to 14) (size 15 to 20)
#    0.000    0.741    5.926    1.111    3.111    4.741 
#    5.333    0.000    0.000    0.000    0.000    0.000 
#    0.000    0.000    0.000    0.000    0.000    0.000 
#
# Total GULP energy -300851.290525 kJ/mol
# GULP energy per Si atom -5571.320195 kJ/mol
# Density = 2.122745 g / cm^3
# Si number density = 21.275874 Si / 1000 Ang^3
#
#
#
# Elastic Constant Matrix: (Units=GPa)
#
#
# Indices 1 2 3 4 5 6 
#
# 1 -86.3446 -46.3873 15.6767 0.0000 0.0000 0.0000
# 2 -46.3873 91.8227 32.8570 0.0000 0.0000 0.0000
# 3 15.6767 32.8570 98.2868 0.0000 0.0000 0.0000
# 4 0.0000 0.0000 0.0000 37.9730 0.0000 0.0000
# 5 0.0000 0.0000 0.0000 0.0000 -148.7427 0.0000
# 6 0.0000 0.0000 0.0000 0.0000 0.0000 30.7029
#
#
#
# Elastic Compliance Matrix: (Units=1/GPa)
#
#
# Indices 1 2 3 4 5 6 
#
# 1 -0.008209 -0.005243 0.003062 0.000000 0.000000 0.000000
# 2 -0.005243 0.009022 -0.002180 0.000000 0.000000 0.000000
# 3 0.003062 -0.002180 0.010415 0.000000 0.000000 0.000000
# 4 0.000000 0.000000 0.000000 0.026335 0.000000 0.000000
# 5 0.000000 0.000000 0.000000 0.000000 -0.006723 0.000000
# 6 0.000000 0.000000 0.000000 0.000000 0.000000 0.032570
#
#
# Mechanical properties :
#
#
# Convention : Reuss Voigt Hill
#
# Bulk Modulus (GPa) = 398.96150 12.00641 205.48396
# Shear Modulus (GPa) = 68.52507 -9.23879 29.64314
#
# Velocity S-wave (km/s) = 5.68136 -2.08610 3.73671
# Velocity P-wave (km/s) = 15.19745 0.38334 10.74280
#
# Compressibility (1/GPa) = 0.00250651
#
# Stress axis : x y z
#
# Youngs Moduli (GPa) = -121.81755 110.83981 96.01872
#
# Poissons Ratio (x) = 0.58110 -0.29401
# Poissons Ratio (y) = -0.63865 0.20930
# Poissons Ratio (z) = 0.37300 0.24161
#
# Static dielectric constant tensor:
#      x y z
#    x 1.039550 0.000000 0.000000 
#    y 0.000000 1.653850 0.000000 
#    z 0.000000 0.000000 1.785480 
# 
# From -- ./inp_files/27341.got.cif
#   From: 2010.05.17/outbox.cif.g08.bks.cpg/sg48_14_cif.got.tgz:27341.got - 2010.06.03 20:39:00.
