data_PCOD9390978
_publ_section_title
;
Structure prediction by ZEFSAII (Michael W. Deem and Ramdas Pophale) SiO2 
 PCOD9390978
Probable space group: P N N N
;
_chemical_formula_sum "Si O2"
_cell_formula_units_Z 44
_cell_length_a 11.219925
_cell_length_b 15.926768
_cell_length_c 8.925150
_cell_angle_alpha 90.000000
_cell_angle_beta 90.000000
_cell_angle_gamma 90.000000
_cell_volume 1594.898801
_symmetry_space_group_name_H-M "P N N N"
_symmetry_group_IT_number 48
_space_group.IT_coordinate_system_code '2'
_symmetry_cell_setting 'orthorhombic'
loop_
_space_group_symop_operation_xyz
x,y,z
1/2-x,1/2-y,z
x,1/2-y,1/2-z
1/2-x,y,1/2-z
-x,-y,-z
1/2+x,1/2+y,-z
-x,1/2+y,1/2+z
1/2+x,-y,1/2+z
loop_
_atom_site_type_symbol
_atom_site_label
_atom_site_fract_x
_atom_site_fract_y
_atom_site_fract_z
Si Si1 0.198941 0.088796 0.051172
Si Si2 0.910773 0.547023 0.250810
Si Si3 0.445899 0.864184 0.701792
Si Si4 0.944620 0.250000 0.750000
Si Si5 0.349051 0.594907 0.102345
Si Si6 0.565754 0.674579 0.512786
O O1 0.078876 0.120491 0.132334
O O2 0.230472 0.990431 0.093771
O O3 0.182717 0.083588 0.871190
O O4 0.303986 0.155636 0.077833
O O5 0.943145 0.594020 0.098325
O O6 0.895202 0.449623 0.223568
O O7 0.136920 0.668558 0.273621
O O8 0.525990 0.050473 0.640678
O O9 0.472827 0.811960 0.852823
O O10 0.033505 0.245084 0.608491
O O11 0.858186 0.141917 0.058021
#
# Coordination Sequence:
#
# PCOD9390978 Si02
#       6
#     8   8   8   4   8   8
#     4   9  17  32  53  76 110 148 193 244 287 342
#     4   8  16  31  50  74 106 142 185 231 282 350
#     4   9  17  31  52  77 105 143 191 235 278 343
#     4  10  22  36  53  78 121 162 188 236 323 376
#     4   8  17  35  53  74 109 156 192 229 293 368
#     4  11  19  30  52  85 113 145 190 248 296 345
#
# _framework density 27.587955999999998
#
# number of rings (size 3 to 8) (size 9 to 14) (size 15 to 20)
#    0.000    2.909    0.000    3.818    0.000    0.727 
#    0.000   16.364    0.000    8.727    0.000   40.727 
#    0.000   46.545    0.000    0.000    0.000    0.000 
#
# Total GULP energy -245069.245154 kJ/mol
# GULP energy per Si atom -5569.755572 kJ/mol
# Density = 2.752516 g / cm^3
# Si number density = 27.587956 Si / 1000 Ang^3
#
#
#
# Elastic Constant Matrix: (Units=GPa)
#
#
# Indices 1 2 3 4 5 6 
#
# 1 77.1659 20.3560 13.9401 0.0000 0.0000 0.0000
# 2 20.3560 88.3809 11.9457 0.0000 0.0000 0.0000
# 3 13.9401 11.9457 167.5671 0.0000 0.0000 0.0000
# 4 0.0000 0.0000 0.0000 58.6825 0.0000 0.0000
# 5 0.0000 0.0000 0.0000 0.0000 10.3330 0.0000
# 6 0.0000 0.0000 0.0000 0.0000 0.0000 -19.6814
#
#
#
# Elastic Compliance Matrix: (Units=1/GPa)
#
#
# Indices 1 2 3 4 5 6 
#
# 1 0.013943 -0.003084 -0.000940 0.000000 0.000000 0.000000
# 2 -0.003084 0.012107 -0.000607 0.000000 0.000000 0.000000
# 3 -0.000940 -0.000607 0.006089 0.000000 0.000000 0.000000
# 4 0.000000 0.000000 0.000000 0.017041 0.000000 0.000000
# 5 0.000000 0.000000 0.000000 0.000000 0.096777 0.000000
# 6 0.000000 0.000000 0.000000 0.000000 0.000000 -0.050809
#
#
# Mechanical properties :
#
#
# Convention : Reuss Voigt Hill
#
# Bulk Modulus (GPa) = 43.71160 47.28860 45.50010
# Shear Modulus (GPa) = 44.62919 28.99165 36.81042
#
# Velocity S-wave (km/s) = 4.02643 3.24525 3.65676
# Velocity P-wave (km/s) = 6.12332 5.58752 5.86155
#
# Compressibility (1/GPa) = 0.02287722
#
# Stress axis : x y z
#
# Youngs Moduli (GPa) = 71.72308 82.59689 164.22520
#
# Poissons Ratio (x) = 0.25475 0.15438
# Poissons Ratio (y) = 0.22121 0.09961
# Poissons Ratio (z) = 0.06742 0.05010
#
# Static dielectric constant tensor:
#      x y z
#    x 2.272500 0.000000 0.000000 
#    y 0.000000 2.250830 0.000000 
#    z 0.000000 0.000000 2.784110 
# 
# From -- ./inp_files/12667.got.cif
#   From: 2010.05.17/outbox.cif.g08.bks.cpg/sg48_7_cif.got.tgz:12667.got - 2010.06.03 20:39:00.
