data_PCOD9390375
_publ_section_title
;
Structure prediction by ZEFSAII (Michael W. Deem and Ramdas Pophale) SiO2 
 PCOD9390375
Probable space group: P N N N
;
_chemical_formula_sum "Si O2"
_cell_formula_units_Z 56
_cell_length_a 14.062269
_cell_length_b 19.896280
_cell_length_c 10.211359
_cell_angle_alpha 90.000000
_cell_angle_beta 90.000000
_cell_angle_gamma 90.000000
_cell_volume 2857.003882
_symmetry_space_group_name_H-M "P N N N"
_symmetry_group_IT_number 48
_space_group.IT_coordinate_system_code '2'
_symmetry_cell_setting 'orthorhombic'
loop_
_space_group_symop_operation_xyz
x,y,z
1/2-x,1/2-y,z
x,1/2-y,1/2-z
1/2-x,y,1/2-z
-x,-y,-z
1/2+x,1/2+y,-z
-x,1/2+y,1/2+z
1/2+x,-y,1/2+z
loop_
_atom_site_type_symbol
_atom_site_label
_atom_site_fract_x
_atom_site_fract_y
_atom_site_fract_z
Si Si1 0.273130 0.468981 0.502674
Si Si2 0.944539 0.009243 0.637193
Si Si3 0.080787 0.383493 0.831906
Si Si4 0.939178 0.750000 0.750000
Si Si5 0.540493 0.392499 0.187411
Si Si6 0.250000 0.567235 0.750000
Si Si7 0.361397 0.245330 0.967963
Si Si8 0.412886 0.100712 0.539192
O O1 0.333608 0.499394 0.384644
O O2 0.343001 0.412708 0.564730
O O3 0.262858 0.522733 0.619093
O O4 0.173222 0.436043 0.465124
O O5 0.975140 0.085758 0.664443
O O6 0.000000 0.000000 0.500000
O O7 0.988795 0.951513 0.729111
O O8 0.108462 0.414086 0.690899
O O9 0.087850 0.305740 0.868363
O O10 0.998781 0.817988 0.782864
O O11 0.878560 0.729031 0.878410
O O12 0.651473 0.393898 0.223089
O O13 0.511022 0.411891 0.037432
O O14 0.250000 0.250000 0.937218
O O15 0.402076 0.319546 0.957029
#
# Coordination Sequence:
#
# PCOD9390375 Si02
#       8
#     8   8   8   4   8   4   8   8
#     4  11  20  36  60  87 117 160 196 247 306 370
#     4  10  20  37  60  84 115 162 203 242 307 375
#     4  11  20  37  59  86 125 165 197 244 303 383
#     4  10  23  41  56  88 122 158 204 264 302 366
#     4  11  24  40  61  86 121 162 207 260 315 370
#     4  12  22  39  62  85 116 160 206 260 314 366
#     4  11  22  34  60  90 125 164 198 242 316 385
#     4  11  23  37  57  93 128 154 205 256 310 378
#
# _framework density 19.600953000000001
#
# number of rings (size 3 to 8) (size 9 to 14) (size 15 to 20)
#    0.000    1.143    5.714    2.357    0.000    3.714 
#    0.000    0.000    0.000    0.000    0.000    0.000 
#    0.000    0.000    0.000    0.000    0.000    0.000 
#
# Total GULP energy -311880.937662 kJ/mol
# GULP energy per Si atom -5569.302458 kJ/mol
# Density = 1.955634 g / cm^3
# Si number density = 19.600953 Si / 1000 Ang^3
#
#
#
# Elastic Constant Matrix: (Units=GPa)
#
#
# Indices 1 2 3 4 5 6 
#
# 1 104.7663 45.8935 31.2017 0.0000 0.0000 0.0000
# 2 45.8935 90.4580 17.3630 0.0000 0.0000 0.0000
# 3 31.2017 17.3630 54.2558 0.0000 0.0000 0.0000
# 4 0.0000 0.0000 0.0000 -38.3236 0.0000 0.0000
# 5 0.0000 0.0000 0.0000 0.0000 28.7572 0.0000
# 6 0.0000 0.0000 0.0000 0.0000 0.0000 21.9327
#
#
#
# Elastic Compliance Matrix: (Units=1/GPa)
#
#
# Indices 1 2 3 4 5 6 
#
# 1 0.013960 -0.005904 -0.006139 0.000000 0.000000 0.000000
# 2 -0.005904 0.014275 -0.001173 0.000000 0.000000 0.000000
# 3 -0.006139 -0.001173 0.022337 0.000000 0.000000 0.000000
# 4 0.000000 0.000000 0.000000 -0.026094 0.000000 0.000000
# 5 0.000000 0.000000 0.000000 0.000000 0.034774 0.000000
# 6 0.000000 0.000000 0.000000 0.000000 0.000000 0.045594
#
#
# Mechanical properties :
#
#
# Convention : Reuss Voigt Hill
#
# Bulk Modulus (GPa) = 41.42426 48.71070 45.06748
# Shear Modulus (GPa) = 35.88752 12.80806 24.34779
#
# Velocity S-wave (km/s) = 4.28355 2.55902 3.52827
# Velocity P-wave (km/s) = 6.75609 5.79971 6.29608
#
# Compressibility (1/GPa) = 0.02414044
#
# Stress axis : x y z
#
# Youngs Moduli (GPa) = 71.63553 70.05041 44.76919
#
# Poissons Ratio (x) = 0.41358 0.27482
# Poissons Ratio (y) = 0.42294 0.05252
# Poissons Ratio (z) = 0.43974 0.08218
#
# Static dielectric constant tensor:
#      x y z
#    x 1.724240 0.000000 0.000000 
#    y 0.000000 1.740220 0.000000 
#    z 0.000000 0.000000 1.837810 
# 
# From -- ./inp_files/13143.got.cif
#   From: 2010.05.17/outbox.cif.g08.bks.cpg/sg48_7_cif.got.tgz:13143.got - 2010.06.03 20:39:00.
