data_PCOD9390086
_publ_section_title
;
Structure prediction by ZEFSAII (Michael W. Deem and Ramdas Pophale) SiO2 
 PCOD9390086
Probable space group: P N N N
;
_chemical_formula_sum "Si O2"
_cell_formula_units_Z 64
_cell_length_a 30.753296
_cell_length_b 10.852323
_cell_length_c 9.259069
_cell_angle_alpha 90.000000
_cell_angle_beta 90.000000
_cell_angle_gamma 90.000000
_cell_volume 3090.165220
_symmetry_space_group_name_H-M "P N N N"
_symmetry_group_IT_number 48
_space_group.IT_coordinate_system_code '2'
_symmetry_cell_setting 'orthorhombic'
loop_
_space_group_symop_operation_xyz
x,y,z
1/2-x,1/2-y,z
x,1/2-y,1/2-z
1/2-x,y,1/2-z
-x,-y,-z
1/2+x,1/2+y,-z
-x,1/2+y,1/2+z
1/2+x,-y,1/2+z
loop_
_atom_site_type_symbol
_atom_site_label
_atom_site_fract_x
_atom_site_fract_y
_atom_site_fract_z
Si Si1 0.179784 0.512950 0.045602
Si Si2 0.359620 0.471146 0.944680
Si Si3 0.375135 0.394737 0.241209
Si Si4 0.397088 0.411007 0.637847
Si Si5 0.052371 0.666512 0.894827
Si Si6 0.629835 0.241506 0.573801
Si Si7 0.739444 0.609240 0.079359
Si Si8 0.951344 0.832481 0.600882
O O1 0.148409 0.425388 0.948950
O O2 0.228616 0.482830 0.005201
O O3 0.166034 0.472518 0.206422
O O4 0.162781 0.650827 0.021942
O O5 0.381107 0.415122 0.801831
O O6 0.310520 0.421749 0.946971
O O7 0.386499 0.420612 0.078833
O O8 0.358671 0.617009 0.984448
O O9 0.364686 0.250000 0.250000
O O10 0.416743 0.433172 0.337919
O O11 0.425822 0.534991 0.631339
O O12 0.426931 0.311035 0.553265
O O13 0.055987 0.750000 0.750000
O O14 0.001640 0.647708 0.929078
O O15 0.081013 0.727850 0.020579
O O16 0.631578 0.250000 0.750000
O O17 0.750000 0.750000 0.036489
O O18 0.750000 0.597493 0.250000
O O19 0.951584 0.750000 0.750000
#
# Coordination Sequence:
#
# PCOD9390086 Si02
#       8
#     8   8   8   8   8   8   8   8
#     4  10  21  41  64  93 132 175 212 275 342 399
#     4  12  23  41  67 101 128 177 227 275 348 406
#     4  10  21  40  62  89 132 176 218 266 337 399
#     4  10  20  37  63  95 128 171 221 271 342 394
#     4  10  19  37  66  92 129 173 225 271 330 409
#     4  11  23  42  66  96 138 178 220 280 345 417
#     4  11  24  43  66  99 132 167 226 283 328 396
#     4   9  20  39  61  91 130 174 223 276 332 402
#
# _framework density 20.710868000000001
#
# number of rings (size 3 to 8) (size 9 to 14) (size 15 to 20)
#    0.000    1.625    3.750    1.125    0.000    1.000 
#    0.000    6.875    0.000    0.000    0.000    0.000 
#    0.000    0.000    0.000    0.000    0.000    0.000 
#
# Total GULP energy -356279.985893 kJ/mol
# GULP energy per Si atom -5566.874780 kJ/mol
# Density = 2.066373 g / cm^3
# Si number density = 20.710868 Si / 1000 Ang^3
#
#
#
# Elastic Constant Matrix: (Units=GPa)
#
#
# Indices 1 2 3 4 5 6 
#
# 1 146.8017 38.2171 50.2856 0.0000 0.0000 0.0000
# 2 38.2171 83.1364 16.5981 0.0000 0.0000 0.0000
# 3 50.2856 16.5981 111.6830 0.0000 0.0000 0.0000
# 4 0.0000 0.0000 0.0000 25.3097 0.0000 0.0000
# 5 0.0000 0.0000 0.0000 0.0000 28.2880 0.0000
# 6 0.0000 0.0000 0.0000 0.0000 0.0000 26.4432
#
#
#
# Elastic Compliance Matrix: (Units=1/GPa)
#
#
# Indices 1 2 3 4 5 6 
#
# 1 0.008893 -0.003389 -0.003501 0.000000 0.000000 0.000000
# 2 -0.003389 0.013688 -0.000508 0.000000 0.000000 0.000000
# 3 -0.003501 -0.000508 0.010606 0.000000 0.000000 0.000000
# 4 0.000000 0.000000 0.000000 0.039511 0.000000 0.000000
# 5 0.000000 0.000000 0.000000 0.000000 0.035351 0.000000
# 6 0.000000 0.000000 0.000000 0.000000 0.000000 0.037817
#
#
# Mechanical properties :
#
#
# Convention : Reuss Voigt Hill
#
# Bulk Modulus (GPa) = 54.37534 61.31363 57.84448
# Shear Modulus (GPa) = 29.97757 31.77620 30.87688
#
# Velocity S-wave (km/s) = 3.80864 3.92123 3.86535
# Velocity P-wave (km/s) = 6.75666 7.08310 6.92180
#
# Compressibility (1/GPa) = 0.01839069
#
# Stress axis : x y z
#
# Youngs Moduli (GPa) = 112.44379 73.05708 94.29009
#
# Poissons Ratio (x) = 0.24761 0.33007
# Poissons Ratio (y) = 0.38111 0.04792
# Poissons Ratio (z) = 0.39361 0.03713
#
# Static dielectric constant tensor:
#      x y z
#    x 1.719520 0.000000 0.000000 
#    y 0.000000 1.864530 0.000000 
#    z 0.000000 0.000000 1.803710 
# 
# From -- ./inp_files/16933.got.cif
#   From: 2010.05.17/outbox.cif.g08.bks.cpg/sg48_9_cif.got.tgz:16933.got - 2010.06.03 20:39:00.
