data_PCOD9390837
_publ_section_title
;
Structure prediction by ZEFSAII (Michael W. Deem and Ramdas Pophale) SiO2 
 PCOD9390837
Probable space group: P N N N
;
_chemical_formula_sum "Si O2"
_cell_formula_units_Z 52
_cell_length_a 15.900286
_cell_length_b 10.779149
_cell_length_c 15.662006
_cell_angle_alpha 90.000000
_cell_angle_beta 90.000000
_cell_angle_gamma 90.000000
_cell_volume 2684.335515
_symmetry_space_group_name_H-M "P N N N"
_symmetry_group_IT_number 48
_space_group.IT_coordinate_system_code '2'
_symmetry_cell_setting 'orthorhombic'
loop_
_space_group_symop_operation_xyz
x,y,z
1/2-x,1/2-y,z
x,1/2-y,1/2-z
1/2-x,y,1/2-z
-x,-y,-z
1/2+x,1/2+y,-z
-x,1/2+y,1/2+z
1/2+x,-y,1/2+z
loop_
_atom_site_type_symbol
_atom_site_label
_atom_site_fract_x
_atom_site_fract_y
_atom_site_fract_z
Si Si1 0.924806 0.373059 0.420092
Si Si2 0.573996 0.090039 0.092219
Si Si3 0.079032 0.549863 0.388554
Si Si4 0.251881 0.606150 0.851547
Si Si5 0.907568 0.053185 0.608255
Si Si6 0.088248 0.750000 0.250000
Si Si7 0.248341 0.105954 0.147131
O O1 0.931848 0.234672 0.382203
O O2 0.917614 0.375330 0.522610
O O3 0.841093 0.440149 0.385051
O O4 0.007447 0.447403 0.396431
O O5 0.666358 0.042678 0.118138
O O6 0.497079 0.011647 0.131104
O O7 0.574939 0.091852 0.989231
O O8 0.053604 0.641750 0.311676
O O9 0.167557 0.478184 0.376619
O O10 0.250000 0.750000 0.883200
O O11 0.250000 0.607394 0.750000
O O12 0.876717 0.160802 0.673540
O O13 0.832720 0.954893 0.610902
O O14 0.250000 0.250000 0.119676
O O15 0.250000 0.104485 0.250000
#
# Coordination Sequence:
#
# PCOD9390837 Si02
#       7
#     8   8   8   8   8   4   8
#     4  10  21  40  63  89 120 161 205 253 310 366
#     4  10  21  40  63  89 120 161 205 253 310 366
#     4  11  23  39  62  88 126 162 201 257 311 372
#     4   9  19  34  58  86 113 146 199 253 293 350
#     4  11  23  39  62  88 126 162 201 257 311 372
#     4  12  24  41  60  97 118 166 206 261 304 389
#     4  11  23  38  58  90 122 159 204 253 309 369
#
# _framework density 19.371645999999998
#
# number of rings (size 3 to 8) (size 9 to 14) (size 15 to 20)
#    0.000    1.538    3.077    1.846    2.154    1.231 
#    0.000    0.000    0.000    0.923    0.000    0.000 
#    0.000    0.000    0.000    0.000    0.000    0.000 
#
# Total GULP energy -289513.775374 kJ/mol
# GULP energy per Si atom -5567.572603 kJ/mol
# Density = 1.932756 g / cm^3
# Si number density = 19.371646 Si / 1000 Ang^3
#
#
#
# Elastic Constant Matrix: (Units=GPa)
#
#
# Indices 1 2 3 4 5 6 
#
# 1 132.5397 21.1392 7.1915 0.0000 0.0000 0.0000
# 2 21.1392 69.4294 7.3010 0.0000 0.0000 0.0000
# 3 7.1915 7.3010 49.0748 0.0000 0.0000 0.0000
# 4 0.0000 0.0000 0.0000 -16.1698 0.0000 0.0000
# 5 0.0000 0.0000 0.0000 0.0000 8.4645 0.0000
# 6 0.0000 0.0000 0.0000 0.0000 0.0000 -8.0562
#
#
#
# Elastic Compliance Matrix: (Units=1/GPa)
#
#
# Indices 1 2 3 4 5 6 
#
# 1 0.007962 -0.002338 -0.000819 0.000000 0.000000 0.000000
# 2 -0.002338 0.015319 -0.001936 0.000000 0.000000 0.000000
# 3 -0.000819 -0.001936 0.020785 0.000000 0.000000 0.000000
# 4 0.000000 0.000000 0.000000 -0.061844 0.000000 0.000000
# 5 0.000000 0.000000 0.000000 0.000000 0.118140 0.000000
# 6 0.000000 0.000000 0.000000 0.000000 0.000000 -0.124127
#
#
# Mechanical properties :
#
#
# Convention : Reuss Voigt Hill
#
# Bulk Modulus (GPa) = 29.51671 35.81192 32.66432
# Shear Modulus (GPa) = -2188.22160 11.20852 -1088.50654
#
# Velocity S-wave (km/s) = -33.64599 2.40803 -23.73030
# Velocity P-wave (km/s) = 38.65402 5.12429 27.09128
#
# Compressibility (1/GPa) = 0.03387912
#
# Stress axis : x y z
#
# Youngs Moduli (GPa) = 125.59241 65.27999 48.11130
#
# Poissons Ratio (x) = 0.15263 0.03940
# Poissons Ratio (y) = 0.29365 0.09316
# Poissons Ratio (z) = 0.10285 0.12641
#
# Static dielectric constant tensor:
#      x y z
#    x 1.681460 0.000000 0.000000 
#    y 0.000000 1.694870 0.000000 
#    z 0.000000 0.000000 1.692970 
# 
# From -- ./inp_files/31652.got.cif
#   From: 2010.05.17/outbox.cif.g08.bks.cpg/sg48_16_cif.got.tgz:31652.got - 2010.06.03 20:39:00.
