data_PCOD9390167
_publ_section_title
;
Structure prediction by ZEFSAII (Michael W. Deem and Ramdas Pophale) SiO2 
 PCOD9390167
Probable space group: P N N N
;
_chemical_formula_sum "Si O2"
_cell_formula_units_Z 40
_cell_length_a 5.223361
_cell_length_b 15.112357
_cell_length_c 23.816067
_cell_angle_alpha 90.000000
_cell_angle_beta 90.000000
_cell_angle_gamma 90.000000
_cell_volume 1879.975934
_symmetry_space_group_name_H-M "P N N N"
_symmetry_group_IT_number 48
_space_group.IT_coordinate_system_code '2'
_symmetry_cell_setting 'orthorhombic'
loop_
_space_group_symop_operation_xyz
x,y,z
1/2-x,1/2-y,z
x,1/2-y,1/2-z
1/2-x,y,1/2-z
-x,-y,-z
1/2+x,1/2+y,-z
-x,1/2+y,1/2+z
1/2+x,-y,1/2+z
loop_
_atom_site_type_symbol
_atom_site_label
_atom_site_fract_x
_atom_site_fract_y
_atom_site_fract_z
Si Si1 0.380394 0.076045 0.114033
Si Si2 0.347136 0.340358 0.868570
Si Si3 0.500948 0.151336 0.224431
Si Si4 0.647677 0.396066 0.687277
Si Si5 0.122804 0.979890 0.939884
O O1 0.474245 0.150524 0.157734
O O2 0.376148 0.988616 0.153605
O O3 0.596120 0.063477 0.066169
O O4 0.092014 0.080238 0.091293
O O5 0.250000 0.250000 0.897156
O O6 0.632079 0.340254 0.844230
O O7 0.346139 0.425666 0.908868
O O8 0.133913 0.355002 0.820029
O O9 0.504711 0.250000 0.250000
O O10 0.250000 0.108242 0.250000
O O11 0.750000 0.105012 0.250000
O O12 0.750000 0.405511 0.750000
O O13 0.000000 0.000000 0.000000
#
# Coordination Sequence:
#
# PCOD9390167 Si02
#       5
#     8   8   8   8   8
#     4  10  20  35  57  84 111 148 196 234 284 360
#     4  10  21  35  53  77 111 145 181 230 287 342
#     4  10  20  34  56  83 118 162 188 234 304 366
#     4  10  20  32  51  82 112 145 181 216 272 344
#     4  10  21  38  60  81 107 147 201 252 292 337
#
# _framework density 21.276865999999998
#
# number of rings (size 3 to 8) (size 9 to 14) (size 15 to 20)
#    0.000    2.000    0.000    3.600    0.000    5.600 
#    0.000    0.000   13.200    0.000    0.000    0.000 
#    0.000    0.000    0.000    0.000    0.000    0.000 
#
# Total GULP energy -223028.183035 kJ/mol
# GULP energy per Si atom -5575.704576 kJ/mol
# Density = 2.122844 g / cm^3
# Si number density = 21.276866 Si / 1000 Ang^3
#
#
#
# Elastic Constant Matrix: (Units=GPa)
#
#
# Indices 1 2 3 4 5 6 
#
# 1 152.5358 23.0210 28.3121 0.0000 0.0000 0.0000
# 2 23.0210 53.5497 10.6366 0.0000 0.0000 0.0000
# 3 28.3121 10.6366 79.5102 0.0000 0.0000 0.0000
# 4 0.0000 0.0000 0.0000 16.9737 0.0000 0.0000
# 5 0.0000 0.0000 0.0000 0.0000 38.9060 0.0000
# 6 0.0000 0.0000 0.0000 0.0000 0.0000 -3.7205
#
#
#
# Elastic Compliance Matrix: (Units=1/GPa)
#
#
# Indices 1 2 3 4 5 6 
#
# 1 0.007388 -0.002726 -0.002266 0.000000 0.000000 0.000000
# 2 -0.002726 0.020190 -0.001730 0.000000 0.000000 0.000000
# 3 -0.002266 -0.001730 0.013615 0.000000 0.000000 0.000000
# 4 0.000000 0.000000 0.000000 0.058915 0.000000 0.000000
# 5 0.000000 0.000000 0.000000 0.000000 0.025703 0.000000
# 6 0.000000 0.000000 0.000000 0.000000 0.000000 -0.268783
#
#
# Mechanical properties :
#
#
# Convention : Reuss Voigt Hill
#
# Bulk Modulus (GPa) = 36.03789 45.50389 40.77089
# Shear Modulus (GPa) = -41.57043 25.34024 -8.11510
#
# Velocity S-wave (km/s) = -4.42496 3.45480 -1.95508
# Velocity P-wave (km/s) = 3.02203 6.11123 3.75596
#
# Compressibility (1/GPa) = 0.02774857
#
# Stress axis : x y z
#
# Youngs Moduli (GPa) = 135.35768 49.52997 73.44644
#
# Poissons Ratio (x) = 0.13502 0.16643
# Poissons Ratio (y) = 0.36897 0.12708
# Poissons Ratio (z) = 0.30672 0.08570
#
# Static dielectric constant tensor:
#      x y z
#    x 1.804730 0.000000 0.000000 
#    y 0.000000 1.782820 0.000000 
#    z 0.000000 0.000000 1.779810 
# 
# From -- ./inp_files/35295.got.cif
#   From: 2010.05.17/outbox.cif.g08.bks.cpg/sg48_18_cif.got.tgz:35295.got - 2010.06.03 20:39:00.
