data_PCOD9390664
_publ_section_title
;
Structure prediction by ZEFSAII (Michael W. Deem and Ramdas Pophale) SiO2 
 PCOD9390664
Probable space group: P N N N
;
_chemical_formula_sum "Si O2"
_cell_formula_units_Z 30
_cell_length_a 8.910664
_cell_length_b 10.082559
_cell_length_c 16.580120
_cell_angle_alpha 90.000000
_cell_angle_beta 90.000000
_cell_angle_gamma 90.000000
_cell_volume 1489.596041
_symmetry_space_group_name_H-M "P N N N"
_symmetry_group_IT_number 48
_space_group.IT_coordinate_system_code '2'
_symmetry_cell_setting 'orthorhombic'
loop_
_space_group_symop_operation_xyz
x,y,z
1/2-x,1/2-y,z
x,1/2-y,1/2-z
1/2-x,y,1/2-z
-x,-y,-z
1/2+x,1/2+y,-z
-x,1/2+y,1/2+z
1/2+x,-y,1/2+z
loop_
_atom_site_type_symbol
_atom_site_label
_atom_site_fract_x
_atom_site_fract_y
_atom_site_fract_z
Si Si1 0.250000 0.750000 0.750000
Si Si2 0.750000 0.750000 0.250000
Si Si3 0.750000 0.250000 0.750000
Si Si4 0.920933 0.140379 0.005083
Si Si5 0.489910 0.654384 0.364299
Si Si6 0.396388 0.879043 0.902332
O O1 0.340940 0.844589 0.811815
O O2 0.639424 0.674099 0.310929
O O3 0.646661 0.344349 0.697003
O O4 0.950950 0.221589 0.922535
O O5 0.750433 0.114629 0.038034
O O6 0.983349 0.247076 0.069507
O O7 0.000000 0.000000 0.000000
O O8 0.512958 0.514309 0.406997
#
# Coordination Sequence:
#
# PCOD9390664 Si02
#       6
#     2   2   2   8   8   8
#     4   8  18  38  60  92 114 146 208 252 298 358
#     4  10  22  34  64  88 114 160 204 252 298 366
#     4  10  24  36  60  88 128 156 192 260 304 356
#     4  10  21  36  58  88 120 153 199 252 296 353
#     4  11  21  40  60  89 120 159 205 246 306 363
#     4  10  21  37  62  86 118 161 198 249 300 359
#
# _framework density 20.139689000000001
#
# number of rings (size 3 to 8) (size 9 to 14) (size 15 to 20)
#    0.000    2.133    0.000    4.800    0.000    6.400 
#    0.000    0.000    0.000   12.000    0.000    0.000 
#    0.000    0.000    0.000    0.000    0.000    0.000 
#
# Total GULP energy -167125.071408 kJ/mol
# GULP energy per Si atom -5570.835714 kJ/mol
# Density = 2.009385 g / cm^3
# Si number density = 20.139689 Si / 1000 Ang^3
#
#
#
# Elastic Constant Matrix: (Units=GPa)
#
#
# Indices 1 2 3 4 5 6 
#
# 1 92.9742 69.5253 51.7247 0.0000 0.0000 0.0000
# 2 69.5253 201.7908 66.3864 0.0000 0.0000 0.0000
# 3 51.7247 66.3864 133.0167 0.0000 0.0000 0.0000
# 4 0.0000 0.0000 0.0000 24.0033 0.0000 0.0000
# 5 0.0000 0.0000 0.0000 0.0000 137.7011 0.0000
# 6 0.0000 0.0000 0.0000 0.0000 0.0000 -0.1344
#
#
#
# Elastic Compliance Matrix: (Units=1/GPa)
#
#
# Indices 1 2 3 4 5 6 
#
# 1 0.016252 -0.004212 -0.004218 0.000000 0.000000 0.000000
# 2 -0.004212 0.007021 -0.001866 0.000000 0.000000 0.000000
# 3 -0.004218 -0.001866 0.010089 0.000000 0.000000 0.000000
# 4 0.000000 0.000000 0.000000 0.041661 0.000000 0.000000
# 5 0.000000 0.000000 0.000000 0.000000 0.007262 0.000000
# 6 0.000000 0.000000 0.000000 0.000000 0.000000 -7.443189
#
#
# Mechanical properties :
#
#
# Convention : Reuss Voigt Hill
#
# Bulk Modulus (GPa) = 78.30494 89.22827 83.76660
# Shear Modulus (GPa) = -0.68157 48.32368 23.82106
#
# Velocity S-wave (km/s) = -0.58237 4.90371 3.44290
# Velocity P-wave (km/s) = 6.20589 8.74429 7.58208
#
# Compressibility (1/GPa) = 0.01277059
#
# Stress axis : x y z
#
# Youngs Moduli (GPa) = 61.53241 142.43583 99.11575
#
# Poissons Ratio (x) = 0.59992 0.41802
# Poissons Ratio (y) = 0.25916 0.18496
# Poissons Ratio (z) = 0.25951 0.26580
#
# Static dielectric constant tensor:
#      x y z
#    x 1.741930 0.000000 0.000000 
#    y 0.000000 1.711290 0.000000 
#    z 0.000000 0.000000 1.804610 
# 
# From -- ./inp_files/10212.got.cif
#   From: 2010.05.17/outbox.cif.g08.bks.cpg/sg48_6_cif.got.tgz:10212.got - 2010.06.03 20:39:00.
