data_PCOD9390879
_publ_section_title
;
Structure prediction by ZEFSAII (Michael W. Deem and Ramdas Pophale) SiO2 
 PCOD9390879
Probable space group: P N N N
;
_chemical_formula_sum "Si O2"
_cell_formula_units_Z 28
_cell_length_a 6.930843
_cell_length_b 11.173609
_cell_length_c 17.544734
_cell_angle_alpha 90.000000
_cell_angle_beta 90.000000
_cell_angle_gamma 90.000000
_cell_volume 1358.708584
_symmetry_space_group_name_H-M "P N N N"
_symmetry_group_IT_number 48
_space_group.IT_coordinate_system_code '2'
_symmetry_cell_setting 'orthorhombic'
loop_
_space_group_symop_operation_xyz
x,y,z
1/2-x,1/2-y,z
x,1/2-y,1/2-z
1/2-x,y,1/2-z
-x,-y,-z
1/2+x,1/2+y,-z
-x,1/2+y,1/2+z
1/2+x,-y,1/2+z
loop_
_atom_site_type_symbol
_atom_site_label
_atom_site_fract_x
_atom_site_fract_y
_atom_site_fract_z
Si Si1 0.250000 0.750000 0.750000
Si Si2 0.269006 0.911171 0.112758
Si Si3 0.924865 0.666900 0.641277
Si Si4 0.026547 0.259820 0.972652
Si Si5 0.250000 0.750000 0.250000
O O1 0.394023 0.829270 0.697999
O O2 0.341267 0.845340 0.190346
O O3 0.437992 0.887618 0.051614
O O4 0.180245 0.040338 0.127294
O O5 0.092590 0.835456 0.076888
O O6 0.750000 0.750000 0.668602
O O7 0.994197 0.723733 0.560834
O O8 0.250000 0.250000 0.954407
#
# Coordination Sequence:
#
# PCOD9390879 Si02
#       5
#     2   8   8   8   2
#     4  12  26  42  56  96 128 182 222 252 350 396
#     4  10  21  41  63  91 134 164 216 272 318 386
#     4  11  25  41  64  93 134 170 216 273 327 392
#     4   9  20  40  66  97 121 169 217 266 328 380
#     4   8  20  38  60  84 124 172 200 258 322 378
#
# _framework density 20.607806
#
# number of rings (size 3 to 8) (size 9 to 14) (size 15 to 20)
#    0.000    2.286    0.000    3.000    4.000    6.857 
#    5.143    6.429    0.000    0.000    0.000    0.000 
#    0.000    0.000    0.000    0.000    0.000    0.000 
#
# Total GULP energy -155898.760586 kJ/mol
# GULP energy per Si atom -5567.812878 kJ/mol
# Density = 2.056090 g / cm^3
# Si number density = 20.607806 Si / 1000 Ang^3
#
#
#
# Elastic Constant Matrix: (Units=GPa)
#
#
# Indices 1 2 3 4 5 6 
#
# 1 162.9962 63.7111 54.5735 0.0000 0.0000 0.0000
# 2 63.7111 132.9509 72.2000 0.0000 0.0000 0.0000
# 3 54.5735 72.2000 132.5691 0.0000 0.0000 0.0000
# 4 0.0000 0.0000 0.0000 73.5050 0.0000 0.0000
# 5 0.0000 0.0000 0.0000 0.0000 -56.0762 0.0000
# 6 0.0000 0.0000 0.0000 0.0000 0.0000 29.5627
#
#
#
# Elastic Compliance Matrix: (Units=1/GPa)
#
#
# Indices 1 2 3 4 5 6 
#
# 1 0.007801 -0.002832 -0.001669 0.000000 0.000000 0.000000
# 2 -0.002832 0.011708 -0.005211 0.000000 0.000000 0.000000
# 3 -0.001669 -0.005211 0.011068 0.000000 0.000000 0.000000
# 4 0.000000 0.000000 0.000000 0.013605 0.000000 0.000000
# 5 0.000000 0.000000 0.000000 0.000000 -0.017833 0.000000
# 6 0.000000 0.000000 0.000000 0.000000 0.000000 0.033826
#
#
# Mechanical properties :
#
#
# Convention : Reuss Voigt Hill
#
# Bulk Modulus (GPa) = 89.65387 89.94283 89.79835
# Shear Modulus (GPa) = 60.01169 25.26706 42.63937
#
# Velocity S-wave (km/s) = 5.40223 3.50536 4.55366
# Velocity P-wave (km/s) = 9.08358 7.75391 8.44495
#
# Compressibility (1/GPa) = 0.01115401
#
# Stress axis : x y z
#
# Youngs Moduli (GPa) = 128.19169 85.40856 90.34837
#
# Poissons Ratio (x) = 0.24186 0.15079
# Poissons Ratio (y) = 0.36302 0.47080
# Poissons Ratio (z) = 0.21395 0.44506
#
# Static dielectric constant tensor:
#      x y z
#    x 1.725370 0.000000 0.000000 
#    y 0.000000 1.800050 0.000000 
#    z 0.000000 0.000000 1.835470 
# 
# From -- ./inp_files/29933.got.cif
#   From: 2010.05.17/outbox.cif.g08.bks.cpg/sg48_15_cif.got.tgz:29933.got - 2010.06.03 20:39:00.
