data_PCOD9390188
_publ_section_title
;
Structure prediction by ZEFSAII (Michael W. Deem and Ramdas Pophale) SiO2 
 PCOD9390188
Probable space group: P N N N
;
_chemical_formula_sum "Si O2"
_cell_formula_units_Z 52
_cell_length_a 8.758155
_cell_length_b 12.662397
_cell_length_c 24.132645
_cell_angle_alpha 90.000000
_cell_angle_beta 90.000000
_cell_angle_gamma 90.000000
_cell_volume 2676.291883
_symmetry_space_group_name_H-M "P N N N"
_symmetry_group_IT_number 48
_space_group.IT_coordinate_system_code '2'
_symmetry_cell_setting 'orthorhombic'
loop_
_space_group_symop_operation_xyz
x,y,z
1/2-x,1/2-y,z
x,1/2-y,1/2-z
1/2-x,y,1/2-z
-x,-y,-z
1/2+x,1/2+y,-z
-x,1/2+y,1/2+z
1/2+x,-y,1/2+z
loop_
_atom_site_type_symbol
_atom_site_label
_atom_site_fract_x
_atom_site_fract_y
_atom_site_fract_z
Si Si1 0.273843 0.492591 0.628658
Si Si2 0.728127 0.406275 0.875337
Si Si3 0.458575 0.082835 0.706053
Si Si4 0.534584 0.913075 0.454553
Si Si5 0.953657 0.938891 0.558550
Si Si6 0.750000 0.750000 0.985314
Si Si7 0.975233 0.677031 0.173169
O O1 0.180382 0.493303 0.687204
O O2 0.132276 0.479080 0.588889
O O3 0.397188 0.569116 0.599134
O O4 0.366333 0.382469 0.630857
O O5 0.617303 0.445036 0.825100
O O6 0.612638 0.367861 0.923115
O O7 0.829757 0.493934 0.906637
O O8 0.854471 0.329650 0.849694
O O9 0.474358 0.104622 0.771252
O O10 0.426760 0.203557 0.684950
O O11 0.639819 0.822872 0.478703
O O12 0.500000 0.000000 0.500000
O O13 0.866399 0.829374 0.546173
O O14 0.000000 0.000000 0.500000
#
# Coordination Sequence:
#
# PCOD9390188 Si02
#       7
#     8   8   8   8   8   4   8
#     4  10  21  34  56  78 122 154 191 250 292 366
#     4  10  21  34  56  79 127 155 196 251 288 369
#     4  10  20  33  54  81 128 158 198 238 299 370
#     4  11  22  40  59  87 122 155 208 250 301 371
#     4  11  22  40  56  86 120 155 216 250 301 370
#     4  12  24  38  68  78 124 170 200 268 314 340
#     4  10  20  33  52  90 118 162 201 234 297 379
#
# _framework density 19.429869
#
# number of rings (size 3 to 8) (size 9 to 14) (size 15 to 20)
#    0.000    1.538    3.077    1.846    4.308    3.692 
#    0.000    2.308    0.000    0.000    0.000    8.615 
#    9.231    0.000    0.000    0.000    0.000    0.000 
#
# Total GULP energy -289572.540909 kJ/mol
# GULP energy per Si atom -5568.702710 kJ/mol
# Density = 1.938565 g / cm^3
# Si number density = 19.429869 Si / 1000 Ang^3
#
#
#
# Elastic Constant Matrix: (Units=GPa)
#
#
# Indices 1 2 3 4 5 6 
#
# 1 119.3471 15.0672 42.2850 0.0000 0.0000 0.0000
# 2 15.0672 41.3755 28.2156 0.0000 0.0000 0.0000
# 3 42.2850 28.2156 98.6503 0.0000 0.0000 0.0000
# 4 0.0000 0.0000 0.0000 20.6472 0.0000 0.0000
# 5 0.0000 0.0000 0.0000 0.0000 43.4609 0.0000
# 6 0.0000 0.0000 0.0000 0.0000 0.0000 41.5376
#
#
#
# Elastic Compliance Matrix: (Units=1/GPa)
#
#
# Indices 1 2 3 4 5 6 
#
# 1 0.009905 -0.000884 -0.003993 0.000000 0.000000 0.000000
# 2 -0.000884 0.030104 -0.008231 0.000000 0.000000 0.000000
# 3 -0.003993 -0.008231 0.014203 0.000000 0.000000 0.000000
# 4 0.000000 0.000000 0.000000 0.048433 0.000000 0.000000
# 5 0.000000 0.000000 0.000000 0.000000 0.023009 0.000000
# 6 0.000000 0.000000 0.000000 0.000000 0.000000 0.024075
#
#
# Mechanical properties :
#
#
# Convention : Reuss Voigt Hill
#
# Bulk Modulus (GPa) = 35.72026 47.83425 41.77725
# Shear Modulus (GPa) = 26.98666 32.71615 29.85141
#
# Velocity S-wave (km/s) = 3.73087 4.10787 3.92390
# Velocity P-wave (km/s) = 6.08139 6.86818 6.48673
#
# Compressibility (1/GPa) = 0.02799532
#
# Stress axis : x y z
#
# Youngs Moduli (GPa) = 100.95691 33.21808 70.40984
#
# Poissons Ratio (x) = 0.02937 0.28113
# Poissons Ratio (y) = 0.08926 0.57956
# Poissons Ratio (z) = 0.40310 0.27343
#
# Static dielectric constant tensor:
#      x y z
#    x 1.732250 0.000000 0.000000 
#    y 0.000000 1.673670 0.000000 
#    z 0.000000 0.000000 1.762830 
# 
# From -- ./inp_files/37512.got.cif
#   From: 2010.05.17/outbox.cif.g08.bks.cpg/sg48_19_cif.got.tgz:37512.got - 2010.06.03 20:39:00.
