data_PCOD9390157
_publ_section_title
;
Structure prediction by ZEFSAII (Michael W. Deem and Ramdas Pophale) SiO2 
 PCOD9390157
Probable space group: P N N N
;
_chemical_formula_sum "Si O2"
_cell_formula_units_Z 64
_cell_length_a 12.113456
_cell_length_b 17.854365
_cell_length_c 14.286211
_cell_angle_alpha 90.000000
_cell_angle_beta 90.000000
_cell_angle_gamma 90.000000
_cell_volume 3089.794069
_symmetry_space_group_name_H-M "P N N N"
_symmetry_group_IT_number 48
_space_group.IT_coordinate_system_code '2'
_symmetry_cell_setting 'orthorhombic'
loop_
_space_group_symop_operation_xyz
x,y,z
1/2-x,1/2-y,z
x,1/2-y,1/2-z
1/2-x,y,1/2-z
-x,-y,-z
1/2+x,1/2+y,-z
-x,1/2+y,1/2+z
1/2+x,-y,1/2+z
loop_
_atom_site_type_symbol
_atom_site_label
_atom_site_fract_x
_atom_site_fract_y
_atom_site_fract_z
Si Si1 0.399834 0.810767 0.131635
Si Si2 0.629150 0.419892 0.266181
Si Si3 0.993352 0.171706 0.422600
Si Si4 0.493671 0.046002 0.845352
Si Si5 0.597526 0.517225 0.926570
Si Si6 0.154527 0.048317 0.473088
Si Si7 0.538440 0.339924 0.099337
Si Si8 0.643371 0.353221 0.891197
O O1 0.472986 0.871464 0.186165
O O2 0.409744 0.722463 0.152419
O O3 0.272206 0.836728 0.129578
O O4 0.442904 0.822246 0.025774
O O5 0.750000 0.452086 0.250000
O O6 0.592020 0.375512 0.359248
O O7 0.544756 0.489405 0.265462
O O8 0.619233 0.360657 0.182986
O O9 0.107699 0.126129 0.430704
O O10 0.005596 0.256299 0.389007
O O11 0.595265 0.012444 0.905842
O O12 0.395122 0.044910 0.922396
O O13 0.716418 0.533375 0.972661
O O14 0.557378 0.597843 0.889008
O O15 0.616175 0.439930 0.868477
O O16 0.500000 0.500000 0.000000
O O17 0.604977 0.347214 0.000941
#
# Coordination Sequence:
#
# PCOD9390157 Si02
#       8
#     8   8   8   8   8   8   8   8
#     4   9  15  30  55  80 103 129 178 238 271 313
#     4  11  22  32  52  79 114 152 184 223 272 343
#     4   9  19  33  50  76 108 150 184 218 269 327
#     4   9  18  31  53  78 107 140 184 226 276 325
#     4  10  20  31  51  76 109 140 176 233 280 326
#     4   9  17  32  54  75 103 142 187 234 268 315
#     4  10  21  33  46  77 115 146 180 214 277 339
#     4   9  17  29  53  80 104 132 173 231 284 311
#
# _framework density 20.713353999999999
#
# number of rings (size 3 to 8) (size 9 to 14) (size 15 to 20)
#    0.000    2.500    1.250    1.875    3.500    2.500 
#    0.000    2.500    0.000    3.750    0.000    2.625 
#    0.000    0.000    0.000    0.000    0.000    0.000 
#
# Total GULP energy -356624.922995 kJ/mol
# GULP energy per Si atom -5572.264422 kJ/mol
# Density = 2.066621 g / cm^3
# Si number density = 20.713354 Si / 1000 Ang^3
#
#
#
# Elastic Constant Matrix: (Units=GPa)
#
#
# Indices 1 2 3 4 5 6 
#
# 1 113.8589 42.1638 18.2594 0.0000 0.0000 0.0000
# 2 42.1638 187.6244 25.0150 0.0000 0.0000 0.0000
# 3 18.2594 25.0150 46.7851 0.0000 0.0000 0.0000
# 4 0.0000 0.0000 0.0000 33.7421 0.0000 0.0000
# 5 0.0000 0.0000 0.0000 0.0000 7.2958 0.0000
# 6 0.0000 0.0000 0.0000 0.0000 0.0000 28.1683
#
#
#
# Elastic Compliance Matrix: (Units=1/GPa)
#
#
# Indices 1 2 3 4 5 6 
#
# 1 0.009930 -0.001846 -0.002888 0.000000 0.000000 0.000000
# 2 -0.001846 0.006082 -0.002531 0.000000 0.000000 0.000000
# 3 -0.002888 -0.002531 0.023855 0.000000 0.000000 0.000000
# 4 0.000000 0.000000 0.000000 0.029637 0.000000 0.000000
# 5 0.000000 0.000000 0.000000 0.000000 0.137065 0.000000
# 6 0.000000 0.000000 0.000000 0.000000 0.000000 0.035501
#
#
# Mechanical properties :
#
#
# Convention : Reuss Voigt Hill
#
# Bulk Modulus (GPa) = 39.47108 57.68275 48.57692
# Shear Modulus (GPa) = 18.86460 31.36325 25.11393
#
# Velocity S-wave (km/s) = 3.02113 3.89544 3.48580
# Velocity P-wave (km/s) = 5.59168 6.93838 6.30111
#
# Compressibility (1/GPa) = 0.02533500
#
# Stress axis : x y z
#
# Youngs Moduli (GPa) = 100.70783 164.41350 41.91990
#
# Poissons Ratio (x) = 0.30357 0.12107
# Poissons Ratio (y) = 0.18595 0.10612
# Poissons Ratio (z) = 0.29086 0.41620
#
# Static dielectric constant tensor:
#      x y z
#    x 1.712600 0.000000 0.000000 
#    y 0.000000 1.809370 0.000000 
#    z 0.000000 0.000000 1.793620 
# 
# From -- ./inp_files/31244.got.cif
#   From: 2010.05.17/outbox.cif.g08.bks.cpg/sg48_16_cif.got.tgz:31244.got - 2010.06.03 20:39:00.
