data_PCOD9390719
_publ_section_title
;
Structure prediction by ZEFSAII (Michael W. Deem and Ramdas Pophale) SiO2 
 PCOD9390719
Probable space group: P N N N
;
_chemical_formula_sum "Si O2"
_cell_formula_units_Z 64
_cell_length_a 14.723660
_cell_length_b 24.146548
_cell_length_c 8.356357
_cell_angle_alpha 90.000000
_cell_angle_beta 90.000000
_cell_angle_gamma 90.000000
_cell_volume 2970.898526
_symmetry_space_group_name_H-M "P N N N"
_symmetry_group_IT_number 48
_space_group.IT_coordinate_system_code '2'
_symmetry_cell_setting 'orthorhombic'
loop_
_space_group_symop_operation_xyz
x,y,z
1/2-x,1/2-y,z
x,1/2-y,1/2-z
1/2-x,y,1/2-z
-x,-y,-z
1/2+x,1/2+y,-z
-x,1/2+y,1/2+z
1/2+x,-y,1/2+z
loop_
_atom_site_type_symbol
_atom_site_label
_atom_site_fract_x
_atom_site_fract_y
_atom_site_fract_z
Si Si1 0.049510 0.584861 0.732873
Si Si2 0.560507 0.289851 0.907342
Si Si3 0.940874 0.177741 0.458975
Si Si4 0.468699 0.384702 0.737566
Si Si5 0.084166 0.965031 0.079887
Si Si6 0.842073 0.519221 0.151656
Si Si7 0.242973 0.816345 0.933623
Si Si8 0.841814 0.553835 0.781408
O O1 0.060383 0.647162 0.791019
O O2 0.102629 0.574466 0.568105
O O3 0.091980 0.534525 0.836736
O O4 0.940479 0.577727 0.737634
O O5 0.571682 0.250000 0.750000
O O6 0.483970 0.335583 0.866696
O O7 0.539177 0.242775 0.038647
O O8 0.653752 0.319781 0.956780
O O9 0.011439 0.144940 0.570111
O O10 0.837328 0.167367 0.519792
O O11 0.546943 0.429106 0.774959
O O12 0.382227 0.424830 0.736088
O O13 0.160764 0.003642 0.151485
O O14 0.000000 0.000000 0.000000
O O15 0.750000 0.506540 0.250000
O O16 0.840367 0.534927 0.965062
O O17 0.250000 0.750000 0.914781
O O18 0.250000 0.838930 0.750000
O O19 0.750000 0.588076 0.750000
#
# Coordination Sequence:
#
# PCOD9390719 Si02
#       8
#     8   8   8   8   8   8   8   8
#     4  11  22  41  62  91 132 166 214 272 330 405
#     4   9  21  39  64  90 128 174 228 267 329 397
#     4  10  21  38  63  90 127 176 211 269 330 392
#     4  11  21  40  61  90 125 170 215 273 326 393
#     4  10  21  38  60  86 127 163 213 258 324 386
#     4  12  24  41  65  92 131 172 221 276 344 405
#     4   9  19  36  56  87 128 167 217 264 316 390
#     4  11  22  39  63  90 127 171 217 268 330 405
#
# _framework density 21.542304000000001
#
# number of rings (size 3 to 8) (size 9 to 14) (size 15 to 20)
#    0.000    1.625    3.750    1.875    3.500    6.250 
#    4.500    0.000    0.000    3.375    0.000    0.000 
#    0.000    0.000    0.000    0.000    0.000    0.000 
#
# Total GULP energy -356386.878316 kJ/mol
# GULP energy per Si atom -5568.544974 kJ/mol
# Density = 2.149327 g / cm^3
# Si number density = 21.542304 Si / 1000 Ang^3
#
#
#
# Elastic Constant Matrix: (Units=GPa)
#
#
# Indices 1 2 3 4 5 6 
#
# 1 95.1686 34.7302 13.4942 0.0000 0.0000 0.0000
# 2 34.7302 93.4182 19.0593 0.0000 0.0000 0.0000
# 3 13.4942 19.0593 67.5180 0.0000 0.0000 0.0000
# 4 0.0000 0.0000 0.0000 41.0289 0.0000 0.0000
# 5 0.0000 0.0000 0.0000 0.0000 20.7222 0.0000
# 6 0.0000 0.0000 0.0000 0.0000 0.0000 15.1778
#
#
#
# Elastic Compliance Matrix: (Units=1/GPa)
#
#
# Indices 1 2 3 4 5 6 
#
# 1 0.012253 -0.004304 -0.001234 0.000000 0.000000 0.000000
# 2 -0.004304 0.012870 -0.002773 0.000000 0.000000 0.000000
# 3 -0.001234 -0.002773 0.015840 0.000000 0.000000 0.000000
# 4 0.000000 0.000000 0.000000 0.024373 0.000000 0.000000
# 5 0.000000 0.000000 0.000000 0.000000 0.048257 0.000000
# 6 0.000000 0.000000 0.000000 0.000000 0.000000 0.065886
#
#
# Mechanical properties :
#
#
# Convention : Reuss Voigt Hill
#
# Bulk Modulus (GPa) = 41.08057 43.40803 42.24430
# Shear Modulus (GPa) = 24.48396 27.97385 26.22890
#
# Velocity S-wave (km/s) = 3.37494 3.60745 3.49313
# Velocity P-wave (km/s) = 5.85645 6.12744 5.99348
#
# Compressibility (1/GPa) = 0.02434241
#
# Stress axis : x y z
#
# Youngs Moduli (GPa) = 81.61146 77.69853 63.13021
#
# Poissons Ratio (x) = 0.33438 0.07791
# Poissons Ratio (y) = 0.35122 0.17506
# Poissons Ratio (z) = 0.10072 0.21545
#
# Static dielectric constant tensor:
#      x y z
#    x 1.842860 0.000000 0.000000 
#    y 0.000000 1.839610 0.000000 
#    z 0.000000 0.000000 1.918110 
# 
# From -- ./inp_files/13278.got.cif
#   From: 2010.05.17/outbox.cif.g08.bks.cpg/sg48_7_cif.got.tgz:13278.got - 2010.06.03 20:39:00.
