data_PCOD9390593
_publ_section_title
;
Structure prediction by ZEFSAII (Michael W. Deem and Ramdas Pophale) SiO2 
 PCOD9390593
Probable space group: P N N N
;
_chemical_formula_sum "Si O2"
_cell_formula_units_Z 32
_cell_length_a 14.247855
_cell_length_b 5.407569
_cell_length_c 16.818886
_cell_angle_alpha 90.000000
_cell_angle_beta 90.000000
_cell_angle_gamma 90.000000
_cell_volume 1295.832247
_symmetry_space_group_name_H-M "P N N N"
_symmetry_group_IT_number 48
_space_group.IT_coordinate_system_code '2'
_symmetry_cell_setting 'orthorhombic'
loop_
_space_group_symop_operation_xyz
x,y,z
1/2-x,1/2-y,z
x,1/2-y,1/2-z
1/2-x,y,1/2-z
-x,-y,-z
1/2+x,1/2+y,-z
-x,1/2+y,1/2+z
1/2+x,-y,1/2+z
loop_
_atom_site_type_symbol
_atom_site_label
_atom_site_fract_x
_atom_site_fract_y
_atom_site_fract_z
Si Si1 0.581660 0.927884 0.674689
Si Si2 0.648583 0.886082 0.963366
Si Si3 0.812089 0.000481 0.366995
Si Si4 0.435915 0.250000 0.750000
Si Si5 0.750000 0.250000 0.646228
O O1 0.567553 0.750000 0.750000
O O2 0.583467 0.789180 0.590072
O O3 0.501728 0.132713 0.682758
O O4 0.684332 0.048911 0.687739
O O5 0.750000 0.750000 0.969763
O O6 0.673297 0.118745 0.909193
O O7 0.626669 0.974041 0.052186
O O8 0.750000 0.750000 0.364197
O O9 0.874777 0.966645 0.289134
O O10 0.750000 0.250000 0.370023
#
# Coordination Sequence:
#
# PCOD9390593 Si02
#       5
#     8   8   8   4   4
#     4  11  25  42  67 113 155 198 249 315 394 464
#     4   9  20  41  74 104 144 197 258 308 379 458
#     4  11  26  51  81 106 145 205 268 321 381 454
#     4  12  29  45  72 110 158 194 258 327 393 458
#     4  10  20  43  70 102 145 200 246 308 373 466
#
# _framework density 24.694554
#
# number of rings (size 3 to 8) (size 9 to 14) (size 15 to 20)
#    0.000    1.500    1.250    1.875    3.500   14.000 
#    0.000    5.000    0.000    0.000    0.000    0.000 
#    0.000    0.000    0.000    0.000    0.000    0.000 
#
# Total GULP energy -178990.406976 kJ/mol
# GULP energy per Si atom -5593.450218 kJ/mol
# Density = 2.463835 g / cm^3
# Si number density = 24.694554 Si / 1000 Ang^3
#
#
#
# Elastic Constant Matrix: (Units=GPa)
#
#
# Indices 1 2 3 4 5 6 
#
# 1 66.6082 48.7192 62.8245 0.0000 0.0000 0.0000
# 2 48.7192 135.9610 51.0213 0.0000 0.0000 0.0000
# 3 62.8245 51.0213 128.7496 0.0000 0.0000 0.0000
# 4 0.0000 0.0000 0.0000 21.7505 0.0000 0.0000
# 5 0.0000 0.0000 0.0000 0.0000 -8.5939 0.0000
# 6 0.0000 0.0000 0.0000 0.0000 0.0000 35.7690
#
#
#
# Elastic Compliance Matrix: (Units=1/GPa)
#
#
# Indices 1 2 3 4 5 6 
#
# 1 0.032207 -0.006629 -0.013089 0.000000 0.000000 0.000000
# 2 -0.006629 0.010004 -0.000730 0.000000 0.000000 0.000000
# 3 -0.013089 -0.000730 0.014443 0.000000 0.000000 0.000000
# 4 0.000000 0.000000 0.000000 0.045976 0.000000 0.000000
# 5 0.000000 0.000000 0.000000 0.000000 -0.116362 0.000000
# 6 0.000000 0.000000 0.000000 0.000000 0.000000 0.027957
#
#
# Mechanical properties :
#
#
# Convention : Reuss Voigt Hill
#
# Bulk Modulus (GPa) = 63.45532 72.93876 68.19704
# Shear Modulus (GPa) = 82.81723 21.03538 51.92631
#
# Velocity S-wave (km/s) = 5.79737 2.92177 4.59054
# Velocity P-wave (km/s) = 8.40026 6.40178 7.46817
#
# Compressibility (1/GPa) = 0.01575912
#
# Stress axis : x y z
#
# Youngs Moduli (GPa) = 31.04905 99.95658 69.23771
#
# Poissons Ratio (x) = 0.66262 0.90623
# Poissons Ratio (y) = 0.20583 0.05053
# Poissons Ratio (z) = 0.40639 0.07295
#
# Static dielectric constant tensor:
#      x y z
#    x 2.002660 0.000000 0.000000 
#    y 0.000000 2.021450 0.000000 
#    z 0.000000 0.000000 2.019110 
# 
# From -- ./inp_files/31345.got.cif
#   From: 2010.05.17/outbox.cif.g08.bks.cpg/sg48_16_cif.got.tgz:31345.got - 2010.06.03 20:39:00.
