data_PCOD9390332
_publ_section_title
;
Structure prediction by ZEFSAII (Michael W. Deem and Ramdas Pophale) SiO2 
 PCOD9390332
Probable space group: P N N N
;
_chemical_formula_sum "Si O2"
_cell_formula_units_Z 28
_cell_length_a 23.753156
_cell_length_b 9.332855
_cell_length_c 4.760084
_cell_angle_alpha 90.000000
_cell_angle_beta 90.000000
_cell_angle_gamma 90.000000
_cell_volume 1055.238083
_symmetry_space_group_name_H-M "P N N N"
_symmetry_group_IT_number 48
_space_group.IT_coordinate_system_code '2'
_symmetry_cell_setting 'orthorhombic'
loop_
_space_group_symop_operation_xyz
x,y,z
1/2-x,1/2-y,z
x,1/2-y,1/2-z
1/2-x,y,1/2-z
-x,-y,-z
1/2+x,1/2+y,-z
-x,1/2+y,1/2+z
1/2+x,-y,1/2+z
loop_
_atom_site_type_symbol
_atom_site_label
_atom_site_fract_x
_atom_site_fract_y
_atom_site_fract_z
Si Si1 0.342639 0.250000 0.250000
Si Si2 0.975337 0.342703 0.960427
Si Si3 0.804601 0.485630 0.065497
Si Si4 0.373135 0.546964 0.079981
O O1 0.308076 0.345924 0.474924
O O2 0.378333 0.375098 0.109253
O O3 0.014062 0.250000 0.750000
O O4 0.924042 0.382421 0.742152
O O5 0.967591 0.250000 0.250000
O O6 0.000000 0.500000 0.000000
O O7 0.750000 0.460179 0.250000
O O8 0.857035 0.433254 0.258089
O O9 0.817376 0.416324 0.765020
#
# Coordination Sequence:
#
# PCOD9390332 Si02
#       4
#     4   8   8   8
#     4   8  22  33  64  96 150 188 256 302 375 444
#     4  12  28  52  82 113 151 200 256 326 394 482
#     4  10  20  36  61 104 152 197 254 314 373 442
#     4  10  22  40  64 101 149 191 249 311 384 443
#
# _framework density 26.534296999999999
#
# number of rings (size 3 to 8) (size 9 to 14) (size 15 to 20)
#    1.714    0.000    0.000    4.286    2.000    3.429 
#    0.000    0.000    0.000   12.857    0.000    0.000 
#    0.000    0.000    0.000    0.000    0.000    0.000 
#
# Total GULP energy -155896.480742 kJ/mol
# GULP energy per Si atom -5567.731455 kJ/mol
# Density = 2.647390 g / cm^3
# Si number density = 26.534297 Si / 1000 Ang^3
#
#
#
# Elastic Constant Matrix: (Units=GPa)
#
#
# Indices 1 2 3 4 5 6 
#
# 1 60.6013 18.8759 31.2176 0.0000 0.0000 0.0000
# 2 18.8759 142.9408 32.3198 0.0000 0.0000 0.0000
# 3 31.2176 32.3198 213.8992 0.0000 0.0000 0.0000
# 4 0.0000 0.0000 0.0000 32.0986 0.0000 0.0000
# 5 0.0000 0.0000 0.0000 0.0000 24.4397 0.0000
# 6 0.0000 0.0000 0.0000 0.0000 0.0000 13.8161
#
#
#
# Elastic Compliance Matrix: (Units=1/GPa)
#
#
# Indices 1 2 3 4 5 6 
#
# 1 0.018317 -0.001879 -0.002389 0.000000 0.000000 0.000000
# 2 -0.001879 0.007436 -0.000849 0.000000 0.000000 0.000000
# 3 -0.002389 -0.000849 0.005152 0.000000 0.000000 0.000000
# 4 0.000000 0.000000 0.000000 0.031154 0.000000 0.000000
# 5 0.000000 0.000000 0.000000 0.000000 0.040917 0.000000
# 6 0.000000 0.000000 0.000000 0.000000 0.000000 0.072380
#
#
# Mechanical properties :
#
#
# Convention : Reuss Voigt Hill
#
# Bulk Modulus (GPa) = 48.37790 64.69644 56.53717
# Shear Modulus (GPa) = 25.97655 36.40606 31.19130
#
# Velocity S-wave (km/s) = 3.13226 3.70812 3.43229
# Velocity P-wave (km/s) = 5.59939 6.53978 6.08777
#
# Compressibility (1/GPa) = 0.02067059
#
# Stress axis : x y z
#
# Youngs Moduli (GPa) = 54.59305 134.48030 194.09280
#
# Poissons Ratio (x) = 0.25264 0.46378
# Poissons Ratio (y) = 0.10256 0.16486
# Poissons Ratio (z) = 0.13045 0.11423
#
# Static dielectric constant tensor:
#      x y z
#    x 2.246440 0.000000 0.000000 
#    y 0.000000 2.252500 0.000000 
#    z 0.000000 0.000000 2.093440 
# 
# From -- ./inp_files/6188.got.cif
#   From: 2010.05.17/outbox.cif.g08.bks.cpg/sg48_4_cif.got.tgz:6188.got - 2010.06.03 20:39:00.
