data_PCOD9390849
_publ_section_title
;
Structure prediction by ZEFSAII (Michael W. Deem and Ramdas Pophale) SiO2 
 PCOD9390849
Probable space group: P N N N
;
_chemical_formula_sum "Si O2"
_cell_formula_units_Z 24
_cell_length_a 11.224851
_cell_length_b 11.755141
_cell_length_c 7.068398
_cell_angle_alpha 90.000000
_cell_angle_beta 90.000000
_cell_angle_gamma 90.000000
_cell_volume 932.673039
_symmetry_space_group_name_H-M "P N N N"
_symmetry_group_IT_number 48
_space_group.IT_coordinate_system_code '2'
_symmetry_cell_setting 'orthorhombic'
loop_
_space_group_symop_operation_xyz
x,y,z
1/2-x,1/2-y,z
x,1/2-y,1/2-z
1/2-x,y,1/2-z
-x,-y,-z
1/2+x,1/2+y,-z
-x,1/2+y,1/2+z
1/2+x,-y,1/2+z
loop_
_atom_site_type_symbol
_atom_site_label
_atom_site_fract_x
_atom_site_fract_y
_atom_site_fract_z
Si Si1 0.494711 0.642007 0.626103
Si Si2 0.375778 0.016067 0.603640
Si Si3 0.250000 0.460662 0.250000
Si Si4 0.069555 0.250000 0.750000
O O1 0.461583 0.750000 0.750000
O O2 0.401672 0.547013 0.699205
O O3 0.630965 0.608465 0.685745
O O4 0.495304 0.681202 0.408554
O O5 0.287935 0.974089 0.439912
O O6 0.358931 0.150468 0.641534
O O7 0.500000 0.000000 0.500000
#
# Coordination Sequence:
#
# PCOD9390849 Si02
#       4
#     8   8   4   4
#     4  11  22  40  65 103 140 187 243 290 365 424
#     4  10  22  40  63 103 136 185 238 295 365 426
#     4  10  21  40  64  99 148 173 244 312 345 428
#     4  12  22  37  70  97 142 188 238 299 358 422
#
# _framework density 25.732489999999999
#
# number of rings (size 3 to 8) (size 9 to 14) (size 15 to 20)
#    0.000    1.333    6.667    1.500    0.000    2.667 
#    0.000    0.000    0.000   16.000   17.333    2.333 
#    0.000    0.000    0.000    0.000    0.000    1.667 
#
# Total GULP energy -134019.517692 kJ/mol
# GULP energy per Si atom -5584.146571 kJ/mol
# Density = 2.567392 g / cm^3
# Si number density = 25.732490 Si / 1000 Ang^3
#
#
#
# Elastic Constant Matrix: (Units=GPa)
#
#
# Indices 1 2 3 4 5 6 
#
# 1 80.6174 33.2052 80.9654 0.0000 0.0000 0.0000
# 2 33.2052 85.4739 42.0629 0.0000 0.0000 0.0000
# 3 80.9654 42.0629 231.0321 0.0000 0.0000 0.0000
# 4 0.0000 0.0000 0.0000 63.0633 0.0000 0.0000
# 5 0.0000 0.0000 0.0000 0.0000 58.6569 0.0000
# 6 0.0000 0.0000 0.0000 0.0000 0.0000 43.7689
#
#
#
# Elastic Compliance Matrix: (Units=1/GPa)
#
#
# Indices 1 2 3 4 5 6 
#
# 1 0.020893 -0.004958 -0.006420 0.000000 0.000000 0.000000
# 2 -0.004958 0.014027 -0.000816 0.000000 0.000000 0.000000
# 3 -0.006420 -0.000816 0.006727 0.000000 0.000000 0.000000
# 4 0.000000 0.000000 0.000000 0.015857 0.000000 0.000000
# 5 0.000000 0.000000 0.000000 0.000000 0.017048 0.000000
# 6 0.000000 0.000000 0.000000 0.000000 0.000000 0.022847
#
#
# Mechanical properties :
#
#
# Convention : Reuss Voigt Hill
#
# Bulk Modulus (GPa) = 57.93662 78.84340 68.39001
# Shear Modulus (GPa) = 39.20314 49.15714 44.18014
#
# Velocity S-wave (km/s) = 3.90742 4.37546 4.14805
# Velocity P-wave (km/s) = 6.55142 7.49882 7.04107
#
# Compressibility (1/GPa) = 0.01726024
#
# Stress axis : x y z
#
# Youngs Moduli (GPa) = 47.86183 71.28995 148.65956
#
# Poissons Ratio (x) = 0.35343 0.95432
# Poissons Ratio (y) = 0.23728 0.12138
# Poissons Ratio (z) = 0.30725 0.05821
#
# Static dielectric constant tensor:
#      x y z
#    x 2.029390 0.000000 0.000000 
#    y 0.000000 2.032920 0.000000 
#    z 0.000000 0.000000 2.086860 
# 
# From -- ./inp_files/9807.got.cif
#   From: 2010.05.17/outbox.cif.g08.bks.cpg/sg48_5_cif.got.tgz:9807.got - 2010.06.03 20:39:00.
