data_PCOD9390796
_publ_section_title
;
Structure prediction by ZEFSAII (Michael W. Deem and Ramdas Pophale) SiO2 
 PCOD9390796
Probable space group: P N N N
;
_chemical_formula_sum "Si O2"
_cell_formula_units_Z 48
_cell_length_a 15.100401
_cell_length_b 17.852895
_cell_length_c 8.267668
_cell_angle_alpha 90.000000
_cell_angle_beta 90.000000
_cell_angle_gamma 90.000000
_cell_volume 2228.846500
_symmetry_space_group_name_H-M "P N N N"
_symmetry_group_IT_number 48
_space_group.IT_coordinate_system_code '2'
_symmetry_cell_setting 'orthorhombic'
loop_
_space_group_symop_operation_xyz
x,y,z
1/2-x,1/2-y,z
x,1/2-y,1/2-z
1/2-x,y,1/2-z
-x,-y,-z
1/2+x,1/2+y,-z
-x,1/2+y,1/2+z
1/2+x,-y,1/2+z
loop_
_atom_site_type_symbol
_atom_site_label
_atom_site_fract_x
_atom_site_fract_y
_atom_site_fract_z
Si Si1 0.615303 0.467298 0.655978
Si Si2 0.334996 0.708117 0.920590
Si Si3 0.308869 0.544105 0.002812
Si Si4 0.458485 0.110267 0.004050
Si Si5 0.156038 0.391693 0.683455
Si Si6 0.971402 0.772031 0.060607
O O1 0.624769 0.448842 0.844352
O O2 0.712154 0.467449 0.578997
O O3 0.557623 0.408141 0.554437
O O4 0.570748 0.548936 0.633919
O O5 0.250000 0.750000 0.001395
O O6 0.346447 0.750000 0.750000
O O7 0.312194 0.620860 0.904591
O O8 0.428651 0.709940 0.010978
O O9 0.329265 0.471225 0.899536
O O10 0.401415 0.095040 0.843506
O O11 0.446261 0.197575 0.040677
O O12 0.250000 0.360500 0.750000
O O13 0.101863 0.337436 0.562218
O O14 0.972778 0.750000 0.250000
#
# Coordination Sequence:
#
# PCOD9390796 Si02
#       6
#     8   8   8   8   8   8
#     4  10  22  40  66  95 126 174 220 276 342 396
#     4  11  26  42  66  97 132 174 217 283 353 409
#     4  11  23  42  64  94 132 170 222 278 337 417
#     4  10  21  39  64  92 127 169 222 279 328 410
#     4  11  23  40  65  95 130 180 226 277 339 406
#     4  10  23  41  63  97 130 174 226 276 337 401
#
# _framework density 21.535803999999999
#
# number of rings (size 3 to 8) (size 9 to 14) (size 15 to 20)
#    0.000    1.500    1.667    3.000    2.333   11.333 
#    0.000    0.000    0.000    2.000    0.000    0.000 
#    0.000    0.000    0.000    0.000    0.000    0.000 
#
# Total GULP energy -268246.019930 kJ/mol
# GULP energy per Si atom -5588.458749 kJ/mol
# Density = 2.148679 g / cm^3
# Si number density = 21.535804 Si / 1000 Ang^3
#
#
#
# Elastic Constant Matrix: (Units=GPa)
#
#
# Indices 1 2 3 4 5 6 
#
# 1 100.4077 64.8550 24.4539 0.0000 0.0000 0.0000
# 2 64.8550 167.0197 35.6403 0.0000 0.0000 0.0000
# 3 24.4539 35.6403 40.5127 0.0000 0.0000 0.0000
# 4 0.0000 0.0000 0.0000 17.4827 0.0000 0.0000
# 5 0.0000 0.0000 0.0000 0.0000 34.4891 0.0000
# 6 0.0000 0.0000 0.0000 0.0000 0.0000 5.3557
#
#
#
# Elastic Compliance Matrix: (Units=1/GPa)
#
#
# Indices 1 2 3 4 5 6 
#
# 1 0.013928 -0.004450 -0.004492 0.000000 0.000000 0.000000
# 2 -0.004450 0.008793 -0.005049 0.000000 0.000000 0.000000
# 3 -0.004492 -0.005049 0.031837 0.000000 0.000000 0.000000
# 4 0.000000 0.000000 0.000000 0.057199 0.000000 0.000000
# 5 0.000000 0.000000 0.000000 0.000000 0.028995 0.000000
# 6 0.000000 0.000000 0.000000 0.000000 0.000000 0.186715
#
#
# Mechanical properties :
#
#
# Convention : Reuss Voigt Hill
#
# Bulk Modulus (GPa) = 37.62946 61.98204 49.80575
# Shear Modulus (GPa) = 13.72466 23.66491 18.69479
#
# Velocity S-wave (km/s) = 2.52721 3.31851 2.94951
# Velocity P-wave (km/s) = 5.10163 6.59748 5.89718
#
# Compressibility (1/GPa) = 0.02657492
#
# Stress axis : x y z
#
# Youngs Moduli (GPa) = 71.80024 113.73235 31.40961
#
# Poissons Ratio (x) = 0.50605 0.14111
# Poissons Ratio (y) = 0.31948 0.15860
# Poissons Ratio (z) = 0.32256 0.57427
#
# Static dielectric constant tensor:
#      x y z
#    x 1.844430 0.000000 0.000000 
#    y 0.000000 1.811820 0.000000 
#    z 0.000000 0.000000 1.767430 
# 
# From -- ./inp_files/12763.got.cif
#   From: 2010.05.17/outbox.cif.g08.bks.cpg/sg48_7_cif.got.tgz:12763.got - 2010.06.03 20:39:00.
