data_PCOD9390533
_publ_section_title
;
Structure prediction by ZEFSAII (Michael W. Deem and Ramdas Pophale) SiO2 
 PCOD9390533
Probable space group: P N N N
;
_chemical_formula_sum "Si O2"
_cell_formula_units_Z 40
_cell_length_a 17.996673
_cell_length_b 8.804952
_cell_length_c 12.115885
_cell_angle_alpha 90.000000
_cell_angle_beta 90.000000
_cell_angle_gamma 90.000000
_cell_volume 1919.881222
_symmetry_space_group_name_H-M "P N N N"
_symmetry_group_IT_number 48
_space_group.IT_coordinate_system_code '2'
_symmetry_cell_setting 'orthorhombic'
loop_
_space_group_symop_operation_xyz
x,y,z
1/2-x,1/2-y,z
x,1/2-y,1/2-z
1/2-x,y,1/2-z
-x,-y,-z
1/2+x,1/2+y,-z
-x,1/2+y,1/2+z
1/2+x,-y,1/2+z
loop_
_atom_site_type_symbol
_atom_site_label
_atom_site_fract_x
_atom_site_fract_y
_atom_site_fract_z
Si Si1 0.914192 0.722589 0.878754
Si Si2 0.045213 0.334682 0.601302
Si Si3 0.250000 0.250000 0.033179
Si Si4 0.629131 0.250000 0.250000
Si Si5 0.295879 0.017039 0.640718
Si Si6 0.012765 0.490415 0.808564
O O1 0.930288 0.750000 0.750000
O O2 0.827225 0.744834 0.900848
O O3 0.945012 0.551109 0.882481
O O4 0.958841 0.823718 0.968736
O O5 0.125954 0.397996 0.630998
O O6 0.992999 0.431306 0.683903
O O7 0.043520 0.160713 0.636997
O O8 0.251483 0.404904 0.959567
O O9 0.678737 0.341550 0.160130
O O10 0.575642 0.378444 0.302566
O O11 0.250000 0.054983 0.750000
#
# Coordination Sequence:
#
# PCOD9390533 Si02
#       6
#     8   8   4   4   8   8
#     4  11  22  40  62  88 124 166 213 257 298 379
#     4   9  22  38  65  93 124 163 208 250 326 373
#     4  10  24  38  62  88 118 181 213 242 310 384
#     4  10  21  34  60 101 128 142 204 266 326 357
#     4  10  21  37  61  91 128 160 197 264 318 377
#     4  10  20  40  61  98 126 153 204 268 315 372
#
# _framework density 20.834620999999999
#
# number of rings (size 3 to 8) (size 9 to 14) (size 15 to 20)
#    0.000    2.000    1.000    1.500   19.600    0.800 
#    3.600    0.000    0.000    0.000    0.000    0.000 
#    0.000    0.000    0.000    0.000    0.000    0.000 
#
# Total GULP energy -222682.982302 kJ/mol
# GULP energy per Si atom -5567.074558 kJ/mol
# Density = 2.078720 g / cm^3
# Si number density = 20.834621 Si / 1000 Ang^3
#
#
#
# Elastic Constant Matrix: (Units=GPa)
#
#
# Indices 1 2 3 4 5 6 
#
# 1 33.7584 22.8753 21.8466 0.0000 0.0000 0.0000
# 2 22.8753 130.1435 46.3581 0.0000 0.0000 0.0000
# 3 21.8466 46.3581 135.6856 0.0000 0.0000 0.0000
# 4 0.0000 0.0000 0.0000 -7.6262 0.0000 0.0000
# 5 0.0000 0.0000 0.0000 0.0000 27.5706 0.0000
# 6 0.0000 0.0000 0.0000 0.0000 0.0000 30.5927
#
#
#
# Elastic Compliance Matrix: (Units=1/GPa)
#
#
# Indices 1 2 3 4 5 6 
#
# 1 0.035507 -0.004787 -0.004081 0.000000 0.000000 0.000000
# 2 -0.004787 0.009394 -0.002439 0.000000 0.000000 0.000000
# 3 -0.004081 -0.002439 0.008860 0.000000 0.000000 0.000000
# 4 0.000000 0.000000 0.000000 -0.131126 0.000000 0.000000
# 5 0.000000 0.000000 0.000000 0.000000 0.036270 0.000000
# 6 0.000000 0.000000 0.000000 0.000000 0.000000 0.032688
#
#
# Mechanical properties :
#
#
# Convention : Reuss Voigt Hill
#
# Bulk Modulus (GPa) = 32.10595 53.52751 42.81673
# Shear Modulus (GPa) = 203.32864 24.00792 113.66828
#
# Velocity S-wave (km/s) = 9.88957 3.39825 7.39431
# Velocity P-wave (km/s) = 12.07676 6.41443 9.66936
#
# Compressibility (1/GPa) = 0.03114688
#
# Stress axis : x y z
#
# Youngs Moduli (GPa) = 28.16311 106.45111 112.86263
#
# Poissons Ratio (x) = 0.50962 0.46064
# Poissons Ratio (y) = 0.13483 0.27524
# Poissons Ratio (z) = 0.11494 0.25961
#
# Static dielectric constant tensor:
#      x y z
#    x 1.749530 0.000000 0.000000 
#    y 0.000000 1.858440 0.000000 
#    z 0.000000 0.000000 1.858610 
# 
# From -- ./inp_files/22740.got.cif
#   From: 2010.05.17/outbox.cif.g08.bks.cpg/sg48_12_cif.got.tgz:22740.got - 2010.06.03 20:39:00.
