data_PCOD9390424
_publ_section_title
;
Structure prediction by ZEFSAII (Michael W. Deem and Ramdas Pophale) SiO2 
 PCOD9390424
Probable space group: P N N N
;
_chemical_formula_sum "Si O2"
_cell_formula_units_Z 64
_cell_length_a 8.840722
_cell_length_b 11.523857
_cell_length_c 30.409389
_cell_angle_alpha 90.000000
_cell_angle_beta 90.000000
_cell_angle_gamma 90.000000
_cell_volume 3098.084714
_symmetry_space_group_name_H-M "P N N N"
_symmetry_group_IT_number 48
_space_group.IT_coordinate_system_code '2'
_symmetry_cell_setting 'orthorhombic'
loop_
_space_group_symop_operation_xyz
x,y,z
1/2-x,1/2-y,z
x,1/2-y,1/2-z
1/2-x,y,1/2-z
-x,-y,-z
1/2+x,1/2+y,-z
-x,1/2+y,1/2+z
1/2+x,-y,1/2+z
loop_
_atom_site_type_symbol
_atom_site_label
_atom_site_fract_x
_atom_site_fract_y
_atom_site_fract_z
Si Si1 0.926882 0.771169 0.069839
Si Si2 0.194148 0.122690 0.699846
Si Si3 0.417843 0.900483 0.912477
Si Si4 0.573927 0.393183 0.640538
Si Si5 0.103583 0.188749 0.120265
Si Si6 0.188322 0.623380 0.661187
Si Si7 0.336607 0.550636 0.084683
Si Si8 0.639244 0.351615 0.504451
O O1 0.750000 0.750000 0.071336
O O2 0.005686 0.708573 0.111007
O O3 0.996793 0.899224 0.074852
O O4 0.996777 0.711659 0.026524
O O5 0.250000 0.250000 0.681837
O O6 0.250000 0.124458 0.750000
O O7 0.014470 0.115000 0.687059
O O8 0.263825 0.000033 0.682199
O O9 0.510326 0.782326 0.907370
O O10 0.259715 0.885634 0.887609
O O11 0.508460 0.992783 0.883558
O O12 0.400394 0.931439 0.963255
O O13 0.752622 0.401061 0.629239
O O14 0.250000 0.250000 0.140233
O O15 0.990598 0.137010 0.156505
O O16 0.156403 0.085711 0.089306
O O17 0.250000 0.750000 0.678979
O O18 0.231496 0.589844 0.044179
O O19 0.750000 0.250000 0.486870
#
# Coordination Sequence:
#
# PCOD9390424 Si02
#       8
#     8   8   8   8   8   8   8   8
#     4  10  22  37  56  88 114 159 217 253 304 365
#     4  10  22  40  68 107 132 156 201 260 312 376
#     4  10  20  38  58  84 119 167 210 266 311 371
#     4  10  20  38  62  85 122 161 200 245 316 380
#     4  11  21  37  58  89 118 154 215 257 307 363
#     4   9  21  39  65  93 122 170 213 251 312 382
#     4  10  22  38  59  86 118 168 207 259 317 373
#     4   9  19  39  53  78 125 160 209 264 321 365
#
# _framework density 20.657924999999999
#
# number of rings (size 3 to 8) (size 9 to 14) (size 15 to 20)
#    0.000    2.125    1.250    2.625    5.250    2.750 
#    2.250    1.875    0.000    0.750    6.500    0.000 
#    0.000    0.000    0.000    0.000    0.000    0.000 
#
# Total GULP energy -356648.961903 kJ/mol
# GULP energy per Si atom -5572.640030 kJ/mol
# Density = 2.061091 g / cm^3
# Si number density = 20.657925 Si / 1000 Ang^3
#
#
#
# Elastic Constant Matrix: (Units=GPa)
#
#
# Indices 1 2 3 4 5 6 
#
# 1 115.5225 26.4086 17.7100 0.0000 0.0000 0.0000
# 2 26.4086 115.0848 16.8020 0.0000 0.0000 0.0000
# 3 17.7100 16.8020 73.5938 0.0000 0.0000 0.0000
# 4 0.0000 0.0000 0.0000 13.1414 0.0000 0.0000
# 5 0.0000 0.0000 0.0000 0.0000 8.2676 0.0000
# 6 0.0000 0.0000 0.0000 0.0000 0.0000 21.4327
#
#
#
# Elastic Compliance Matrix: (Units=1/GPa)
#
#
# Indices 1 2 3 4 5 6 
#
# 1 0.009366 -0.001883 -0.001824 0.000000 0.000000 0.000000
# 2 -0.001883 0.009367 -0.001686 0.000000 0.000000 0.000000
# 3 -0.001824 -0.001686 0.014412 0.000000 0.000000 0.000000
# 4 0.000000 0.000000 0.000000 0.076095 0.000000 0.000000
# 5 0.000000 0.000000 0.000000 0.000000 0.120954 0.000000
# 6 0.000000 0.000000 0.000000 0.000000 0.000000 0.046658
#
#
# Mechanical properties :
#
#
# Convention : Reuss Voigt Hill
#
# Bulk Modulus (GPa) = 44.72170 47.33803 46.02987
# Shear Modulus (GPa) = 16.94388 24.78703 20.86545
#
# Velocity S-wave (km/s) = 2.86704 3.46769 3.18157
# Velocity P-wave (km/s) = 5.71451 6.24484 5.98555
#
# Compressibility (1/GPa) = 0.02236051
#
# Stress axis : x y z
#
# Youngs Moduli (GPa) = 106.76440 106.75296 69.38721
#
# Poissons Ratio (x) = 0.20102 0.12657
# Poissons Ratio (y) = 0.20104 0.11695
# Poissons Ratio (z) = 0.19475 0.17993
#
# Static dielectric constant tensor:
#      x y z
#    x 1.808440 0.000000 0.000000 
#    y 0.000000 1.845400 0.000000 
#    z 0.000000 0.000000 1.754350 
# 
# From -- ./inp_files/38816.got.cif
#   From: 2010.05.17/outbox.cif.g08.bks.cpg/sg48_20_cif.got.tgz:38816.got - 2010.06.03 20:39:00.
