data_PCOD9390626
_publ_section_title
;
Structure prediction by ZEFSAII (Michael W. Deem and Ramdas Pophale) SiO2 
 PCOD9390626
Probable space group: P N N N
;
_chemical_formula_sum "Si O2"
_cell_formula_units_Z 60
_cell_length_a 11.633486
_cell_length_b 11.653276
_cell_length_c 21.925756
_cell_angle_alpha 90.000000
_cell_angle_beta 90.000000
_cell_angle_gamma 90.000000
_cell_volume 2972.435783
_symmetry_space_group_name_H-M "P N N N"
_symmetry_group_IT_number 48
_space_group.IT_coordinate_system_code '2'
_symmetry_cell_setting 'orthorhombic'
loop_
_space_group_symop_operation_xyz
x,y,z
1/2-x,1/2-y,z
x,1/2-y,1/2-z
1/2-x,y,1/2-z
-x,-y,-z
1/2+x,1/2+y,-z
-x,1/2+y,1/2+z
1/2+x,-y,1/2+z
loop_
_atom_site_type_symbol
_atom_site_label
_atom_site_fract_x
_atom_site_fract_y
_atom_site_fract_z
Si Si1 0.618387 0.302713 0.511886
Si Si2 0.376451 0.532992 0.280538
Si Si3 0.250000 0.250000 0.609563
Si Si4 0.008281 0.735117 0.143756
Si Si5 0.220349 0.381106 0.114843
Si Si6 0.184959 0.041643 0.518642
Si Si7 0.922911 0.426282 0.454712
Si Si8 0.948356 0.003884 0.845563
O O1 0.750000 0.250000 0.522479
O O2 0.551655 0.304280 0.576538
O O3 0.603317 0.428880 0.482204
O O4 0.561482 0.207143 0.468606
O O5 0.250000 0.559092 0.250000
O O6 0.441955 0.643180 0.308241
O O7 0.357818 0.442778 0.334889
O O8 0.446802 0.475468 0.225484
O O9 0.129473 0.261105 0.646401
O O10 0.210902 0.141945 0.567416
O O11 0.064020 0.859427 0.152429
O O12 0.250000 0.250000 0.128371
O O13 0.340068 0.449216 0.120461
O O14 0.175065 0.398059 0.046770
O O15 0.299642 0.967184 0.525170
O O16 0.000000 0.500000 0.500000
O O17 0.945696 0.461019 0.385355
#
# Coordination Sequence:
#
# PCOD9390626 Si02
#       8
#     8   8   4   8   8   8   8   8
#     4  10  21  34  64  97 129 164 222 281 337 399
#     4  10  25  42  65  98 127 171 227 284 338 397
#     4  12  26  40  65  94 145 180 220 270 340 414
#     4  12  23  42  63  99 134 174 220 280 332 401
#     4  11  22  38  64  97 136 170 211 277 346 405
#     4  11  20  38  60  94 134 174 215 271 339 399
#     4  11  18  35  61  92 124 169 219 269 339 400
#     4  11  22  38  64  86 126 174 217 270 337 403
#
# _framework density 20.185465000000001
#
# number of rings (size 3 to 8) (size 9 to 14) (size 15 to 20)
#    0.000    1.067    6.000    1.200    1.867    4.533 
#    2.400    1.333    0.000    0.000    0.000    0.000 
#    0.000    0.000    0.000    0.000    0.000    0.000 
#
# Total GULP energy -334359.240801 kJ/mol
# GULP energy per Si atom -5572.654013 kJ/mol
# Density = 2.013952 g / cm^3
# Si number density = 20.185465 Si / 1000 Ang^3
#
#
#
# Elastic Constant Matrix: (Units=GPa)
#
#
# Indices 1 2 3 4 5 6 
#
# 1 69.9341 40.1445 27.9728 0.0000 0.0000 0.0000
# 2 40.1445 111.9358 22.5419 0.0000 0.0000 0.0000
# 3 27.9728 22.5419 85.4088 0.0000 0.0000 0.0000
# 4 0.0000 0.0000 0.0000 38.3937 0.0000 0.0000
# 5 0.0000 0.0000 0.0000 0.0000 7.7051 0.0000
# 6 0.0000 0.0000 0.0000 0.0000 0.0000 20.1260
#
#
#
# Elastic Compliance Matrix: (Units=1/GPa)
#
#
# Indices 1 2 3 4 5 6 
#
# 1 0.019745 -0.006103 -0.004856 0.000000 0.000000 0.000000
# 2 -0.006103 0.011322 -0.000989 0.000000 0.000000 0.000000
# 3 -0.004856 -0.000989 0.013560 0.000000 0.000000 0.000000
# 4 0.000000 0.000000 0.000000 0.026046 0.000000 0.000000
# 5 0.000000 0.000000 0.000000 0.000000 0.129785 0.000000
# 6 0.000000 0.000000 0.000000 0.000000 0.000000 0.049687
#
#
# Mechanical properties :
#
#
# Convention : Reuss Voigt Hill
#
# Bulk Modulus (GPa) = 48.24017 49.84411 49.04214
# Shear Modulus (GPa) = 17.79668 25.01959 21.40813
#
# Velocity S-wave (km/s) = 2.97249 3.52445 3.26018
# Velocity P-wave (km/s) = 5.97757 6.42721 6.20646
#
# Compressibility (1/GPa) = 0.02072961
#
# Stress axis : x y z
#
# Youngs Moduli (GPa) = 50.64553 88.32503 73.74699
#
# Poissons Ratio (x) = 0.53909 0.35811
# Poissons Ratio (y) = 0.30911 0.07295
# Poissons Ratio (z) = 0.24593 0.08737
#
# Static dielectric constant tensor:
#      x y z
#    x 2.196140 0.000000 0.000000 
#    y 0.000000 1.861020 0.000000 
#    z 0.000000 0.000000 1.778160 
# 
# From -- ./inp_files/34212.got.cif
#   From: 2010.05.17/outbox.cif.g08.bks.cpg/sg48_18_cif.got.tgz:34212.got - 2010.06.03 20:39:00.
