data_PCOD9390018
_publ_section_title
;
Structure prediction by ZEFSAII (Michael W. Deem and Ramdas Pophale) SiO2 
 PCOD9390018
Probable space group: P N N N
;
_chemical_formula_sum "Si O2"
_cell_formula_units_Z 42
_cell_length_a 10.175143
_cell_length_b 22.483714
_cell_length_c 10.349383
_cell_angle_alpha 90.000000
_cell_angle_beta 90.000000
_cell_angle_gamma 90.000000
_cell_volume 2367.680149
_symmetry_space_group_name_H-M "P N N N"
_symmetry_group_IT_number 48
_space_group.IT_coordinate_system_code '2'
_symmetry_cell_setting 'orthorhombic'
loop_
_space_group_symop_operation_xyz
x,y,z
1/2-x,1/2-y,z
x,1/2-y,1/2-z
1/2-x,y,1/2-z
-x,-y,-z
1/2+x,1/2+y,-z
-x,1/2+y,1/2+z
1/2+x,-y,1/2+z
loop_
_atom_site_type_symbol
_atom_site_label
_atom_site_fract_x
_atom_site_fract_y
_atom_site_fract_z
Si Si1 0.437941 0.873399 0.512756
Si Si2 0.750000 0.750000 0.750000
Si Si3 0.870852 0.359957 0.003598
Si Si4 0.505934 0.751643 0.890499
Si Si5 0.594827 0.049345 0.237353
Si Si6 0.593835 0.438392 0.744059
O O1 0.285744 0.853516 0.511334
O O2 0.518591 0.813947 0.549404
O O3 0.450350 0.919847 0.629603
O O4 0.454586 0.907022 0.376614
O O5 0.645680 0.780056 0.845876
O O6 0.910884 0.391615 0.872007
O O7 0.933816 0.295768 0.015993
O O8 0.912234 0.402041 0.123267
O O9 0.433552 0.750000 0.750000
O O10 0.750000 0.032671 0.250000
O O11 0.500042 0.993801 0.213945
O O12 0.750000 0.455649 0.750000
#
# Coordination Sequence:
#
# PCOD9390018 Si02
#       6
#     8   2   8   8   8   8
#     4  10  20  35  60  82 111 140 186 230 273 326
#     4   8  20  36  50  82 116 136 180 228 252 354
#     4  10  20  35  60  82 111 140 186 230 273 326
#     4  10  19  37  56  83 105 139 180 223 280 318
#     4  10  19  36  55  82 107 150 193 227 262 327
#     4  10  22  38  52  85 116 148 182 228 276 326
#
# _framework density 17.738882
#
# number of rings (size 3 to 8) (size 9 to 14) (size 15 to 20)
#    0.571    1.524    1.905    1.714    0.000    1.524 
#   10.286    2.857    0.000    1.143    0.000    0.000 
#    0.000    0.000    0.000    0.000    0.000    0.000 
#
# Total GULP energy -233824.251395 kJ/mol
# GULP energy per Si atom -5567.244081 kJ/mol
# Density = 1.769851 g / cm^3
# Si number density = 17.738882 Si / 1000 Ang^3
#
#
#
# Elastic Constant Matrix: (Units=GPa)
#
#
# Indices 1 2 3 4 5 6 
#
# 1 32.1544 29.3429 5.9925 0.0000 0.0000 0.0000
# 2 29.3429 60.0983 -0.7461 0.0000 0.0000 0.0000
# 3 5.9925 -0.7461 76.9776 0.0000 0.0000 0.0000
# 4 0.0000 0.0000 0.0000 14.3148 0.0000 0.0000
# 5 0.0000 0.0000 0.0000 0.0000 8.5923 0.0000
# 6 0.0000 0.0000 0.0000 0.0000 0.0000 17.2421
#
#
#
# Elastic Compliance Matrix: (Units=1/GPa)
#
#
# Indices 1 2 3 4 5 6 
#
# 1 0.057794 -0.028277 -0.004773 0.000000 0.000000 0.000000
# 2 -0.028277 0.030477 0.002497 0.000000 0.000000 0.000000
# 3 -0.004773 0.002497 0.013387 0.000000 0.000000 0.000000
# 4 0.000000 0.000000 0.000000 0.069858 0.000000 0.000000
# 5 0.000000 0.000000 0.000000 0.000000 0.116383 0.000000
# 6 0.000000 0.000000 0.000000 0.000000 0.000000 0.057998
#
#
# Mechanical properties :
#
#
# Convention : Reuss Voigt Hill
#
# Bulk Modulus (GPa) = 24.66087 26.48989 25.57538
# Shear Modulus (GPa) = 11.89004 17.00590 14.44797
#
# Velocity S-wave (km/s) = 2.59179 3.09961 2.85701
# Velocity P-wave (km/s) = 4.78423 5.27028 5.03312
#
# Compressibility (1/GPa) = 0.04055007
#
# Stress axis : x y z
#
# Youngs Moduli (GPa) = 17.30273 32.81190 74.70172
#
# Poissons Ratio (x) = 0.92783 0.35657
# Poissons Ratio (y) = 0.48927 -0.18651
# Poissons Ratio (z) = 0.08259 -0.08192
#
# Static dielectric constant tensor:
#      x y z
#    x 1.631100 0.000000 0.000000 
#    y 0.000000 1.575550 0.000000 
#    z 0.000000 0.000000 1.616150 
# 
# From -- ./inp_files/11027.got.cif
#   From: 2010.05.17/outbox.cif.g08.bks.cpg/sg48_6_cif.got.tgz:11027.got - 2010.06.03 20:39:00.
