data_PCOD9390124
_publ_section_title
;
Structure prediction by ZEFSAII (Michael W. Deem and Ramdas Pophale) SiO2 
 PCOD9390124
Probable space group: P N N N
;
_chemical_formula_sum "Si O2"
_cell_formula_units_Z 34
_cell_length_a 8.755765
_cell_length_b 9.294032
_cell_length_c 20.710390
_cell_angle_alpha 90.000000
_cell_angle_beta 90.000000
_cell_angle_gamma 90.000000
_cell_volume 1685.336154
_symmetry_space_group_name_H-M "P N N N"
_symmetry_group_IT_number 48
_space_group.IT_coordinate_system_code '2'
_symmetry_cell_setting 'orthorhombic'
loop_
_space_group_symop_operation_xyz
x,y,z
1/2-x,1/2-y,z
x,1/2-y,1/2-z
1/2-x,y,1/2-z
-x,-y,-z
1/2+x,1/2+y,-z
-x,1/2+y,1/2+z
1/2+x,-y,1/2+z
loop_
_atom_site_type_symbol
_atom_site_label
_atom_site_fract_x
_atom_site_fract_y
_atom_site_fract_z
Si Si1 0.899165 0.608456 0.585758
Si Si2 0.729015 0.083876 0.478250
Si Si3 0.269879 0.591090 0.325722
Si Si4 0.961901 0.393469 0.138296
Si Si5 0.750000 0.250000 0.250000
O O1 0.782009 0.543225 0.531438
O O2 0.860673 0.510217 0.646162
O O3 0.066047 0.579654 0.556928
O O4 0.920252 0.769892 0.612886
O O5 0.750000 0.250000 0.502816
O O6 0.855572 0.067288 0.422680
O O7 0.250000 0.750000 0.352326
O O8 0.250000 0.594520 0.250000
O O9 0.434183 0.526369 0.341979
O O10 0.859752 0.337030 0.199117
#
# Coordination Sequence:
#
# PCOD9390124 Si02
#       5
#     8   8   8   8   2
#     4  10  19  39  65  96 129 162 216 268 326 387
#     4   9  19  37  64  98 131 169 209 267 327 389
#     4  11  25  42  61  90 130 175 217 270 330 394
#     4  11  22  39  68  97 126 172 217 273 330 390
#     4  12  20  40  70 102 128 160 232 282 324 392
#
# _framework density 20.174019000000001
#
# number of rings (size 3 to 8) (size 9 to 14) (size 15 to 20)
#    0.000    1.647    3.529    2.824    0.000    1.882 
#    0.000    5.882    0.000    0.000    0.000    0.000 
#    0.000    0.000    0.000    0.000    0.000    0.000 
#
# Total GULP energy -189556.410914 kJ/mol
# GULP energy per Si atom -5575.188556 kJ/mol
# Density = 2.012810 g / cm^3
# Si number density = 20.174019 Si / 1000 Ang^3
#
#
#
# Elastic Constant Matrix: (Units=GPa)
#
#
# Indices 1 2 3 4 5 6 
#
# 1 106.2832 83.3579 60.8965 0.0000 0.0000 0.0000
# 2 83.3579 128.7863 62.7211 0.0000 0.0000 0.0000
# 3 60.8965 62.7211 138.8742 0.0000 0.0000 0.0000
# 4 0.0000 0.0000 0.0000 60.5146 0.0000 0.0000
# 5 0.0000 0.0000 0.0000 0.0000 33.6615 0.0000
# 6 0.0000 0.0000 0.0000 0.0000 0.0000 33.7007
#
#
#
# Elastic Compliance Matrix: (Units=1/GPa)
#
#
# Indices 1 2 3 4 5 6 
#
# 1 0.020608 -0.011458 -0.003862 0.000000 0.000000 0.000000
# 2 -0.011458 0.016325 -0.002349 0.000000 0.000000 0.000000
# 3 -0.003862 -0.002349 0.009955 0.000000 0.000000 0.000000
# 4 0.000000 0.000000 0.000000 0.016525 0.000000 0.000000
# 5 0.000000 0.000000 0.000000 0.000000 0.029708 0.000000
# 6 0.000000 0.000000 0.000000 0.000000 0.000000 0.029673
#
#
# Mechanical properties :
#
#
# Convention : Reuss Voigt Hill
#
# Bulk Modulus (GPa) = 86.57219 87.54386 87.05803
# Shear Modulus (GPa) = 30.86804 36.70658 33.78731
#
# Velocity S-wave (km/s) = 3.91588 4.27018 4.09686
# Velocity P-wave (km/s) = 7.96564 8.23415 8.10100
#
# Compressibility (1/GPa) = 0.01155105
#
# Stress axis : x y z
#
# Youngs Moduli (GPa) = 48.52516 61.25642 100.45311
#
# Poissons Ratio (x) = 0.70187 0.38792
# Poissons Ratio (y) = 0.55599 0.23593
# Poissons Ratio (z) = 0.18739 0.14387
#
# Static dielectric constant tensor:
#      x y z
#    x 1.705720 0.000000 0.000000 
#    y 0.000000 1.785790 0.000000 
#    z 0.000000 0.000000 1.727640 
# 
# From -- ./inp_files/8731.got.cif
#   From: 2010.05.17/outbox.cif.g08.bks.cpg/sg48_5_cif.got.tgz:8731.got - 2010.06.03 20:39:00.
