data_PCOD9390893
_publ_section_title
;
Structure prediction by ZEFSAII (Michael W. Deem and Ramdas Pophale) SiO2 
 PCOD9390893
Probable space group: P N N N
;
_chemical_formula_sum "Si O2"
_cell_formula_units_Z 58
_cell_length_a 15.471833
_cell_length_b 12.211041
_cell_length_c 15.871341
_cell_angle_alpha 90.000000
_cell_angle_beta 90.000000
_cell_angle_gamma 90.000000
_cell_volume 2998.527811
_symmetry_space_group_name_H-M "P N N N"
_symmetry_group_IT_number 48
_space_group.IT_coordinate_system_code '2'
_symmetry_cell_setting 'orthorhombic'
loop_
_space_group_symop_operation_xyz
x,y,z
1/2-x,1/2-y,z
x,1/2-y,1/2-z
1/2-x,y,1/2-z
-x,-y,-z
1/2+x,1/2+y,-z
-x,1/2+y,1/2+z
1/2+x,-y,1/2+z
loop_
_atom_site_type_symbol
_atom_site_label
_atom_site_fract_x
_atom_site_fract_y
_atom_site_fract_z
Si Si1 0.250000 0.250000 0.250000
Si Si2 0.370491 0.418600 0.353330
Si Si3 0.242512 0.120324 0.003059
Si Si4 0.355530 0.620834 0.237079
Si Si5 0.558672 0.329994 0.331731
Si Si6 0.176230 0.682184 0.563618
Si Si7 0.589041 0.012904 0.556241
Si Si8 0.282039 0.984336 0.836642
O O1 0.310904 0.332999 0.301442
O O2 0.317581 0.430498 0.438949
O O3 0.383560 0.535533 0.308953
O O4 0.463924 0.365109 0.357644
O O5 0.250000 0.250000 0.997736
O O6 0.149389 0.094591 0.046795
O O7 0.260402 0.065560 0.912610
O O8 0.379436 0.750000 0.250000
O O9 0.250000 0.616796 0.250000
O O10 0.398201 0.565598 0.150973
O O11 0.557140 0.250000 0.250000
O O12 0.600850 0.257998 0.404595
O O13 0.621872 0.435496 0.324460
O O14 0.250000 0.750000 0.517966
O O15 0.141787 0.595469 0.500618
O O16 0.223558 0.623010 0.641902
O O17 0.500000 0.000000 0.500000
O O18 0.250000 0.034262 0.750000
#
# Coordination Sequence:
#
# PCOD9390893 Si02
#       8
#     2   8   8   8   8   8   8   8
#     4  12  20  36  62 100 124 172 220 274 344 416
#     4  12  24  40  69  97 140 175 231 284 367 418
#     4  11  25  44  64  97 143 186 230 294 367 435
#     4  11  25  45  71 100 142 188 233 289 363 441
#     4  11  22  36  69 102 128 168 234 297 349 419
#     4   9  21  37  64  95 128 168 226 291 352 404
#     4  11  25  43  71 100 138 187 247 288 354 441
#     4  10  21  41  65  93 132 177 231 290 355 429
#
# _framework density 19.342825999999999
#
# number of rings (size 3 to 8) (size 9 to 14) (size 15 to 20)
#    0.000    1.241    4.828    0.000    5.793    1.931 
#    2.483    0.000    0.000    0.000    0.000    0.000 
#    0.000    0.000    0.000    0.000    0.000    0.000 
#
# Total GULP energy -323002.279985 kJ/mol
# GULP energy per Si atom -5569.004827 kJ/mol
# Density = 1.929880 g / cm^3
# Si number density = 19.342826 Si / 1000 Ang^3
#
#
#
# Elastic Constant Matrix: (Units=GPa)
#
#
# Indices 1 2 3 4 5 6 
#
# 1 122.9925 39.3725 37.8977 0.0000 0.0000 0.0000
# 2 39.3725 109.6180 33.5949 0.0000 0.0000 0.0000
# 3 37.8977 33.5949 107.9822 0.0000 0.0000 0.0000
# 4 0.0000 0.0000 0.0000 11.2910 0.0000 0.0000
# 5 0.0000 0.0000 0.0000 0.0000 30.7115 0.0000
# 6 0.0000 0.0000 0.0000 0.0000 0.0000 -360.1986
#
#
#
# Elastic Compliance Matrix: (Units=1/GPa)
#
#
# Indices 1 2 3 4 5 6 
#
# 1 0.009802 -0.002726 -0.002592 0.000000 0.000000 0.000000
# 2 -0.002726 0.010842 -0.002416 0.000000 0.000000 0.000000
# 3 -0.002592 -0.002416 0.010922 0.000000 0.000000 0.000000
# 4 0.000000 0.000000 0.000000 0.088566 0.000000 0.000000
# 5 0.000000 0.000000 0.000000 0.000000 0.032561 0.000000
# 6 0.000000 0.000000 0.000000 0.000000 0.000000 -0.002776
#
#
# Mechanical properties :
#
#
# Convention : Reuss Voigt Hill
#
# Bulk Modulus (GPa) = 62.12214 62.48031 62.30122
# Shear Modulus (GPa) = 29.28218 -48.32406 -9.52094
#
# Velocity S-wave (km/s) = 3.89505 -5.00372 -2.22101
# Velocity P-wave (km/s) = 7.23979 1.00560 5.06968
#
# Compressibility (1/GPa) = 0.01609732
#
# Stress axis : x y z
#
# Youngs Moduli (GPa) = 102.02017 92.23059 91.55642
#
# Poissons Ratio (x) = 0.25145 0.23731
# Poissons Ratio (y) = 0.27814 0.22124
# Poissons Ratio (z) = 0.26443 0.22287
#
# Static dielectric constant tensor:
#      x y z
#    x 1.710850 0.000000 0.000000 
#    y 0.000000 1.868800 0.000000 
#    z 0.000000 0.000000 1.734540 
# 
# From -- ./inp_files/31672.got.cif
#   From: 2010.05.17/outbox.cif.g08.bks.cpg/sg48_16_cif.got.tgz:31672.got - 2010.06.03 20:39:00.
