data_PCOD9390631
_publ_section_title
;
Structure prediction by ZEFSAII (Michael W. Deem and Ramdas Pophale) SiO2 
 PCOD9390631
Probable space group: P N N N
;
_chemical_formula_sum "Si O2"
_cell_formula_units_Z 38
_cell_length_a 11.471504
_cell_length_b 28.287757
_cell_length_c 6.310387
_cell_angle_alpha 90.000000
_cell_angle_beta 90.000000
_cell_angle_gamma 90.000000
_cell_volume 2047.740255
_symmetry_space_group_name_H-M "P N N N"
_symmetry_group_IT_number 48
_space_group.IT_coordinate_system_code '2'
_symmetry_cell_setting 'orthorhombic'
loop_
_space_group_symop_operation_xyz
x,y,z
1/2-x,1/2-y,z
x,1/2-y,1/2-z
1/2-x,y,1/2-z
-x,-y,-z
1/2+x,1/2+y,-z
-x,1/2+y,1/2+z
1/2+x,-y,1/2+z
loop_
_atom_site_type_symbol
_atom_site_label
_atom_site_fract_x
_atom_site_fract_y
_atom_site_fract_z
Si Si1 0.750000 0.250000 0.750000
Si Si2 0.750000 0.914013 0.750000
Si Si3 0.113114 0.959048 0.744720
Si Si4 0.631064 0.298231 0.128929
Si Si5 0.031322 0.116157 0.002833
Si Si6 0.569242 0.560569 0.392494
O O1 0.671885 0.218092 0.600989
O O2 0.845957 0.885258 0.878056
O O3 0.827470 0.940211 0.569249
O O4 0.250000 0.949341 0.750000
O O5 0.047036 0.928420 0.920635
O O6 0.050232 0.945182 0.523615
O O7 0.092206 0.015296 0.756391
O O8 0.592417 0.250000 0.250000
O O9 0.750000 0.314416 0.250000
O O10 0.537809 0.338606 0.089066
O O11 0.058327 0.106756 0.755037
#
# Coordination Sequence:
#
# PCOD9390631 Si02
#       6
#     2   4   8   8   8   8
#     4   8  18  36  60  80 110 144 168 216 288 340
#     4  10  22  38  55  77 114 154 189 229 272 326
#     4  10  21  35  54  83 115 146 188 235 275 327
#     4   9  20  38  58  85 113 138 175 229 284 334
#     4  11  21  36  59  82 109 147 190 231 278 334
#     4  10  22  37  54  79 115 156 189 226 278 331
#
# _framework density 18.557039
#
# number of rings (size 3 to 8) (size 9 to 14) (size 15 to 20)
#    0.000    2.316    0.000    3.158    0.000   12.632 
#    0.000    0.526    0.000    0.000    0.000    0.000 
#    0.000    0.000    0.000    0.000    0.000    0.000 
#
# Total GULP energy -211760.031212 kJ/mol
# GULP energy per Si atom -5572.632400 kJ/mol
# Density = 1.851480 g / cm^3
# Si number density = 18.557039 Si / 1000 Ang^3
#
#
#
# Elastic Constant Matrix: (Units=GPa)
#
#
# Indices 1 2 3 4 5 6 
#
# 1 156.5257 53.9983 46.5811 0.0000 0.0000 0.0000
# 2 53.9983 88.5020 39.6663 0.0000 0.0000 0.0000
# 3 46.5811 39.6663 80.3834 0.0000 0.0000 0.0000
# 4 0.0000 0.0000 0.0000 -22.1830 0.0000 0.0000
# 5 0.0000 0.0000 0.0000 0.0000 5.9743 0.0000
# 6 0.0000 0.0000 0.0000 0.0000 0.0000 24.5170
#
#
#
# Elastic Compliance Matrix: (Units=1/GPa)
#
#
# Indices 1 2 3 4 5 6 
#
# 1 0.008652 -0.003893 -0.003093 0.000000 0.000000 0.000000
# 2 -0.003893 0.016259 -0.005768 0.000000 0.000000 0.000000
# 3 -0.003093 -0.005768 0.017079 0.000000 0.000000 0.000000
# 4 0.000000 0.000000 0.000000 -0.045080 0.000000 0.000000
# 5 0.000000 0.000000 0.000000 0.000000 0.167383 0.000000
# 6 0.000000 0.000000 0.000000 0.000000 0.000000 0.040788
#
#
# Mechanical properties :
#
#
# Convention : Reuss Voigt Hill
#
# Bulk Modulus (GPa) = 60.66570 67.32250 63.99410
# Shear Modulus (GPa) = 21.17903 14.00603 17.59253
#
# Velocity S-wave (km/s) = 3.38197 2.75026 3.08234
# Velocity P-wave (km/s) = 6.92912 6.81489 6.87224
#
# Compressibility (1/GPa) = 0.01648378
#
# Stress axis : x y z
#
# Youngs Moduli (GPa) = 115.57956 61.50329 58.55235
#
# Poissons Ratio (x) = 0.23942 0.18109
# Poissons Ratio (y) = 0.44992 0.33771
# Poissons Ratio (z) = 0.35747 0.35473
#
# Static dielectric constant tensor:
#      x y z
#    x 1.613930 0.000000 0.000000 
#    y 0.000000 1.703380 0.000000 
#    z 0.000000 0.000000 1.698570 
# 
# From -- ./inp_files/2414.got.cif
#   From: 2010.05.17/outbox.cif.g08.bks.cpg/sg48_2_cif.got.tgz:2414.got - 2010.06.03 20:39:00.
