data_PCOD9390123
_publ_section_title
;
Structure prediction by ZEFSAII (Michael W. Deem and Ramdas Pophale) SiO2 
 PCOD9390123
Probable space group: P N N N
;
_chemical_formula_sum "Si O2"
_cell_formula_units_Z 48
_cell_length_a 7.501701
_cell_length_b 28.672181
_cell_length_c 10.164390
_cell_angle_alpha 90.000000
_cell_angle_beta 90.000000
_cell_angle_gamma 90.000000
_cell_volume 2186.259955
_symmetry_space_group_name_H-M "P N N N"
_symmetry_group_IT_number 48
_space_group.IT_coordinate_system_code '2'
_symmetry_cell_setting 'orthorhombic'
loop_
_space_group_symop_operation_xyz
x,y,z
1/2-x,1/2-y,z
x,1/2-y,1/2-z
1/2-x,y,1/2-z
-x,-y,-z
1/2+x,1/2+y,-z
-x,1/2+y,1/2+z
1/2+x,-y,1/2+z
loop_
_atom_site_type_symbol
_atom_site_label
_atom_site_fract_x
_atom_site_fract_y
_atom_site_fract_z
Si Si1 0.952176 0.403310 0.741578
Si Si2 0.034163 0.744286 0.401592
Si Si3 0.428290 0.644254 0.985492
Si Si4 0.940125 0.903172 0.723703
Si Si5 0.998795 0.844106 0.482553
Si Si6 0.427990 0.498734 0.656565
O O1 0.750000 0.385059 0.750000
O O2 0.999715 0.393498 0.591298
O O3 0.953660 0.456479 0.786923
O O4 0.050705 0.370978 0.848070
O O5 0.250000 0.750000 0.401335
O O6 0.977634 0.750000 0.250000
O O7 0.998520 0.694424 0.466743
O O8 0.961202 0.789506 0.475286
O O9 0.483624 0.626794 0.842992
O O10 0.212114 0.648428 0.991177
O O11 0.750000 0.926275 0.750000
O O12 0.906454 0.869203 0.602433
O O13 0.060103 0.946797 0.688039
O O14 0.250000 0.486021 0.750000
O O15 0.500000 0.500000 0.500000
#
# Coordination Sequence:
#
# PCOD9390123 Si02
#       6
#     8   8   8   8   8   8
#     4  10  21  38  67  96 130 170 219 271 339 398
#     4   9  16  32  63 100 128 162 217 273 327 394
#     4  10  21  37  66  99 127 172 217 277 333 398
#     4  12  27  44  63  90 134 175 223 274 341 404
#     4  10  19  39  65  95 132 167 216 274 330 400
#     4  12  27  46  72  99 134 178 227 282 346 417
#
# _framework density 21.955303000000001
#
# number of rings (size 3 to 8) (size 9 to 14) (size 15 to 20)
#    0.000    1.500    3.333    2.000    4.667    1.333 
#    0.000    4.167    0.000    1.000    0.000    0.000 
#    0.000    0.000    0.000    0.000    0.000    0.000 
#
# Total GULP energy -267257.570581 kJ/mol
# GULP energy per Si atom -5567.866054 kJ/mol
# Density = 2.190533 g / cm^3
# Si number density = 21.955303 Si / 1000 Ang^3
#
#
#
# Elastic Constant Matrix: (Units=GPa)
#
#
# Indices 1 2 3 4 5 6 
#
# 1 43.5277 -21.7686 7.5687 0.0000 0.0000 0.0000
# 2 -21.7686 123.0286 42.7140 0.0000 0.0000 0.0000
# 3 7.5687 42.7140 121.7163 0.0000 0.0000 0.0000
# 4 0.0000 0.0000 0.0000 33.0841 0.0000 0.0000
# 5 0.0000 0.0000 0.0000 0.0000 8.6044 0.0000
# 6 0.0000 0.0000 0.0000 0.0000 0.0000 7.9488
#
#
#
# Elastic Compliance Matrix: (Units=1/GPa)
#
#
# Indices 1 2 3 4 5 6 
#
# 1 0.026642 0.006023 -0.003770 0.000000 0.000000 0.000000
# 2 0.006023 0.010618 -0.004101 0.000000 0.000000 0.000000
# 3 -0.003770 -0.004101 0.009889 0.000000 0.000000 0.000000
# 4 0.000000 0.000000 0.000000 0.030226 0.000000 0.000000
# 5 0.000000 0.000000 0.000000 0.000000 0.116220 0.000000
# 6 0.000000 0.000000 0.000000 0.000000 0.000000 0.125805
#
#
# Mechanical properties :
#
#
# Convention : Reuss Voigt Hill
#
# Bulk Modulus (GPa) = 23.01357 38.36675 30.69016
# Shear Modulus (GPa) = 14.81132 27.24469 21.02801
#
# Velocity S-wave (km/s) = 2.60015 3.52649 3.09813
# Velocity P-wave (km/s) = 4.41805 5.83904 5.17752
#
# Compressibility (1/GPa) = 0.04345263
#
# Stress axis : x y z
#
# Youngs Moduli (GPa) = 37.53531 94.18374 101.11957
#
# Poissons Ratio (x) = -0.56726 0.38125
# Poissons Ratio (y) = -0.22607 0.41465
# Poissons Ratio (z) = 0.14152 0.38620
#
# Static dielectric constant tensor:
#      x y z
#    x 1.890080 0.000000 0.000000 
#    y 0.000000 1.726970 0.000000 
#    z 0.000000 0.000000 1.852010 
# 
# From -- ./inp_files/9452.got.cif
#   From: 2010.05.17/outbox.cif.g08.bks.cpg/sg48_5_cif.got.tgz:9452.got - 2010.06.03 20:39:00.
