data_PCOD9390935
_publ_section_title
;
Structure prediction by ZEFSAII (Michael W. Deem and Ramdas Pophale) SiO2 
 PCOD9390935
Probable space group: P N N N
;
_chemical_formula_sum "Si O2"
_cell_formula_units_Z 48
_cell_length_a 8.431508
_cell_length_b 8.600711
_cell_length_c 32.815573
_cell_angle_alpha 90.000000
_cell_angle_beta 90.000000
_cell_angle_gamma 90.000000
_cell_volume 2379.685713
_symmetry_space_group_name_H-M "P N N N"
_symmetry_group_IT_number 48
_space_group.IT_coordinate_system_code '2'
_symmetry_cell_setting 'orthorhombic'
loop_
_space_group_symop_operation_xyz
x,y,z
1/2-x,1/2-y,z
x,1/2-y,1/2-z
1/2-x,y,1/2-z
-x,-y,-z
1/2+x,1/2+y,-z
-x,1/2+y,1/2+z
1/2+x,-y,1/2+z
loop_
_atom_site_type_symbol
_atom_site_label
_atom_site_fract_x
_atom_site_fract_y
_atom_site_fract_z
Si Si1 0.189841 0.421528 0.125521
Si Si2 0.318159 0.565092 0.793045
Si Si3 0.306631 0.076749 0.538784
Si Si4 0.185807 0.579175 0.455440
Si Si5 0.182610 0.569631 0.292581
Si Si6 0.185950 0.574198 0.878773
O O1 0.250000 0.250000 0.133194
O O2 0.258550 0.476642 0.082411
O O3 0.246566 0.516872 0.164449
O O4 0.001833 0.423732 0.123280
O O5 0.250000 0.750000 0.793733
O O6 0.250000 0.505779 0.750000
O O7 0.501056 0.501323 0.793242
O O8 0.250039 0.506203 0.836111
O O9 0.250000 0.250000 0.530938
O O10 0.496205 0.074569 0.542429
O O11 0.254973 0.976474 0.499695
O O12 0.238652 0.017464 0.581336
O O13 0.250000 0.750000 0.447561
O O14 0.250000 0.750000 0.291163
O O15 0.250000 0.501560 0.250000
O O16 0.250000 0.750000 0.882965
#
# Coordination Sequence:
#
# PCOD9390935 Si02
#       6
#     8   8   8   8   8   8
#     4  12  24  41  68  97 129 172 222 273 328 395
#     4  10  21  42  70 100 132 174 228 280 333 399
#     4  11  24  41  63  91 124 165 211 262 322 391
#     4  11  24  42  64  92 127 165 211 266 327 393
#     4  11  25  45  67  99 140 180 223 277 341 404
#     4  11  23  40  62  93 129 167 213 269 328 388
#
# _framework density 20.170732999999998
#
# number of rings (size 3 to 8) (size 9 to 14) (size 15 to 20)
#    0.000    1.000    0.000    7.500    0.000    8.333 
#    0.000    5.000    0.000    0.000    0.000    0.000 
#    0.000    0.000    0.000    0.000    0.000    0.000 
#
# Total GULP energy -267554.874095 kJ/mol
# GULP energy per Si atom -5574.059877 kJ/mol
# Density = 2.012482 g / cm^3
# Si number density = 20.170733 Si / 1000 Ang^3
#
#
#
# Elastic Constant Matrix: (Units=GPa)
#
#
# Indices 1 2 3 4 5 6 
#
# 1 141.4461 21.1408 38.8064 0.0000 0.0000 0.0000
# 2 21.1408 58.2590 11.3946 0.0000 0.0000 0.0000
# 3 38.8064 11.3946 130.6239 0.0000 0.0000 0.0000
# 4 0.0000 0.0000 0.0000 136.6077 0.0000 0.0000
# 5 0.0000 0.0000 0.0000 0.0000 43.4705 0.0000
# 6 0.0000 0.0000 0.0000 0.0000 0.0000 10.4005
#
#
#
# Elastic Compliance Matrix: (Units=1/GPa)
#
#
# Indices 1 2 3 4 5 6 
#
# 1 0.008038 -0.002492 -0.002171 0.000000 0.000000 0.000000
# 2 -0.002492 0.018235 -0.000850 0.000000 0.000000 0.000000
# 3 -0.002171 -0.000850 0.008375 0.000000 0.000000 0.000000
# 4 0.000000 0.000000 0.000000 0.007320 0.000000 0.000000
# 5 0.000000 0.000000 0.000000 0.000000 0.023004 0.000000
# 6 0.000000 0.000000 0.000000 0.000000 0.000000 0.096149
#
#
# Mechanical properties :
#
#
# Convention : Reuss Voigt Hill
#
# Bulk Modulus (GPa) = 42.33395 52.55695 47.44545
# Shear Modulus (GPa) = 27.77455 55.36158 41.56806
#
# Velocity S-wave (km/s) = 3.71478 5.24462 4.54454
# Velocity P-wave (km/s) = 6.27956 7.92385 7.14913
#
# Compressibility (1/GPa) = 0.02362170
#
# Stress axis : x y z
#
# Youngs Moduli (GPa) = 124.41203 54.83841 119.40912
#
# Poissons Ratio (x) = 0.13667 0.25918
# Poissons Ratio (y) = 0.31006 0.10154
# Poissons Ratio (z) = 0.27004 0.04663
#
# Static dielectric constant tensor:
#      x y z
#    x 1.700740 0.000000 0.000000 
#    y 0.000000 1.801950 0.000000 
#    z 0.000000 0.000000 1.694200 
# 
# From -- ./inp_files/38713.got.cif
#   From: 2010.05.17/outbox.cif.g08.bks.cpg/sg48_20_cif.got.tgz:38713.got - 2010.06.03 20:39:00.
