data_PCOD9390684
_publ_section_title
;
Structure prediction by ZEFSAII (Michael W. Deem and Ramdas Pophale) SiO2 
 PCOD9390684
Probable space group: P N N N
;
_chemical_formula_sum "Si O2"
_cell_formula_units_Z 40
_cell_length_a 29.286228
_cell_length_b 4.845825
_cell_length_c 12.456026
_cell_angle_alpha 90.000000
_cell_angle_beta 90.000000
_cell_angle_gamma 90.000000
_cell_volume 1767.708586
_symmetry_space_group_name_H-M "P N N N"
_symmetry_group_IT_number 48
_space_group.IT_coordinate_system_code '2'
_symmetry_cell_setting 'orthorhombic'
loop_
_space_group_symop_operation_xyz
x,y,z
1/2-x,1/2-y,z
x,1/2-y,1/2-z
1/2-x,y,1/2-z
-x,-y,-z
1/2+x,1/2+y,-z
-x,1/2+y,1/2+z
1/2+x,-y,1/2+z
loop_
_atom_site_type_symbol
_atom_site_label
_atom_site_fract_x
_atom_site_fract_y
_atom_site_fract_z
Si Si1 0.559457 0.757072 0.960797
Si Si2 0.803216 0.296092 0.508664
Si Si3 0.391502 0.732519 0.125127
Si Si4 0.024584 0.993802 0.825181
Si Si5 0.304226 0.199775 0.866084
O O1 0.599228 0.579327 0.908296
O O2 0.515161 0.667914 0.891003
O O3 0.573858 0.073066 0.942863
O O4 0.553351 0.650128 0.082196
O O5 0.750000 0.250000 0.538468
O O6 0.839184 0.203794 0.597327
O O7 0.814827 0.599011 0.464786
O O8 0.811612 0.108641 0.403978
O O9 0.400872 0.750000 0.250000
O O10 0.045519 0.750000 0.750000
O O11 0.008676 0.250000 0.750000
O O12 0.250000 0.250000 0.855049
O O13 0.325953 0.250000 0.750000
#
# Coordination Sequence:
#
# PCOD9390684 Si02
#       5
#     8   8   8   8   8
#     4  11  24  41  64  94 124 160 205 247 299 372
#     4  10  21  37  58  86 118 156 207 256 298 356
#     4  12  24  41  62  86 122 163 207 257 308 360
#     4  11  22  41  68  95 126 161 199 247 304 368
#     4   9  17  33  57  82 110 147 193 245 302 363
#
# _framework density 22.628162
#
# number of rings (size 3 to 8) (size 9 to 14) (size 15 to 20)
#    0.000    1.400    0.000    6.600    0.000    6.000 
#    0.000   10.000    0.000    6.000    0.000    0.000 
#    0.000    0.000    0.000    0.000    0.000    0.000 
#
# Total GULP energy -223343.311471 kJ/mol
# GULP energy per Si atom -5583.582787 kJ/mol
# Density = 2.257666 g / cm^3
# Si number density = 22.628162 Si / 1000 Ang^3
#
#
#
# Elastic Constant Matrix: (Units=GPa)
#
#
# Indices 1 2 3 4 5 6 
#
# 1 48.0405 -8.3837 34.0825 0.0000 0.0000 0.0000
# 2 -8.3837 57.0331 2.4537 0.0000 0.0000 0.0000
# 3 34.0825 2.4537 109.9073 0.0000 0.0000 0.0000
# 4 0.0000 0.0000 0.0000 71.4516 0.0000 0.0000
# 5 0.0000 0.0000 0.0000 0.0000 13.3160 0.0000
# 6 0.0000 0.0000 0.0000 0.0000 0.0000 5.1124
#
#
#
# Elastic Compliance Matrix: (Units=1/GPa)
#
#
# Indices 1 2 3 4 5 6 
#
# 1 0.027775 0.004458 -0.008713 0.000000 0.000000 0.000000
# 2 0.004458 0.018266 -0.001790 0.000000 0.000000 0.000000
# 3 -0.008713 -0.001790 0.011840 0.000000 0.000000 0.000000
# 4 0.000000 0.000000 0.000000 0.013995 0.000000 0.000000
# 5 0.000000 0.000000 0.000000 0.000000 0.075098 0.000000
# 6 0.000000 0.000000 0.000000 0.000000 0.000000 0.195604
#
#
# Mechanical properties :
#
#
# Convention : Reuss Voigt Hill
#
# Bulk Modulus (GPa) = 21.83835 30.14289 25.99062
# Shear Modulus (GPa) = 13.51598 30.43122 21.97360
#
# Velocity S-wave (km/s) = 2.44664 3.67118 3.11959
# Velocity P-wave (km/s) = 4.20158 5.59643 4.94840
#
# Compressibility (1/GPa) = 0.04579101
#
# Stress axis : x y z
#
# Youngs Moduli (GPa) = 36.00381 54.74672 84.45707
#
# Poissons Ratio (x) = -0.24404 0.73584
# Poissons Ratio (y) = -0.16049 0.15119
# Poissons Ratio (z) = 0.31369 0.09800
#
# Static dielectric constant tensor:
#      x y z
#    x 1.780440 0.000000 0.000000 
#    y 0.000000 1.721350 0.000000 
#    z 0.000000 0.000000 1.855130 
# 
# From -- ./inp_files/23743.got.cif
#   From: 2010.05.17/outbox.cif.g08.bks.cpg/sg48_12_cif.got.tgz:23743.got - 2010.06.03 20:39:00.
