data_PCOD9390019
_publ_section_title
;
Structure prediction by ZEFSAII (Michael W. Deem and Ramdas Pophale) SiO2 
 PCOD9390019
Probable space group: P N N N
;
_chemical_formula_sum "Si O2"
_cell_formula_units_Z 56
_cell_length_a 13.636688
_cell_length_b 9.309992
_cell_length_c 22.465894
_cell_angle_alpha 90.000000
_cell_angle_beta 90.000000
_cell_angle_gamma 90.000000
_cell_volume 2852.212753
_symmetry_space_group_name_H-M "P N N N"
_symmetry_group_IT_number 48
_space_group.IT_coordinate_system_code '2'
_symmetry_cell_setting 'orthorhombic'
loop_
_space_group_symop_operation_xyz
x,y,z
1/2-x,1/2-y,z
x,1/2-y,1/2-z
1/2-x,y,1/2-z
-x,-y,-z
1/2+x,1/2+y,-z
-x,1/2+y,1/2+z
1/2+x,-y,1/2+z
loop_
_atom_site_type_symbol
_atom_site_label
_atom_site_fract_x
_atom_site_fract_y
_atom_site_fract_z
Si Si1 0.994881 0.272572 0.683940
Si Si2 0.907903 0.594252 0.516328
Si Si3 0.856801 0.681458 0.080051
Si Si4 0.151112 0.931464 0.383528
Si Si5 0.859379 0.753848 0.873610
Si Si6 0.786265 0.090622 0.484998
Si Si7 0.826302 0.007980 0.803885
O O1 0.035959 0.250000 0.750000
O O2 0.907909 0.169654 0.660499
O O3 0.931689 0.418016 0.693533
O O4 0.076775 0.236375 0.634814
O O5 0.900500 0.739051 0.477797
O O6 0.920382 0.644918 0.583789
O O7 0.809991 0.502176 0.503411
O O8 0.000000 0.500000 0.500000
O O9 0.750000 0.750000 0.089602
O O10 0.842584 0.512559 0.062657
O O11 0.151898 0.892955 0.453301
O O12 0.263215 0.938499 0.360809
O O13 0.108454 0.091020 0.372864
O O14 0.750000 0.750000 0.902585
O O15 0.844118 0.838649 0.812756
O O16 0.750000 0.250000 0.465807
O O17 0.750000 0.035313 0.750000
#
# Coordination Sequence:
#
# PCOD9390019 Si02
#       7
#     8   8   8   8   8   8   8
#     4  12  25  41  61  94 125 164 213 261 319 378
#     4  11  20  36  59  89 122 164 208 254 312 378
#     4  10  24  44  64  88 123 168 217 264 319 382
#     4  11  22  36  61  89 133 165 203 256 315 385
#     4  10  19  36  55  83 123 172 202 239 303 377
#     4  11  22  39  62  91 128 165 206 269 325 371
#     4  11  21  37  59  91 129 171 202 247 311 386
#
# _framework density 19.633876999999998
#
# number of rings (size 3 to 8) (size 9 to 14) (size 15 to 20)
#    0.000    1.143    5.714    2.571    2.000    4.571 
#    0.000    0.000    0.000    0.000    0.000    4.000 
#    0.000    0.000    0.000    0.000    0.000    0.000 
#
# Total GULP energy -312083.625427 kJ/mol
# GULP energy per Si atom -5572.921883 kJ/mol
# Density = 1.958919 g / cm^3
# Si number density = 19.633877 Si / 1000 Ang^3
#
#
#
# Elastic Constant Matrix: (Units=GPa)
#
#
# Indices 1 2 3 4 5 6 
#
# 1 44.4654 21.1572 28.7292 0.0000 0.0000 0.0000
# 2 21.1572 122.2641 33.7371 0.0000 0.0000 0.0000
# 3 28.7292 33.7371 106.8149 0.0000 0.0000 0.0000
# 4 0.0000 0.0000 0.0000 19.4754 0.0000 0.0000
# 5 0.0000 0.0000 0.0000 0.0000 29.3437 0.0000
# 6 0.0000 0.0000 0.0000 0.0000 0.0000 11.9416
#
#
#
# Elastic Compliance Matrix: (Units=1/GPa)
#
#
# Indices 1 2 3 4 5 6 
#
# 1 0.028225 -0.003056 -0.006626 0.000000 0.000000 0.000000
# 2 -0.003056 0.009291 -0.002113 0.000000 0.000000 0.000000
# 3 -0.006626 -0.002113 0.011811 0.000000 0.000000 0.000000
# 4 0.000000 0.000000 0.000000 0.051347 0.000000 0.000000
# 5 0.000000 0.000000 0.000000 0.000000 0.034079 0.000000
# 6 0.000000 0.000000 0.000000 0.000000 0.000000 0.083741
#
#
# Mechanical properties :
#
#
# Convention : Reuss Voigt Hill
#
# Bulk Modulus (GPa) = 38.85344 48.97681 43.91513
# Shear Modulus (GPa) = 19.94724 24.81354 22.38039
#
# Velocity S-wave (km/s) = 3.19087 3.55887 3.37988
# Velocity P-wave (km/s) = 5.77992 6.47199 6.13572
#
# Compressibility (1/GPa) = 0.02573774
#
# Stress axis : x y z
#
# Youngs Moduli (GPa) = 35.43014 107.63420 84.66364
#
# Poissons Ratio (x) = 0.32890 0.56100
# Poissons Ratio (y) = 0.10826 0.17886
# Poissons Ratio (z) = 0.23477 0.22739
#
# Static dielectric constant tensor:
#      x y z
#    x 1.717190 0.000000 0.000000 
#    y 0.000000 1.796010 0.000000 
#    z 0.000000 0.000000 1.732220 
# 
# From -- ./inp_files/34489.got.cif
#   From: 2010.05.17/outbox.cif.g08.bks.cpg/sg48_18_cif.got.tgz:34489.got - 2010.06.03 20:39:00.
