data_PCOD9390907
_publ_section_title
;
Structure prediction by ZEFSAII (Michael W. Deem and Ramdas Pophale) SiO2 
 PCOD9390907
Probable space group: P N N N
;
_chemical_formula_sum "Si O2"
_cell_formula_units_Z 26
_cell_length_a 8.837130
_cell_length_b 14.527728
_cell_length_c 8.751471
_cell_angle_alpha 90.000000
_cell_angle_beta 90.000000
_cell_angle_gamma 90.000000
_cell_volume 1123.543785
_symmetry_space_group_name_H-M "P N N N"
_symmetry_group_IT_number 48
_space_group.IT_coordinate_system_code '2'
_symmetry_cell_setting 'orthorhombic'
loop_
_space_group_symop_operation_xyz
x,y,z
1/2-x,1/2-y,z
x,1/2-y,1/2-z
1/2-x,y,1/2-z
-x,-y,-z
1/2+x,1/2+y,-z
-x,1/2+y,1/2+z
1/2+x,-y,1/2+z
loop_
_atom_site_type_symbol
_atom_site_label
_atom_site_fract_x
_atom_site_fract_y
_atom_site_fract_z
Si Si1 0.250000 0.750000 0.250000
Si Si2 0.739587 0.857665 0.039440
Si Si3 0.750000 0.487737 0.250000
Si Si4 0.250000 0.051845 0.250000
Si Si5 0.405465 0.900138 0.455311
O O1 0.345359 0.811748 0.366194
O O2 0.750000 0.750000 0.077694
O O3 0.660888 0.933399 0.149549
O O4 0.916322 0.885388 0.031954
O O5 0.672864 0.880730 0.873062
O O6 0.829318 0.424722 0.379909
O O7 0.358525 0.982382 0.340662
#
# Coordination Sequence:
#
# PCOD9390907 Si02
#       5
#     2   8   4   4   8
#     4  10  24  46  64  96 138 178 210 298 328 388
#     4  11  23  42  67 104 135 176 231 274 331 393
#     4  10  21  41  68 100 128 178 218 273 331 402
#     4   9  19  43  65  94 134 180 209 281 331 391
#     4  10  23  45  66  98 139 171 233 264 342 403
#
# _framework density 23.141064
#
# number of rings (size 3 to 8) (size 9 to 14) (size 15 to 20)
#    0.000    1.846    0.000    4.615    4.308    0.615 
#   16.615   13.846    0.000    0.000    0.000    0.000 
#    0.000    0.000    0.000    0.000    0.000    0.000 
#
# Total GULP energy -144755.368721 kJ/mol
# GULP energy per Si atom -5567.514182 kJ/mol
# Density = 2.308839 g / cm^3
# Si number density = 23.141064 Si / 1000 Ang^3
#
#
#
# Elastic Constant Matrix: (Units=GPa)
#
#
# Indices 1 2 3 4 5 6 
#
# 1 83.6682 50.3340 35.0028 0.0000 0.0000 0.0000
# 2 50.3340 158.3481 69.1649 0.0000 0.0000 0.0000
# 3 35.0028 69.1649 193.3158 0.0000 0.0000 0.0000
# 4 0.0000 0.0000 0.0000 11.2889 0.0000 0.0000
# 5 0.0000 0.0000 0.0000 0.0000 17.3259 0.0000
# 6 0.0000 0.0000 0.0000 0.0000 0.0000 -18.5319
#
#
#
# Elastic Compliance Matrix: (Units=1/GPa)
#
#
# Indices 1 2 3 4 5 6 
#
# 1 0.015008 -0.004247 -0.001198 0.000000 0.000000 0.000000
# 2 -0.004247 0.008687 -0.002339 0.000000 0.000000 0.000000
# 3 -0.001198 -0.002339 0.006227 0.000000 0.000000 0.000000
# 4 0.000000 0.000000 0.000000 0.088582 0.000000 0.000000
# 5 0.000000 0.000000 0.000000 0.000000 0.057717 0.000000
# 6 0.000000 0.000000 0.000000 0.000000 0.000000 -0.053961
#
#
# Mechanical properties :
#
#
# Convention : Reuss Voigt Hill
#
# Bulk Modulus (GPa) = 69.67006 82.70394 76.18700
# Shear Modulus (GPa) = 35.05983 20.73862 27.89923
#
# Velocity S-wave (km/s) = 3.89659 2.99688 3.47596
# Velocity P-wave (km/s) = 7.10046 6.91315 7.00743
#
# Compressibility (1/GPa) = 0.01435337
#
# Stress axis : x y z
#
# Youngs Moduli (GPa) = 66.62965 115.11471 160.60110
#
# Poissons Ratio (x) = 0.48895 0.19237
# Poissons Ratio (y) = 0.28301 0.37564
# Poissons Ratio (z) = 0.07981 0.26925
#
# Static dielectric constant tensor:
#      x y z
#    x 1.961680 0.000000 0.000000 
#    y 0.000000 1.973660 0.000000 
#    z 0.000000 0.000000 2.044290 
# 
# From -- ./inp_files/10049.got.cif
#   From: 2010.05.17/outbox.cif.g08.bks.cpg/sg48_6_cif.got.tgz:10049.got - 2010.06.03 20:39:00.
