data_PCOD9390642
_publ_section_title
;
Structure prediction by ZEFSAII (Michael W. Deem and Ramdas Pophale) SiO2 
 PCOD9390642
Probable space group: P N N N
;
_chemical_formula_sum "Si O2"
_cell_formula_units_Z 58
_cell_length_a 17.676148
_cell_length_b 8.501268
_cell_length_c 17.787924
_cell_angle_alpha 90.000000
_cell_angle_beta 90.000000
_cell_angle_gamma 90.000000
_cell_volume 2672.985494
_symmetry_space_group_name_H-M "P N N N"
_symmetry_group_IT_number 48
_space_group.IT_coordinate_system_code '2'
_symmetry_cell_setting 'orthorhombic'
loop_
_space_group_symop_operation_xyz
x,y,z
1/2-x,1/2-y,z
x,1/2-y,1/2-z
1/2-x,y,1/2-z
-x,-y,-z
1/2+x,1/2+y,-z
-x,1/2+y,1/2+z
1/2+x,-y,1/2+z
loop_
_atom_site_type_symbol
_atom_site_label
_atom_site_fract_x
_atom_site_fract_y
_atom_site_fract_z
Si Si1 0.591462 0.021742 0.515882
Si Si2 0.000940 0.581561 0.742042
Si Si3 0.470556 0.539207 0.393923
Si Si4 0.861869 0.338140 0.367582
Si Si5 0.250000 0.250000 0.750000
Si Si6 0.391179 0.162594 0.990562
Si Si7 0.204758 0.495538 0.864741
Si Si8 0.613977 0.329589 0.824697
O O1 0.622265 0.847756 0.496260
O O2 0.500000 0.000000 0.500000
O O3 0.612638 0.153118 0.454279
O O4 0.628232 0.071349 0.596672
O O5 0.959991 0.750000 0.750000
O O6 0.071149 0.608624 0.687105
O O7 0.019210 0.535227 0.827052
O O8 0.948569 0.444750 0.710806
O O9 0.413464 0.413190 0.429749
O O10 0.530548 0.622952 0.447567
O O11 0.420265 0.675664 0.361230
O O12 0.832578 0.164609 0.348232
O O13 0.793242 0.460930 0.363690
O O14 0.197871 0.360665 0.802186
O O15 0.326787 0.073142 0.943093
O O16 0.656131 0.250000 0.750000
#
# Coordination Sequence:
#
# PCOD9390642 Si02
#       8
#     8   8   8   8   2   8   8   8
#     4  12  21  39  65  91 127 172 221 279 344 398
#     4  11  21  34  57  92 130 166 219 279 337 397
#     4  10  21  35  58  87 122 167 213 280 330 379
#     4  11  25  43  65  92 133 181 231 272 334 421
#     4  12  28  46  60  88 132 186 238 276 326 390
#     4  11  22  39  60  88 122 167 226 272 324 398
#     4  11  27  45  62  91 131 184 233 271 330 408
#     4  10  21  37  56  91 129 164 213 273 348 396
#
# _framework density 21.698585000000001
#
# number of rings (size 3 to 8) (size 9 to 14) (size 15 to 20)
#    0.000    1.103    2.759    3.310    5.793    0.552 
#    2.483    0.000    0.000    0.000    0.000   16.414 
#    0.000   18.759    0.000    0.000    0.000    0.000 
#
# Total GULP energy -323259.055367 kJ/mol
# GULP energy per Si atom -5573.431989 kJ/mol
# Density = 2.164920 g / cm^3
# Si number density = 21.698585 Si / 1000 Ang^3
#
#
#
# Elastic Constant Matrix: (Units=GPa)
#
#
# Indices 1 2 3 4 5 6 
#
# 1 31.6043 17.6765 26.1595 0.0000 0.0000 0.0000
# 2 17.6765 112.0539 57.1633 0.0000 0.0000 0.0000
# 3 26.1595 57.1633 125.1550 0.0000 0.0000 0.0000
# 4 0.0000 0.0000 0.0000 52.1288 0.0000 0.0000
# 5 0.0000 0.0000 0.0000 0.0000 14.5879 0.0000
# 6 0.0000 0.0000 0.0000 0.0000 0.0000 30.1380
#
#
#
# Elastic Compliance Matrix: (Units=1/GPa)
#
#
# Indices 1 2 3 4 5 6 
#
# 1 0.038828 -0.002588 -0.006934 0.000000 0.000000 0.000000
# 2 -0.002588 0.011808 -0.004852 0.000000 0.000000 0.000000
# 3 -0.006934 -0.004852 0.011656 0.000000 0.000000 0.000000
# 4 0.000000 0.000000 0.000000 0.019183 0.000000 0.000000
# 5 0.000000 0.000000 0.000000 0.000000 0.068550 0.000000
# 6 0.000000 0.000000 0.000000 0.000000 0.000000 0.033181
#
#
# Mechanical properties :
#
#
# Convention : Reuss Voigt Hill
#
# Bulk Modulus (GPa) = 29.81195 52.31242 41.06218
# Shear Modulus (GPa) = 22.40808 30.55853 26.48330
#
# Velocity S-wave (km/s) = 3.21705 3.75683 3.49737
# Velocity P-wave (km/s) = 5.25054 6.55587 5.93917
#
# Compressibility (1/GPa) = 0.03354360
#
# Stress axis : x y z
#
# Youngs Moduli (GPa) = 25.75478 84.68958 85.79619
#
# Poissons Ratio (x) = 0.21917 0.59488
# Poissons Ratio (y) = 0.06665 0.41630
# Poissons Ratio (z) = 0.17857 0.41093
#
# Static dielectric constant tensor:
#      x y z
#    x 1.798240 0.000000 0.000000 
#    y 0.000000 1.815050 0.000000 
#    z 0.000000 0.000000 1.950760 
# 
# From -- ./inp_files/32004.got.cif
#   From: 2010.05.17/outbox.cif.g08.bks.cpg/sg48_17_cif.got.tgz:32004.got - 2010.06.03 20:39:00.
