data_PCOD9390873
_publ_section_title
;
Structure prediction by ZEFSAII (Michael W. Deem and Ramdas Pophale) SiO2 
 PCOD9390873
Probable space group: P N N N
;
_chemical_formula_sum "Si O2"
_cell_formula_units_Z 54
_cell_length_a 11.541793
_cell_length_b 15.290437
_cell_length_c 15.352723
_cell_angle_alpha 90.000000
_cell_angle_beta 90.000000
_cell_angle_gamma 90.000000
_cell_volume 2709.434104
_symmetry_space_group_name_H-M "P N N N"
_symmetry_group_IT_number 48
_space_group.IT_coordinate_system_code '2'
_symmetry_cell_setting 'orthorhombic'
loop_
_space_group_symop_operation_xyz
x,y,z
1/2-x,1/2-y,z
x,1/2-y,1/2-z
1/2-x,y,1/2-z
-x,-y,-z
1/2+x,1/2+y,-z
-x,1/2+y,1/2+z
1/2+x,-y,1/2+z
loop_
_atom_site_type_symbol
_atom_site_label
_atom_site_fract_x
_atom_site_fract_y
_atom_site_fract_z
Si Si1 0.750000 0.750000 0.750000
Si Si2 0.115264 0.369948 0.385352
Si Si3 0.369221 0.331524 0.815898
Si Si4 0.250000 0.750000 0.978513
Si Si5 0.691720 0.426781 0.379847
Si Si6 0.000860 0.246628 0.974801
Si Si7 0.691694 0.895151 0.036618
Si Si8 0.069798 0.977500 0.784443
O O1 0.826676 0.688265 0.688903
O O2 0.025704 0.309868 0.438790
O O3 0.215055 0.391457 0.457268
O O4 0.042178 0.447242 0.339033
O O5 0.362870 0.250000 0.750000
O O6 0.454610 0.305112 0.892014
O O7 0.255478 0.357562 0.875076
O O8 0.417885 0.418585 0.769780
O O9 0.278455 0.833764 0.919340
O O10 0.364677 0.750233 0.035472
O O11 0.660780 0.504148 0.446712
O O12 0.591645 0.427264 0.306405
O O13 0.814219 0.456028 0.338558
O O14 0.080733 0.333598 0.981072
#
# Coordination Sequence:
#
# PCOD9390873 Si02
#       8
#     2   8   8   4   8   8   8   8
#     4  12  24  40  64  98 128 168 224 264 342 384
#     4  11  22  39  65  97 129 166 215 284 333 397
#     4  10  21  40  72  98 126 162 220 282 332 396
#     4  12  26  41  59  90 134 186 216 260 341 409
#     4  10  23  39  62  95 133 174 220 270 327 416
#     4  11  23  41  63  96 128 173 213 272 333 400
#     4  10  22  41  68  99 130 164 227 279 342 385
#     4  10  22  37  63 100 129 167 219 277 340 388
#
# _framework density 19.930361999999999
#
# number of rings (size 3 to 8) (size 9 to 14) (size 15 to 20)
#    0.000    1.481    2.963    2.222    4.148    9.481 
#    0.000    1.852    0.000    0.000    0.000    0.000 
#    0.000    0.000    0.000    0.000    0.000    0.000 
#
# Total GULP energy -301177.544252 kJ/mol
# GULP energy per Si atom -5577.361931 kJ/mol
# Density = 1.988500 g / cm^3
# Si number density = 19.930362 Si / 1000 Ang^3
#
#
#
# Elastic Constant Matrix: (Units=GPa)
#
#
# Indices 1 2 3 4 5 6 
#
# 1 121.4582 39.7775 36.5868 0.0000 0.0000 0.0000
# 2 39.7775 133.9384 42.0394 0.0000 0.0000 0.0000
# 3 36.5868 42.0394 66.4682 0.0000 0.0000 0.0000
# 4 0.0000 0.0000 0.0000 38.2679 0.0000 0.0000
# 5 0.0000 0.0000 0.0000 0.0000 12.8604 0.0000
# 6 0.0000 0.0000 0.0000 0.0000 0.0000 22.4694
#
#
#
# Elastic Compliance Matrix: (Units=1/GPa)
#
#
# Indices 1 2 3 4 5 6 
#
# 1 0.010128 -0.001570 -0.004582 0.000000 0.000000 0.000000
# 2 -0.001570 0.009559 -0.005182 0.000000 0.000000 0.000000
# 3 -0.004582 -0.005182 0.020844 0.000000 0.000000 0.000000
# 4 0.000000 0.000000 0.000000 0.026132 0.000000 0.000000
# 5 0.000000 0.000000 0.000000 0.000000 0.077758 0.000000
# 6 0.000000 0.000000 0.000000 0.000000 0.000000 0.044505
#
#
# Mechanical properties :
#
#
# Convention : Reuss Voigt Hill
#
# Bulk Modulus (GPa) = 55.97832 62.07469 59.02650
# Shear Modulus (GPa) = 22.98367 28.28361 25.63364
#
# Velocity S-wave (km/s) = 3.39956 3.77121 3.59020
# Velocity P-wave (km/s) = 6.59980 7.08351 6.84593
#
# Compressibility (1/GPa) = 0.01786406
#
# Stress axis : x y z
#
# Youngs Moduli (GPa) = 98.74085 104.61761 47.97530
#
# Poissons Ratio (x) = 0.16421 0.21982
# Poissons Ratio (y) = 0.15498 0.24859
# Poissons Ratio (z) = 0.45242 0.54209
#
# Static dielectric constant tensor:
#      x y z
#    x 1.751590 0.000000 0.000000 
#    y 0.000000 1.755460 0.000000 
#    z 0.000000 0.000000 1.718680 
# 
# From -- ./inp_files/26556.got.cif
#   From: 2010.05.17/outbox.cif.g08.bks.cpg/sg48_14_cif.got.tgz:26556.got - 2010.06.03 20:39:00.
