data_PCOD9390202
_publ_section_title
;
Structure prediction by ZEFSAII (Michael W. Deem and Ramdas Pophale) SiO2 
 PCOD9390202
Probable space group: P N N N
;
_chemical_formula_sum "Si O2"
_cell_formula_units_Z 58
_cell_length_a 16.925693
_cell_length_b 25.308375
_cell_length_c 5.165250
_cell_angle_alpha 90.000000
_cell_angle_beta 90.000000
_cell_angle_gamma 90.000000
_cell_volume 2212.595713
_symmetry_space_group_name_H-M "P N N N"
_symmetry_group_IT_number 48
_space_group.IT_coordinate_system_code '2'
_symmetry_cell_setting 'orthorhombic'
loop_
_space_group_symop_operation_xyz
x,y,z
1/2-x,1/2-y,z
x,1/2-y,1/2-z
1/2-x,y,1/2-z
-x,-y,-z
1/2+x,1/2+y,-z
-x,1/2+y,1/2+z
1/2+x,-y,1/2+z
loop_
_atom_site_type_symbol
_atom_site_label
_atom_site_fract_x
_atom_site_fract_y
_atom_site_fract_z
Si Si1 0.750000 0.750000 0.250000
Si Si2 0.014442 0.447830 0.170360
Si Si3 0.005008 0.175720 0.461995
Si Si4 0.878078 0.485136 0.532871
Si Si5 0.698398 0.579821 0.017100
Si Si6 0.606771 0.815616 0.466912
Si Si7 0.164708 0.619971 0.216710
Si Si8 0.657097 0.329088 0.227654
O O1 0.688040 0.783895 0.421951
O O2 0.005321 0.389891 0.046166
O O3 0.098551 0.465857 0.279903
O O4 0.952280 0.456440 0.402918
O O5 0.000000 0.500000 0.000000
O O6 0.046635 0.191487 0.727241
O O7 0.915235 0.196252 0.396710
O O8 0.060533 0.194350 0.231024
O O9 0.826032 0.522511 0.358161
O O10 0.837116 0.439028 0.685593
O O11 0.750000 0.578321 0.750000
O O12 0.750000 0.604224 0.250000
O O13 0.628391 0.622821 0.011737
O O14 0.250000 0.644937 0.250000
O O15 0.123862 0.655737 0.443097
O O16 0.159226 0.618234 0.906474
O O17 0.750000 0.309187 0.250000
#
# Coordination Sequence:
#
# PCOD9390202 Si02
#       8
#     2   8   8   8   8   8   8   8
#     4  12  32  58  88 114 146 178 248 318 428 466
#     4  11  23  35  59  85 134 190 237 296 348 418
#     4  12  24  45  70 105 143 186 243 297 368 444
#     4  11  23  35  52  86 125 188 239 291 345 405
#     4  12  26  44  64  94 136 188 246 308 374 432
#     4  12  28  49  78 105 137 182 235 318 392 476
#     4  10  20  34  51  83 126 187 243 285 331 388
#     4  10  21  38  63  94 142 187 235 282 335 407
#
# _framework density 26.213553999999998
#
# number of rings (size 3 to 8) (size 9 to 14) (size 15 to 20)
#    0.000    0.828    3.448    3.724    3.862    2.759 
#    0.000    0.000    0.000    0.000    0.000    2.897 
#    0.000    0.000    0.000    0.000    0.000    0.000 
#
# Total GULP energy -322953.311411 kJ/mol
# GULP energy per Si atom -5568.160542 kJ/mol
# Density = 2.615389 g / cm^3
# Si number density = 26.213554 Si / 1000 Ang^3
#
#
#
# Elastic Constant Matrix: (Units=GPa)
#
#
# Indices 1 2 3 4 5 6 
#
# 1 109.3711 11.6493 2.0969 0.0000 0.0000 0.0000
# 2 11.6493 122.4227 24.8858 0.0000 0.0000 0.0000
# 3 2.0969 24.8858 79.9028 0.0000 0.0000 0.0000
# 4 0.0000 0.0000 0.0000 -88.8065 0.0000 0.0000
# 5 0.0000 0.0000 0.0000 0.0000 36.7464 0.0000
# 6 0.0000 0.0000 0.0000 0.0000 0.0000 14.4158
#
#
#
# Elastic Compliance Matrix: (Units=1/GPa)
#
#
# Indices 1 2 3 4 5 6 
#
# 1 0.009237 -0.000886 0.000033 0.000000 0.000000 0.000000
# 2 -0.000886 0.008805 -0.002719 0.000000 0.000000 0.000000
# 3 0.000033 -0.002719 0.013361 0.000000 0.000000 0.000000
# 4 0.000000 0.000000 0.000000 -0.011260 0.000000 0.000000
# 5 0.000000 0.000000 0.000000 0.000000 0.027214 0.000000
# 6 0.000000 0.000000 0.000000 0.000000 0.000000 0.069368
#
#
# Mechanical properties :
#
#
# Convention : Reuss Voigt Hill
#
# Bulk Modulus (GPa) = 41.21915 43.21782 42.21848
# Shear Modulus (GPa) = 37.89171 10.67544 24.28357
#
# Velocity S-wave (km/s) = 3.80610 2.02023 3.04694
# Velocity P-wave (km/s) = 5.92230 4.68662 5.34032
#
# Compressibility (1/GPa) = 0.02426057
#
# Stress axis : x y z
#
# Youngs Moduli (GPa) = 108.26157 113.56584 74.84340
#
# Poissons Ratio (x) = 0.10059 -0.00250
# Poissons Ratio (y) = 0.09589 0.20352
# Poissons Ratio (z) = -0.00362 0.30881
#
# Static dielectric constant tensor:
#      x y z
#    x 2.872210 0.000000 0.000000 
#    y 0.000000 2.259780 0.000000 
#    z 0.000000 0.000000 2.104070 
# 
# From -- ./inp_files/4698.got.cif
#   From: 2010.05.17/outbox.cif.g08.bks.cpg/sg48_3_cif.got.tgz:4698.got - 2010.06.03 20:39:00.
