data_PCOD9390468
_publ_section_title
;
Structure prediction by ZEFSAII (Michael W. Deem and Ramdas Pophale) SiO2 
 PCOD9390468
Probable space group: P N N N
;
_chemical_formula_sum "Si O2"
_cell_formula_units_Z 64
_cell_length_a 14.481628
_cell_length_b 18.611725
_cell_length_c 11.255846
_cell_angle_alpha 90.000000
_cell_angle_beta 90.000000
_cell_angle_gamma 90.000000
_cell_volume 3033.766537
_symmetry_space_group_name_H-M "P N N N"
_symmetry_group_IT_number 48
_space_group.IT_coordinate_system_code '2'
_symmetry_cell_setting 'orthorhombic'
loop_
_space_group_symop_operation_xyz
x,y,z
1/2-x,1/2-y,z
x,1/2-y,1/2-z
1/2-x,y,1/2-z
-x,-y,-z
1/2+x,1/2+y,-z
-x,1/2+y,1/2+z
1/2+x,-y,1/2+z
loop_
_atom_site_type_symbol
_atom_site_label
_atom_site_fract_x
_atom_site_fract_y
_atom_site_fract_z
Si Si1 0.436245 0.036609 0.332343
Si Si2 0.145545 0.902553 0.248687
Si Si3 0.953155 0.215216 0.882089
Si Si4 0.633204 0.156842 0.996917
Si Si5 0.027106 0.834474 0.742306
Si Si6 0.696758 0.393971 0.127130
Si Si7 0.840544 0.710149 0.377315
Si Si8 0.383193 0.454395 0.895317
O O1 0.444046 0.111064 0.263416
O O2 0.420083 0.052584 0.470480
O O3 0.357170 0.985548 0.283209
O O4 0.530934 0.988527 0.320292
O O5 0.250000 0.873545 0.250000
O O6 0.085371 0.863141 0.147087
O O7 0.105492 0.888529 0.380330
O O8 0.954301 0.250000 0.750000
O O9 0.883850 0.261855 0.958367
O O10 0.057019 0.220619 0.933025
O O11 0.573555 0.146088 0.115854
O O12 0.738123 0.139218 0.028154
O O13 0.009069 0.750000 0.750000
O O14 0.098423 0.857218 0.848067
O O15 0.750000 0.381585 0.250000
O O16 0.687407 0.479012 0.106410
O O17 0.750000 0.750000 0.433286
O O18 0.846431 0.750000 0.250000
O O19 0.839863 0.623003 0.360563
#
# Coordination Sequence:
#
# PCOD9390468 Si02
#       8
#     8   8   8   8   8   8   8   8
#     4  10  22  40  60  85 118 167 218 261 311 382
#     4  11  22  38  63  93 127 164 210 263 324 393
#     4   9  20  37  58  94 130 159 203 259 327 385
#     4  10  22  38  61  91 130 162 197 265 328 379
#     4  10  23  39  60  86 119 168 215 258 315 387
#     4   9  20  37  59  94 122 160 206 258 318 380
#     4  10  21  37  62  97 125 166 210 271 326 375
#     4  10  20  38  65  85 121 165 215 267 309 377
#
# _framework density 21.095887999999999
#
# number of rings (size 3 to 8) (size 9 to 14) (size 15 to 20)
#    0.000    2.125    1.250    0.750    3.500    8.000 
#    0.000    2.500    0.000    0.000    0.000    0.000 
#    0.000    0.000    0.000    0.000    0.000    0.000 
#
# Total GULP energy -356908.458820 kJ/mol
# GULP energy per Si atom -5576.694669 kJ/mol
# Density = 2.104787 g / cm^3
# Si number density = 21.095888 Si / 1000 Ang^3
#
#
#
# Elastic Constant Matrix: (Units=GPa)
#
#
# Indices 1 2 3 4 5 6 
#
# 1 70.6046 34.2232 -2.5609 0.0000 0.0000 0.0000
# 2 34.2232 148.6872 16.2525 0.0000 0.0000 0.0000
# 3 -2.5609 16.2525 71.8820 0.0000 0.0000 0.0000
# 4 0.0000 0.0000 0.0000 27.8467 0.0000 0.0000
# 5 0.0000 0.0000 0.0000 0.0000 2.0414 0.0000
# 6 0.0000 0.0000 0.0000 0.0000 0.0000 30.1741
#
#
#
# Elastic Compliance Matrix: (Units=1/GPa)
#
#
# Indices 1 2 3 4 5 6 
#
# 1 0.016087 -0.003861 0.001446 0.000000 0.000000 0.000000
# 2 -0.003861 0.007823 -0.001906 0.000000 0.000000 0.000000
# 3 0.001446 -0.001906 0.014394 0.000000 0.000000 0.000000
# 4 0.000000 0.000000 0.000000 0.035911 0.000000 0.000000
# 5 0.000000 0.000000 0.000000 0.000000 0.489862 0.000000
# 6 0.000000 0.000000 0.000000 0.000000 0.000000 0.033141
#
#
# Mechanical properties :
#
#
# Convention : Reuss Voigt Hill
#
# Bulk Modulus (GPa) = 33.71318 43.00039 38.35678
# Shear Modulus (GPa) = 8.12021 28.22969 18.17495
#
# Velocity S-wave (km/s) = 1.96406 3.66206 2.93838
# Velocity P-wave (km/s) = 4.59989 6.18938 5.45286
#
# Compressibility (1/GPa) = 0.02966199
#
# Stress axis : x y z
#
# Youngs Moduli (GPa) = 62.16099 127.83572 69.47237
#
# Poissons Ratio (x) = 0.49356 -0.10046
# Poissons Ratio (y) = 0.23999 0.13243
# Poissons Ratio (z) = -0.08989 0.24368
#
# Static dielectric constant tensor:
#      x y z
#    x 1.809330 0.000000 0.000000 
#    y 0.000000 1.788450 0.000000 
#    z 0.000000 0.000000 1.767520 
# 
# From -- ./inp_files/21561.got.cif
#   From: 2010.05.17/outbox.cif.g08.bks.cpg/sg48_11_cif.got.tgz:21561.got - 2010.06.03 20:39:00.
