data_PCOD9390132
_publ_section_title
;
Structure prediction by ZEFSAII (Michael W. Deem and Ramdas Pophale) SiO2 
 PCOD9390132
Probable space group: P N N N
;
_chemical_formula_sum "Si O2"
_cell_formula_units_Z 34
_cell_length_a 6.859424
_cell_length_b 9.801307
_cell_length_c 21.639806
_cell_angle_alpha 90.000000
_cell_angle_beta 90.000000
_cell_angle_gamma 90.000000
_cell_volume 1454.872732
_symmetry_space_group_name_H-M "P N N N"
_symmetry_group_IT_number 48
_space_group.IT_coordinate_system_code '2'
_symmetry_cell_setting 'orthorhombic'
loop_
_space_group_symop_operation_xyz
x,y,z
1/2-x,1/2-y,z
x,1/2-y,1/2-z
1/2-x,y,1/2-z
-x,-y,-z
1/2+x,1/2+y,-z
-x,1/2+y,1/2+z
1/2+x,-y,1/2+z
loop_
_atom_site_type_symbol
_atom_site_label
_atom_site_fract_x
_atom_site_fract_y
_atom_site_fract_z
Si Si1 0.072824 0.355170 0.569717
Si Si2 0.750000 0.750000 0.750000
Si Si3 0.509177 0.144901 0.428211
Si Si4 0.979894 0.710867 0.181524
Si Si5 0.411985 0.408889 0.362834
O O1 0.250000 0.250000 0.563936
O O2 0.979626 0.345910 0.502226
O O3 0.944493 0.309726 0.627661
O O4 0.134298 0.509814 0.584828
O O5 0.627225 0.656853 0.704203
O O6 0.539370 0.292679 0.397997
O O7 0.291031 0.098205 0.403217
O O8 0.750000 0.750000 0.184415
O O9 0.050354 0.750000 0.250000
O O10 0.014558 0.559174 0.155082
#
# Coordination Sequence:
#
# PCOD9390132 Si02
#       5
#     8   2   8   8   8
#     4  10  19  40  61  88 139 163 210 265 324 390
#     4   8  20  36  66  90 124 156 204 286 304 384
#     4   9  20  38  66  98 120 167 214 272 322 376
#     4  10  24  41  61  89 132 174 205 264 325 395
#     4  10  20  40  65  97 122 160 223 263 328 379
#
# _framework density 23.369741999999999
#
# number of rings (size 3 to 8) (size 9 to 14) (size 15 to 20)
#    0.000    2.588    2.353    0.000    6.588    1.882 
#    0.000    4.706    0.000    0.000    0.000    0.000 
#    0.000    0.000    0.000    0.000    0.000    0.000 
#
# Total GULP energy -189381.436885 kJ/mol
# GULP energy per Si atom -5570.042261 kJ/mol
# Density = 2.331655 g / cm^3
# Si number density = 23.369742 Si / 1000 Ang^3
#
#
#
# Elastic Constant Matrix: (Units=GPa)
#
#
# Indices 1 2 3 4 5 6 
#
# 1 78.9551 47.0365 10.3207 0.0000 0.0000 0.0000
# 2 47.0365 266.5673 91.9894 0.0000 0.0000 0.0000
# 3 10.3207 91.9894 216.6578 0.0000 0.0000 0.0000
# 4 0.0000 0.0000 0.0000 66.7495 0.0000 0.0000
# 5 0.0000 0.0000 0.0000 0.0000 -20.9258 0.0000
# 6 0.0000 0.0000 0.0000 0.0000 0.0000 46.0683
#
#
#
# Elastic Compliance Matrix: (Units=1/GPa)
#
#
# Indices 1 2 3 4 5 6 
#
# 1 0.014191 -0.002661 0.000454 0.000000 0.000000 0.000000
# 2 -0.002661 0.004894 -0.001951 0.000000 0.000000 0.000000
# 3 0.000454 -0.001951 0.005422 0.000000 0.000000 0.000000
# 4 0.000000 0.000000 0.000000 0.014981 0.000000 0.000000
# 5 0.000000 0.000000 0.000000 0.000000 -0.047788 0.000000
# 6 0.000000 0.000000 0.000000 0.000000 0.000000 0.021707
#
#
# Mechanical properties :
#
#
# Convention : Reuss Voigt Hill
#
# Bulk Modulus (GPa) = 61.76137 95.65260 78.70699
# Shear Modulus (GPa) = 184.35336 45.90064 115.12700
#
# Velocity S-wave (km/s) = 8.89139 4.43663 7.02639
# Velocity P-wave (km/s) = 11.48452 8.20146 9.97893
#
# Compressibility (1/GPa) = 0.01619135
#
# Stress axis : x y z
#
# Youngs Moduli (GPa) = 70.46638 204.32217 184.41879
#
# Poissons Ratio (x) = 0.54362 -0.08366
# Poissons Ratio (y) = 0.18748 0.35985
# Poissons Ratio (z) = -0.03197 0.39869
#
# Static dielectric constant tensor:
#      x y z
#    x 2.098220 0.000000 0.000000 
#    y 0.000000 1.934470 0.000000 
#    z 0.000000 0.000000 1.913920 
# 
# From -- ./inp_files/14833.got.cif
#   From: 2010.05.17/outbox.cif.g08.bks.cpg/sg48_8_cif.got.tgz:14833.got - 2010.06.03 20:39:00.
