data_PCOD9390836
_publ_section_title
;
Structure prediction by ZEFSAII (Michael W. Deem and Ramdas Pophale) SiO2 
 PCOD9390836
Probable space group: P N N N
;
_chemical_formula_sum "Si O2"
_cell_formula_units_Z 56
_cell_length_a 15.787746
_cell_length_b 8.250704
_cell_length_c 20.054874
_cell_angle_alpha 90.000000
_cell_angle_beta 90.000000
_cell_angle_gamma 90.000000
_cell_volume 2612.348270
_symmetry_space_group_name_H-M "P N N N"
_symmetry_group_IT_number 48
_space_group.IT_coordinate_system_code '2'
_symmetry_cell_setting 'orthorhombic'
loop_
_space_group_symop_operation_xyz
x,y,z
1/2-x,1/2-y,z
x,1/2-y,1/2-z
1/2-x,y,1/2-z
-x,-y,-z
1/2+x,1/2+y,-z
-x,1/2+y,1/2+z
1/2+x,-y,1/2+z
loop_
_atom_site_type_symbol
_atom_site_label
_atom_site_fract_x
_atom_site_fract_y
_atom_site_fract_z
Si Si1 0.155892 0.053665 0.758634
Si Si2 0.940308 0.365822 0.371219
Si Si3 0.504105 0.824157 0.444313
Si Si4 0.846240 0.190539 0.482464
Si Si5 0.894389 0.691206 0.820251
Si Si6 0.658972 0.818500 0.971436
Si Si7 0.496983 0.879229 0.190245
O O1 0.161458 0.250000 0.750000
O O2 0.250000 0.988906 0.750000
O O3 0.081626 0.017968 0.706495
O O4 0.120469 0.978294 0.826555
O O5 0.887784 0.229417 0.410584
O O6 0.980021 0.491687 0.423951
O O7 0.018552 0.293620 0.330020
O O8 0.409517 0.789286 0.469561
O O9 0.578396 0.765675 0.493697
O O10 0.511460 0.716641 0.377434
O O11 0.750000 0.250000 0.483941
O O12 0.848155 0.005343 0.506202
O O13 0.855378 0.750000 0.750000
O O14 0.847718 0.705357 0.891398
O O15 0.920327 0.503538 0.813763
O O16 0.750000 0.750000 0.994290
O O17 0.484266 0.750000 0.250000
#
# Coordination Sequence:
#
# PCOD9390836 Si02
#       7
#     8   8   8   8   8   8   8
#     4  10  21  40  63 103 144 186 230 281 353 435
#     4  12  24  42  72 107 140 195 232 296 352 436
#     4  12  23  46  77 100 146 193 238 288 365 430
#     4  12  27  46  69 109 141 183 245 302 359 431
#     4  12  24  44  75 101 137 181 245 293 357 426
#     4  12  28  49  73 101 141 194 241 304 360 428
#     4  11  21  43  70 102 137 191 233 283 363 435
#
# _framework density 21.436651000000001
#
# number of rings (size 3 to 8) (size 9 to 14) (size 15 to 20)
#    0.000    0.429    7.143    2.571    2.000    3.714 
#    0.000    0.714    0.000    0.429    0.000    0.000 
#    0.000    0.000    0.000    0.000    0.000    0.000 
#
# Total GULP energy -312942.296458 kJ/mol
# GULP energy per Si atom -5588.255294 kJ/mol
# Density = 2.138786 g / cm^3
# Si number density = 21.436651 Si / 1000 Ang^3
#
#
#
# Elastic Constant Matrix: (Units=GPa)
#
#
# Indices 1 2 3 4 5 6 
#
# 1 107.4832 28.5659 33.0650 0.0000 0.0000 0.0000
# 2 28.5659 105.6839 45.7390 0.0000 0.0000 0.0000
# 3 33.0650 45.7390 135.2791 0.0000 0.0000 0.0000
# 4 0.0000 0.0000 0.0000 44.2593 0.0000 0.0000
# 5 0.0000 0.0000 0.0000 0.0000 6.4909 0.0000
# 6 0.0000 0.0000 0.0000 0.0000 0.0000 25.0626
#
#
#
# Elastic Compliance Matrix: (Units=1/GPa)
#
#
# Indices 1 2 3 4 5 6 
#
# 1 0.010411 -0.002006 -0.001866 0.000000 0.000000 0.000000
# 2 -0.002006 0.011471 -0.003388 0.000000 0.000000 0.000000
# 3 -0.001866 -0.003388 0.008994 0.000000 0.000000 0.000000
# 4 0.000000 0.000000 0.000000 0.022594 0.000000 0.000000
# 5 0.000000 0.000000 0.000000 0.000000 0.154062 0.000000
# 6 0.000000 0.000000 0.000000 0.000000 0.000000 0.039900
#
#
# Mechanical properties :
#
#
# Convention : Reuss Voigt Hill
#
# Bulk Modulus (GPa) = 61.14565 62.57623 61.86094
# Shear Modulus (GPa) = 18.69824 31.23431 24.96627
#
# Velocity S-wave (km/s) = 2.95660 3.82128 3.41640
# Velocity P-wave (km/s) = 6.34359 6.98027 6.66953
#
# Compressibility (1/GPa) = 0.01635439
#
# Stress axis : x y z
#
# Youngs Moduli (GPa) = 96.05092 87.17804 111.18771
#
# Poissons Ratio (x) = 0.17491 0.20751
# Poissons Ratio (y) = 0.19271 0.37670
# Poissons Ratio (z) = 0.17926 0.29536
#
# Static dielectric constant tensor:
#      x y z
#    x 1.752520 0.000000 0.000000 
#    y 0.000000 1.791130 0.000000 
#    z 0.000000 0.000000 1.834520 
# 
# From -- ./inp_files/34490.got.cif
#   From: 2010.05.17/outbox.cif.g08.bks.cpg/sg48_18_cif.got.tgz:34490.got - 2010.06.03 20:39:00.
