data_PCOD9390578
_publ_section_title
;
Structure prediction by ZEFSAII (Michael W. Deem and Ramdas Pophale) SiO2 
 PCOD9390578
Probable space group: P N N N
;
_chemical_formula_sum "Si O2"
_cell_formula_units_Z 40
_cell_length_a 9.364618
_cell_length_b 7.956248
_cell_length_c 23.526601
_cell_angle_alpha 90.000000
_cell_angle_beta 90.000000
_cell_angle_gamma 90.000000
_cell_volume 1752.901713
_symmetry_space_group_name_H-M "P N N N"
_symmetry_group_IT_number 48
_space_group.IT_coordinate_system_code '2'
_symmetry_cell_setting 'orthorhombic'
loop_
_space_group_symop_operation_xyz
x,y,z
1/2-x,1/2-y,z
x,1/2-y,1/2-z
1/2-x,y,1/2-z
-x,-y,-z
1/2+x,1/2+y,-z
-x,1/2+y,1/2+z
1/2+x,-y,1/2+z
loop_
_atom_site_type_symbol
_atom_site_label
_atom_site_fract_x
_atom_site_fract_y
_atom_site_fract_z
Si Si1 0.537284 0.464074 0.809621
Si Si2 0.287338 0.936274 0.622835
Si Si3 0.711290 0.447603 0.617873
Si Si4 0.173037 0.435454 0.994659
Si Si5 0.455999 0.428088 0.687881
O O1 0.451036 0.532191 0.863627
O O2 0.698426 0.501337 0.826807
O O3 0.486030 0.519233 0.747455
O O4 0.508797 0.263758 0.808166
O O5 0.250000 0.750000 0.641097
O O6 0.235985 0.963745 0.558921
O O7 0.204303 0.057491 0.666695
O O8 0.750000 0.250000 0.611943
O O9 0.736715 0.522003 0.556242
O O10 0.550858 0.493640 0.635732
O O11 0.250000 0.250000 0.983029
O O12 0.000000 0.500000 0.000000
#
# Coordination Sequence:
#
# PCOD9390578 Si02
#       5
#     8   8   8   8   8
#     4  10  22  38  69  99 131 181 224 285 342 424
#     4  12  26  42  65  96 136 178 231 286 351 419
#     4  10  22  41  69  99 135 175 229 284 347 418
#     4  12  27  47  74  99 138 185 234 294 362 436
#     4  10  20  42  65  98 137 174 228 279 347 416
#
# _framework density 22.819306000000001
#
# number of rings (size 3 to 8) (size 9 to 14) (size 15 to 20)
#    0.000    1.200    2.000    3.600    5.600    6.400 
#    0.000    0.000    0.000    3.600    0.000    0.000 
#    0.000    0.000    0.000    0.000    0.000    0.000 
#
# Total GULP energy -222680.782041 kJ/mol
# GULP energy per Si atom -5567.019551 kJ/mol
# Density = 2.276737 g / cm^3
# Si number density = 22.819306 Si / 1000 Ang^3
#
#
#
# Elastic Constant Matrix: (Units=GPa)
#
#
# Indices 1 2 3 4 5 6 
#
# 1 42.2306 18.0040 -9.8430 0.0000 0.0000 0.0000
# 2 18.0040 47.8935 7.5106 0.0000 0.0000 0.0000
# 3 -9.8430 7.5106 115.3541 0.0000 0.0000 0.0000
# 4 0.0000 0.0000 0.0000 11.3712 0.0000 0.0000
# 5 0.0000 0.0000 0.0000 0.0000 10.6205 0.0000
# 6 0.0000 0.0000 0.0000 0.0000 0.0000 4.7465
#
#
#
# Elastic Compliance Matrix: (Units=1/GPa)
#
#
# Indices 1 2 3 4 5 6 
#
# 1 0.029362 -0.011549 0.003257 0.000000 0.000000 0.000000
# 2 -0.011549 0.025637 -0.002655 0.000000 0.000000 0.000000
# 3 0.003257 -0.002655 0.009120 0.000000 0.000000 0.000000
# 4 0.000000 0.000000 0.000000 0.087941 0.000000 0.000000
# 5 0.000000 0.000000 0.000000 0.000000 0.094158 0.000000
# 6 0.000000 0.000000 0.000000 0.000000 0.000000 0.210680
#
#
# Mechanical properties :
#
#
# Convention : Reuss Voigt Hill
#
# Bulk Modulus (GPa) = 23.68126 26.31349 24.99737
# Shear Modulus (GPa) = 10.14474 18.00141 14.07308
#
# Velocity S-wave (km/s) = 2.11077 2.81173 2.48607
# Velocity P-wave (km/s) = 4.04236 4.70078 4.38395
#
# Compressibility (1/GPa) = 0.04222749
#
# Stress axis : x y z
#
# Youngs Moduli (GPa) = 34.05740 39.00572 109.65214
#
# Poissons Ratio (x) = 0.45046 -0.35718
# Poissons Ratio (y) = 0.39331 0.29109
# Poissons Ratio (z) = -0.11094 0.10355
#
# Static dielectric constant tensor:
#      x y z
#    x 2.074480 0.000000 0.000000 
#    y 0.000000 1.908170 0.000000 
#    z 0.000000 0.000000 1.807680 
# 
# From -- ./inp_files/8983.got.cif
#   From: 2010.05.17/outbox.cif.g08.bks.cpg/sg48_5_cif.got.tgz:8983.got - 2010.06.03 20:39:00.
