data_PCOD9390982
_publ_section_title
;
Structure prediction by ZEFSAII (Michael W. Deem and Ramdas Pophale) SiO2 
 PCOD9390982
Probable space group: P N N N
;
_chemical_formula_sum "Si O2"
_cell_formula_units_Z 38
_cell_length_a 12.800231
_cell_length_b 25.698759
_cell_length_c 5.350391
_cell_angle_alpha 90.000000
_cell_angle_beta 90.000000
_cell_angle_gamma 90.000000
_cell_volume 1760.011396
_symmetry_space_group_name_H-M "P N N N"
_symmetry_group_IT_number 48
_space_group.IT_coordinate_system_code '2'
_symmetry_cell_setting 'orthorhombic'
loop_
_space_group_symop_operation_xyz
x,y,z
1/2-x,1/2-y,z
x,1/2-y,1/2-z
1/2-x,y,1/2-z
-x,-y,-z
1/2+x,1/2+y,-z
-x,1/2+y,1/2+z
1/2+x,-y,1/2+z
loop_
_atom_site_type_symbol
_atom_site_label
_atom_site_fract_x
_atom_site_fract_y
_atom_site_fract_z
Si Si1 0.250000 0.577740 0.250000
Si Si2 0.336586 0.668097 0.923959
Si Si3 0.868150 0.630378 0.250440
Si Si4 0.563992 0.812683 0.746682
Si Si5 0.250000 0.750000 0.250000
Si Si6 0.524228 0.032134 0.752570
O O1 0.214449 0.615223 0.476816
O O2 0.146192 0.545067 0.214592
O O3 0.250000 0.693387 0.750000
O O4 0.445701 0.665739 0.785885
O O5 0.335884 0.708289 0.149357
O O6 0.750000 0.608841 0.250000
O O7 0.879756 0.665719 0.498138
O O8 0.954645 0.584681 0.257479
O O9 0.888470 0.663977 0.000407
O O10 0.563064 0.750000 0.750000
O O11 0.500000 0.000000 0.500000
O O12 0.500000 0.000000 0.000000
#
# Coordination Sequence:
#
# PCOD9390982 Si02
#       6
#     4   8   8   8   2   8
#     4  11  26  47  76 104 148 186 241 312 375 440
#     4  11  23  40  69 102 151 188 242 295 369 434
#     4  12  28  51  73 107 151 194 251 306 364 442
#     4  12  26  45  76 109 149 198 247 300 365 441
#     4  10  22  36  60 110 142 200 226 300 356 450
#     4  12  29  49  78 110 143 193 248 310 380 437
#
# _framework density 21.590769000000002
#
# number of rings (size 3 to 8) (size 9 to 14) (size 15 to 20)
#    0.000    0.421    2.105    5.368   11.789    2.526 
#    0.000    0.000    0.000    0.000    0.000    0.000 
#    0.000    0.000    0.000    0.000    0.000    0.000 
#
# Total GULP energy -212299.331095 kJ/mol
# GULP energy per Si atom -5586.824503 kJ/mol
# Density = 2.154163 g / cm^3
# Si number density = 21.590769 Si / 1000 Ang^3
#
#
#
# Elastic Constant Matrix: (Units=GPa)
#
#
# Indices 1 2 3 4 5 6 
#
# 1 184.6412 60.5499 41.5116 0.0000 0.0000 0.0000
# 2 60.5499 132.5884 76.4073 0.0000 0.0000 0.0000
# 3 41.5116 76.4073 149.9038 0.0000 0.0000 0.0000
# 4 0.0000 0.0000 0.0000 7.8076 0.0000 0.0000
# 5 0.0000 0.0000 0.0000 0.0000 22.8792 0.0000
# 6 0.0000 0.0000 0.0000 0.0000 0.0000 20.9438
#
#
#
# Elastic Compliance Matrix: (Units=1/GPa)
#
#
# Indices 1 2 3 4 5 6 
#
# 1 0.006387 -0.002687 -0.000399 0.000000 0.000000 0.000000
# 2 -0.002687 0.011809 -0.005275 0.000000 0.000000 0.000000
# 3 -0.000399 -0.005275 0.009470 0.000000 0.000000 0.000000
# 4 0.000000 0.000000 0.000000 0.128080 0.000000 0.000000
# 5 0.000000 0.000000 0.000000 0.000000 0.043708 0.000000
# 6 0.000000 0.000000 0.000000 0.000000 0.000000 0.047747
#
#
# Mechanical properties :
#
#
# Convention : Reuss Voigt Hill
#
# Bulk Modulus (GPa) = 91.37430 91.56346 91.46888
# Shear Modulus (GPa) = 18.68668 29.57044 24.12856
#
# Velocity S-wave (km/s) = 2.94512 3.70481 3.34659
# Velocity P-wave (km/s) = 7.34696 7.79753 7.57560
#
# Compressibility (1/GPa) = 0.01094400
#
# Stress axis : x y z
#
# Youngs Moduli (GPa) = 156.57586 84.68132 105.59315
#
# Poissons Ratio (x) = 0.22750 0.04216
# Poissons Ratio (y) = 0.42065 0.55702
# Poissons Ratio (z) = 0.06251 0.44671
#
# Static dielectric constant tensor:
#      x y z
#    x 2.714400 0.000000 0.000000 
#    y 0.000000 1.875660 0.000000 
#    z 0.000000 0.000000 1.819190 
# 
# From -- ./inp_files/2465.got.cif
#   From: 2010.05.17/outbox.cif.g08.bks.cpg/sg48_2_cif.got.tgz:2465.got - 2010.06.03 20:39:00.
