data_PCOD9390753
_publ_section_title
;
Structure prediction by ZEFSAII (Michael W. Deem and Ramdas Pophale) SiO2 
 PCOD9390753
Probable space group: P N N N
;
_chemical_formula_sum "Si O2"
_cell_formula_units_Z 52
_cell_length_a 15.950246
_cell_length_b 8.741307
_cell_length_c 18.720175
_cell_angle_alpha 90.000000
_cell_angle_beta 90.000000
_cell_angle_gamma 90.000000
_cell_volume 2610.079064
_symmetry_space_group_name_H-M "P N N N"
_symmetry_group_IT_number 48
_space_group.IT_coordinate_system_code '2'
_symmetry_cell_setting 'orthorhombic'
loop_
_space_group_symop_operation_xyz
x,y,z
1/2-x,1/2-y,z
x,1/2-y,1/2-z
1/2-x,y,1/2-z
-x,-y,-z
1/2+x,1/2+y,-z
-x,1/2+y,1/2+z
1/2+x,-y,1/2+z
loop_
_atom_site_type_symbol
_atom_site_label
_atom_site_fract_x
_atom_site_fract_y
_atom_site_fract_z
Si Si1 0.929929 0.051446 0.100991
Si Si2 0.622110 0.511867 0.703449
Si Si3 0.556035 0.156259 0.178835
Si Si4 0.622533 0.536702 0.948531
Si Si5 0.250000 0.250000 0.133272
Si Si6 0.154243 0.430826 0.745897
Si Si7 0.158040 0.807314 0.159218
O O1 0.921339 0.234251 0.113463
O O2 0.029032 0.036100 0.085138
O O3 0.895758 0.975405 0.173578
O O4 0.884714 0.976490 0.033280
O O5 0.541527 0.616992 0.689895
O O6 0.701011 0.617364 0.678737
O O7 0.630773 0.438609 0.783421
O O8 0.608066 0.351963 0.661040
O O9 0.581703 0.250000 0.250000
O O10 0.606098 0.000224 0.186220
O O11 0.679532 0.670815 0.916261
O O12 0.661114 0.381578 0.917582
O O13 0.155462 0.250000 0.750000
O O14 0.250000 0.488597 0.750000
O O15 0.250000 0.750000 0.178594
#
# Coordination Sequence:
#
# PCOD9390753 Si02
#       7
#     8   8   8   8   4   8   8
#     4  10  23  45  66  92 128 171 218 270 327 389
#     4  11  23  35  61  92 130 164 213 263 313 376
#     4  10  21  38  64  96 121 161 214 262 322 376
#     4  11  24  43  63  91 135 177 213 262 326 403
#     4  12  24  39  64  94 129 176 218 264 315 394
#     4  10  23  43  68  98 122 157 219 284 333 373
#     4  11  23  38  54  94 131 172 209 251 320 384
#
# _framework density 19.922768000000001
#
# number of rings (size 3 to 8) (size 9 to 14) (size 15 to 20)
#    0.000    1.385    3.077    2.769    4.308    4.615 
#    2.769    2.308    0.000    0.000    0.000    0.000 
#    0.000    0.000    0.000    0.000    0.000    0.000 
#
# Total GULP energy -289805.083196 kJ/mol
# GULP energy per Si atom -5573.174677 kJ/mol
# Density = 1.987742 g / cm^3
# Si number density = 19.922768 Si / 1000 Ang^3
#
#
#
# Elastic Constant Matrix: (Units=GPa)
#
#
# Indices 1 2 3 4 5 6 
#
# 1 80.7296 26.9704 31.7269 0.0000 0.0000 0.0000
# 2 26.9704 100.2695 41.2663 0.0000 0.0000 0.0000
# 3 31.7269 41.2663 82.6646 0.0000 0.0000 0.0000
# 4 0.0000 0.0000 0.0000 13.1837 0.0000 0.0000
# 5 0.0000 0.0000 0.0000 0.0000 22.1206 0.0000
# 6 0.0000 0.0000 0.0000 0.0000 0.0000 31.8998
#
#
#
# Elastic Compliance Matrix: (Units=1/GPa)
#
#
# Indices 1 2 3 4 5 6 
#
# 1 0.014926 -0.002086 -0.004687 0.000000 0.000000 0.000000
# 2 -0.002086 0.012843 -0.005611 0.000000 0.000000 0.000000
# 3 -0.004687 -0.005611 0.016697 0.000000 0.000000 0.000000
# 4 0.000000 0.000000 0.000000 0.075851 0.000000 0.000000
# 5 0.000000 0.000000 0.000000 0.000000 0.045207 0.000000
# 6 0.000000 0.000000 0.000000 0.000000 0.000000 0.031348
#
#
# Mechanical properties :
#
#
# Convention : Reuss Voigt Hill
#
# Bulk Modulus (GPa) = 50.76569 51.51011 51.13790
# Shear Modulus (GPa) = 21.90994 24.35416 23.13205
#
# Velocity S-wave (km/s) = 3.31984 3.50012 3.41117
# Velocity P-wave (km/s) = 6.34284 6.49965 6.42172
#
# Compressibility (1/GPa) = 0.01969834
#
# Stress axis : x y z
#
# Youngs Moduli (GPa) = 66.99723 77.86152 59.89056
#
# Poissons Ratio (x) = 0.16239 0.28074
# Poissons Ratio (y) = 0.13973 0.33604
# Poissons Ratio (z) = 0.31405 0.43688
#
# Static dielectric constant tensor:
#      x y z
#    x 1.782600 0.000000 0.000000 
#    y 0.000000 1.824700 0.000000 
#    z 0.000000 0.000000 1.747290 
# 
# From -- ./inp_files/34436.got.cif
#   From: 2010.05.17/outbox.cif.g08.bks.cpg/sg48_18_cif.got.tgz:34436.got - 2010.06.03 20:39:00.
