data_PCOD9390274
_publ_section_title
;
Structure prediction by ZEFSAII (Michael W. Deem and Ramdas Pophale) SiO2 
 PCOD9390274
Probable space group: P N N N
;
_chemical_formula_sum "Si O2"
_cell_formula_units_Z 34
_cell_length_a 10.681686
_cell_length_b 10.681675
_cell_length_c 13.738120
_cell_angle_alpha 90.000000
_cell_angle_beta 90.000000
_cell_angle_gamma 90.000000
_cell_volume 1567.496114
_symmetry_space_group_name_H-M "P N N N"
_symmetry_group_IT_number 48
_space_group.IT_coordinate_system_code '2'
_symmetry_cell_setting 'orthorhombic'
loop_
_space_group_symop_operation_xyz
x,y,z
1/2-x,1/2-y,z
x,1/2-y,1/2-z
1/2-x,y,1/2-z
-x,-y,-z
1/2+x,1/2+y,-z
-x,1/2+y,1/2+z
1/2+x,-y,1/2+z
loop_
_atom_site_type_symbol
_atom_site_label
_atom_site_fract_x
_atom_site_fract_y
_atom_site_fract_z
Si Si1 0.388612 0.719267 0.864331
Si Si2 0.250000 0.250000 0.750000
Si Si3 0.948331 0.948331 0.187279
Si Si4 0.050144 0.449856 0.101554
Si Si5 0.780733 0.111388 0.864331
O O1 0.250000 0.750000 0.901515
O O2 0.385091 0.750000 0.750000
O O3 0.404583 0.571616 0.868435
O O4 0.504264 0.805341 0.898934
O O5 0.157369 0.157369 0.808003
O O6 0.987727 0.987728 0.299880
O O7 0.071616 0.904583 0.131565
O O8 0.194659 0.495736 0.101066
O O9 0.000000 0.500000 0.000000
O O10 0.750000 0.250000 0.901515
O O11 0.750000 0.114909 0.750000
#
# Coordination Sequence:
#
# PCOD9390274 Si02
#       5
#     8   2   8   8   8
#     4   9  18  34  55  80 110 150 202 248 297 367
#     4  12  20  36  64  84 112 156 222 284 320 368
#     4  10  20  35  59  85 110 155 211 257 306 384
#     4  10  20  35  57  85 121 158 193 254 329 383
#     4   9  18  34  55  80 110 150 202 248 297 367
#
# _framework density 21.690643000000001
#
# number of rings (size 3 to 8) (size 9 to 14) (size 15 to 20)
#    0.000    2.353    0.000    5.647    0.000    1.882 
#    0.000    7.059    0.000    5.647    0.000    0.000 
#    0.000    0.000    0.000    0.000    0.000    0.000 
#
# Total GULP energy -189487.781854 kJ/mol
# GULP energy per Si atom -5573.170055 kJ/mol
# Density = 2.164127 g / cm^3
# Si number density = 21.690643 Si / 1000 Ang^3
#
#
#
# Elastic Constant Matrix: (Units=GPa)
#
#
# Indices 1 2 3 4 5 6 
#
# 1 206.9850 129.9715 14.1790 0.0000 0.0000 0.0000
# 2 129.9715 206.9850 14.1791 0.0000 0.0000 0.0000
# 3 14.1790 14.1791 68.6321 0.0000 0.0000 0.0000
# 4 0.0000 0.0000 0.0000 -35.8866 0.0000 0.0000
# 5 0.0000 0.0000 0.0000 0.0000 -35.8865 0.0000
# 6 0.0000 0.0000 0.0000 0.0000 0.0000 48.6430
#
#
#
# Elastic Compliance Matrix: (Units=1/GPa)
#
#
# Indices 1 2 3 4 5 6 
#
# 1 0.008002 -0.004982 -0.000624 0.000000 0.000000 0.000000
# 2 -0.004982 0.008002 -0.000624 0.000000 0.000000 0.000000
# 3 -0.000624 -0.000624 0.014828 0.000000 0.000000 0.000000
# 4 0.000000 0.000000 0.000000 -0.027866 0.000000 0.000000
# 5 0.000000 0.000000 0.000000 0.000000 -0.027866 0.000000
# 6 0.000000 0.000000 0.000000 0.000000 0.000000 0.020558
#
#
# Mechanical properties :
#
#
# Convention : Reuss Voigt Hill
#
# Bulk Modulus (GPa) = 54.42801 88.80682 71.61742
# Shear Modulus (GPa) = 351.00782 16.99214 183.99998
#
# Velocity S-wave (km/s) = 12.73483 2.80194 9.22027
# Velocity P-wave (km/s) = 15.53647 7.17629 12.10126
#
# Compressibility (1/GPa) = 0.01837289
#
# Stress axis : x y z
#
# Youngs Moduli (GPa) = 124.96103 124.96096 67.43879
#
# Poissons Ratio (x) = 0.62259 0.04208
# Poissons Ratio (y) = 0.62259 0.04208
# Poissons Ratio (z) = 0.07797 0.07797
#
# Static dielectric constant tensor:
#      x y z
#    x 1.868380 0.000000 0.000000 
#    y 0.000000 1.868380 0.000000 
#    z 0.000000 0.000000 1.781430 
# 
# From -- ./inp_files/26215.got.cif
#   From: 2010.05.17/outbox.cif.g08.bks.cpg/sg48_14_cif.got.tgz:26215.got - 2010.06.03 20:39:00.
