data_PCOD9390428
_publ_section_title
;
Structure prediction by ZEFSAII (Michael W. Deem and Ramdas Pophale) SiO2 
 PCOD9390428
Probable space group: P N N N
;
_chemical_formula_sum "Si O2"
_cell_formula_units_Z 48
_cell_length_a 9.800904
_cell_length_b 13.793497
_cell_length_c 15.034124
_cell_angle_alpha 90.000000
_cell_angle_beta 90.000000
_cell_angle_gamma 90.000000
_cell_volume 2032.444279
_symmetry_space_group_name_H-M "P N N N"
_symmetry_group_IT_number 48
_space_group.IT_coordinate_system_code '2'
_symmetry_cell_setting 'orthorhombic'
loop_
_space_group_symop_operation_xyz
x,y,z
1/2-x,1/2-y,z
x,1/2-y,1/2-z
1/2-x,y,1/2-z
-x,-y,-z
1/2+x,1/2+y,-z
-x,1/2+y,1/2+z
1/2+x,-y,1/2+z
loop_
_atom_site_type_symbol
_atom_site_label
_atom_site_fract_x
_atom_site_fract_y
_atom_site_fract_z
Si Si1 0.421096 0.880211 0.086758
Si Si2 0.112843 0.512775 0.615267
Si Si3 0.894427 0.783447 0.147183
Si Si4 0.825139 0.648780 0.836979
Si Si5 0.823749 0.492203 0.588339
Si Si6 0.093063 0.931517 0.622082
O O1 0.481547 0.774222 0.102430
O O2 0.270372 0.905387 0.125375
O O3 0.526616 0.960172 0.127170
O O4 0.409920 0.899979 0.981395
O O5 0.108549 0.398261 0.635998
O O6 0.129249 0.533995 0.510276
O O7 0.250286 0.560514 0.652770
O O8 0.956163 0.535930 0.637142
O O9 0.750000 0.750000 0.107680
O O10 0.898168 0.750000 0.250000
O O11 0.750000 0.750000 0.849934
O O12 0.750000 0.606404 0.750000
O O13 0.784518 0.579521 0.918109
O O14 0.987818 0.641614 0.829805
#
# Coordination Sequence:
#
# PCOD9390428 Si02
#       6
#     8   8   8   8   8   8
#     4   9  18  35  57  86 111 153 207 232 286 358
#     4  10  20  38  59  87 122 154 200 244 297 368
#     4  11  23  35  55  92 126 158 199 245 302 370
#     4  10  22  38  58  86 110 144 203 256 301 354
#     4   9  21  38  59  86 118 157 198 250 300 350
#     4   9  18  35  61  82 110 157 198 242 294 355
#
# _framework density 23.616883999999999
#
# number of rings (size 3 to 8) (size 9 to 14) (size 15 to 20)
#    0.000    2.333    1.667    1.000    2.333    3.333 
#    0.000    1.667    0.000    2.000    0.000    0.000 
#    0.000    0.000    0.000    0.000    0.000    0.000 
#
# Total GULP energy -267573.357472 kJ/mol
# GULP energy per Si atom -5574.444947 kJ/mol
# Density = 2.356313 g / cm^3
# Si number density = 23.616884 Si / 1000 Ang^3
#
#
#
# Elastic Constant Matrix: (Units=GPa)
#
#
# Indices 1 2 3 4 5 6 
#
# 1 233.6393 49.5710 33.4632 0.0000 0.0000 0.0000
# 2 49.5710 63.8497 7.3464 0.0000 0.0000 0.0000
# 3 33.4632 7.3464 28.2317 0.0000 0.0000 0.0000
# 4 0.0000 0.0000 0.0000 17.6729 0.0000 0.0000
# 5 0.0000 0.0000 0.0000 0.0000 2.9370 0.0000
# 6 0.0000 0.0000 0.0000 0.0000 0.0000 44.7817
#
#
#
# Elastic Compliance Matrix: (Units=1/GPa)
#
#
# Indices 1 2 3 4 5 6 
#
# 1 0.005987 -0.003950 -0.006069 0.000000 0.000000 0.000000
# 2 -0.003950 0.018751 -0.000197 0.000000 0.000000 0.000000
# 3 -0.006069 -0.000197 0.042666 0.000000 0.000000 0.000000
# 4 0.000000 0.000000 0.000000 0.056584 0.000000 0.000000
# 5 0.000000 0.000000 0.000000 0.000000 0.340479 0.000000
# 6 0.000000 0.000000 0.000000 0.000000 0.000000 0.022331
#
#
# Mechanical properties :
#
#
# Convention : Reuss Voigt Hill
#
# Bulk Modulus (GPa) = 21.28928 56.27575 38.78252
# Shear Modulus (GPa) = 9.56227 28.76769 19.16498
#
# Velocity S-wave (km/s) = 2.01437 3.49391 2.85177
# Velocity P-wave (km/s) = 3.80056 6.33695 5.22500
#
# Compressibility (1/GPa) = 0.04697199
#
# Stress axis : x y z
#
# Youngs Moduli (GPa) = 167.01584 53.32972 23.43776
#
# Poissons Ratio (x) = 0.21066 0.14225
# Poissons Ratio (y) = 0.65974 0.00462
# Poissons Ratio (z) = 1.01363 0.01052
#
# Static dielectric constant tensor:
#      x y z
#    x 2.800500 0.000000 0.000000 
#    y 0.000000 1.843340 0.000000 
#    z 0.000000 0.000000 1.937340 
# 
# From -- ./inp_files/30241.got.cif
#   From: 2010.05.17/outbox.cif.g08.bks.cpg/sg48_16_cif.got.tgz:30241.got - 2010.06.03 20:39:00.
