data_PCOD9390243
_publ_section_title
;
Structure prediction by ZEFSAII (Michael W. Deem and Ramdas Pophale) SiO2 
 PCOD9390243
Probable space group: P N N N
;
_chemical_formula_sum "Si O2"
_cell_formula_units_Z 34
_cell_length_a 8.256581
_cell_length_b 15.993840
_cell_length_c 12.603277
_cell_angle_alpha 90.000000
_cell_angle_beta 90.000000
_cell_angle_gamma 90.000000
_cell_volume 1664.318629
_symmetry_space_group_name_H-M "P N N N"
_symmetry_group_IT_number 48
_space_group.IT_coordinate_system_code '2'
_symmetry_cell_setting 'orthorhombic'
loop_
_space_group_symop_operation_xyz
x,y,z
1/2-x,1/2-y,z
x,1/2-y,1/2-z
1/2-x,y,1/2-z
-x,-y,-z
1/2+x,1/2+y,-z
-x,1/2+y,1/2+z
1/2+x,-y,1/2+z
loop_
_atom_site_type_symbol
_atom_site_label
_atom_site_fract_x
_atom_site_fract_y
_atom_site_fract_z
Si Si1 0.090476 0.706982 0.943799
Si Si2 0.250000 0.250000 0.750000
Si Si3 0.884637 0.559245 0.930671
Si Si4 0.401722 0.149390 0.558762
Si Si5 0.258229 0.896075 0.366036
O O1 0.250000 0.750000 0.894423
O O2 0.157850 0.660817 0.050742
O O3 0.964653 0.777597 0.980485
O O4 0.993109 0.634215 0.883527
O O5 0.348941 0.191691 0.669335
O O6 0.810115 0.489461 0.855804
O O7 0.745415 0.600124 0.004474
O O8 0.000000 0.500000 0.000000
O O9 0.561610 0.097077 0.586641
O O10 0.250000 0.856233 0.250000
#
# Coordination Sequence:
#
# PCOD9390243 Si02
#       5
#     8   2   8   8   8
#     4   9  18  34  54  77 104 138 178 222 269 322
#     4  12  20  28  58  84 110 128 184 220 268 320
#     4  10  20  35  49  77 112 145 177 214 274 332
#     4  11  20  33  54  81 109 143 173 223 275 321
#     4  10  21  34  54  81 113 141 177 222 271 330
#
# _framework density 20.428778999999999
#
# number of rings (size 3 to 8) (size 9 to 14) (size 15 to 20)
#    0.000    1.882    2.353    2.118    3.294    3.294 
#    0.000    0.000    0.000    2.824    0.000    8.235 
#    0.000    0.000    0.000    0.000    0.000    0.000 
#
# Total GULP energy -189551.716895 kJ/mol
# GULP energy per Si atom -5575.050497 kJ/mol
# Density = 2.038228 g / cm^3
# Si number density = 20.428779 Si / 1000 Ang^3
#
#
#
# Elastic Constant Matrix: (Units=GPa)
#
#
# Indices 1 2 3 4 5 6 
#
# 1 106.8263 50.6711 2.8873 0.0000 0.0000 0.0000
# 2 50.6711 102.5316 1.0423 0.0000 0.0000 0.0000
# 3 2.8873 1.0423 19.2748 0.0000 0.0000 0.0000
# 4 0.0000 0.0000 0.0000 14.6977 0.0000 0.0000
# 5 0.0000 0.0000 0.0000 0.0000 -43.6502 0.0000
# 6 0.0000 0.0000 0.0000 0.0000 0.0000 33.5727
#
#
#
# Elastic Compliance Matrix: (Units=1/GPa)
#
#
# Indices 1 2 3 4 5 6 
#
# 1 0.012271 -0.006049 -0.001511 0.000000 0.000000 0.000000
# 2 -0.006049 0.012740 0.000217 0.000000 0.000000 0.000000
# 3 -0.001511 0.000217 0.052096 0.000000 0.000000 0.000000
# 4 0.000000 0.000000 0.000000 0.068038 0.000000 0.000000
# 5 0.000000 0.000000 0.000000 0.000000 -0.022909 0.000000
# 6 0.000000 0.000000 0.000000 0.000000 0.000000 0.029786
#
#
# Mechanical properties :
#
#
# Convention : Reuss Voigt Hill
#
# Bulk Modulus (GPa) = 16.02016 37.53713 26.77865
# Shear Modulus (GPa) = 26.66460 12.52617 19.59538
#
# Velocity S-wave (km/s) = 3.61674 2.47890 3.10046
# Velocity P-wave (km/s) = 5.02992 5.15827 5.09450
#
# Compressibility (1/GPa) = 0.06242133
#
# Stress axis : x y z
#
# Youngs Moduli (GPa) = 81.49246 78.49109 19.19544
#
# Poissons Ratio (x) = 0.47479 0.02901
# Poissons Ratio (y) = 0.49295 -0.00417
# Poissons Ratio (z) = 0.12314 -0.01705
#
# Static dielectric constant tensor:
#      x y z
#    x 1.793720 0.000000 0.000000 
#    y 0.000000 1.750530 0.000000 
#    z 0.000000 0.000000 1.685690 
# 
# From -- ./inp_files/10570.got.cif
#   From: 2010.05.17/outbox.cif.g08.bks.cpg/sg48_6_cif.got.tgz:10570.got - 2010.06.03 20:39:00.
