data_PCOD9390022
_publ_section_title
;
Structure prediction by ZEFSAII (Michael W. Deem and Ramdas Pophale) SiO2 
 PCOD9390022
Probable space group: P N N N
;
_chemical_formula_sum "Si O2"
_cell_formula_units_Z 64
_cell_length_a 24.678879
_cell_length_b 5.400274
_cell_length_c 23.092647
_cell_angle_alpha 90.000000
_cell_angle_beta 90.000000
_cell_angle_gamma 90.000000
_cell_volume 3077.619615
_symmetry_space_group_name_H-M "P N N N"
_symmetry_group_IT_number 48
_space_group.IT_coordinate_system_code '2'
_symmetry_cell_setting 'orthorhombic'
loop_
_space_group_symop_operation_xyz
x,y,z
1/2-x,1/2-y,z
x,1/2-y,1/2-z
1/2-x,y,1/2-z
-x,-y,-z
1/2+x,1/2+y,-z
-x,1/2+y,1/2+z
1/2+x,-y,1/2+z
loop_
_atom_site_type_symbol
_atom_site_label
_atom_site_fract_x
_atom_site_fract_y
_atom_site_fract_z
Si Si1 0.630204 0.282600 0.185261
Si Si2 0.467593 0.342607 0.395905
Si Si3 0.875388 0.797693 0.509995
Si Si4 0.077220 0.997606 0.272775
Si Si5 0.481965 0.479181 0.817999
Si Si6 0.281398 0.507682 0.879028
Si Si7 0.808575 0.316056 0.509089
Si Si8 0.920154 0.596229 0.110393
O O1 0.651109 0.250000 0.250000
O O2 0.566369 0.329343 0.190130
O O3 0.663503 0.504653 0.157210
O O4 0.628536 0.065110 0.137604
O O5 0.425983 0.338922 0.447853
O O6 0.439721 0.481304 0.340105
O O7 0.526936 0.445981 0.412572
O O8 0.480942 0.069025 0.371290
O O9 0.842065 0.555286 0.531746
O O10 0.897403 0.754909 0.444572
O O11 0.841623 0.056861 0.508030
O O12 0.104254 0.250000 0.250000
O O13 0.106351 0.750000 0.250000
O O14 0.021175 0.985930 0.236124
O O15 0.448154 0.242294 0.836884
O O16 0.250000 0.750000 0.854206
O O17 0.294599 0.584693 0.944599
O O18 0.250000 0.250000 0.877322
O O19 0.750000 0.250000 0.536658
#
# Coordination Sequence:
#
# PCOD9390022 Si02
#       8
#     8   8   8   8   8   8   8   8
#     4  11  24  39  60  91 119 167 223 272 319 383
#     4  10  23  37  56  95 138 170 212 256 312 381
#     4  12  25  39  67  97 128 168 212 266 333 378
#     4  10  19  36  56  81 122 175 210 246 282 355
#     4  10  21  36  61  85 130 178 217 247 302 375
#     4  11  24  45  68  83 114 156 210 279 338 373
#     4  11  24  46  69  90 116 164 219 272 325 389
#     4  11  22  39  60  92 133 179 212 263 309 394
#
# _framework density 20.795293999999998
#
# number of rings (size 3 to 8) (size 9 to 14) (size 15 to 20)
#    0.000    1.250    2.500    4.875    5.250    0.750 
#    0.000    0.625    0.000    0.000    0.000    0.000 
#    0.000   39.500    0.000    0.000    0.000    0.000 
#
# Total GULP energy -356820.890420 kJ/mol
# GULP energy per Si atom -5575.326413 kJ/mol
# Density = 2.074796 g / cm^3
# Si number density = 20.795294 Si / 1000 Ang^3
#
#
#
# Elastic Constant Matrix: (Units=GPa)
#
#
# Indices 1 2 3 4 5 6 
#
# 1 73.7956 34.3369 28.4142 0.0000 0.0000 0.0000
# 2 34.3369 124.9759 12.6229 0.0000 0.0000 0.0000
# 3 28.4142 12.6229 70.3455 0.0000 0.0000 0.0000
# 4 0.0000 0.0000 0.0000 13.2192 0.0000 0.0000
# 5 0.0000 0.0000 0.0000 0.0000 10.8716 0.0000
# 6 0.0000 0.0000 0.0000 0.0000 0.0000 30.7892
#
#
#
# Elastic Compliance Matrix: (Units=1/GPa)
#
#
# Indices 1 2 3 4 5 6 
#
# 1 0.018066 -0.004305 -0.006525 0.000000 0.000000 0.000000
# 2 -0.004305 0.009175 0.000092 0.000000 0.000000 0.000000
# 3 -0.006525 0.000092 0.016835 0.000000 0.000000 0.000000
# 4 0.000000 0.000000 0.000000 0.075648 0.000000 0.000000
# 5 0.000000 0.000000 0.000000 0.000000 0.091983 0.000000
# 6 0.000000 0.000000 0.000000 0.000000 0.000000 0.032479
#
#
# Mechanical properties :
#
#
# Convention : Reuss Voigt Hill
#
# Bulk Modulus (GPa) = 44.24524 46.65168 45.44846
# Shear Modulus (GPa) = 18.30207 23.89220 21.09713
#
# Velocity S-wave (km/s) = 2.96988 3.39325 3.18860
# Velocity P-wave (km/s) = 5.75178 6.15099 5.95473
#
# Compressibility (1/GPa) = 0.02260130
#
# Stress axis : x y z
#
# Youngs Moduli (GPa) = 55.35190 108.99302 59.40163
#
# Poissons Ratio (x) = 0.46917 0.38759
# Poissons Ratio (y) = 0.23827 -0.00549
# Poissons Ratio (z) = 0.36117 -0.01007
#
# Static dielectric constant tensor:
#      x y z
#    x 1.759890 0.000000 0.000000 
#    y 0.000000 1.964210 0.000000 
#    z 0.000000 0.000000 1.746210 
# 
# From -- ./inp_files/36832.got.cif
#   From: 2010.05.17/outbox.cif.g08.bks.cpg/sg48_19_cif.got.tgz:36832.got - 2010.06.03 20:39:00.
