data_PCOD9390455
_publ_section_title
;
Structure prediction by ZEFSAII (Michael W. Deem and Ramdas Pophale) SiO2 
 PCOD9390455
Probable space group: P N N N
;
_chemical_formula_sum "Si O2"
_cell_formula_units_Z 56
_cell_length_a 5.193816
_cell_length_b 15.016223
_cell_length_c 29.605283
_cell_angle_alpha 90.000000
_cell_angle_beta 90.000000
_cell_angle_gamma 90.000000
_cell_volume 2308.960408
_symmetry_space_group_name_H-M "P N N N"
_symmetry_group_IT_number 48
_space_group.IT_coordinate_system_code '2'
_symmetry_cell_setting 'orthorhombic'
loop_
_space_group_symop_operation_xyz
x,y,z
1/2-x,1/2-y,z
x,1/2-y,1/2-z
1/2-x,y,1/2-z
-x,-y,-z
1/2+x,1/2+y,-z
-x,1/2+y,1/2+z
1/2+x,-y,1/2+z
loop_
_atom_site_type_symbol
_atom_site_label
_atom_site_fract_x
_atom_site_fract_y
_atom_site_fract_z
Si Si1 0.249931 0.085228 0.299728
Si Si2 0.500528 0.503208 0.574528
Si Si3 0.838156 0.654477 0.607532
Si Si4 0.755588 0.982473 0.326666
Si Si5 0.308133 0.649769 0.965620
Si Si6 0.999080 0.688295 0.361793
Si Si7 0.824077 0.851515 0.043847
O O1 0.250000 0.125442 0.250000
O O2 0.224101 0.151308 0.342138
O O3 0.534717 0.047783 0.309599
O O4 0.024229 0.008846 0.301402
O O5 0.754527 0.555856 0.589870
O O6 0.343414 0.496050 0.621809
O O7 0.397816 0.572776 0.537606
O O8 0.432960 0.406390 0.555403
O O9 0.750000 0.750000 0.587026
O O10 0.124224 0.657362 0.588017
O O11 0.600711 0.887915 0.327174
O O12 0.250000 0.750000 0.980922
O O13 0.529949 0.616942 0.999282
O O14 0.250000 0.750000 0.351846
O O15 0.750000 0.750000 0.365043
O O16 0.014198 0.646069 0.412228
O O17 0.750000 0.750000 0.036181
#
# Coordination Sequence:
#
# PCOD9390455 Si02
#       7
#     8   8   8   8   8   8   8
#     4  11  23  41  66  95 128 167 214 274 339 407
#     4  10  22  41  63  88 124 177 220 270 336 394
#     4  11  23  41  64  90 127 167 218 277 335 410
#     4  10  21  40  65  95 128 168 220 269 333 406
#     4  12  22  39  61  89 127 173 221 275 333 391
#     4  10  20  38  63  93 130 174 219 272 327 390
#     4  10  23  40  58  92 131 172 228 276 322 388
#
# _framework density 24.253339
#
# number of rings (size 3 to 8) (size 9 to 14) (size 15 to 20)
#    0.000    1.429    2.857    2.571    0.000    2.000 
#    2.571    0.000    0.000    8.143    0.000    0.000 
#    0.000    0.000    0.000    0.000    0.000    0.000 
#
# Total GULP energy -311757.692018 kJ/mol
# GULP energy per Si atom -5567.101643 kJ/mol
# Density = 2.419814 g / cm^3
# Si number density = 24.253339 Si / 1000 Ang^3
#
#
#
# Elastic Constant Matrix: (Units=GPa)
#
#
# Indices 1 2 3 4 5 6 
#
# 1 103.9849 17.9347 14.8869 0.0000 0.0000 0.0000
# 2 17.9347 104.6908 14.4897 0.0000 0.0000 0.0000
# 3 14.8869 14.4897 42.6413 0.0000 0.0000 0.0000
# 4 0.0000 0.0000 0.0000 25.5365 0.0000 0.0000
# 5 0.0000 0.0000 0.0000 0.0000 32.8677 0.0000
# 6 0.0000 0.0000 0.0000 0.0000 0.0000 31.1239
#
#
#
# Elastic Compliance Matrix: (Units=1/GPa)
#
#
# Indices 1 2 3 4 5 6 
#
# 1 0.010296 -0.001329 -0.003143 0.000000 0.000000 0.000000
# 2 -0.001329 0.010195 -0.003000 0.000000 0.000000 0.000000
# 3 -0.003143 -0.003000 0.025568 0.000000 0.000000 0.000000
# 4 0.000000 0.000000 0.000000 0.039160 0.000000 0.000000
# 5 0.000000 0.000000 0.000000 0.000000 0.030425 0.000000
# 6 0.000000 0.000000 0.000000 0.000000 0.000000 0.032130
#
#
# Mechanical properties :
#
#
# Convention : Reuss Voigt Hill
#
# Bulk Modulus (GPa) = 32.13908 38.43774 35.28841
# Shear Modulus (GPa) = 28.88687 31.50602 30.19644
#
# Velocity S-wave (km/s) = 3.45490 3.60813 3.53234
# Velocity P-wave (km/s) = 5.40327 5.76550 5.58732
#
# Compressibility (1/GPa) = 0.03111477
#
# Stress axis : x y z
#
# Youngs Moduli (GPa) = 97.12583 98.08888 39.11103
#
# Poissons Ratio (x) = 0.13034 0.12292
# Poissons Ratio (y) = 0.12906 0.11735
# Poissons Ratio (z) = 0.30526 0.29430
#
# Static dielectric constant tensor:
#      x y z
#    x 2.040500 0.000000 0.000000 
#    y 0.000000 2.033820 0.000000 
#    z 0.000000 0.000000 2.008310 
# 
# From -- ./inp_files/38332.got.cif
#   From: 2010.05.17/outbox.cif.g08.bks.cpg/sg48_20_cif.got.tgz:38332.got - 2010.06.03 20:39:00.
