data_PCOD9390233
_publ_section_title
;
Structure prediction by ZEFSAII (Michael W. Deem and Ramdas Pophale) SiO2 
 PCOD9390233
Probable space group: P N N N
;
_chemical_formula_sum "Si O2"
_cell_formula_units_Z 58
_cell_length_a 9.384002
_cell_length_b 11.538216
_cell_length_c 26.614830
_cell_angle_alpha 90.000000
_cell_angle_beta 90.000000
_cell_angle_gamma 90.000000
_cell_volume 2881.711191
_symmetry_space_group_name_H-M "P N N N"
_symmetry_group_IT_number 48
_space_group.IT_coordinate_system_code '2'
_symmetry_cell_setting 'orthorhombic'
loop_
_space_group_symop_operation_xyz
x,y,z
1/2-x,1/2-y,z
x,1/2-y,1/2-z
1/2-x,y,1/2-z
-x,-y,-z
1/2+x,1/2+y,-z
-x,1/2+y,1/2+z
1/2+x,-y,1/2+z
loop_
_atom_site_type_symbol
_atom_site_label
_atom_site_fract_x
_atom_site_fract_y
_atom_site_fract_z
Si Si1 0.152813 0.412391 0.639109
Si Si2 0.157617 0.139482 0.172343
Si Si3 0.102200 0.816186 0.019486
Si Si4 0.887551 0.050043 0.689518
Si Si5 0.051487 0.443047 0.429677
Si Si6 0.102409 0.565941 0.733552
Si Si7 0.250000 0.750000 0.250000
Si Si8 0.040553 0.178616 0.608423
O O1 0.080291 0.503269 0.601615
O O2 0.152694 0.465369 0.694579
O O3 0.056169 0.297290 0.640324
O O4 0.303395 0.377637 0.614611
O O5 0.250000 0.250000 0.184827
O O6 0.138537 0.124735 0.112667
O O7 0.008062 0.141886 0.201309
O O8 0.246200 0.027365 0.189356
O O9 0.250000 0.750000 0.007600
O O10 0.012677 0.728543 0.055285
O O11 0.007566 0.857600 0.972323
O O12 0.126343 0.940964 0.047695
O O13 0.848461 0.167653 0.717199
O O14 0.934651 0.087459 0.633849
O O15 0.012929 0.985100 0.719697
O O16 0.250000 0.622009 0.750000
#
# Coordination Sequence:
#
# PCOD9390233 Si02
#       8
#     8   8   8   8   8   8   2   8
#     4   9  19  37  59  91 135 168 206 268 328 393
#     4  11  25  47  65  90 133 181 225 273 323 394
#     4  10  20  39  65  95 125 165 216 279 348 400
#     4  12  23  38  65 100 135 173 219 271 328 403
#     4   9  21  42  63  89 125 170 218 276 332 397
#     4  11  21  41  65  96 130 170 218 262 326 388
#     4  12  24  36  60 104 136 172 214 270 328 400
#     4  10  20  34  61  95 130 168 208 270 337 401
#
# _framework density 20.126932
#
# number of rings (size 3 to 8) (size 9 to 14) (size 15 to 20)
#    0.000    1.655    2.759    1.655    4.828    1.103 
#    9.931    2.069    0.000    0.000    0.000    0.000 
#    0.000    0.000    0.000    0.000    0.000    0.000 
#
# Total GULP energy -323677.003807 kJ/mol
# GULP energy per Si atom -5580.637997 kJ/mol
# Density = 2.008112 g / cm^3
# Si number density = 20.126932 Si / 1000 Ang^3
#
#
#
# Elastic Constant Matrix: (Units=GPa)
#
#
# Indices 1 2 3 4 5 6 
#
# 1 101.1580 36.7809 32.6390 0.0000 0.0000 0.0000
# 2 36.7809 74.0836 34.5792 0.0000 0.0000 0.0000
# 3 32.6390 34.5792 89.7542 0.0000 0.0000 0.0000
# 4 0.0000 0.0000 0.0000 3.2106 0.0000 0.0000
# 5 0.0000 0.0000 0.0000 0.0000 21.3484 0.0000
# 6 0.0000 0.0000 0.0000 0.0000 0.0000 22.2005
#
#
#
# Elastic Compliance Matrix: (Units=1/GPa)
#
#
# Indices 1 2 3 4 5 6 
#
# 1 0.012556 -0.005002 -0.002639 0.000000 0.000000 0.000000
# 2 -0.005002 0.018450 -0.005289 0.000000 0.000000 0.000000
# 3 -0.002639 -0.005289 0.014139 0.000000 0.000000 0.000000
# 4 0.000000 0.000000 0.000000 0.311469 0.000000 0.000000
# 5 0.000000 0.000000 0.000000 0.000000 0.046842 0.000000
# 6 0.000000 0.000000 0.000000 0.000000 0.000000 0.045044
#
#
# Mechanical properties :
#
#
# Convention : Reuss Voigt Hill
#
# Bulk Modulus (GPa) = 51.85407 52.55487 52.20447
# Shear Modulus (GPa) = 10.39958 20.08501 15.24229
#
# Velocity S-wave (km/s) = 2.27557 3.16241 2.75491
# Velocity P-wave (km/s) = 5.72047 6.28513 6.00943
#
# Compressibility (1/GPa) = 0.01928489
#
# Stress axis : x y z
#
# Youngs Moduli (GPa) = 79.64559 54.19911 70.72664
#
# Poissons Ratio (x) = 0.27110 0.18663
# Poissons Ratio (y) = 0.39838 0.37410
# Poissons Ratio (z) = 0.21017 0.28668
#
# Static dielectric constant tensor:
#      x y z
#    x 1.664980 0.000000 0.000000 
#    y 0.000000 1.731150 0.000000 
#    z 0.000000 0.000000 1.731260 
# 
# From -- ./inp_files/18948.got.cif
#   From: 2010.05.17/outbox.cif.g08.bks.cpg/sg48_10_cif.got.tgz:18948.got - 2010.06.03 20:39:00.
