data_PCOD9390699
_publ_section_title
;
Structure prediction by ZEFSAII (Michael W. Deem and Ramdas Pophale) SiO2 
 PCOD9390699
Probable space group: P N N N
;
_chemical_formula_sum "Si O2"
_cell_formula_units_Z 64
_cell_length_a 12.592347
_cell_length_b 23.326065
_cell_length_c 9.483547
_cell_angle_alpha 90.000000
_cell_angle_beta 90.000000
_cell_angle_gamma 90.000000
_cell_volume 2785.601356
_symmetry_space_group_name_H-M "P N N N"
_symmetry_group_IT_number 48
_space_group.IT_coordinate_system_code '2'
_symmetry_cell_setting 'orthorhombic'
loop_
_space_group_symop_operation_xyz
x,y,z
1/2-x,1/2-y,z
x,1/2-y,1/2-z
1/2-x,y,1/2-z
-x,-y,-z
1/2+x,1/2+y,-z
-x,1/2+y,1/2+z
1/2+x,-y,1/2+z
loop_
_atom_site_type_symbol
_atom_site_label
_atom_site_fract_x
_atom_site_fract_y
_atom_site_fract_z
Si Si1 0.640931 0.579855 0.086293
Si Si2 0.494868 0.186794 0.063449
Si Si3 0.546489 0.877634 0.676549
Si Si4 0.181256 0.986537 0.511353
Si Si5 0.488143 0.993309 0.223905
Si Si6 0.724134 0.139516 0.086730
Si Si7 0.912338 0.308069 0.526378
Si Si8 0.912862 0.684670 0.238394
O O1 0.730673 0.533998 0.049450
O O2 0.535456 0.545455 0.147155
O O3 0.649382 0.632077 0.195187
O O4 0.634544 0.615081 0.940674
O O5 0.433587 0.169192 0.203958
O O6 0.599004 0.147967 0.068855
O O7 0.541274 0.250566 0.044377
O O8 0.430178 0.172830 0.924665
O O9 0.527204 0.941001 0.732215
O O10 0.447533 0.857547 0.582134
O O11 0.084194 0.004821 0.612453
O O12 0.237796 0.927079 0.551975
O O13 0.122284 0.978403 0.358494
O O14 0.750000 0.153374 0.250000
O O15 0.786878 0.182173 0.981183
O O16 0.974191 0.314225 0.674061
O O17 0.871800 0.750000 0.250000
#
# Coordination Sequence:
#
# PCOD9390699 Si02
#       8
#     8   8   8   8   8   8   8   8
#     4  11  23  41  69  99 136 180 229 290 345 418
#     4  11  21  38  63  94 134 183 226 279 346 421
#     4  11  22  39  62  95 135 177 229 275 340 415
#     4  11  24  41  69 100 139 179 234 285 346 421
#     4  11  23  43  67  99 137 185 226 285 355 412
#     4  12  21  35  59  95 137 176 228 277 338 428
#     4  10  21  37  62  96 133 181 226 283 352 409
#     4   9  22  42  64  95 130 176 233 289 350 405
#
# _framework density 22.975290999999999
#
# number of rings (size 3 to 8) (size 9 to 14) (size 15 to 20)
#    0.000    1.250    2.500    3.750    1.750    2.500 
#    0.000    3.125    0.000    1.500    0.000    3.500 
#    0.000    0.000    0.000    0.000    0.000    0.000 
#
# Total GULP energy -357117.111315 kJ/mol
# GULP energy per Si atom -5579.954864 kJ/mol
# Density = 2.292300 g / cm^3
# Si number density = 22.975291 Si / 1000 Ang^3
#
#
#
# Elastic Constant Matrix: (Units=GPa)
#
#
# Indices 1 2 3 4 5 6 
#
# 1 58.9992 31.5938 38.1070 0.0000 0.0000 0.0000
# 2 31.5938 91.5991 20.7816 0.0000 0.0000 0.0000
# 3 38.1070 20.7816 95.2130 0.0000 0.0000 0.0000
# 4 0.0000 0.0000 0.0000 44.1728 0.0000 0.0000
# 5 0.0000 0.0000 0.0000 0.0000 -4.2101 0.0000
# 6 0.0000 0.0000 0.0000 0.0000 0.0000 21.3501
#
#
#
# Elastic Compliance Matrix: (Units=1/GPa)
#
#
# Indices 1 2 3 4 5 6 
#
# 1 0.026649 -0.007125 -0.009111 0.000000 0.000000 0.000000
# 2 -0.007125 0.013391 -0.000071 0.000000 0.000000 0.000000
# 3 -0.009111 -0.000071 0.014165 0.000000 0.000000 0.000000
# 4 0.000000 0.000000 0.000000 0.022638 0.000000 0.000000
# 5 0.000000 0.000000 0.000000 0.000000 -0.237523 0.000000
# 6 0.000000 0.000000 0.000000 0.000000 0.000000 0.046838
#
#
# Mechanical properties :
#
#
# Convention : Reuss Voigt Hill
#
# Bulk Modulus (GPa) = 46.31484 47.41958 46.86721
# Shear Modulus (GPa) = -67.53843 22.61782 -22.46030
#
# Velocity S-wave (km/s) = -5.42770 3.14098 -3.13003
# Velocity P-wave (km/s) = 4.36779 5.81709 2.71670
#
# Compressibility (1/GPa) = 0.02159135
#
# Stress axis : x y z
#
# Youngs Moduli (GPa) = 37.52470 74.67882 70.59816
#
# Poissons Ratio (x) = 0.53206 0.64320
# Poissons Ratio (y) = 0.26735 0.00503
# Poissons Ratio (z) = 0.34188 0.00532
#
# Static dielectric constant tensor:
#      x y z
#    x 2.006950 0.000000 0.000000 
#    y 0.000000 1.832280 0.000000 
#    z 0.000000 0.000000 1.951630 
# 
# From -- ./inp_files/13269.got.cif
#   From: 2010.05.17/outbox.cif.g08.bks.cpg/sg48_7_cif.got.tgz:13269.got - 2010.06.03 20:39:00.
