data_PCOD9390359
_publ_section_title
;
Structure prediction by ZEFSAII (Michael W. Deem and Ramdas Pophale) SiO2 
 PCOD9390359
Probable space group: P N N N
;
_chemical_formula_sum "Si O2"
_cell_formula_units_Z 46
_cell_length_a 22.679193
_cell_length_b 10.647257
_cell_length_c 9.494440
_cell_angle_alpha 90.000000
_cell_angle_beta 90.000000
_cell_angle_gamma 90.000000
_cell_volume 2292.633786
_symmetry_space_group_name_H-M "P N N N"
_symmetry_group_IT_number 48
_space_group.IT_coordinate_system_code '2'
_symmetry_cell_setting 'orthorhombic'
loop_
_space_group_symop_operation_xyz
x,y,z
1/2-x,1/2-y,z
x,1/2-y,1/2-z
1/2-x,y,1/2-z
-x,-y,-z
1/2+x,1/2+y,-z
-x,1/2+y,1/2+z
1/2+x,-y,1/2+z
loop_
_atom_site_type_symbol
_atom_site_label
_atom_site_fract_x
_atom_site_fract_y
_atom_site_fract_z
Si Si1 0.544727 0.250000 0.750000
Si Si2 0.443927 0.179124 0.972092
Si Si3 0.006374 0.250000 0.250000
Si Si4 0.655133 0.750000 0.250000
Si Si5 0.250000 0.750000 0.250000
Si Si6 0.357896 0.662467 0.071698
Si Si7 0.687309 0.480792 0.198658
Si Si8 0.411421 0.907103 0.918160
O O1 0.501229 0.199425 0.872140
O O2 0.588349 0.356271 0.817145
O O3 0.388415 0.219651 0.879694
O O4 0.433716 0.030780 0.000090
O O5 0.453408 0.263415 0.111255
O O6 0.962238 0.356416 0.188301
O O7 0.691091 0.630674 0.197540
O O8 0.296133 0.675019 0.153461
O O9 0.342173 0.571316 0.943668
O O10 0.382246 0.793595 0.005838
O O11 0.750000 0.426413 0.250000
O O12 0.641089 0.450305 0.319117
#
# Coordination Sequence:
#
# PCOD9390359 Si02
#       8
#     4   8   4   4   2   8   8   8
#     4  10  20  37  57  87 125 158 194 246 300 366
#     4  10  22  38  59  86 124 159 199 248 300 363
#     4  12  20  36  59  92 115 166 198 248 300 364
#     4   9  23  41  57  91 119 155 201 246 304 366
#     4  10  24  38  54  84 124 152 198 246 318 358
#     4  11  21  37  58  87 117 158 196 250 308 361
#     4  11  21  38  64  87 115 156 205 253 300 362
#     4  11  21  37  59  90 120 152 206 249 298 365
#
# _framework density 20.064260999999998
#
# number of rings (size 3 to 8) (size 9 to 14) (size 15 to 20)
#    0.000    1.391    3.478    1.826    0.000    2.087 
#    3.130    5.217    0.000    0.000    0.000    0.000 
#    0.000    0.000    0.000    0.000    0.000    0.000 
#
# Total GULP energy -256200.112972 kJ/mol
# GULP energy per Si atom -5569.567673 kJ/mol
# Density = 2.001859 g / cm^3
# Si number density = 20.064261 Si / 1000 Ang^3
#
#
#
# Elastic Constant Matrix: (Units=GPa)
#
#
# Indices 1 2 3 4 5 6 
#
# 1 103.3247 19.4107 38.6734 0.0000 0.0000 0.0000
# 2 19.4107 71.2470 39.6143 0.0000 0.0000 0.0000
# 3 38.6734 39.6143 123.2777 0.0000 0.0000 0.0000
# 4 0.0000 0.0000 0.0000 11.9912 0.0000 0.0000
# 5 0.0000 0.0000 0.0000 0.0000 19.4807 0.0000
# 6 0.0000 0.0000 0.0000 0.0000 0.0000 12.0760
#
#
#
# Elastic Compliance Matrix: (Units=1/GPa)
#
#
# Indices 1 2 3 4 5 6 
#
# 1 0.011067 -0.001321 -0.003047 0.000000 0.000000 0.000000
# 2 -0.001321 0.017247 -0.005128 0.000000 0.000000 0.000000
# 3 -0.003047 -0.005128 0.010716 0.000000 0.000000 0.000000
# 4 0.000000 0.000000 0.000000 0.083395 0.000000 0.000000
# 5 0.000000 0.000000 0.000000 0.000000 0.051333 0.000000
# 6 0.000000 0.000000 0.000000 0.000000 0.000000 0.082809
#
#
# Mechanical properties :
#
#
# Convention : Reuss Voigt Hill
#
# Bulk Modulus (GPa) = 49.90675 54.80513 52.35594
# Shear Modulus (GPa) = 17.71564 22.05297 19.88431
#
# Velocity S-wave (km/s) = 2.97466 3.31889 3.15148
# Velocity P-wave (km/s) = 6.06017 6.48543 6.27640
#
# Compressibility (1/GPa) = 0.02003737
#
# Stress axis : x y z
#
# Youngs Moduli (GPa) = 90.35911 57.98247 93.32250
#
# Poissons Ratio (x) = 0.07658 0.28439
# Poissons Ratio (y) = 0.11934 0.47853
# Poissons Ratio (z) = 0.27536 0.29732
#
# Static dielectric constant tensor:
#      x y z
#    x 1.730310 0.000000 0.000000 
#    y 0.000000 1.762250 0.000000 
#    z 0.000000 0.000000 1.799610 
# 
# From -- ./inp_files/15939.got.cif
#   From: 2010.05.17/outbox.cif.g08.bks.cpg/sg48_8_cif.got.tgz:15939.got - 2010.06.03 20:39:00.
