data_PCOD9390192
_publ_section_title
;
Structure prediction by ZEFSAII (Michael W. Deem and Ramdas Pophale) SiO2 
 PCOD9390192
Probable space group: P N N N
;
_chemical_formula_sum "Si O2"
_cell_formula_units_Z 34
_cell_length_a 13.966198
_cell_length_b 8.758246
_cell_length_c 15.148387
_cell_angle_alpha 90.000000
_cell_angle_beta 90.000000
_cell_angle_gamma 90.000000
_cell_volume 1852.941575
_symmetry_space_group_name_H-M "P N N N"
_symmetry_group_IT_number 48
_space_group.IT_coordinate_system_code '2'
_symmetry_cell_setting 'orthorhombic'
loop_
_space_group_symop_operation_xyz
x,y,z
1/2-x,1/2-y,z
x,1/2-y,1/2-z
1/2-x,y,1/2-z
-x,-y,-z
1/2+x,1/2+y,-z
-x,1/2+y,1/2+z
1/2+x,-y,1/2+z
loop_
_atom_site_type_symbol
_atom_site_label
_atom_site_fract_x
_atom_site_fract_y
_atom_site_fract_z
Si Si1 0.048214 0.218042 0.649150
Si Si2 0.311583 0.112083 0.512028
Si Si3 0.858732 0.083234 0.401723
Si Si4 0.857545 0.304740 0.566008
Si Si5 0.750000 0.250000 0.250000
O O1 0.078667 0.250000 0.750000
O O2 0.113961 0.316158 0.581625
O O3 0.938321 0.261769 0.635250
O O4 0.061576 0.041689 0.620534
O O5 0.250000 0.250000 0.469535
O O6 0.231622 0.011967 0.561759
O O7 0.359613 0.986685 0.449663
O O8 0.881830 0.212343 0.474645
O O9 0.819690 0.155881 0.312806
O O10 0.750000 0.250000 0.589353
#
# Coordination Sequence:
#
# PCOD9390192 Si02
#       5
#     8   8   8   8   2
#     4  11  22  33  53  83 111 143 186 228 273 336
#     4   9  18  35  55  80 107 140 177 229 286 335
#     4  10  20  33  56  80 110 139 177 229 289 335
#     4  10  20  38  55  75 109 151 187 222 276 331
#     4  12  16  32  58  80 114 134 178 236 296 332
#
# _framework density 18.349202999999999
#
# number of rings (size 3 to 8) (size 9 to 14) (size 15 to 20)
#    0.000    1.882    3.529    2.824    0.000    3.765 
#    0.000    0.000    0.000    0.000    0.000   13.176 
#    0.000    0.000    0.000    0.000    0.000    0.000 
#
# Total GULP energy -189561.152569 kJ/mol
# GULP energy per Si atom -5575.328017 kJ/mol
# Density = 1.830744 g / cm^3
# Si number density = 18.349203 Si / 1000 Ang^3
#
#
#
# Elastic Constant Matrix: (Units=GPa)
#
#
# Indices 1 2 3 4 5 6 
#
# 1 58.7337 24.6296 11.5478 0.0000 0.0000 0.0000
# 2 24.6296 109.6617 13.7857 0.0000 0.0000 0.0000
# 3 11.5478 13.7857 19.5578 0.0000 0.0000 0.0000
# 4 0.0000 0.0000 0.0000 -5.3772 0.0000 0.0000
# 5 0.0000 0.0000 0.0000 0.0000 18.0280 0.0000
# 6 0.0000 0.0000 0.0000 0.0000 0.0000 -9.0013
#
#
#
# Elastic Compliance Matrix: (Units=1/GPa)
#
#
# Indices 1 2 3 4 5 6 
#
# 1 0.020327 -0.003354 -0.009638 0.000000 0.000000 0.000000
# 2 -0.003354 0.010559 -0.005462 0.000000 0.000000 0.000000
# 3 -0.009638 -0.005462 0.060672 0.000000 0.000000 0.000000
# 4 0.000000 0.000000 0.000000 -0.185969 0.000000 0.000000
# 5 0.000000 0.000000 0.000000 0.000000 0.055469 0.000000
# 6 0.000000 0.000000 0.000000 0.000000 0.000000 -0.111095
#
#
# Mechanical properties :
#
#
# Convention : Reuss Voigt Hill
#
# Bulk Modulus (GPa) = 18.29859 31.98659 25.14259
# Shear Modulus (GPa) = -52.68037 9.92924 -21.37557
#
# Velocity S-wave (km/s) = -5.36397 2.32874 -3.41681
# Velocity P-wave (km/s) = 5.32625 4.96998 1.35430
#
# Compressibility (1/GPa) = 0.05464903
#
# Stress axis : x y z
#
# Youngs Moduli (GPa) = 49.19469 94.70696 16.48219
#
# Poissons Ratio (x) = 0.31763 0.15886
# Poissons Ratio (y) = 0.16499 0.09003
# Poissons Ratio (z) = 0.47415 0.51732
#
# Static dielectric constant tensor:
#      x y z
#    x 1.624680 0.000000 0.000000 
#    y 0.000000 1.685440 0.000000 
#    z 0.000000 0.000000 1.611540 
# 
# From -- ./inp_files/10320.got.cif
#   From: 2010.05.17/outbox.cif.g08.bks.cpg/sg48_6_cif.got.tgz:10320.got - 2010.06.03 20:39:00.
