data_PCOD9390326
_publ_section_title
;
Structure prediction by ZEFSAII (Michael W. Deem and Ramdas Pophale) SiO2 
 PCOD9390326
Probable space group: P N N N
;
_chemical_formula_sum "Si O2"
_cell_formula_units_Z 48
_cell_length_a 13.202379
_cell_length_b 17.143713
_cell_length_c 8.555594
_cell_angle_alpha 90.000000
_cell_angle_beta 90.000000
_cell_angle_gamma 90.000000
_cell_volume 1936.454294
_symmetry_space_group_name_H-M "P N N N"
_symmetry_group_IT_number 48
_space_group.IT_coordinate_system_code '2'
_symmetry_cell_setting 'orthorhombic'
loop_
_space_group_symop_operation_xyz
x,y,z
1/2-x,1/2-y,z
x,1/2-y,1/2-z
1/2-x,y,1/2-z
-x,-y,-z
1/2+x,1/2+y,-z
-x,1/2+y,1/2+z
1/2+x,-y,1/2+z
loop_
_atom_site_type_symbol
_atom_site_label
_atom_site_fract_x
_atom_site_fract_y
_atom_site_fract_z
Si Si1 0.634951 0.463412 0.581945
Si Si2 0.128703 0.492361 0.429299
Si Si3 0.891956 0.250000 0.250000
Si Si4 0.250000 0.250000 0.250000
Si Si5 0.374283 0.920887 0.748545
Si Si6 0.605179 0.681806 0.007068
Si Si7 0.899584 0.277315 0.922446
Si Si8 0.250000 0.250000 0.750000
O O1 0.748902 0.497800 0.581045
O O2 0.593059 0.490679 0.751422
O O3 0.601514 0.475746 0.399507
O O4 0.621929 0.369474 0.586201
O O5 0.105156 0.547310 0.576788
O O6 0.090055 0.409080 0.486626
O O7 0.934109 0.338358 0.232261
O O8 0.846712 0.257442 0.423589
O O9 0.326852 0.203467 0.358291
O O10 0.250000 0.905946 0.750000
O O11 0.512211 0.741100 0.040803
O O12 0.679369 0.694847 0.150486
O O13 0.870745 0.250000 0.750000
#
# Coordination Sequence:
#
# PCOD9390326 Si02
#       8
#     8   8   4   2   8   8   8   2
#     4   9  20  37  63  99 137 178 233 287 362 417
#     4  10  20  39  65  99 132 180 236 296 342 418
#     4  10  20  36  60  88 136 186 232 268 355 431
#     4  10  22  42  68  96 128 186 240 290 332 436
#     4   9  18  33  57  92 130 179 231 289 335 410
#     4  11  23  42  70  98 133 180 243 289 354 414
#     4  11  22  41  64  96 141 186 226 295 358 435
#     4  10  24  42  68  94 124 182 240 286 336 450
#
# _framework density 24.787571
#
# number of rings (size 3 to 8) (size 9 to 14) (size 15 to 20)
#    0.000    2.000    0.833    2.750    3.500    0.000 
#    0.000   10.000    0.000   17.000    0.000    0.000 
#    0.000    0.000    0.000    0.000    0.000    0.000 
#
# Total GULP energy -267284.997258 kJ/mol
# GULP energy per Si atom -5568.437443 kJ/mol
# Density = 2.473115 g / cm^3
# Si number density = 24.787571 Si / 1000 Ang^3
#
#
#
# Elastic Constant Matrix: (Units=GPa)
#
#
# Indices 1 2 3 4 5 6 
#
# 1 139.9752 41.2709 52.1489 0.0000 0.0000 0.0000
# 2 41.2709 85.9523 24.2678 0.0000 0.0000 0.0000
# 3 52.1489 24.2678 244.0842 0.0000 0.0000 0.0000
# 4 0.0000 0.0000 0.0000 71.7381 0.0000 0.0000
# 5 0.0000 0.0000 0.0000 0.0000 32.2662 0.0000
# 6 0.0000 0.0000 0.0000 0.0000 0.0000 19.9514
#
#
#
# Elastic Compliance Matrix: (Units=1/GPa)
#
#
# Indices 1 2 3 4 5 6 
#
# 1 0.008830 -0.003814 -0.001507 0.000000 0.000000 0.000000
# 2 -0.003814 0.013618 -0.000539 0.000000 0.000000 0.000000
# 3 -0.001507 -0.000539 0.004473 0.000000 0.000000 0.000000
# 4 0.000000 0.000000 0.000000 0.013940 0.000000 0.000000
# 5 0.000000 0.000000 0.000000 0.000000 0.030992 0.000000
# 6 0.000000 0.000000 0.000000 0.000000 0.000000 0.050122
#
#
# Mechanical properties :
#
#
# Convention : Reuss Voigt Hill
#
# Bulk Modulus (GPa) = 65.79186 78.37634 72.08410
# Shear Modulus (GPa) = 36.03278 48.27943 42.15610
#
# Velocity S-wave (km/s) = 3.81683 4.41809 4.12842
# Velocity P-wave (km/s) = 6.78411 7.59697 7.20202
#
# Compressibility (1/GPa) = 0.01519945
#
# Stress axis : x y z
#
# Youngs Moduli (GPa) = 113.24566 73.43186 223.58413
#
# Poissons Ratio (x) = 0.28010 0.33703
# Poissons Ratio (y) = 0.43196 0.12051
# Poissons Ratio (z) = 0.17070 0.03958
#
# Static dielectric constant tensor:
#      x y z
#    x 2.017700 0.000000 0.000000 
#    y 0.000000 2.176360 0.000000 
#    z 0.000000 0.000000 2.220120 
# 
# From -- ./inp_files/12870.got.cif
#   From: 2010.05.17/outbox.cif.g08.bks.cpg/sg48_7_cif.got.tgz:12870.got - 2010.06.03 20:39:00.
