data_PCOD9390169
_publ_section_title
;
Structure prediction by ZEFSAII (Michael W. Deem and Ramdas Pophale) SiO2 
 PCOD9390169
Probable space group: P N N N
;
_chemical_formula_sum "Si O2"
_cell_formula_units_Z 50
_cell_length_a 21.940514
_cell_length_b 9.483543
_cell_length_c 11.660276
_cell_angle_alpha 90.000000
_cell_angle_beta 90.000000
_cell_angle_gamma 90.000000
_cell_volume 2426.198029
_symmetry_space_group_name_H-M "P N N N"
_symmetry_group_IT_number 48
_space_group.IT_coordinate_system_code '2'
_symmetry_cell_setting 'orthorhombic'
loop_
_space_group_symop_operation_xyz
x,y,z
1/2-x,1/2-y,z
x,1/2-y,1/2-z
1/2-x,y,1/2-z
-x,-y,-z
1/2+x,1/2+y,-z
-x,1/2+y,1/2+z
1/2+x,-y,1/2+z
loop_
_atom_site_type_symbol
_atom_site_label
_atom_site_fract_x
_atom_site_fract_y
_atom_site_fract_z
Si Si1 0.782388 0.398112 0.134088
Si Si2 0.105062 0.718153 0.969658
Si Si3 0.470591 0.270792 0.387301
Si Si4 0.111072 0.482860 0.421888
Si Si5 0.757652 0.982614 0.901617
Si Si6 0.250000 0.750000 0.250000
Si Si7 0.626778 0.999413 0.837702
O O1 0.750000 0.250000 0.106879
O O2 0.750000 0.447820 0.250000
O O3 0.853160 0.352678 0.129334
O O4 0.767771 0.499091 0.029538
O O5 0.126804 0.639243 0.085459
O O6 0.113021 0.885573 0.991473
O O7 0.034486 0.692135 0.944055
O O8 0.479629 0.250000 0.250000
O O9 0.441941 0.129675 0.442266
O O10 0.419210 0.390408 0.395614
O O11 0.177579 0.408053 0.417100
O O12 0.102872 0.530809 0.289552
O O13 0.774990 0.134284 0.841940
O O14 0.696182 0.938225 0.834280
#
# Coordination Sequence:
#
# PCOD9390169 Si02
#       7
#     8   8   8   8   8   2   8
#     4  10  20  32  51  85 112 135 182 228 287 313
#     4  11  21  36  60  78 107 146 190 234 267 321
#     4  10  24  38  51  77 117 153 179 219 279 346
#     4  11  20  35  55  86 112 138 183 230 286 333
#     4  11  19  31  57  84 113 141 172 241 277 325
#     4  12  16  28  50  86 116 124 180 224 290 300
#     4  10  21  36  56  82 111 144 183 225 285 337
#
# _framework density 20.608374000000001
#
# number of rings (size 3 to 8) (size 9 to 14) (size 15 to 20)
#    0.000    1.440    4.000    2.400    2.240    0.640 
#    0.000    2.400    0.000    1.920    0.000    8.960 
#    0.000    0.000    0.000    0.000    0.000    0.000 
#
# Total GULP energy -278465.181607 kJ/mol
# GULP energy per Si atom -5569.303632 kJ/mol
# Density = 2.056147 g / cm^3
# Si number density = 20.608374 Si / 1000 Ang^3
#
#
#
# Elastic Constant Matrix: (Units=GPa)
#
#
# Indices 1 2 3 4 5 6 
#
# 1 157.2598 21.7753 5.2181 0.0000 0.0000 0.0000
# 2 21.7753 41.1829 7.3695 0.0000 0.0000 0.0000
# 3 5.2181 7.3695 61.1167 0.0000 0.0000 0.0000
# 4 0.0000 0.0000 0.0000 13.0633 0.0000 0.0000
# 5 0.0000 0.0000 0.0000 0.0000 27.1577 0.0000
# 6 0.0000 0.0000 0.0000 0.0000 0.0000 12.2216
#
#
#
# Elastic Compliance Matrix: (Units=1/GPa)
#
#
# Indices 1 2 3 4 5 6 
#
# 1 0.006863 -0.003601 -0.000152 0.000000 0.000000 0.000000
# 2 -0.003601 0.026707 -0.002913 0.000000 0.000000 0.000000
# 3 -0.000152 -0.002913 0.016726 0.000000 0.000000 0.000000
# 4 0.000000 0.000000 0.000000 0.076550 0.000000 0.000000
# 5 0.000000 0.000000 0.000000 0.000000 0.036822 0.000000
# 6 0.000000 0.000000 0.000000 0.000000 0.000000 0.081823
#
#
# Mechanical properties :
#
#
# Convention : Reuss Voigt Hill
#
# Bulk Modulus (GPa) = 27.05310 36.47614 31.76462
# Shear Modulus (GPa) = 18.44036 25.50163 21.97099
#
# Velocity S-wave (km/s) = 2.99456 3.52154 3.26869
# Velocity P-wave (km/s) = 5.01122 5.85432 5.44910
#
# Compressibility (1/GPa) = 0.03696434
#
# Stress axis : x y z
#
# Youngs Moduli (GPa) = 145.71696 37.44279 59.78598
#
# Poissons Ratio (x) = 0.13485 0.00907
# Poissons Ratio (y) = 0.52479 0.17415
# Poissons Ratio (z) = 0.02210 0.10907
#
# Static dielectric constant tensor:
#      x y z
#    x 1.778740 0.000000 0.000000 
#    y 0.000000 1.766150 0.000000 
#    z 0.000000 0.000000 1.785210 
# 
# From -- ./inp_files/22834.got.cif
#   From: 2010.05.17/outbox.cif.g08.bks.cpg/sg48_12_cif.got.tgz:22834.got - 2010.06.03 20:39:00.
