data_PCOD9390420
_publ_section_title
;
Structure prediction by ZEFSAII (Michael W. Deem and Ramdas Pophale) SiO2 
 PCOD9390420
Probable space group: P N N N
;
_chemical_formula_sum "Si O2"
_cell_formula_units_Z 52
_cell_length_a 8.858921
_cell_length_b 21.524392
_cell_length_c 13.174038
_cell_angle_alpha 90.000000
_cell_angle_beta 90.000000
_cell_angle_gamma 90.000000
_cell_volume 2512.063616
_symmetry_space_group_name_H-M "P N N N"
_symmetry_group_IT_number 48
_space_group.IT_coordinate_system_code '2'
_symmetry_cell_setting 'orthorhombic'
loop_
_space_group_symop_operation_xyz
x,y,z
1/2-x,1/2-y,z
x,1/2-y,1/2-z
1/2-x,y,1/2-z
-x,-y,-z
1/2+x,1/2+y,-z
-x,1/2+y,1/2+z
1/2+x,-y,1/2+z
loop_
_atom_site_type_symbol
_atom_site_label
_atom_site_fract_x
_atom_site_fract_y
_atom_site_fract_z
Si Si1 0.038982 0.887382 0.585902
Si Si2 0.168269 0.574531 0.482338
Si Si3 0.250000 0.750000 0.250000
Si Si4 0.998918 0.682416 0.380807
Si Si5 0.750000 0.750000 0.250000
Si Si6 0.740525 0.542316 0.861417
Si Si7 0.928498 0.746402 0.595267
Si Si8 0.032883 0.873940 0.814290
O O1 0.987757 0.815925 0.581028
O O2 0.092482 0.891262 0.703598
O O3 0.156632 0.902890 0.496166
O O4 0.894824 0.932839 0.589544
O O5 0.169429 0.504874 0.441710
O O6 0.056437 0.613672 0.409647
O O7 0.115659 0.590159 0.595806
O O8 0.357895 0.789008 0.323160
O O9 0.856616 0.703009 0.313160
O O10 0.958324 0.713269 0.487973
O O11 0.750000 0.509514 0.750000
O O12 0.637093 0.600995 0.832382
O O13 0.750000 0.750000 0.619859
O O14 0.019685 0.700108 0.670034
#
# Coordination Sequence:
#
# PCOD9390420 Si02
#       8
#     8   8   2   8   2   8   8   8
#     4  11  22  38  65  95 125 160 210 258 320 383
#     4  11  23  40  61  90 130 165 206 259 320 369
#     4  10  20  38  56  82 126 158 200 256 316 346
#     4  10  22  37  61  90 122 165 206 264 312 381
#     4  10  20  42  64  86 130 162 232 266 314 370
#     4  10  22  40  62  88 123 169 218 251 299 385
#     4  11  20  37  63  94 121 155 205 255 325 377
#     4  10  22  39  63  91 125 164 202 262 316 381
#
# _framework density 20.700113000000002
#
# number of rings (size 3 to 8) (size 9 to 14) (size 15 to 20)
#    0.000    1.538    2.308    2.769    1.077    2.462 
#    0.000    3.077   16.923    0.000    0.000    0.000 
#    0.000    0.000    0.000    0.000    0.000    0.000 
#
# Total GULP energy -289805.751564 kJ/mol
# GULP energy per Si atom -5573.187530 kJ/mol
# Density = 2.065300 g / cm^3
# Si number density = 20.700113 Si / 1000 Ang^3
#
#
#
# Elastic Constant Matrix: (Units=GPa)
#
#
# Indices 1 2 3 4 5 6 
#
# 1 87.4242 24.5178 19.6186 0.0000 0.0000 0.0000
# 2 24.5178 104.6535 31.3503 0.0000 0.0000 0.0000
# 3 19.6186 31.3503 58.1145 0.0000 0.0000 0.0000
# 4 0.0000 0.0000 0.0000 33.7417 0.0000 0.0000
# 5 0.0000 0.0000 0.0000 0.0000 18.0331 0.0000
# 6 0.0000 0.0000 0.0000 0.0000 0.0000 -3.5036
#
#
#
# Elastic Compliance Matrix: (Units=1/GPa)
#
#
# Indices 1 2 3 4 5 6 
#
# 1 0.012725 -0.002021 -0.003205 0.000000 0.000000 0.000000
# 2 -0.002021 0.011718 -0.005639 0.000000 0.000000 0.000000
# 3 -0.003205 -0.005639 0.021332 0.000000 0.000000 0.000000
# 4 0.000000 0.000000 0.000000 0.029637 0.000000 0.000000
# 5 0.000000 0.000000 0.000000 0.000000 0.055454 0.000000
# 6 0.000000 0.000000 0.000000 0.000000 0.000000 -0.285420
#
#
# Mechanical properties :
#
#
# Convention : Reuss Voigt Hill
#
# Bulk Modulus (GPa) = 41.59169 44.57395 43.08282
# Shear Modulus (GPa) = -40.06079 21.30128 -9.37976
#
# Velocity S-wave (km/s) = -4.40397 3.21135 -2.13098
# Velocity P-wave (km/s) = 2.39245 5.94393 3.84750
#
# Compressibility (1/GPa) = 0.02404326
#
# Stress axis : x y z
#
# Youngs Moduli (GPa) = 78.58827 85.33835 46.87873
#
# Poissons Ratio (x) = 0.17245 0.15027
# Poissons Ratio (y) = 0.15881 0.26436
# Poissons Ratio (z) = 0.25191 0.48124
#
# Static dielectric constant tensor:
#      x y z
#    x 1.844920 0.000000 0.000000 
#    y 0.000000 1.711760 0.000000 
#    z 0.000000 0.000000 1.779160 
# 
# From -- ./inp_files/25591.got.cif
#   From: 2010.05.17/outbox.cif.g08.bks.cpg/sg48_13_cif.got.tgz:25591.got - 2010.06.03 20:39:00.
