data_PCOD9390778
_publ_section_title
;
Structure prediction by ZEFSAII (Michael W. Deem and Ramdas Pophale) SiO2 
 PCOD9390778
Probable space group: P N N N
;
_chemical_formula_sum "Si O2"
_cell_formula_units_Z 56
_cell_length_a 10.577309
_cell_length_b 25.779429
_cell_length_c 11.958351
_cell_angle_alpha 90.000000
_cell_angle_beta 90.000000
_cell_angle_gamma 90.000000
_cell_volume 3260.767113
_symmetry_space_group_name_H-M "P N N N"
_symmetry_group_IT_number 48
_space_group.IT_coordinate_system_code '2'
_symmetry_cell_setting 'orthorhombic'
loop_
_space_group_symop_operation_xyz
x,y,z
1/2-x,1/2-y,z
x,1/2-y,1/2-z
1/2-x,y,1/2-z
-x,-y,-z
1/2+x,1/2+y,-z
-x,1/2+y,1/2+z
1/2+x,-y,1/2+z
loop_
_atom_site_type_symbol
_atom_site_label
_atom_site_fract_x
_atom_site_fract_y
_atom_site_fract_z
Si Si1 0.052060 0.427243 0.326036
Si Si2 0.113422 0.472756 0.694903
Si Si3 0.098322 0.190004 0.765879
Si Si4 0.515624 0.899301 0.111188
Si Si5 0.991766 0.888434 0.049106
Si Si6 0.835770 0.944083 0.592453
Si Si7 0.258718 0.559947 0.384358
O O1 0.005440 0.383956 0.414489
O O2 0.197440 0.430298 0.363600
O O3 0.065826 0.429418 0.192043
O O4 0.963091 0.477318 0.347269
O O5 0.250000 0.484169 0.750000
O O6 0.037813 0.443028 0.793102
O O7 0.111401 0.430893 0.594401
O O8 0.064652 0.250000 0.750000
O O9 0.250000 0.185278 0.750000
O O10 0.044526 0.155131 0.666726
O O11 0.044447 0.162718 0.879305
O O12 0.368928 0.900909 0.081661
O O13 0.609484 0.914394 0.013048
O O14 0.124660 0.916180 0.080622
O O15 0.812586 0.005330 0.568566
O O16 0.250000 0.552502 0.250000
#
# Coordination Sequence:
#
# PCOD9390778 Si02
#       7
#     8   8   8   8   8   8   8
#     4  11  21  32  48  74 109 148 180 213 265 324
#     4  11  20  28  47  73 103 141 185 215 258 323
#     4  10  21  39  60  81 103 135 185 245 290 318
#     4  11  21  34  53  78 105 147 184 222 272 327
#     4  11  21  35  52  76 108 144 182 229 276 326
#     4  11  20  35  50  74 114 155 179 216 264 327
#     4  12  19  35  51  77 117 147 176 221 271 325
#
# _framework density 17.173871999999999
#
# number of rings (size 3 to 8) (size 9 to 14) (size 15 to 20)
#    0.000    1.000    7.143    4.286    2.000    0.000 
#    0.000    1.429    0.000    0.857    0.000    4.000 
#    0.000    2.286    0.000    0.000    0.000    0.000 
#
# Total GULP energy -311742.439775 kJ/mol
# GULP energy per Si atom -5566.829282 kJ/mol
# Density = 1.713478 g / cm^3
# Si number density = 17.173872 Si / 1000 Ang^3
#
#
#
# Elastic Constant Matrix: (Units=GPa)
#
#
# Indices 1 2 3 4 5 6 
#
# 1 89.2398 38.7500 26.6867 0.0000 0.0000 0.0000
# 2 38.7500 99.2384 43.9568 0.0000 0.0000 0.0000
# 3 26.6867 43.9568 70.9456 0.0000 0.0000 0.0000
# 4 0.0000 0.0000 0.0000 39.7801 0.0000 0.0000
# 5 0.0000 0.0000 0.0000 0.0000 22.4746 0.0000
# 6 0.0000 0.0000 0.0000 0.0000 0.0000 -37.6425
#
#
#
# Elastic Compliance Matrix: (Units=1/GPa)
#
#
# Indices 1 2 3 4 5 6 
#
# 1 0.013822 -0.004265 -0.002557 0.000000 0.000000 0.000000
# 2 -0.004265 0.015204 -0.007816 0.000000 0.000000 0.000000
# 3 -0.002557 -0.007816 0.019900 0.000000 0.000000 0.000000
# 4 0.000000 0.000000 0.000000 0.025138 0.000000 0.000000
# 5 0.000000 0.000000 0.000000 0.000000 0.044495 0.000000
# 6 0.000000 0.000000 0.000000 0.000000 0.000000 -0.026566
#
#
# Mechanical properties :
#
#
# Convention : Reuss Voigt Hill
#
# Bulk Modulus (GPa) = 50.88861 53.13452 52.01157
# Shear Modulus (GPa) = 39.11789 14.92446 27.02117
#
# Velocity S-wave (km/s) = 4.77776 2.95111 3.97090
# Velocity P-wave (km/s) = 7.75447 6.52828 7.16764
#
# Compressibility (1/GPa) = 0.01965076
#
# Stress axis : x y z
#
# Youngs Moduli (GPa) = 72.34727 65.77216 50.25161
#
# Poissons Ratio (x) = 0.28049 0.12850
# Poissons Ratio (y) = 0.30853 0.39277
# Poissons Ratio (z) = 0.18500 0.51408
#
# Static dielectric constant tensor:
#      x y z
#    x 1.640960 0.000000 0.000000 
#    y 0.000000 1.565680 0.000000 
#    z 0.000000 0.000000 1.675500 
# 
# From -- ./inp_files/20406.got.cif
#   From: 2010.05.17/outbox.cif.g08.bks.cpg/sg48_11_cif.got.tgz:20406.got - 2010.06.03 20:39:00.
