data_PCOD9390618
_publ_section_title
;
Structure prediction by ZEFSAII (Michael W. Deem and Ramdas Pophale) SiO2 
 PCOD9390618
Probable space group: P N N N
;
_chemical_formula_sum "Si O2"
_cell_formula_units_Z 30
_cell_length_a 23.061672
_cell_length_b 5.711119
_cell_length_c 8.961422
_cell_angle_alpha 90.000000
_cell_angle_beta 90.000000
_cell_angle_gamma 90.000000
_cell_volume 1180.290549
_symmetry_space_group_name_H-M "P N N N"
_symmetry_group_IT_number 48
_space_group.IT_coordinate_system_code '2'
_symmetry_cell_setting 'orthorhombic'
loop_
_space_group_symop_operation_xyz
x,y,z
1/2-x,1/2-y,z
x,1/2-y,1/2-z
1/2-x,y,1/2-z
-x,-y,-z
1/2+x,1/2+y,-z
-x,1/2+y,1/2+z
1/2+x,-y,1/2+z
loop_
_atom_site_type_symbol
_atom_site_label
_atom_site_fract_x
_atom_site_fract_y
_atom_site_fract_z
Si Si1 0.955481 0.881628 0.110637
Si Si2 0.314536 0.825821 0.058541
Si Si3 0.633503 0.250000 0.250000
Si Si4 0.342094 0.180435 0.479084
Si Si5 0.750000 0.750000 0.250000
O O1 0.984146 0.750000 0.250000
O O2 0.907597 0.733634 0.020919
O O3 0.910930 0.063797 0.183280
O O4 0.000000 0.000000 0.000000
O O5 0.250000 0.750000 0.087620
O O6 0.327365 0.850946 0.881629
O O7 0.348134 0.580799 0.093260
O O8 0.320404 0.093373 0.111207
O O9 0.297267 0.150698 0.623037
#
# Coordination Sequence:
#
# PCOD9390618 Si02
#       5
#     8   8   4   8   2
#     4  11  23  41  59  85 128 182 229 279 339 423
#     4  11  18  29  50  83 122 159 182 258 352 419
#     4  10  21  34  54  84 122 161 212 264 336 412
#     4  11  21  30  51  84 120 164 193 262 338 420
#     4  12  16  30  52  78 128 144 196 262 378 374
#
# _framework density 25.417470000000002
#
# number of rings (size 3 to 8) (size 9 to 14) (size 15 to 20)
#    0.000    1.067    6.667    2.000    0.000    1.067 
#    0.000    0.000    0.000    0.000    0.000    0.000 
#    0.000   49.067    0.000    0.000    0.000    0.000 
#
# Total GULP energy -167039.851851 kJ/mol
# GULP energy per Si atom -5567.995062 kJ/mol
# Density = 2.535962 g / cm^3
# Si number density = 25.417470 Si / 1000 Ang^3
#
#
#
# Elastic Constant Matrix: (Units=GPa)
#
#
# Indices 1 2 3 4 5 6 
#
# 1 128.4207 14.1997 48.2640 0.0000 0.0000 0.0000
# 2 14.1997 183.5709 40.6655 0.0000 0.0000 0.0000
# 3 48.2640 40.6655 99.4698 0.0000 0.0000 0.0000
# 4 0.0000 0.0000 0.0000 28.1104 0.0000 0.0000
# 5 0.0000 0.0000 0.0000 0.0000 -18.8423 0.0000
# 6 0.0000 0.0000 0.0000 0.0000 0.0000 23.3194
#
#
#
# Elastic Compliance Matrix: (Units=1/GPa)
#
#
# Indices 1 2 3 4 5 6 
#
# 1 0.009540 0.000316 -0.004758 0.000000 0.000000 0.000000
# 2 0.000316 0.006000 -0.002606 0.000000 0.000000 0.000000
# 3 -0.004758 -0.002606 0.013428 0.000000 0.000000 0.000000
# 4 0.000000 0.000000 0.000000 0.035574 0.000000 0.000000
# 5 0.000000 0.000000 0.000000 0.000000 -0.053072 0.000000
# 6 0.000000 0.000000 0.000000 0.000000 0.000000 0.042883
#
#
# Mechanical properties :
#
#
# Convention : Reuss Voigt Hill
#
# Bulk Modulus (GPa) = 67.24484 68.63554 67.94019
# Shear Modulus (GPa) = 68.11304 27.07298 47.59301
#
# Velocity S-wave (km/s) = 5.18227 3.26718 4.33188
# Velocity P-wave (km/s) = 7.89439 6.42608 7.19778
#
# Compressibility (1/GPa) = 0.01487103
#
# Stress axis : x y z
#
# Youngs Moduli (GPa) = 104.81916 166.65453 74.47305
#
# Poissons Ratio (x) = -0.05268 0.35436
# Poissons Ratio (y) = -0.03313 0.19411
# Poissons Ratio (z) = 0.49876 0.43438
#
# Static dielectric constant tensor:
#      x y z
#    x 1.970780 0.000000 0.000000 
#    y 0.000000 2.268860 0.000000 
#    z 0.000000 0.000000 2.192670 
# 
# From -- ./inp_files/1961.got.cif
#   From: 2010.05.17/outbox.cif.g08.bks.cpg/sg48_1_cif.got.tgz:1961.got - 2010.06.03 20:39:00.
