data_PCOD9390783
_publ_section_title
;
Structure prediction by ZEFSAII (Michael W. Deem and Ramdas Pophale) SiO2 
 PCOD9390783
Probable space group: P N N N
;
_chemical_formula_sum "Si O2"
_cell_formula_units_Z 44
_cell_length_a 11.292248
_cell_length_b 14.840737
_cell_length_c 13.686194
_cell_angle_alpha 90.000000
_cell_angle_beta 90.000000
_cell_angle_gamma 90.000000
_cell_volume 2293.604691
_symmetry_space_group_name_H-M "P N N N"
_symmetry_group_IT_number 48
_space_group.IT_coordinate_system_code '2'
_symmetry_cell_setting 'orthorhombic'
loop_
_space_group_symop_operation_xyz
x,y,z
1/2-x,1/2-y,z
x,1/2-y,1/2-z
1/2-x,y,1/2-z
-x,-y,-z
1/2+x,1/2+y,-z
-x,1/2+y,1/2+z
1/2+x,-y,1/2+z
loop_
_atom_site_type_symbol
_atom_site_label
_atom_site_fract_x
_atom_site_fract_y
_atom_site_fract_z
Si Si1 0.250000 0.499019 0.250000
Si Si2 0.897548 0.904407 0.591565
Si Si3 0.250000 0.023212 0.750000
Si Si4 0.584953 0.672126 0.168037
Si Si5 0.183180 0.841232 0.105811
Si Si6 0.750000 0.750000 0.495273
Si Si7 0.166712 0.931240 0.555637
O O1 0.349967 0.439475 0.303702
O O2 0.296952 0.569060 0.169778
O O3 0.830673 0.814318 0.560189
O O4 0.037938 0.890932 0.581096
O O5 0.861163 0.982704 0.514079
O O6 0.135632 0.085291 0.775135
O O7 0.223851 0.965397 0.654929
O O8 0.588134 0.750000 0.250000
O O9 0.456292 0.672701 0.118628
O O10 0.673741 0.690031 0.079195
O O11 0.250000 0.750000 0.139738
O O12 0.244722 0.865929 0.002927
#
# Coordination Sequence:
#
# PCOD9390783 Si02
#       7
#     4   8   4   8   8   4   8
#     4  10  21  39  60  96 118 166 218 259 329 378
#     4  10  21  40  64  90 132 166 214 268 320 395
#     4  12  21  40  65  96 128 168 214 276 327 395
#     4  12  21  37  63  97 127 160 217 270 322 386
#     4  11  23  39  64  92 126 167 214 269 324 391
#     4  12  21  39  62  92 126 168 210 262 332 386
#     4  10  22  41  62  93 127 171 210 263 334 385
#
# _framework density 19.183776999999999
#
# number of rings (size 3 to 8) (size 9 to 14) (size 15 to 20)
#    0.000    1.091    3.636    3.545    0.000    4.000 
#    3.273    0.455    4.000    0.000    0.000    0.000 
#    0.000    0.000    0.000    0.000    0.000    0.000 
#
# Total GULP energy -245559.254857 kJ/mol
# GULP energy per Si atom -5580.892156 kJ/mol
# Density = 1.914011 g / cm^3
# Si number density = 19.183777 Si / 1000 Ang^3
#
#
#
# Elastic Constant Matrix: (Units=GPa)
#
#
# Indices 1 2 3 4 5 6 
#
# 1 110.2257 27.2096 58.5290 0.0000 0.0000 0.0000
# 2 27.2096 65.6676 48.1749 0.0000 0.0000 0.0000
# 3 58.5290 48.1749 127.3659 0.0000 0.0000 0.0000
# 4 0.0000 0.0000 0.0000 30.9223 0.0000 0.0000
# 5 0.0000 0.0000 0.0000 0.0000 414.4048 0.0000
# 6 0.0000 0.0000 0.0000 0.0000 0.0000 14.1271
#
#
#
# Elastic Compliance Matrix: (Units=1/GPa)
#
#
# Indices 1 2 3 4 5 6 
#
# 1 0.012079 -0.001291 -0.005062 0.000000 0.000000 0.000000
# 2 -0.001291 0.021215 -0.007431 0.000000 0.000000 0.000000
# 3 -0.005062 -0.007431 0.012988 0.000000 0.000000 0.000000
# 4 0.000000 0.000000 0.000000 0.032339 0.000000 0.000000
# 5 0.000000 0.000000 0.000000 0.000000 0.002413 0.000000
# 6 0.000000 0.000000 0.000000 0.000000 0.000000 0.070786
#
#
# Mechanical properties :
#
#
# Convention : Reuss Voigt Hill
#
# Bulk Modulus (GPa) = 53.43809 63.45403 58.44606
# Shear Modulus (GPa) = 26.93573 103.18055 65.05814
#
# Velocity S-wave (km/s) = 3.75118 7.34180 5.82981
# Velocity P-wave (km/s) = 6.83214 10.24784 8.70909
#
# Compressibility (1/GPa) = 0.01871324
#
# Stress axis : x y z
#
# Youngs Moduli (GPa) = 82.78748 47.13729 76.99177
#
# Poissons Ratio (x) = 0.06086 0.38976
# Poissons Ratio (y) = 0.10689 0.57212
# Poissons Ratio (z) = 0.41910 0.35027
#
# Static dielectric constant tensor:
#      x y z
#    x 1.668260 0.000000 0.000000 
#    y 0.000000 1.655220 0.000000 
#    z 0.000000 0.000000 1.661200 
# 
# From -- ./inp_files/26409.got.cif
#   From: 2010.05.17/outbox.cif.g08.bks.cpg/sg48_14_cif.got.tgz:26409.got - 2010.06.03 20:39:00.
