data_PCOD9390363
_publ_section_title
;
Structure prediction by ZEFSAII (Michael W. Deem and Ramdas Pophale) SiO2 
 PCOD9390363
Probable space group: P N N N
;
_chemical_formula_sum "Si O2"
_cell_formula_units_Z 48
_cell_length_a 10.469170
_cell_length_b 7.960826
_cell_length_c 30.292118
_cell_angle_alpha 90.000000
_cell_angle_beta 90.000000
_cell_angle_gamma 90.000000
_cell_volume 2524.643283
_symmetry_space_group_name_H-M "P N N N"
_symmetry_group_IT_number 48
_space_group.IT_coordinate_system_code '2'
_symmetry_cell_setting 'orthorhombic'
loop_
_space_group_symop_operation_xyz
x,y,z
1/2-x,1/2-y,z
x,1/2-y,1/2-z
1/2-x,y,1/2-z
-x,-y,-z
1/2+x,1/2+y,-z
-x,1/2+y,1/2+z
1/2+x,-y,1/2+z
loop_
_atom_site_type_symbol
_atom_site_label
_atom_site_fract_x
_atom_site_fract_y
_atom_site_fract_z
Si Si1 0.362712 0.124848 0.952342
Si Si2 0.359517 0.621295 0.626027
Si Si3 0.614435 0.438518 0.270823
Si Si4 0.636529 0.377140 0.534007
Si Si5 0.857504 0.887490 0.619125
Si Si6 0.835409 0.425272 0.787437
O O1 0.250000 0.250000 0.961795
O O2 0.500065 0.210002 0.958394
O O3 0.350541 0.044115 0.904015
O O4 0.363173 0.975438 0.987907
O O5 0.250000 0.750000 0.613082
O O6 0.352774 0.583054 0.677677
O O7 0.501436 0.692461 0.618683
O O8 0.589027 0.250000 0.250000
O O9 0.750000 0.500194 0.250000
O O10 0.484067 0.553661 0.269667
O O11 0.750000 0.250000 0.534370
O O12 0.651449 0.502723 0.575085
O O13 0.750000 0.750000 0.619147
O O14 0.842859 0.995050 0.664026
O O15 0.750000 0.250000 0.792702
O O16 0.750000 0.517226 0.750000
#
# Coordination Sequence:
#
# PCOD9390363 Si02
#       6
#     8   8   8   8   8   8
#     4  10  22  38  58  86 119 155 197 243 299 360
#     4  10  20  37  58  90 116 148 199 247 297 353
#     4  10  20  38  65  90 118 160 207 255 303 363
#     4  10  21  39  60  84 121 154 194 250 295 354
#     4  10  22  36  60  88 117 158 198 241 296 360
#     4  10  23  39  57  87 125 158 199 250 303 360
#
# _framework density 19.012587
#
# number of rings (size 3 to 8) (size 9 to 14) (size 15 to 20)
#    0.000    2.000    1.667    1.500    4.667    2.000 
#    0.000   11.667    0.000    0.000    0.000    0.000 
#    0.000    0.000    0.000    0.000    0.000    0.000 
#
# Total GULP energy -267271.319648 kJ/mol
# GULP energy per Si atom -5568.152493 kJ/mol
# Density = 1.896931 g / cm^3
# Si number density = 19.012587 Si / 1000 Ang^3
#
#
#
# Elastic Constant Matrix: (Units=GPa)
#
#
# Indices 1 2 3 4 5 6 
#
# 1 191.1832 64.6038 14.7821 0.0000 0.0000 0.0000
# 2 64.6038 33.8826 2.4916 0.0000 0.0000 0.0000
# 3 14.7821 2.4916 95.1413 0.0000 0.0000 0.0000
# 4 0.0000 0.0000 0.0000 10.7430 0.0000 0.0000
# 5 0.0000 0.0000 0.0000 0.0000 20.6228 0.0000
# 6 0.0000 0.0000 0.0000 0.0000 0.0000 34.8725
#
#
#
# Elastic Compliance Matrix: (Units=1/GPa)
#
#
# Indices 1 2 3 4 5 6 
#
# 1 0.014938 -0.028366 -0.001578 0.000000 0.000000 0.000000
# 2 -0.028366 0.083436 0.002222 0.000000 0.000000 0.000000
# 3 -0.001578 0.002222 0.010698 0.000000 0.000000 0.000000
# 4 0.000000 0.000000 0.000000 0.093084 0.000000 0.000000
# 5 0.000000 0.000000 0.000000 0.000000 0.048490 0.000000
# 6 0.000000 0.000000 0.000000 0.000000 0.000000 0.028676
#
#
# Mechanical properties :
#
#
# Convention : Reuss Voigt Hill
#
# Bulk Modulus (GPa) = 18.64715 53.77355 36.21035
# Shear Modulus (GPa) = 14.17875 29.13632 21.65753
#
# Velocity S-wave (km/s) = 2.73382 3.91893 3.37874
# Velocity P-wave (km/s) = 4.44905 6.98727 5.85730
#
# Compressibility (1/GPa) = 0.05362750
#
# Stress axis : x y z
#
# Youngs Moduli (GPa) = 66.94374 11.98527 93.47835
#
# Poissons Ratio (x) = 0.33997 0.14751
# Poissons Ratio (y) = 1.89893 -0.20772
# Poissons Ratio (z) = 0.10564 -0.02663
#
# Static dielectric constant tensor:
#      x y z
#    x 1.686060 0.000000 0.000000 
#    y 0.000000 1.671210 0.000000 
#    z 0.000000 0.000000 1.666190 
# 
# From -- ./inp_files/38684.got.cif
#   From: 2010.05.17/outbox.cif.g08.bks.cpg/sg48_20_cif.got.tgz:38684.got - 2010.06.03 20:39:00.
