data_PCOD9390967
_publ_section_title
;
Structure prediction by ZEFSAII (Michael W. Deem and Ramdas Pophale) SiO2 
 PCOD9390967
Probable space group: P N N N
;
_chemical_formula_sum "Si O2"
_cell_formula_units_Z 58
_cell_length_a 18.382703
_cell_length_b 8.611571
_cell_length_c 17.827329
_cell_angle_alpha 90.000000
_cell_angle_beta 90.000000
_cell_angle_gamma 90.000000
_cell_volume 2822.136635
_symmetry_space_group_name_H-M "P N N N"
_symmetry_group_IT_number 48
_space_group.IT_coordinate_system_code '2'
_symmetry_cell_setting 'orthorhombic'
loop_
_space_group_symop_operation_xyz
x,y,z
1/2-x,1/2-y,z
x,1/2-y,1/2-z
1/2-x,y,1/2-z
-x,-y,-z
1/2+x,1/2+y,-z
-x,1/2+y,1/2+z
1/2+x,-y,1/2+z
loop_
_atom_site_type_symbol
_atom_site_label
_atom_site_fract_x
_atom_site_fract_y
_atom_site_fract_z
Si Si1 0.721143 0.074311 0.512678
Si Si2 0.250000 0.250000 0.750000
Si Si3 0.560236 0.992754 0.890999
Si Si4 0.573070 0.201384 0.165985
Si Si5 0.780250 0.070633 0.669159
Si Si6 0.189089 0.481650 0.873141
Si Si7 0.062430 0.318545 0.959472
Si Si8 0.071663 0.974571 0.953019
O O1 0.750000 0.250000 0.509492
O O2 0.747431 0.002125 0.591410
O O3 0.635259 0.076116 0.508344
O O4 0.748495 0.994858 0.435727
O O5 0.206576 0.364542 0.806005
O O6 0.493337 0.920947 0.844560
O O7 0.632258 0.048025 0.845573
O O8 0.520201 0.131973 0.937811
O O9 0.575467 0.857538 0.952854
O O10 0.565677 0.250000 0.250000
O O11 0.563435 0.345539 0.109894
O O12 0.656519 0.142592 0.156769
O O13 0.750000 0.250000 0.668606
O O14 0.750000 0.009236 0.750000
O O15 0.119085 0.430229 0.920021
O O16 0.084754 0.151153 0.928150
O O17 0.000000 0.000000 0.000000
#
# Coordination Sequence:
#
# PCOD9390967 Si02
#       8
#     8   2   8   8   8   8   8   8
#     4  11  23  41  72  98 140 185 237 291 365 434
#     4  12  28  40  70 108 142 184 240 296 348 432
#     4  10  21  45  71  97 137 187 222 305 360 422
#     4  11  26  45  66 103 147 185 233 298 368 426
#     4  10  23  42  69 102 135 180 242 295 360 433
#     4  11  24  45  68  99 143 184 233 288 358 425
#     4  10  22  41  72  99 133 176 243 285 352 424
#     4  12  25  41  69 107 131 184 243 289 343 440
#
# _framework density 20.551805000000002
#
# number of rings (size 3 to 8) (size 9 to 14) (size 15 to 20)
#    0.000    1.241    4.138    0.828    7.724    1.103 
#    2.483    0.000    0.000    0.000    0.000    0.000 
#    0.000    0.000    0.000    0.000    0.000    0.000 
#
# Total GULP energy -323019.580570 kJ/mol
# GULP energy per Si atom -5569.303113 kJ/mol
# Density = 2.050503 g / cm^3
# Si number density = 20.551805 Si / 1000 Ang^3
#
#
#
# Elastic Constant Matrix: (Units=GPa)
#
#
# Indices 1 2 3 4 5 6 
#
# 1 135.8468 23.1434 51.4743 0.0000 0.0000 0.0000
# 2 23.1434 61.1307 17.6189 0.0000 0.0000 0.0000
# 3 51.4743 17.6189 132.0501 0.0000 0.0000 0.0000
# 4 0.0000 0.0000 0.0000 29.5448 0.0000 0.0000
# 5 0.0000 0.0000 0.0000 0.0000 46.3253 0.0000
# 6 0.0000 0.0000 0.0000 0.0000 0.0000 97.2619
#
#
#
# Elastic Compliance Matrix: (Units=1/GPa)
#
#
# Indices 1 2 3 4 5 6 
#
# 1 0.008987 -0.002488 -0.003171 0.000000 0.000000 0.000000
# 2 -0.002488 0.017702 -0.001392 0.000000 0.000000 0.000000
# 3 -0.003171 -0.001392 0.008995 0.000000 0.000000 0.000000
# 4 0.000000 0.000000 0.000000 0.033847 0.000000 0.000000
# 5 0.000000 0.000000 0.000000 0.000000 0.021586 0.000000
# 6 0.000000 0.000000 0.000000 0.000000 0.000000 0.010282
#
#
# Mechanical properties :
#
#
# Convention : Reuss Voigt Hill
#
# Bulk Modulus (GPa) = 46.33821 57.05563 51.69692
# Shear Modulus (GPa) = 40.75178 50.41248 45.58213
#
# Velocity S-wave (km/s) = 4.45779 4.95810 4.71458
# Velocity P-wave (km/s) = 7.00655 7.78454 7.40577
#
# Compressibility (1/GPa) = 0.02158046
#
# Stress axis : x y z
#
# Youngs Moduli (GPa) = 111.27526 56.49204 111.17639
#
# Poissons Ratio (x) = 0.14057 0.35255
# Poissons Ratio (y) = 0.27689 0.15475
# Poissons Ratio (z) = 0.35286 0.07863
#
# Static dielectric constant tensor:
#      x y z
#    x 1.736980 0.000000 0.000000 
#    y 0.000000 1.653770 0.000000 
#    z 0.000000 0.000000 1.726960 
# 
# From -- ./inp_files/31996.got.cif
#   From: 2010.05.17/outbox.cif.g08.bks.cpg/sg48_16_cif.got.tgz:31996.got - 2010.06.03 20:39:00.
