data_PCOD9390516
_publ_section_title
;
Structure prediction by ZEFSAII (Michael W. Deem and Ramdas Pophale) SiO2 
 PCOD9390516
Probable space group: P N N N
;
_chemical_formula_sum "Si O2"
_cell_formula_units_Z 58
_cell_length_a 9.622540
_cell_length_b 26.568704
_cell_length_c 11.211706
_cell_angle_alpha 90.000000
_cell_angle_beta 90.000000
_cell_angle_gamma 90.000000
_cell_volume 2866.367008
_symmetry_space_group_name_H-M "P N N N"
_symmetry_group_IT_number 48
_space_group.IT_coordinate_system_code '2'
_symmetry_cell_setting 'orthorhombic'
loop_
_space_group_symop_operation_xyz
x,y,z
1/2-x,1/2-y,z
x,1/2-y,1/2-z
1/2-x,y,1/2-z
-x,-y,-z
1/2+x,1/2+y,-z
-x,1/2+y,1/2+z
1/2+x,-y,1/2+z
loop_
_atom_site_type_symbol
_atom_site_label
_atom_site_fract_x
_atom_site_fract_y
_atom_site_fract_z
Si Si1 0.759287 0.493219 0.879090
Si Si2 0.303267 0.694557 0.472144
Si Si3 0.684734 0.583187 0.470757
Si Si4 0.628157 0.130132 0.341899
Si Si5 0.926269 0.107878 0.687525
Si Si6 0.437348 0.330099 0.365431
Si Si7 0.750000 0.750000 0.750000
Si Si8 0.486153 0.928075 0.441348
O O1 0.750000 0.519228 0.750000
O O2 0.838792 0.528266 0.971598
O O3 0.840807 0.440896 0.859282
O O4 0.600895 0.479068 0.914010
O O5 0.250000 0.750000 0.437094
O O6 0.191784 0.670543 0.564883
O O7 0.350058 0.656724 0.366246
O O8 0.442921 0.693014 0.551323
O O9 0.581102 0.598127 0.364215
O O10 0.644721 0.624923 0.569544
O O11 0.847810 0.578541 0.440117
O O12 0.750000 0.113594 0.250000
O O13 0.509256 0.150952 0.256032
O O14 0.569309 0.088255 0.429753
O O15 0.936495 0.106821 0.830044
O O16 0.337782 0.285522 0.333425
#
# Coordination Sequence:
#
# PCOD9390516 Si02
#       8
#     8   8   8   8   8   8   2   8
#     4  10  22  39  63  90 127 167 217 265 309 385
#     4  10  20  39  66  93 122 163 215 265 314 380
#     4  11  23  40  63  94 128 170 210 259 323 388
#     4  10  21  39  62  92 125 162 206 266 314 374
#     4  10  22  43  62  92 130 169 210 264 322 380
#     4  10  23  36  61  93 127 165 211 258 324 386
#     4  12  20  36  54  88 130 164 196 258 322 370
#     4  11  22  40  64  91 129 168 210 260 322 380
#
# _framework density 20.234673999999998
#
# number of rings (size 3 to 8) (size 9 to 14) (size 15 to 20)
#    0.000    1.655    1.379    2.897    2.897    1.931 
#    0.000    1.379    0.000    0.000    0.000    5.793 
#    0.000    0.000    0.000    0.000    0.000    0.000 
#
# Total GULP energy -323520.701183 kJ/mol
# GULP energy per Si atom -5577.943124 kJ/mol
# Density = 2.018862 g / cm^3
# Si number density = 20.234674 Si / 1000 Ang^3
#
#
#
# Elastic Constant Matrix: (Units=GPa)
#
#
# Indices 1 2 3 4 5 6 
#
# 1 122.4969 47.2601 39.7953 0.0000 0.0000 0.0000
# 2 47.2601 94.2660 40.7023 0.0000 0.0000 0.0000
# 3 39.7953 40.7023 109.3040 0.0000 0.0000 0.0000
# 4 0.0000 0.0000 0.0000 14.3092 0.0000 0.0000
# 5 0.0000 0.0000 0.0000 0.0000 19.6540 0.0000
# 6 0.0000 0.0000 0.0000 0.0000 0.0000 59.7034
#
#
#
# Elastic Compliance Matrix: (Units=1/GPa)
#
#
# Indices 1 2 3 4 5 6 
#
# 1 0.010559 -0.004330 -0.002232 0.000000 0.000000 0.000000
# 2 -0.004330 0.014416 -0.003792 0.000000 0.000000 0.000000
# 3 -0.002232 -0.003792 0.011373 0.000000 0.000000 0.000000
# 4 0.000000 0.000000 0.000000 0.069885 0.000000 0.000000
# 5 0.000000 0.000000 0.000000 0.000000 0.050880 0.000000
# 6 0.000000 0.000000 0.000000 0.000000 0.000000 0.016749
#
#
# Mechanical properties :
#
#
# Convention : Reuss Voigt Hill
#
# Bulk Modulus (GPa) = 63.93375 64.62027 64.27701
# Shear Modulus (GPa) = 25.02685 31.95392 28.49039
#
# Velocity S-wave (km/s) = 3.52067 3.97818 3.75640
# Velocity P-wave (km/s) = 6.94202 7.28739 7.11680
#
# Compressibility (1/GPa) = 0.01564119
#
# Stress axis : x y z
#
# Youngs Moduli (GPa) = 94.70469 69.36540 87.92459
#
# Poissons Ratio (x) = 0.30036 0.19624
# Poissons Ratio (y) = 0.41008 0.33340
# Poissons Ratio (z) = 0.21137 0.26302
#
# Static dielectric constant tensor:
#      x y z
#    x 1.762340 0.000000 0.000000 
#    y 0.000000 1.716000 0.000000 
#    z 0.000000 0.000000 1.682470 
# 
# From -- ./inp_files/18951.got.cif
#   From: 2010.05.17/outbox.cif.g08.bks.cpg/sg48_10_cif.got.tgz:18951.got - 2010.06.03 20:39:00.
