data_PCOD9390750
_publ_section_title
;
Structure prediction by ZEFSAII (Michael W. Deem and Ramdas Pophale) SiO2 
 PCOD9390750
Probable space group: P N N N
;
_chemical_formula_sum "Si O2"
_cell_formula_units_Z 64
_cell_length_a 32.867195
_cell_length_b 11.542604
_cell_length_c 8.693719
_cell_angle_alpha 90.000000
_cell_angle_beta 90.000000
_cell_angle_gamma 90.000000
_cell_volume 3298.162401
_symmetry_space_group_name_H-M "P N N N"
_symmetry_group_IT_number 48
_space_group.IT_coordinate_system_code '2'
_symmetry_cell_setting 'orthorhombic'
loop_
_space_group_symop_operation_xyz
x,y,z
1/2-x,1/2-y,z
x,1/2-y,1/2-z
1/2-x,y,1/2-z
-x,-y,-z
1/2+x,1/2+y,-z
-x,1/2+y,1/2+z
1/2+x,-y,1/2+z
loop_
_atom_site_type_symbol
_atom_site_label
_atom_site_fract_x
_atom_site_fract_y
_atom_site_fract_z
Si Si1 0.833528 0.989391 0.960338
Si Si2 0.754081 0.382754 0.432779
Si Si3 0.823655 0.490870 0.905879
Si Si4 0.574329 0.474753 0.947864
Si Si5 0.358932 0.233580 0.065459
Si Si6 0.468852 0.752361 0.932276
Si Si7 0.904760 0.366445 0.856583
Si Si8 0.054820 0.230533 0.932422
O O1 0.838535 0.852387 0.994215
O O2 0.823321 0.000662 0.779248
O O3 0.878266 0.040978 0.996353
O O4 0.797357 0.057978 0.037809
O O5 0.750000 0.250000 0.486233
O O6 0.750000 0.384320 0.250000
O O7 0.717767 0.448061 0.519893
O O8 0.833208 0.619454 0.964855
O O9 0.862343 0.406373 0.930782
O O10 0.578549 0.463812 0.762428
O O11 0.545287 0.373155 0.004912
O O12 0.559154 0.596304 0.014180
O O13 0.363880 0.250000 0.250000
O O14 0.403146 0.215891 0.992205
O O15 0.466025 0.750000 0.750000
O O16 0.437609 0.839397 0.013808
O O17 0.514427 0.777890 0.987245
O O18 0.899544 0.250000 0.750000
O O19 0.051289 0.250000 0.750000
#
# Coordination Sequence:
#
# PCOD9390750 Si02
#       8
#     8   8   8   8   8   8   8   8
#     4   9  20  40  64  87 114 156 198 240 294 359
#     4  11  26  40  56  88 123 155 193 247 294 347
#     4  10  21  38  64  88 117 154 194 242 295 358
#     4   9  20  40  61  81 116 156 198 247 297 356
#     4   9  20  40  63  90 118 150 197 249 297 349
#     4  11  23  36  56  87 120 154 197 252 304 353
#     4   9  20  38  60  87 115 158 199 243 303 365
#     4  11  22  38  60  85 117 160 205 243 292 359
#
# _framework density 19.404744999999998
#
# number of rings (size 3 to 8) (size 9 to 14) (size 15 to 20)
#    0.000    2.125    0.000    3.000    5.250    5.000 
#    0.000    4.375    0.000    0.000    0.000    0.000 
#    0.000    0.000    0.000    0.000    0.000    0.000 
#
# Total GULP energy -357255.631142 kJ/mol
# GULP energy per Si atom -5582.119237 kJ/mol
# Density = 1.936058 g / cm^3
# Si number density = 19.404745 Si / 1000 Ang^3
#
#
#
# Elastic Constant Matrix: (Units=GPa)
#
#
# Indices 1 2 3 4 5 6 
#
# 1 124.1071 38.9515 34.5963 0.0000 0.0000 0.0000
# 2 38.9515 56.1029 12.7921 0.0000 0.0000 0.0000
# 3 34.5963 12.7921 48.0683 0.0000 0.0000 0.0000
# 4 0.0000 0.0000 0.0000 13.1987 0.0000 0.0000
# 5 0.0000 0.0000 0.0000 0.0000 34.8884 0.0000
# 6 0.0000 0.0000 0.0000 0.0000 0.0000 17.2475
#
#
#
# Elastic Compliance Matrix: (Units=1/GPa)
#
#
# Indices 1 2 3 4 5 6 
#
# 1 0.012133 -0.006848 -0.006910 0.000000 0.000000 0.000000
# 2 -0.006848 0.022841 -0.001150 0.000000 0.000000 0.000000
# 3 -0.006910 -0.001150 0.026083 0.000000 0.000000 0.000000
# 4 0.000000 0.000000 0.000000 0.075765 0.000000 0.000000
# 5 0.000000 0.000000 0.000000 0.000000 0.028663 0.000000
# 6 0.000000 0.000000 0.000000 0.000000 0.000000 0.057979
#
#
# Mechanical properties :
#
#
# Convention : Reuss Voigt Hill
#
# Bulk Modulus (GPa) = 32.00889 44.55092 38.27990
# Shear Modulus (GPa) = 18.96132 22.52948 20.74540
#
# Velocity S-wave (km/s) = 3.12933 3.41109 3.27324
# Velocity P-wave (km/s) = 5.43950 6.20666 5.83570
#
# Compressibility (1/GPa) = 0.03124132
#
# Stress axis : x y z
#
# Youngs Moduli (GPa) = 82.41835 43.78050 38.33897
#
# Poissons Ratio (x) = 0.29982 0.26493
# Poissons Ratio (y) = 0.56443 0.04408
# Poissons Ratio (z) = 0.56952 0.05033
#
# Static dielectric constant tensor:
#      x y z
#    x 1.658430 0.000000 0.000000 
#    y 0.000000 1.702240 0.000000 
#    z 0.000000 0.000000 1.670300 
# 
# From -- ./inp_files/16959.got.cif
#   From: 2010.05.17/outbox.cif.g08.bks.cpg/sg48_9_cif.got.tgz:16959.got - 2010.06.03 20:39:00.
