data_PCOD9390576
_publ_section_title
;
Structure prediction by ZEFSAII (Michael W. Deem and Ramdas Pophale) SiO2 
 PCOD9390576
Probable space group: P N N N
;
_chemical_formula_sum "Si O2"
_cell_formula_units_Z 34
_cell_length_a 8.475752
_cell_length_b 5.645204
_cell_length_c 31.434678
_cell_angle_alpha 90.000000
_cell_angle_beta 90.000000
_cell_angle_gamma 90.000000
_cell_volume 1504.066012
_symmetry_space_group_name_H-M "P N N N"
_symmetry_group_IT_number 48
_space_group.IT_coordinate_system_code '2'
_symmetry_cell_setting 'orthorhombic'
loop_
_space_group_symop_operation_xyz
x,y,z
1/2-x,1/2-y,z
x,1/2-y,1/2-z
1/2-x,y,1/2-z
-x,-y,-z
1/2+x,1/2+y,-z
-x,1/2+y,1/2+z
1/2+x,-y,1/2+z
loop_
_atom_site_type_symbol
_atom_site_label
_atom_site_fract_x
_atom_site_fract_y
_atom_site_fract_z
Si Si1 0.750000 0.250000 0.616429
Si Si2 0.750000 0.750000 0.750000
Si Si3 0.511895 0.085927 0.106793
Si Si4 0.558358 0.747181 0.979410
Si Si5 0.250000 0.250000 0.649906
Si Si6 0.033138 0.451670 0.321431
O O1 0.636657 0.426529 0.592384
O O2 0.862507 0.393836 0.647174
O O3 0.867956 0.594981 0.720926
O O4 0.519225 0.264530 0.068048
O O5 0.481303 0.207826 0.152370
O O6 0.658301 0.923374 0.117947
O O7 0.750000 0.750000 0.979534
O O8 0.500000 0.500000 0.000000
O O9 0.500000 0.000000 0.000000
O O10 0.132739 0.408996 0.678901
#
# Coordination Sequence:
#
# PCOD9390576 Si02
#       6
#     4   2   8   8   4   8
#     4  10  20  41  78 104 132 202 250 310 382 465
#     4  12  24  46  78 110 154 198 266 310 392 474
#     4  11  24  47  76 106 151 199 264 310 400 463
#     4  12  30  49  78 117 160 206 263 330 397 473
#     4  10  26  44  79 107 146 206 249 322 396 457
#     4  11  23  45  73 108 144 193 252 321 378 472
#
# _framework density 22.605391000000001
#
# number of rings (size 3 to 8) (size 9 to 14) (size 15 to 20)
#    0.000    0.941    2.353    2.824   11.529    2.353 
#    0.000    3.529    0.000    0.000    0.000    0.000 
#    0.000    0.000    0.000    0.000    0.000    0.000 
#
# Total GULP energy -189931.510790 kJ/mol
# GULP energy per Si atom -5586.220906 kJ/mol
# Density = 2.255394 g / cm^3
# Si number density = 22.605391 Si / 1000 Ang^3
#
#
#
# Elastic Constant Matrix: (Units=GPa)
#
#
# Indices 1 2 3 4 5 6 
#
# 1 154.4164 70.7842 51.0504 0.0000 0.0000 0.0000
# 2 70.7842 119.1059 47.1696 0.0000 0.0000 0.0000
# 3 51.0504 47.1696 120.1413 0.0000 0.0000 0.0000
# 4 0.0000 0.0000 0.0000 65.5227 0.0000 0.0000
# 5 0.0000 0.0000 0.0000 0.0000 27.1595 0.0000
# 6 0.0000 0.0000 0.0000 0.0000 0.0000 31.2277
#
#
#
# Elastic Compliance Matrix: (Units=1/GPa)
#
#
# Indices 1 2 3 4 5 6 
#
# 1 0.009335 -0.004709 -0.002118 0.000000 0.000000 0.000000
# 2 -0.004709 0.012317 -0.002835 0.000000 0.000000 0.000000
# 3 -0.002118 -0.002835 0.010336 0.000000 0.000000 0.000000
# 4 0.000000 0.000000 0.000000 0.015262 0.000000 0.000000
# 5 0.000000 0.000000 0.000000 0.000000 0.036820 0.000000
# 6 0.000000 0.000000 0.000000 0.000000 0.000000 0.032023
#
#
# Mechanical properties :
#
#
# Convention : Reuss Voigt Hill
#
# Bulk Modulus (GPa) = 78.95746 81.29688 80.12717
# Shear Modulus (GPa) = 35.80704 39.75927 37.78316
#
# Velocity S-wave (km/s) = 3.98427 4.19840 4.09274
# Velocity P-wave (km/s) = 7.49469 7.71646 7.60638
#
# Compressibility (1/GPa) = 0.01266505
#
# Stress axis : x y z
#
# Youngs Moduli (GPa) = 107.12771 81.18785 96.74498
#
# Poissons Ratio (x) = 0.38230 0.20488
# Poissons Ratio (y) = 0.50445 0.27427
# Poissons Ratio (z) = 0.22686 0.23017
#
# Static dielectric constant tensor:
#      x y z
#    x 1.866820 0.000000 0.000000 
#    y 0.000000 1.905880 0.000000 
#    z 0.000000 0.000000 1.848180 
# 
# From -- ./inp_files/38562.got.cif
#   From: 2010.05.17/outbox.cif.g08.bks.cpg/sg48_20_cif.got.tgz:38562.got - 2010.06.03 20:39:00.
