data_PCOD9390749
_publ_section_title
;
Structure prediction by ZEFSAII (Michael W. Deem and Ramdas Pophale) SiO2 
 PCOD9390749
Probable space group: P N N N
;
_chemical_formula_sum "Si O2"
_cell_formula_units_Z 58
_cell_length_a 10.033964
_cell_length_b 11.224630
_cell_length_c 24.752070
_cell_angle_alpha 90.000000
_cell_angle_beta 90.000000
_cell_angle_gamma 90.000000
_cell_volume 2787.764589
_symmetry_space_group_name_H-M "P N N N"
_symmetry_group_IT_number 48
_space_group.IT_coordinate_system_code '2'
_symmetry_cell_setting 'orthorhombic'
loop_
_space_group_symop_operation_xyz
x,y,z
1/2-x,1/2-y,z
x,1/2-y,1/2-z
1/2-x,y,1/2-z
-x,-y,-z
1/2+x,1/2+y,-z
-x,1/2+y,1/2+z
1/2+x,-y,1/2+z
loop_
_atom_site_type_symbol
_atom_site_label
_atom_site_fract_x
_atom_site_fract_y
_atom_site_fract_z
Si Si1 0.607531 0.307104 0.107024
Si Si2 0.087150 0.914118 0.331020
Si Si3 0.975634 0.352144 0.015766
Si Si4 0.250000 0.750000 0.250000
Si Si5 0.011673 0.519441 0.435812
Si Si6 0.093786 0.224236 0.594970
Si Si7 0.691480 0.017300 0.938866
Si Si8 0.603936 0.800287 0.810651
O O1 0.750000 0.250000 0.117833
O O2 0.594295 0.447604 0.100274
O O3 0.505929 0.258000 0.151081
O O4 0.561612 0.263954 0.047743
O O5 0.156226 0.834862 0.285842
O O6 0.950797 0.854386 0.353349
O O7 0.169901 0.902407 0.386656
O O8 0.091133 0.054782 0.314719
O O9 0.063477 0.342080 0.961818
O O10 0.838023 0.410800 0.994178
O O11 0.069784 0.424144 0.057220
O O12 0.992328 0.654951 0.415403
O O13 0.000000 0.500000 0.500000
O O14 0.161852 0.469487 0.429088
O O15 0.250000 0.250000 0.597747
O O16 0.750000 0.750000 0.827159
O O17 0.584268 0.750000 0.750000
#
# Coordination Sequence:
#
# PCOD9390749 Si02
#       8
#     8   8   8   2   8   8   8   8
#     4  12  26  40  66  97 138 181 226 280 345 412
#     4  11  24  44  73  96 136 172 226 295 340 409
#     4  10  21  38  63  98 139 177 217 269 347 411
#     4  12  24  44  72 104 128 176 236 276 354 388
#     4  12  23  37  62  98 141 179 227 271 326 417
#     4  11  25  41  66 100 142 186 223 274 342 417
#     4  10  21  39  66  97 132 175 222 279 337 412
#     4  11  25  47  74 101 129 171 234 300 353 407
#
# _framework density 20.805201
#
# number of rings (size 3 to 8) (size 9 to 14) (size 15 to 20)
#    0.000    0.966    2.759    4.138    1.931    2.483 
#    0.000    0.345    3.034    0.000    0.000    0.000 
#    0.000    0.000    0.000    0.000    0.000    0.000 
#
# Total GULP energy -323326.186126 kJ/mol
# GULP energy per Si atom -5574.589416 kJ/mol
# Density = 2.075785 g / cm^3
# Si number density = 20.805201 Si / 1000 Ang^3
#
#
#
# Elastic Constant Matrix: (Units=GPa)
#
#
# Indices 1 2 3 4 5 6 
#
# 1 131.4970 33.7949 54.4988 0.0000 0.0000 0.0000
# 2 33.7949 128.3468 45.3110 0.0000 0.0000 0.0000
# 3 54.4988 45.3110 95.4245 0.0000 0.0000 0.0000
# 4 0.0000 0.0000 0.0000 34.7967 0.0000 0.0000
# 5 0.0000 0.0000 0.0000 0.0000 21.5708 0.0000
# 6 0.0000 0.0000 0.0000 0.0000 0.0000 23.1634
#
#
#
# Elastic Compliance Matrix: (Units=1/GPa)
#
#
# Indices 1 2 3 4 5 6 
#
# 1 0.010022 -0.000743 -0.005371 0.000000 0.000000 0.000000
# 2 -0.000743 0.009416 -0.004047 0.000000 0.000000 0.000000
# 3 -0.005371 -0.004047 0.015468 0.000000 0.000000 0.000000
# 4 0.000000 0.000000 0.000000 0.028738 0.000000 0.000000
# 5 0.000000 0.000000 0.000000 0.000000 0.046359 0.000000
# 6 0.000000 0.000000 0.000000 0.000000 0.000000 0.043172
#
#
# Mechanical properties :
#
#
# Convention : Reuss Voigt Hill
#
# Bulk Modulus (GPa) = 68.56323 69.16420 68.86371
# Shear Modulus (GPa) = 28.03374 30.68375 29.35875
#
# Velocity S-wave (km/s) = 3.67473 3.84449 3.76057
# Velocity P-wave (km/s) = 7.14362 7.28167 7.21297
#
# Compressibility (1/GPa) = 0.01458508
#
# Stress axis : x y z
#
# Youngs Moduli (GPa) = 99.78503 106.20705 64.64792
#
# Poissons Ratio (x) = 0.07888 0.34721
# Poissons Ratio (y) = 0.07411 0.26161
# Poissons Ratio (z) = 0.53593 0.42979
#
# Static dielectric constant tensor:
#      x y z
#    x 1.808960 0.000000 0.000000 
#    y 0.000000 1.877400 0.000000 
#    z 0.000000 0.000000 1.718710 
# 
# From -- ./inp_files/37542.got.cif
#   From: 2010.05.17/outbox.cif.g08.bks.cpg/sg48_19_cif.got.tgz:37542.got - 2010.06.03 20:39:00.
