data_PCOD9390507
_publ_section_title
;
Structure prediction by ZEFSAII (Michael W. Deem and Ramdas Pophale) SiO2 
 PCOD9390507
Probable space group: P N N N
;
_chemical_formula_sum "Si O2"
_cell_formula_units_Z 64
_cell_length_a 10.083013
_cell_length_b 9.121551
_cell_length_c 32.590603
_cell_angle_alpha 90.000000
_cell_angle_beta 90.000000
_cell_angle_gamma 90.000000
_cell_volume 2997.446317
_symmetry_space_group_name_H-M "P N N N"
_symmetry_group_IT_number 48
_space_group.IT_coordinate_system_code '2'
_symmetry_cell_setting 'orthorhombic'
loop_
_space_group_symop_operation_xyz
x,y,z
1/2-x,1/2-y,z
x,1/2-y,1/2-z
1/2-x,y,1/2-z
-x,-y,-z
1/2+x,1/2+y,-z
-x,1/2+y,1/2+z
1/2+x,-y,1/2+z
loop_
_atom_site_type_symbol
_atom_site_label
_atom_site_fract_x
_atom_site_fract_y
_atom_site_fract_z
Si Si1 0.652295 0.987141 0.305545
Si Si2 0.383757 0.598016 0.514907
Si Si3 0.502935 0.979388 0.900404
Si Si4 0.028492 0.270227 0.335565
Si Si5 0.497605 0.763131 0.154194
Si Si6 0.115253 0.578633 0.477113
Si Si7 0.463291 0.512681 0.716024
Si Si8 0.181249 0.517949 0.384771
O O1 0.613639 0.841379 0.329662
O O2 0.595274 0.123968 0.329725
O O3 0.807696 0.009492 0.297984
O O4 0.560813 0.984384 0.264182
O O5 0.500000 0.500000 0.500000
O O6 0.416065 0.589505 0.562941
O O7 0.249182 0.526975 0.499275
O O8 0.392332 0.750923 0.490312
O O9 0.491798 0.855352 0.866834
O O10 0.455586 0.136981 0.884031
O O11 0.664634 0.006979 0.899393
O O12 0.037389 0.166287 0.294715
O O13 0.140034 0.376195 0.356805
O O14 0.375464 0.657302 0.140985
O O15 0.467560 0.880606 0.190609
O O16 0.111507 0.539367 0.429145
O O17 0.000000 0.500000 0.500000
#
# Coordination Sequence:
#
# PCOD9390507 Si02
#       8
#     8   8   8   8   8   8   8   8
#     4  10  20  39  64  93 133 177 215 275 329 400
#     4  11  23  44  71  95 126 175 231 274 333 416
#     4  11  22  42  66  90 126 173 220 274 325 402
#     4  10  22  36  61  98 124 170 220 268 333 398
#     4  10  22  36  62  98 124 169 219 269 333 397
#     4  11  25  44  66 100 132 170 220 286 346 403
#     4  10  20  39  64  93 134 175 220 268 334 400
#     4  11  22  42  67  86 128 174 218 268 335 403
#
# _framework density 21.351509
#
# number of rings (size 3 to 8) (size 9 to 14) (size 15 to 20)
#    0.000    1.500    1.250    3.750    1.750    2.500 
#   22.500    0.000    0.000   52.500    0.000    0.000 
#    0.000    0.000    0.000    0.000    0.000    0.000 
#
# Total GULP energy -356295.494109 kJ/mol
# GULP energy per Si atom -5567.117095 kJ/mol
# Density = 2.130291 g / cm^3
# Si number density = 21.351509 Si / 1000 Ang^3
#
#
#
# Elastic Constant Matrix: (Units=GPa)
#
#
# Indices 1 2 3 4 5 6 
#
# 1 96.3676 36.2643 38.5117 0.0000 0.0000 0.0000
# 2 36.2643 126.0434 34.5139 0.0000 0.0000 0.0000
# 3 38.5117 34.5139 96.4482 0.0000 0.0000 0.0000
# 4 0.0000 0.0000 0.0000 -9.8634 0.0000 0.0000
# 5 0.0000 0.0000 0.0000 0.0000 32.4340 0.0000
# 6 0.0000 0.0000 0.0000 0.0000 0.0000 31.6422
#
#
#
# Elastic Compliance Matrix: (Units=1/GPa)
#
#
# Indices 1 2 3 4 5 6 
#
# 1 0.013064 -0.002584 -0.004292 0.000000 0.000000 0.000000
# 2 -0.002584 0.009307 -0.002299 0.000000 0.000000 0.000000
# 3 -0.004292 -0.002299 0.012905 0.000000 0.000000 0.000000
# 4 0.000000 0.000000 0.000000 -0.101385 0.000000 0.000000
# 5 0.000000 0.000000 0.000000 0.000000 0.030832 0.000000
# 6 0.000000 0.000000 0.000000 0.000000 0.000000 0.031603
#
#
# Mechanical properties :
#
#
# Convention : Reuss Voigt Hill
#
# Bulk Modulus (GPa) = 59.07745 59.71544 59.39645
# Shear Modulus (GPa) = 246.09472 24.81383 135.45428
#
# Velocity S-wave (km/s) = 10.74751 3.41274 7.97357
# Velocity P-wave (km/s) = 13.48113 6.59982 10.61364
#
# Compressibility (1/GPa) = 0.01692693
#
# Stress axis : x y z
#
# Youngs Moduli (GPa) = 76.54387 107.45131 77.49117
#
# Poissons Ratio (x) = 0.27760 0.33260
# Poissons Ratio (y) = 0.19775 0.17813
# Poissons Ratio (z) = 0.32853 0.24700
#
# Static dielectric constant tensor:
#      x y z
#    x 1.717000 0.000000 0.000000 
#    y 0.000000 1.781710 0.000000 
#    z 0.000000 0.000000 1.889960 
# 
# From -- ./inp_files/38961.got.cif
#   From: 2010.05.17/outbox.cif.g08.bks.cpg/sg48_20_cif.got.tgz:38961.got - 2010.06.03 20:39:00.
