data_PCOD9390048
_publ_section_title
;
Structure prediction by ZEFSAII (Michael W. Deem and Ramdas Pophale) SiO2 
 PCOD9390048
Probable space group: P N N N
;
_chemical_formula_sum "Si O2"
_cell_formula_units_Z 32
_cell_length_a 10.331822
_cell_length_b 12.988473
_cell_length_c 9.246101
_cell_angle_alpha 90.000000
_cell_angle_beta 90.000000
_cell_angle_gamma 90.000000
_cell_volume 1240.776743
_symmetry_space_group_name_H-M "P N N N"
_symmetry_group_IT_number 48
_space_group.IT_coordinate_system_code '2'
_symmetry_cell_setting 'orthorhombic'
loop_
_space_group_symop_operation_xyz
x,y,z
1/2-x,1/2-y,z
x,1/2-y,1/2-z
1/2-x,y,1/2-z
-x,-y,-z
1/2+x,1/2+y,-z
-x,1/2+y,1/2+z
1/2+x,-y,1/2+z
loop_
_atom_site_type_symbol
_atom_site_label
_atom_site_fract_x
_atom_site_fract_y
_atom_site_fract_z
Si Si1 0.397232 0.205725 0.402465
Si Si2 0.701036 0.441583 0.407158
Si Si3 0.624948 0.472176 0.847008
Si Si4 0.963298 0.871923 0.404617
O O1 0.250000 0.250000 0.397227
O O2 0.453895 0.250000 0.250000
O O3 0.421173 0.083758 0.399494
O O4 0.443919 0.254309 0.553987
O O5 0.750000 0.412361 0.250000
O O6 0.810624 0.411376 0.521259
O O7 0.670850 0.564563 0.413340
O O8 0.563401 0.402393 0.465921
O O9 0.750000 0.499736 0.750000
O O10 0.529863 0.411343 0.741696
#
# Coordination Sequence:
#
# PCOD9390048 Si02
#       4
#     8   8   8   8
#     4  11  17  32  62  97 131 174 234 296 347 419
#     4  10  20  36  60  94 135 180 234 282 354 427
#     4  10  19  36  62  94 139 182 229 291 353 416
#     4  10  21  37  61  98 134 179 235 287 356 420
#
# _framework density 25.790296000000001
#
# number of rings (size 3 to 8) (size 9 to 14) (size 15 to 20)
#    0.000    1.750    5.000    3.000    0.000    1.000 
#    0.000    2.500    0.000   12.750    0.000   28.000 
#    0.000    0.000    0.000    0.000    0.000    0.000 
#
# Total GULP energy -178842.314220 kJ/mol
# GULP energy per Si atom -5588.822319 kJ/mol
# Density = 2.573160 g / cm^3
# Si number density = 25.790296 Si / 1000 Ang^3
#
#
#
# Elastic Constant Matrix: (Units=GPa)
#
#
# Indices 1 2 3 4 5 6 
#
# 1 84.0593 10.5590 49.9892 0.0000 0.0000 0.0000
# 2 10.5590 85.3906 47.1365 0.0000 0.0000 0.0000
# 3 49.9892 47.1365 142.0591 0.0000 0.0000 0.0000
# 4 0.0000 0.0000 0.0000 48.5104 0.0000 0.0000
# 5 0.0000 0.0000 0.0000 0.0000 35.5182 0.0000
# 6 0.0000 0.0000 0.0000 0.0000 0.0000 13.6220
#
#
#
# Elastic Compliance Matrix: (Units=1/GPa)
#
#
# Indices 1 2 3 4 5 6 
#
# 1 0.015164 0.001310 -0.005771 0.000000 0.000000 0.000000
# 2 0.001310 0.014450 -0.005256 0.000000 0.000000 0.000000
# 3 -0.005771 -0.005256 0.010814 0.000000 0.000000 0.000000
# 4 0.000000 0.000000 0.000000 0.020614 0.000000 0.000000
# 5 0.000000 0.000000 0.000000 0.000000 0.028155 0.000000
# 6 0.000000 0.000000 0.000000 0.000000 0.000000 0.073410
#
#
# Mechanical properties :
#
#
# Convention : Reuss Voigt Hill
#
# Bulk Modulus (GPa) = 47.62952 58.54205 53.08579
# Shear Modulus (GPa) = 26.44981 33.11843 29.78412
#
# Velocity S-wave (km/s) = 3.20593 3.58738 3.40201
# Velocity P-wave (km/s) = 5.67557 6.31725 6.00498
#
# Compressibility (1/GPa) = 0.02099538
#
# Stress axis : x y z
#
# Youngs Moduli (GPa) = 65.94771 69.20365 92.47357
#
# Poissons Ratio (x) = -0.09069 0.53364
# Poissons Ratio (y) = -0.08642 0.48602
# Poissons Ratio (z) = 0.38056 0.36372
#
# Static dielectric constant tensor:
#      x y z
#    x 2.045540 0.000000 0.000000 
#    y 0.000000 2.084520 0.000000 
#    z 0.000000 0.000000 2.057150 
# 
# From -- ./inp_files/10112.got.cif
#   From: 2010.05.17/outbox.cif.g08.bks.cpg/sg48_6_cif.got.tgz:10112.got - 2010.06.03 20:39:00.
