data_PCOD9390266
_publ_section_title
;
Structure prediction by ZEFSAII (Michael W. Deem and Ramdas Pophale) SiO2 
 PCOD9390266
Probable space group: P N N N
;
_chemical_formula_sum "Si O2"
_cell_formula_units_Z 64
_cell_length_a 9.501903
_cell_length_b 20.993534
_cell_length_c 17.911454
_cell_angle_alpha 90.000000
_cell_angle_beta 90.000000
_cell_angle_gamma 90.000000
_cell_volume 3572.950401
_symmetry_space_group_name_H-M "P N N N"
_symmetry_group_IT_number 48
_space_group.IT_coordinate_system_code '2'
_symmetry_cell_setting 'orthorhombic'
loop_
_space_group_symop_operation_xyz
x,y,z
1/2-x,1/2-y,z
x,1/2-y,1/2-z
1/2-x,y,1/2-z
-x,-y,-z
1/2+x,1/2+y,-z
-x,1/2+y,1/2+z
1/2+x,-y,1/2+z
loop_
_atom_site_type_symbol
_atom_site_label
_atom_site_fract_x
_atom_site_fract_y
_atom_site_fract_z
Si Si1 0.152712 0.032324 0.179587
Si Si2 0.090098 0.883502 0.174488
Si Si3 0.821453 0.187723 0.588619
Si Si4 0.177450 0.540366 0.671908
Si Si5 0.673961 0.561050 0.536460
Si Si6 0.070400 0.312563 0.801422
Si Si7 0.798445 0.605566 0.384144
Si Si8 0.145973 0.579213 0.965671
O O1 0.250000 0.049570 0.250000
O O2 0.222075 0.061163 0.105803
O O3 0.988821 0.050596 0.181523
O O4 0.148329 0.955031 0.175411
O O5 0.215205 0.836732 0.153078
O O6 0.012786 0.864547 0.251184
O O7 0.963505 0.878158 0.114479
O O8 0.750000 0.250000 0.555530
O O9 0.832513 0.133701 0.526501
O O10 0.969354 0.201898 0.628445
O O11 0.250000 0.554890 0.750000
O O12 0.205756 0.465358 0.652278
O O13 0.247644 0.578770 0.603765
O O14 0.729301 0.600673 0.465525
O O15 0.516734 0.580704 0.559486
O O16 0.666379 0.488220 0.507509
O O17 0.086759 0.250000 0.750000
O O18 0.211133 0.344815 0.833861
#
# Coordination Sequence:
#
# PCOD9390266 Si02
#       8
#     8   8   8   8   8   8   8   8
#     4  11  21  34  57  85 118 150 189 241 305 370
#     4  11  23  33  55  76 113 152 200 244 289 343
#     4  12  23  39  54  81 112 157 203 248 285 342
#     4  10  21  36  59  88 116 145 191 243 308 365
#     4  10  20  35  56  83 113 154 198 237 309 356
#     4  12  23  39  54  78 115 165 209 241 284 344
#     4  10  22  37  54  80 117 155 195 247 290 354
#     4  10  21  36  58  79 115 154 192 249 297 357
#
# _framework density 17.912365999999999
#
# number of rings (size 3 to 8) (size 9 to 14) (size 15 to 20)
#    0.000    1.250    3.750    3.750    1.750    2.500 
#    0.000    0.000    0.000    0.375    0.000    0.000 
#    0.000    0.000    0.000    0.000    0.000    0.000 
#
# Total GULP energy -357548.305413 kJ/mol
# GULP energy per Si atom -5586.692272 kJ/mol
# Density = 1.787160 g / cm^3
# Si number density = 17.912366 Si / 1000 Ang^3
#
#
#
# Elastic Constant Matrix: (Units=GPa)
#
#
# Indices 1 2 3 4 5 6 
#
# 1 133.1874 18.3165 62.3318 0.0000 0.0000 0.0000
# 2 18.3165 44.0195 26.4874 0.0000 0.0000 0.0000
# 3 62.3318 26.4874 104.3066 0.0000 0.0000 0.0000
# 4 0.0000 0.0000 0.0000 30.7106 0.0000 0.0000
# 5 0.0000 0.0000 0.0000 0.0000 35.6738 0.0000
# 6 0.0000 0.0000 0.0000 0.0000 0.0000 18.6232
#
#
#
# Elastic Compliance Matrix: (Units=1/GPa)
#
#
# Indices 1 2 3 4 5 6 
#
# 1 0.010441 -0.000697 -0.006063 0.000000 0.000000 0.000000
# 2 -0.000697 0.026861 -0.006405 0.000000 0.000000 0.000000
# 3 -0.006063 -0.006405 0.014836 0.000000 0.000000 0.000000
# 4 0.000000 0.000000 0.000000 0.032562 0.000000 0.000000
# 5 0.000000 0.000000 0.000000 0.000000 0.028032 0.000000
# 6 0.000000 0.000000 0.000000 0.000000 0.000000 0.053697
#
#
# Mechanical properties :
#
#
# Convention : Reuss Voigt Hill
#
# Bulk Modulus (GPa) = 38.74362 55.08722 46.91542
# Shear Modulus (GPa) = 24.83106 28.62669 26.72887
#
# Velocity S-wave (km/s) = 3.72728 4.00203 3.86709
# Velocity P-wave (km/s) = 6.34035 7.22326 6.79615
#
# Compressibility (1/GPa) = 0.02581070
#
# Stress axis : x y z
#
# Youngs Moduli (GPa) = 95.77298 37.22884 67.40147
#
# Poissons Ratio (x) = 0.02593 0.40863
# Poissons Ratio (y) = 0.06672 0.43169
# Poissons Ratio (z) = 0.58064 0.23844
#
# Static dielectric constant tensor:
#      x y z
#    x 1.641030 0.000000 0.000000 
#    y 0.000000 1.602850 0.000000 
#    z 0.000000 0.000000 1.601350 
# 
# From -- ./inp_files/14572.got.cif
#   From: 2010.05.17/outbox.cif.g08.bks.cpg/sg48_8_cif.got.tgz:14572.got - 2010.06.03 20:39:00.
