data_PCOD9390850
_publ_section_title
;
Structure prediction by ZEFSAII (Michael W. Deem and Ramdas Pophale) SiO2 
 PCOD9390850
Probable space group: P N N N
;
_chemical_formula_sum "Si O2"
_cell_formula_units_Z 40
_cell_length_a 8.721102
_cell_length_b 15.078972
_cell_length_c 12.206652
_cell_angle_alpha 90.000000
_cell_angle_beta 90.000000
_cell_angle_gamma 90.000000
_cell_volume 1605.238858
_symmetry_space_group_name_H-M "P N N N"
_symmetry_group_IT_number 48
_space_group.IT_coordinate_system_code '2'
_symmetry_cell_setting 'orthorhombic'
loop_
_space_group_symop_operation_xyz
x,y,z
1/2-x,1/2-y,z
x,1/2-y,1/2-z
1/2-x,y,1/2-z
-x,-y,-z
1/2+x,1/2+y,-z
-x,1/2+y,1/2+z
1/2+x,-y,1/2+z
loop_
_atom_site_type_symbol
_atom_site_label
_atom_site_fract_x
_atom_site_fract_y
_atom_site_fract_z
Si Si1 0.750000 0.250000 0.250000
Si Si2 0.750000 0.540284 0.250000
Si Si3 0.750000 0.750000 0.750000
Si Si4 0.060384 0.363504 0.079798
Si Si5 0.692805 0.103311 0.406922
Si Si6 0.731822 0.042945 0.875643
Si Si7 0.026604 0.180560 0.651670
O O1 0.651801 0.189675 0.335137
O O2 0.848417 0.478484 0.329682
O O3 0.641335 0.602232 0.318350
O O4 0.856355 0.687524 0.823928
O O5 0.146448 0.458869 0.068250
O O6 0.880301 0.387484 0.094789
O O7 0.067854 0.298627 0.973467
O O8 0.649008 0.079418 0.531605
O O9 0.750000 0.012397 0.750000
O O10 0.636094 0.133098 0.856259
O O11 0.034151 0.250000 0.750000
#
# Coordination Sequence:
#
# PCOD9390850 Si02
#       7
#     2   4   2   8   8   8   8
#     4  10  22  36  64  94 114 160 216 258 296 396
#     4  11  19  37  65  88 120 168 211 251 317 383
#     4  12  26  36  70  94 122 172 214 274 298 392
#     4  11  22  43  60  92 130 166 208 257 328 371
#     4  10  21  40  65  86 127 168 204 258 322 369
#     4  11  22  43  65  88 128 172 207 254 322 388
#     4  11  24  39  66  94 124 165 214 267 315 372
#
# _framework density 24.918410000000002
#
# number of rings (size 3 to 8) (size 9 to 14) (size 15 to 20)
#    0.000    1.200    5.000    2.100    2.800    3.600 
#    0.000    1.000    0.000    0.000    0.000    0.000 
#    0.000    0.000    0.000    0.000    0.000    0.000 
#
# Total GULP energy -223231.067253 kJ/mol
# GULP energy per Si atom -5580.776681 kJ/mol
# Density = 2.486169 g / cm^3
# Si number density = 24.918410 Si / 1000 Ang^3
#
#
#
# Elastic Constant Matrix: (Units=GPa)
#
#
# Indices 1 2 3 4 5 6 
#
# 1 21.6341 9.3405 29.5022 0.0000 0.0000 0.0000
# 2 9.3405 117.5867 53.6003 0.0000 0.0000 0.0000
# 3 29.5022 53.6003 207.2763 0.0000 0.0000 0.0000
# 4 0.0000 0.0000 0.0000 54.1277 0.0000 0.0000
# 5 0.0000 0.0000 0.0000 0.0000 30.5667 0.0000
# 6 0.0000 0.0000 0.0000 0.0000 0.0000 21.4296
#
#
#
# Elastic Compliance Matrix: (Units=1/GPa)
#
#
# Indices 1 2 3 4 5 6 
#
# 1 0.057449 -0.000948 -0.007932 0.000000 0.000000 0.000000
# 2 -0.000948 0.009656 -0.002362 0.000000 0.000000 0.000000
# 3 -0.007932 -0.002362 0.006564 0.000000 0.000000 0.000000
# 4 0.000000 0.000000 0.000000 0.018475 0.000000 0.000000
# 5 0.000000 0.000000 0.000000 0.000000 0.032715 0.000000
# 6 0.000000 0.000000 0.000000 0.000000 0.000000 0.046664
#
#
# Mechanical properties :
#
#
# Convention : Reuss Voigt Hill
#
# Bulk Modulus (GPa) = 19.53660 59.04255 39.28958
# Shear Modulus (GPa) = 23.68886 38.16174 30.92530
#
# Velocity S-wave (km/s) = 3.08662 3.91764 3.52669
# Velocity P-wave (km/s) = 4.53433 6.64904 5.69078
#
# Compressibility (1/GPa) = 0.05118597
#
# Stress axis : x y z
#
# Youngs Moduli (GPa) = 17.40678 103.55800 152.34005
#
# Poissons Ratio (x) = 0.09816 1.20832
# Poissons Ratio (y) = 0.01650 0.35985
# Poissons Ratio (z) = 0.13807 0.24462
#
# Static dielectric constant tensor:
#      x y z
#    x 2.310250 0.000000 0.000000 
#    y 0.000000 1.974440 0.000000 
#    z 0.000000 0.000000 2.000550 
# 
# From -- ./inp_files/19864.got.cif
#   From: 2010.05.17/outbox.cif.g08.bks.cpg/sg48_10_cif.got.tgz:19864.got - 2010.06.03 20:39:00.
