data_PCOD9390161
_publ_section_title
;
Structure prediction by ZEFSAII (Michael W. Deem and Ramdas Pophale) SiO2 
 PCOD9390161
Probable space group: P N N N
;
_chemical_formula_sum "Si O2"
_cell_formula_units_Z 54
_cell_length_a 5.431978
_cell_length_b 27.068869
_cell_length_c 15.939499
_cell_angle_alpha 90.000000
_cell_angle_beta 90.000000
_cell_angle_gamma 90.000000
_cell_volume 2343.704098
_symmetry_space_group_name_H-M "P N N N"
_symmetry_group_IT_number 48
_space_group.IT_coordinate_system_code '2'
_symmetry_cell_setting 'orthorhombic'
loop_
_space_group_symop_operation_xyz
x,y,z
1/2-x,1/2-y,z
x,1/2-y,1/2-z
1/2-x,y,1/2-z
-x,-y,-z
1/2+x,1/2+y,-z
-x,1/2+y,1/2+z
1/2+x,-y,1/2+z
loop_
_atom_site_type_symbol
_atom_site_label
_atom_site_fract_x
_atom_site_fract_y
_atom_site_fract_z
Si Si1 0.999430 0.340907 0.591924
Si Si2 0.504725 0.321949 0.556630
Si Si3 0.977965 0.623123 0.601897
Si Si4 0.250000 0.446701 0.750000
Si Si5 0.615296 0.983744 0.659966
Si Si6 0.516673 0.175560 0.132923
Si Si7 0.750000 0.750000 0.750000
Si Si8 0.150568 0.920086 0.378856
O O1 0.759022 0.307207 0.599360
O O2 0.020769 0.357411 0.493854
O O3 0.907275 0.390537 0.637724
O O4 0.256891 0.315283 0.608228
O O5 0.503630 0.303123 0.462229
O O6 0.534752 0.383102 0.551806
O O7 0.219637 0.648751 0.642833
O O8 0.974059 0.564375 0.611454
O O9 0.716125 0.638916 0.640021
O O10 0.381979 0.483798 0.814586
O O11 0.457850 0.418502 0.696961
O O12 0.750000 0.972410 0.750000
O O13 0.786727 0.022559 0.608543
O O14 0.437166 0.218310 0.194474
#
# Coordination Sequence:
#
# PCOD9390161 Si02
#       8
#     8   8   8   4   8   8   2   8
#     4   8  16  32  52  74 102 147 191 242 283 332
#     4   8  16  35  55  77 109 145 188 244 284 348
#     4  10  22  40  58  81 113 150 200 250 294 359
#     4  10  20  32  46  78 122 144 206 232 290 336
#     4  10  22  33  48  79 114 163 199 253 299 350
#     4  10  24  42  61  88 109 144 195 245 309 362
#     4  12  28  46  72  94 120 156 188 258 312 398
#     4   9  18  32  53  78 113 159 196 245 287 345
#
# _framework density 23.040452999999999
#
# number of rings (size 3 to 8) (size 9 to 14) (size 15 to 20)
#    0.889    1.778    0.000    0.889    5.185    2.370 
#    0.000    2.222    0.000    0.000    0.000    0.000 
#    0.000    0.593    0.000    4.148    0.000    0.148 
#
# Total GULP energy -300739.463909 kJ/mol
# GULP energy per Si atom -5569.249332 kJ/mol
# Density = 2.298801 g / cm^3
# Si number density = 23.040453 Si / 1000 Ang^3
#
#
#
# Elastic Constant Matrix: (Units=GPa)
#
#
# Indices 1 2 3 4 5 6 
#
# 1 145.5483 8.9760 -3.9395 0.0000 0.0000 0.0000
# 2 8.9760 70.4430 18.2982 0.0000 0.0000 0.0000
# 3 -3.9395 18.2982 26.4249 0.0000 0.0000 0.0000
# 4 0.0000 0.0000 0.0000 36.4974 0.0000 0.0000
# 5 0.0000 0.0000 0.0000 0.0000 -2.8972 0.0000
# 6 0.0000 0.0000 0.0000 0.0000 0.0000 -4.3210
#
#
#
# Elastic Compliance Matrix: (Units=1/GPa)
#
#
# Indices 1 2 3 4 5 6 
#
# 1 0.007013 -0.001421 0.002029 0.000000 0.000000 0.000000
# 2 -0.001421 0.017597 -0.012397 0.000000 0.000000 0.000000
# 3 0.002029 -0.012397 0.046730 0.000000 0.000000 0.000000
# 4 0.000000 0.000000 0.000000 0.027399 0.000000 0.000000
# 5 0.000000 0.000000 0.000000 0.000000 -0.345164 0.000000
# 6 0.000000 0.000000 0.000000 0.000000 0.000000 -0.231429
#
#
# Mechanical properties :
#
#
# Convention : Reuss Voigt Hill
#
# Bulk Modulus (GPa) = 20.93654 32.12063 26.52859
# Shear Modulus (GPa) = -11.40630 20.46127 4.52748
#
# Velocity S-wave (km/s) = -2.22740 2.98326 1.40331
# Velocity P-wave (km/s) = 1.57845 5.08308 3.76359
#
# Compressibility (1/GPa) = 0.04776338
#
# Stress axis : x y z
#
# Youngs Moduli (GPa) = 142.58998 56.82725 21.39939
#
# Poissons Ratio (x) = 0.08074 -0.04343
# Poissons Ratio (y) = 0.20259 0.26529
# Poissons Ratio (z) = -0.28937 0.70450
#
# Static dielectric constant tensor:
#      x y z
#    x 2.011650 0.000000 0.000000 
#    y 0.000000 1.891250 0.000000 
#    z 0.000000 0.000000 1.867750 
# 
# From -- ./inp_files/33038.got.cif
#   From: 2010.05.17/outbox.cif.g08.bks.cpg/sg48_17_cif.got.tgz:33038.got - 2010.06.03 20:39:00.
