data_PCOD9390007
_publ_section_title
;
Structure prediction by ZEFSAII (Michael W. Deem and Ramdas Pophale) SiO2 
 PCOD9390007
Probable space group: P N N N
;
_chemical_formula_sum "Si O2"
_cell_formula_units_Z 48
_cell_length_a 15.373397
_cell_length_b 10.003037
_cell_length_c 13.468070
_cell_angle_alpha 90.000000
_cell_angle_beta 90.000000
_cell_angle_gamma 90.000000
_cell_volume 2071.128680
_symmetry_space_group_name_H-M "P N N N"
_symmetry_group_IT_number 48
_space_group.IT_coordinate_system_code '2'
_symmetry_cell_setting 'orthorhombic'
loop_
_space_group_symop_operation_xyz
x,y,z
1/2-x,1/2-y,z
x,1/2-y,1/2-z
1/2-x,y,1/2-z
-x,-y,-z
1/2+x,1/2+y,-z
-x,1/2+y,1/2+z
1/2+x,-y,1/2+z
loop_
_atom_site_type_symbol
_atom_site_label
_atom_site_fract_x
_atom_site_fract_y
_atom_site_fract_z
Si Si1 0.945370 0.898200 0.279062
Si Si2 0.952176 0.199870 0.037495
Si Si3 0.427753 0.011282 0.366575
Si Si4 0.198665 0.552109 0.657717
Si Si5 0.742426 0.405592 0.632461
Si Si6 0.128388 0.987370 0.529751
O O1 0.969337 0.750000 0.250000
O O2 0.025154 0.987680 0.238606
O O3 0.860662 0.939610 0.212383
O O4 0.921245 0.912455 0.395234
O O5 0.871082 0.139925 0.099879
O O6 0.930646 0.354539 0.036215
O O7 0.958582 0.114920 0.935657
O O8 0.037899 0.152315 0.094164
O O9 0.326224 0.997624 0.383111
O O10 0.250000 0.614324 0.750000
O O11 0.275915 0.518334 0.581876
O O12 0.750000 0.250000 0.592312
O O13 0.750000 0.389287 0.750000
O O14 0.659603 0.479516 0.584773
#
# Coordination Sequence:
#
# PCOD9390007 Si02
#       6
#     8   8   8   8   8   8
#     4  10  24  39  60  99 142 184 230 300 379 440
#     4  10  19  35  61  94 132 176 225 288 373 425
#     4  10  21  38  60  94 142 179 224 296 371 425
#     4   9  18  31  58  92 129 165 217 295 348 428
#     4  11  22  38  67 102 137 186 246 299 356 442
#     4  11  20  38  64  98 129 179 242 293 346 441
#
# _framework density 23.17577
#
# number of rings (size 3 to 8) (size 9 to 14) (size 15 to 20)
#    0.000    1.833    3.333    0.500    2.333   11.000 
#    0.000    3.333    0.000    2.000    0.000    0.000 
#    0.000    0.000    0.000    0.000    0.000    0.000 
#
# Total GULP energy -267374.899484 kJ/mol
# GULP energy per Si atom -5570.310406 kJ/mol
# Density = 2.312302 g / cm^3
# Si number density = 23.175770 Si / 1000 Ang^3
#
#
#
# Elastic Constant Matrix: (Units=GPa)
#
#
# Indices 1 2 3 4 5 6 
#
# 1 99.1598 12.5258 34.7179 0.0000 0.0000 0.0000
# 2 12.5258 17.9396 4.7679 0.0000 0.0000 0.0000
# 3 34.7179 4.7679 115.1175 0.0000 0.0000 0.0000
# 4 0.0000 0.0000 0.0000 16.2014 0.0000 0.0000
# 5 0.0000 0.0000 0.0000 0.0000 40.6218 0.0000
# 6 0.0000 0.0000 0.0000 0.0000 0.0000 18.8775
#
#
#
# Elastic Compliance Matrix: (Units=1/GPa)
#
#
# Indices 1 2 3 4 5 6 
#
# 1 0.012231 -0.007644 -0.003372 0.000000 0.000000 0.000000
# 2 -0.007644 0.061140 -0.000227 0.000000 0.000000 0.000000
# 3 -0.003372 -0.000227 0.009713 0.000000 0.000000 0.000000
# 4 0.000000 0.000000 0.000000 0.061723 0.000000 0.000000
# 5 0.000000 0.000000 0.000000 0.000000 0.024617 0.000000
# 6 0.000000 0.000000 0.000000 0.000000 0.000000 0.052973
#
#
# Mechanical properties :
#
#
# Convention : Reuss Voigt Hill
#
# Bulk Modulus (GPa) = 16.50211 37.36003 26.93107
# Shear Modulus (GPa) = 18.86205 27.15382 23.00794
#
# Velocity S-wave (km/s) = 2.85593 3.42665 3.15422
# Velocity P-wave (km/s) = 4.24394 5.64014 4.99110
#
# Compressibility (1/GPa) = 0.06059832
#
# Stress axis : x y z
#
# Youngs Moduli (GPa) = 81.75996 16.35593 102.95314
#
# Poissons Ratio (x) = 0.12502 0.34717
# Poissons Ratio (y) = 0.62495 0.02338
# Poissons Ratio (z) = 0.27570 0.00371
#
# Static dielectric constant tensor:
#      x y z
#    x 1.796520 0.000000 0.000000 
#    y 0.000000 1.851150 0.000000 
#    z 0.000000 0.000000 1.934590 
# 
# From -- ./inp_files/27877.got.cif
#   From: 2010.05.17/outbox.cif.g08.bks.cpg/sg48_14_cif.got.tgz:27877.got - 2010.06.03 20:39:00.
