data_PCOD9390781
_publ_section_title
;
Structure prediction by ZEFSAII (Michael W. Deem and Ramdas Pophale) SiO2 
 PCOD9390781
Probable space group: P N N N
;
_chemical_formula_sum "Si O2"
_cell_formula_units_Z 40
_cell_length_a 9.494827
_cell_length_b 9.467361
_cell_length_c 16.728092
_cell_angle_alpha 90.000000
_cell_angle_beta 90.000000
_cell_angle_gamma 90.000000
_cell_volume 1503.704163
_symmetry_space_group_name_H-M "P N N N"
_symmetry_group_IT_number 48
_space_group.IT_coordinate_system_code '2'
_symmetry_cell_setting 'orthorhombic'
loop_
_space_group_symop_operation_xyz
x,y,z
1/2-x,1/2-y,z
x,1/2-y,1/2-z
1/2-x,y,1/2-z
-x,-y,-z
1/2+x,1/2+y,-z
-x,1/2+y,1/2+z
1/2+x,-y,1/2+z
loop_
_atom_site_type_symbol
_atom_site_label
_atom_site_fract_x
_atom_site_fract_y
_atom_site_fract_z
Si Si1 0.276471 0.402402 0.911874
Si Si2 0.816146 0.070703 0.554175
Si Si3 0.497181 0.282109 0.436834
Si Si4 0.105734 0.935034 0.703408
Si Si5 0.568079 0.000412 0.649019
O O1 0.250000 0.250000 0.949579
O O2 0.148414 0.428358 0.849990
O O3 0.427837 0.411636 0.871605
O O4 0.271109 0.529295 0.974538
O O5 0.711645 0.082670 0.628932
O O6 0.904916 0.926382 0.567035
O O7 0.915808 0.195110 0.519255
O O8 0.590508 0.307777 0.358075
O O9 0.427428 0.134166 0.412520
O O10 0.250000 0.914187 0.750000
O O11 0.970358 0.951752 0.760758
#
# Coordination Sequence:
#
# PCOD9390781 Si02
#       5
#     8   8   8   8   8
#     4  10  21  39  61  88 124 162 206 253 305 369
#     4  10  22  38  60  91 122 160 204 254 314 368
#     4  10  21  39  60  88 126 158 200 259 311 365
#     4   9  21  36  57  88 121 160 203 252 307 365
#     4  11  21  36  63  90 120 162 208 251 305 372
#
# _framework density 26.600977
#
# number of rings (size 3 to 8) (size 9 to 14) (size 15 to 20)
#    0.000    2.000    0.000    3.000    0.000   14.000 
#    0.000    6.000    0.000    0.000    0.000   16.800 
#    0.000    0.000    0.000    0.000    0.000    0.000 
#
# Total GULP energy -223530.511798 kJ/mol
# GULP energy per Si atom -5588.262795 kJ/mol
# Density = 2.654043 g / cm^3
# Si number density = 26.600977 Si / 1000 Ang^3
#
#
#
# Elastic Constant Matrix: (Units=GPa)
#
#
# Indices 1 2 3 4 5 6 
#
# 1 98.5621 18.7705 53.3992 0.0000 0.0000 0.0000
# 2 18.7705 120.6732 25.0341 0.0000 0.0000 0.0000
# 3 53.3992 25.0341 113.5330 0.0000 0.0000 0.0000
# 4 0.0000 0.0000 0.0000 28.6551 0.0000 0.0000
# 5 0.0000 0.0000 0.0000 0.0000 59.4225 0.0000
# 6 0.0000 0.0000 0.0000 0.0000 0.0000 34.5439
#
#
#
# Elastic Compliance Matrix: (Units=1/GPa)
#
#
# Indices 1 2 3 4 5 6 
#
# 1 0.013695 -0.000832 -0.006258 0.000000 0.000000 0.000000
# 2 -0.000832 0.008735 -0.001535 0.000000 0.000000 0.000000
# 3 -0.006258 -0.001535 0.012090 0.000000 0.000000 0.000000
# 4 0.000000 0.000000 0.000000 0.034898 0.000000 0.000000
# 5 0.000000 0.000000 0.000000 0.000000 0.016829 0.000000
# 6 0.000000 0.000000 0.000000 0.000000 0.000000 0.028949
#
#
# Mechanical properties :
#
#
# Convention : Reuss Voigt Hill
#
# Bulk Modulus (GPa) = 57.90315 58.57508 58.23912
# Shear Modulus (GPa) = 36.17961 40.22862 38.20411
#
# Velocity S-wave (km/s) = 3.69193 3.89305 3.79382
# Velocity P-wave (km/s) = 6.32364 6.50196 6.41342
#
# Compressibility (1/GPa) = 0.01727022
#
# Stress axis : x y z
#
# Youngs Moduli (GPa) = 73.02126 114.48682 82.71536
#
# Poissons Ratio (x) = 0.09525 0.51761
# Poissons Ratio (y) = 0.06075 0.12694
# Poissons Ratio (z) = 0.45694 0.17570
#
# Static dielectric constant tensor:
#      x y z
#    x 2.192130 0.000000 0.000000 
#    y 0.000000 2.116240 0.000000 
#    z 0.000000 0.000000 2.206450 
# 
# From -- ./inp_files/30030.got.cif
#   From: 2010.05.17/outbox.cif.g08.bks.cpg/sg48_16_cif.got.tgz:30030.got - 2010.06.03 20:39:00.
