data_PCOD9390506
_publ_section_title
;
Structure prediction by ZEFSAII (Michael W. Deem and Ramdas Pophale) SiO2 
 PCOD9390506
Probable space group: P N N N
;
_chemical_formula_sum "Si O2"
_cell_formula_units_Z 32
_cell_length_a 13.237609
_cell_length_b 13.134758
_cell_length_c 7.875462
_cell_angle_alpha 90.000000
_cell_angle_beta 90.000000
_cell_angle_gamma 90.000000
_cell_volume 1369.328556
_symmetry_space_group_name_H-M "P N N N"
_symmetry_group_IT_number 48
_space_group.IT_coordinate_system_code '2'
_symmetry_cell_setting 'orthorhombic'
loop_
_space_group_symop_operation_xyz
x,y,z
1/2-x,1/2-y,z
x,1/2-y,1/2-z
1/2-x,y,1/2-z
-x,-y,-z
1/2+x,1/2+y,-z
-x,1/2+y,1/2+z
1/2+x,-y,1/2+z
loop_
_atom_site_type_symbol
_atom_site_label
_atom_site_fract_x
_atom_site_fract_y
_atom_site_fract_z
Si Si1 0.465451 0.882288 0.707080
Si Si2 0.367308 0.266920 0.024751
Si Si3 0.534549 0.617712 0.292920
Si Si4 0.632692 0.233080 0.975248
O O1 0.575748 0.833086 0.669262
O O2 0.411524 0.843774 0.532940
O O3 0.471618 1.000000 0.750000
O O4 0.397625 0.832777 0.856542
O O5 0.250000 0.250000 0.051081
O O6 0.397625 0.332777 0.856541
O O7 0.411525 0.156225 0.967060
O O8 0.424252 0.666913 0.330737
O O9 0.750000 0.250000 0.948918
#
# Coordination Sequence:
#
# PCOD9390506 Si02
#       4
#     8   8   8   8
#     4  10  20  39  64  92 130 172 217 272 332 398
#     4  10  22  39  62  95 132 170 217 273 327 394
#     4  10  20  39  64  92 130 172 217 272 332 398
#     4  10  22  39  62  95 132 170 217 273 327 394
#
# _framework density 23.369119000000001
#
# number of rings (size 3 to 8) (size 9 to 14) (size 15 to 20)
#    0.000    2.000    0.000    4.500    0.000    4.000 
#    0.000   22.500    0.000   27.000    0.000    0.000 
#    0.000    0.000    0.000    0.000    0.000    0.000 
#
# Total GULP energy -178211.266648 kJ/mol
# GULP energy per Si atom -5569.102083 kJ/mol
# Density = 2.331593 g / cm^3
# Si number density = 23.369119 Si / 1000 Ang^3
#
#
#
# Elastic Constant Matrix: (Units=GPa)
#
#
# Indices 1 2 3 4 5 6 
#
# 1 243.1788 89.7168 41.4387 0.0000 0.0000 0.0000
# 2 89.7168 256.9084 80.7047 0.0000 0.0000 0.0000
# 3 41.4387 80.7047 163.6786 0.0000 0.0000 0.0000
# 4 0.0000 0.0000 0.0000 36.6216 0.0000 0.0000
# 5 0.0000 0.0000 0.0000 0.0000 125.4283 0.0000
# 6 0.0000 0.0000 0.0000 0.0000 0.0000 -9.3748
#
#
#
# Elastic Compliance Matrix: (Units=1/GPa)
#
#
# Indices 1 2 3 4 5 6 
#
# 1 0.004749 -0.001515 -0.000455 0.000000 0.000000 0.000000
# 2 -0.001515 0.005089 -0.002126 0.000000 0.000000 0.000000
# 3 -0.000455 -0.002126 0.007273 0.000000 0.000000 0.000000
# 4 0.000000 0.000000 0.000000 0.027306 0.000000 0.000000
# 5 0.000000 0.000000 0.000000 0.000000 0.007973 0.000000
# 6 0.000000 0.000000 0.000000 0.000000 0.000000 -0.106669
#
#
# Mechanical properties :
#
#
# Convention : Reuss Voigt Hill
#
# Bulk Modulus (GPa) = 112.12464 120.83178 116.47821
# Shear Modulus (GPa) = -115.97364 60.66205 -27.65579
#
# Velocity S-wave (km/s) = -7.05228 5.10045 -3.44384
# Velocity P-wave (km/s) = 4.26952 9.30076 5.84274
#
# Compressibility (1/GPa) = 0.00891865
#
# Stress axis : x y z
#
# Youngs Moduli (GPa) = 210.57797 196.48537 137.49680
#
# Poissons Ratio (x) = 0.29776 0.06257
# Poissons Ratio (y) = 0.31911 0.29229
# Poissons Ratio (z) = 0.09583 0.41768
#
# Static dielectric constant tensor:
#      x y z
#    x 1.921750 0.000000 0.000000 
#    y 0.000000 1.902440 0.000000 
#    z 0.000000 0.000000 2.094330 
# 
# From -- ./inp_files/12106.got.cif
#   From: 2010.05.17/outbox.cif.g08.bks.cpg/sg48_7_cif.got.tgz:12106.got - 2010.06.03 20:39:00.
