data_PCOD9390356
_publ_section_title
;
Structure prediction by ZEFSAII (Michael W. Deem and Ramdas Pophale) SiO2 
 PCOD9390356
Probable space group: P N N N
;
_chemical_formula_sum "Si O2"
_cell_formula_units_Z 64
_cell_length_a 9.882750
_cell_length_b 24.576949
_cell_length_c 13.133557
_cell_angle_alpha 90.000000
_cell_angle_beta 90.000000
_cell_angle_gamma 90.000000
_cell_volume 3189.981327
_symmetry_space_group_name_H-M "P N N N"
_symmetry_group_IT_number 48
_space_group.IT_coordinate_system_code '2'
_symmetry_cell_setting 'orthorhombic'
loop_
_space_group_symop_operation_xyz
x,y,z
1/2-x,1/2-y,z
x,1/2-y,1/2-z
1/2-x,y,1/2-z
-x,-y,-z
1/2+x,1/2+y,-z
-x,1/2+y,1/2+z
1/2+x,-y,1/2+z
loop_
_atom_site_type_symbol
_atom_site_label
_atom_site_fract_x
_atom_site_fract_y
_atom_site_fract_z
Si Si1 0.088037 0.239908 0.040610
Si Si2 0.395771 0.775519 0.139736
Si Si3 0.519166 0.621686 0.884568
Si Si4 0.204452 0.088062 0.358223
Si Si5 0.642942 0.404376 0.660003
Si Si6 0.514931 0.001014 0.122165
Si Si7 0.980547 0.336479 0.153020
Si Si8 0.271457 0.584569 0.570341
O O1 0.250000 0.250000 0.041722
O O2 0.017760 0.274685 0.131495
O O3 0.052164 0.176807 0.054837
O O4 0.012553 0.261090 0.939883
O O5 0.250000 0.750000 0.106092
O O6 0.423938 0.750000 0.250000
O O7 0.383756 0.840198 0.153578
O O8 0.649616 0.583487 0.906854
O O9 0.491120 0.643054 0.768787
O O10 0.385936 0.589214 0.912300
O O11 0.250000 0.112780 0.250000
O O12 0.115116 0.035206 0.339315
O O13 0.099060 0.129886 0.407112
O O14 0.750000 0.414704 0.750000
O O15 0.507453 0.441484 0.668274
O O16 0.702761 0.420962 0.549921
O O17 0.649835 0.037300 0.133313
O O18 0.500000 0.000000 0.000000
O O19 0.841432 0.358801 0.106914
#
# Coordination Sequence:
#
# PCOD9390356 Si02
#       8
#     8   8   8   8   8   8   8   8
#     4  12  24  37  59  93 130 169 215 260 316 388
#     4  11  23  42  66  96 126 169 218 269 316 380
#     4  11  22  34  61  88 127 168 203 259 321 384
#     4   9  18  35  56  83 117 158 203 242 308 383
#     4  11  20  38  67  93 120 163 217 264 316 391
#     4   9  20  36  62  88 117 159 207 256 319 388
#     4  10  20  37  55  86 126 168 204 252 317 398
#     4  10  21  39  59  92 125 159 210 267 328 380
#
# _framework density 20.062812999999998
#
# number of rings (size 3 to 8) (size 9 to 14) (size 15 to 20)
#    0.000    1.625    3.750    1.875    0.000    0.750 
#    0.000    3.750    0.000    4.500    9.750    0.000 
#    0.000    0.000    0.000    0.000    0.000    0.000 
#
# Total GULP energy -356629.690521 kJ/mol
# GULP energy per Si atom -5572.338914 kJ/mol
# Density = 2.001715 g / cm^3
# Si number density = 20.062813 Si / 1000 Ang^3
#
#
#
# Elastic Constant Matrix: (Units=GPa)
#
#
# Indices 1 2 3 4 5 6 
#
# 1 121.7272 43.1471 8.3608 0.0000 0.0000 0.0000
# 2 43.1471 105.0000 3.0414 0.0000 0.0000 0.0000
# 3 8.3608 3.0414 66.0289 0.0000 0.0000 0.0000
# 4 0.0000 0.0000 0.0000 17.7754 0.0000 0.0000
# 5 0.0000 0.0000 0.0000 0.0000 21.9110 0.0000
# 6 0.0000 0.0000 0.0000 0.0000 0.0000 12.5569
#
#
#
# Elastic Compliance Matrix: (Units=1/GPa)
#
#
# Indices 1 2 3 4 5 6 
#
# 1 0.009687 -0.003950 -0.001045 0.000000 0.000000 0.000000
# 2 -0.003950 0.011148 -0.000013 0.000000 0.000000 0.000000
# 3 -0.001045 -0.000013 0.015278 0.000000 0.000000 0.000000
# 4 0.000000 0.000000 0.000000 0.056257 0.000000 0.000000
# 5 0.000000 0.000000 0.000000 0.000000 0.045639 0.000000
# 6 0.000000 0.000000 0.000000 0.000000 0.000000 0.079637
#
#
# Mechanical properties :
#
#
# Convention : Reuss Voigt Hill
#
# Bulk Modulus (GPa) = 38.32043 44.65052 41.48547
# Shear Modulus (GPa) = 21.15405 26.32914 23.74159
#
# Velocity S-wave (km/s) = 3.25066 3.62655 3.44374
# Velocity P-wave (km/s) = 5.76461 6.31185 6.04443
#
# Compressibility (1/GPa) = 0.02609574
#
# Stress axis : x y z
#
# Youngs Moduli (GPa) = 103.23013 89.70608 65.45462
#
# Poissons Ratio (x) = 0.35438 0.06838
# Poissons Ratio (y) = 0.40780 0.00087
# Poissons Ratio (z) = 0.10784 0.00119
#
# Static dielectric constant tensor:
#      x y z
#    x 1.833640 0.000000 0.000000 
#    y 0.000000 1.762820 0.000000 
#    z 0.000000 0.000000 1.766740 
# 
# From -- ./inp_files/25745.got.cif
#   From: 2010.05.17/outbox.cif.g08.bks.cpg/sg48_13_cif.got.tgz:25745.got - 2010.06.03 20:39:00.
