data_PCOD9390014
_publ_section_title
;
Structure prediction by ZEFSAII (Michael W. Deem and Ramdas Pophale) SiO2 
 PCOD9390014
Probable space group: P N N N
;
_chemical_formula_sum "Si O2"
_cell_formula_units_Z 46
_cell_length_a 10.552247
_cell_length_b 20.868150
_cell_length_c 9.868204
_cell_angle_alpha 90.000000
_cell_angle_beta 90.000000
_cell_angle_gamma 90.000000
_cell_volume 2173.036479
_symmetry_space_group_name_H-M "P N N N"
_symmetry_group_IT_number 48
_space_group.IT_coordinate_system_code '2'
_symmetry_cell_setting 'orthorhombic'
loop_
_space_group_symop_operation_xyz
x,y,z
1/2-x,1/2-y,z
x,1/2-y,1/2-z
1/2-x,y,1/2-z
-x,-y,-z
1/2+x,1/2+y,-z
-x,1/2+y,1/2+z
1/2+x,-y,1/2+z
loop_
_atom_site_type_symbol
_atom_site_label
_atom_site_fract_x
_atom_site_fract_y
_atom_site_fract_z
Si Si1 0.250000 0.750000 0.250000
Si Si2 0.557608 0.001873 0.214181
Si Si3 0.393867 0.366682 0.612125
Si Si4 0.250000 0.250000 0.750000
Si Si5 0.845374 0.328411 0.999393
Si Si6 0.697705 0.450754 0.041059
Si Si7 0.250000 0.750000 0.750000
Si Si8 0.792001 0.555937 0.884539
O O1 0.168673 0.790104 0.358169
O O2 0.571040 0.924305 0.216854
O O3 0.675769 0.026616 0.122941
O O4 0.583117 0.035074 0.358502
O O5 0.429488 0.024762 0.143043
O O6 0.340723 0.300275 0.669954
O O7 0.516880 0.358338 0.517718
O O8 0.290422 0.398358 0.513256
O O9 0.728904 0.378466 0.002818
O O10 0.832349 0.291005 0.142022
O O11 0.698325 0.496352 0.911515
O O12 0.750000 0.591567 0.750000
#
# Coordination Sequence:
#
# PCOD9390014 Si02
#       8
#     2   8   8   2   8   8   2   8
#     4  10  26  38  60 100 120 162 222 276 308 388
#     4  10  19  38  65  95 120 165 213 269 335 392
#     4  11  22  44  64  88 130 172 218 263 328 400
#     4  12  26  44  68  90 124 188 230 260 324 418
#     4  11  21  42  64  91 130 168 219 274 328 389
#     4  10  19  35  66  88 117 163 207 261 332 384
#     4  10  24  38  62  96 120 170 232 264 328 396
#     4  11  22  38  59  97 131 159 208 273 334 390
#
# _framework density 21.168536
#
# number of rings (size 3 to 8) (size 9 to 14) (size 15 to 20)
#    0.000    1.391    3.478    4.696    1.217    0.696 
#    3.130    1.739    0.000    0.000    0.000    0.000 
#    0.000    0.000    0.000    0.000    0.000    0.000 
#
# Total GULP energy -256511.898969 kJ/mol
# GULP energy per Si atom -5576.345630 kJ/mol
# Density = 2.112036 g / cm^3
# Si number density = 21.168536 Si / 1000 Ang^3
#
#
#
# Elastic Constant Matrix: (Units=GPa)
#
#
# Indices 1 2 3 4 5 6 
#
# 1 57.2005 18.5074 19.6590 0.0000 0.0000 0.0000
# 2 18.5074 126.1322 53.1001 0.0000 0.0000 0.0000
# 3 19.6590 53.1001 116.6397 0.0000 0.0000 0.0000
# 4 0.0000 0.0000 0.0000 17.2417 0.0000 0.0000
# 5 0.0000 0.0000 0.0000 0.0000 15.5447 0.0000
# 6 0.0000 0.0000 0.0000 0.0000 0.0000 14.5917
#
#
#
# Elastic Compliance Matrix: (Units=1/GPa)
#
#
# Indices 1 2 3 4 5 6 
#
# 1 0.018871 -0.001769 -0.002375 0.000000 0.000000 0.000000
# 2 -0.001769 0.009974 -0.004242 0.000000 0.000000 0.000000
# 3 -0.002375 -0.004242 0.010905 0.000000 0.000000 0.000000
# 4 0.000000 0.000000 0.000000 0.057999 0.000000 0.000000
# 5 0.000000 0.000000 0.000000 0.000000 0.064330 0.000000
# 6 0.000000 0.000000 0.000000 0.000000 0.000000 0.068532
#
#
# Mechanical properties :
#
#
# Convention : Reuss Voigt Hill
#
# Bulk Modulus (GPa) = 43.52259 53.61174 48.56716
# Shear Modulus (GPa) = 19.60450 23.38936 21.49693
#
# Velocity S-wave (km/s) = 3.04652 3.32763 3.19017
# Velocity P-wave (km/s) = 5.74279 6.33603 6.04669
#
# Compressibility (1/GPa) = 0.02297657
#
# Stress axis : x y z
#
# Youngs Moduli (GPa) = 52.99117 100.26321 91.70019
#
# Poissons Ratio (x) = 0.17736 0.21782
# Poissons Ratio (y) = 0.09374 0.38903
# Poissons Ratio (z) = 0.12587 0.42536
#
# Static dielectric constant tensor:
#      x y z
#    x 1.819810 0.000000 0.000000 
#    y 0.000000 1.818980 0.000000 
#    z 0.000000 0.000000 1.856760 
# 
# From -- ./inp_files/11317.got.cif
#   From: 2010.05.17/outbox.cif.g08.bks.cpg/sg48_6_cif.got.tgz:11317.got - 2010.06.03 20:39:00.
