data_PCOD9390140
_publ_section_title
;
Structure prediction by ZEFSAII (Michael W. Deem and Ramdas Pophale) SiO2 
 PCOD9390140
Probable space group: P N N N
;
_chemical_formula_sum "Si O2"
_cell_formula_units_Z 44
_cell_length_a 14.858437
_cell_length_b 8.140815
_cell_length_c 14.685478
_cell_angle_alpha 90.000000
_cell_angle_beta 90.000000
_cell_angle_gamma 90.000000
_cell_volume 1776.352288
_symmetry_space_group_name_H-M "P N N N"
_symmetry_group_IT_number 48
_space_group.IT_coordinate_system_code '2'
_symmetry_cell_setting 'orthorhombic'
loop_
_space_group_symop_operation_xyz
x,y,z
1/2-x,1/2-y,z
x,1/2-y,1/2-z
1/2-x,y,1/2-z
-x,-y,-z
1/2+x,1/2+y,-z
-x,1/2+y,1/2+z
1/2+x,-y,1/2+z
loop_
_atom_site_type_symbol
_atom_site_label
_atom_site_fract_x
_atom_site_fract_y
_atom_site_fract_z
Si Si1 0.814363 0.397290 0.622752
Si Si2 0.520746 0.236419 0.942033
Si Si3 0.036735 0.750000 0.750000
Si Si4 0.817854 0.482958 0.018512
Si Si5 0.117695 0.418504 0.803563
Si Si6 0.892751 0.717814 0.596081
O O1 0.750000 0.250000 0.659153
O O2 0.916537 0.340036 0.624391
O O3 0.775029 0.415516 0.520827
O O4 0.829025 0.587383 0.648422
O O5 0.463051 0.122967 0.874920
O O6 0.451914 0.334447 0.006582
O O7 0.595975 0.135804 0.000193
O O8 0.093417 0.580674 0.746042
O O9 0.969836 0.768923 0.665391
O O10 0.806717 0.533206 0.122660
O O11 0.839559 0.632667 0.949659
O O12 0.134524 0.250000 0.750000
#
# Coordination Sequence:
#
# PCOD9390140 Si02
#       6
#     8   8   4   8   8   8
#     4  10  22  36  65  92 124 165 218 268 318 384
#     4  10  19  41  66  92 124 168 228 263 315 397
#     4  12  22  38  69  99 132 164 224 270 328 388
#     4  10  20  42  62  93 130 167 219 267 326 398
#     4  11  22  39  67 102 132 167 217 279 327 388
#     4  11  20  38  66  91 122 174 215 261 325 385
#
# _framework density 24.769860000000001
#
# number of rings (size 3 to 8) (size 9 to 14) (size 15 to 20)
#    0.000    1.455    3.636    3.273    0.000    1.455 
#    0.000    1.818    8.000   19.636    0.000    0.000 
#    0.000    0.000    0.000    0.000    0.000    0.000 
#
# Total GULP energy -245170.783285 kJ/mol
# GULP energy per Si atom -5572.063256 kJ/mol
# Density = 2.471348 g / cm^3
# Si number density = 24.769860 Si / 1000 Ang^3
#
#
#
# Elastic Constant Matrix: (Units=GPa)
#
#
# Indices 1 2 3 4 5 6 
#
# 1 63.0377 11.4533 0.4478 0.0000 0.0000 0.0000
# 2 11.4533 135.9788 20.2126 0.0000 0.0000 0.0000
# 3 0.4478 20.2126 66.4809 0.0000 0.0000 0.0000
# 4 0.0000 0.0000 0.0000 5.0055 0.0000 0.0000
# 5 0.0000 0.0000 0.0000 0.0000 -16.3899 0.0000
# 6 0.0000 0.0000 0.0000 0.0000 0.0000 31.1396
#
#
#
# Elastic Compliance Matrix: (Units=1/GPa)
#
#
# Indices 1 2 3 4 5 6 
#
# 1 0.016117 -0.001405 0.000319 0.000000 0.000000 0.000000
# 2 -0.001405 0.007825 -0.002370 0.000000 0.000000 0.000000
# 3 0.000319 -0.002370 0.015760 0.000000 0.000000 0.000000
# 4 0.000000 0.000000 0.000000 0.199779 0.000000 0.000000
# 5 0.000000 0.000000 0.000000 0.000000 -0.061013 0.000000
# 6 0.000000 0.000000 0.000000 0.000000 0.000000 0.032113
#
#
# Mechanical properties :
#
#
# Convention : Reuss Voigt Hill
#
# Bulk Modulus (GPa) = 30.49729 36.63608 33.56668
# Shear Modulus (GPa) = 21.88930 19.50996 20.69963
#
# Velocity S-wave (km/s) = 2.97595 2.80955 2.89395
# Velocity P-wave (km/s) = 4.91399 5.03463 4.97468
#
# Compressibility (1/GPa) = 0.03278980
#
# Stress axis : x y z
#
# Youngs Moduli (GPa) = 62.04817 127.80156 63.45107
#
# Poissons Ratio (x) = 0.17954 -0.02021
# Poissons Ratio (y) = 0.08717 0.15035
# Poissons Ratio (z) = -0.01977 0.30283
#
# Static dielectric constant tensor:
#      x y z
#    x 1.976790 0.000000 0.000000 
#    y 0.000000 2.183200 0.000000 
#    z 0.000000 0.000000 1.989320 
# 
# From -- ./inp_files/27796.got.cif
#   From: 2010.05.17/outbox.cif.g08.bks.cpg/sg48_14_cif.got.tgz:27796.got - 2010.06.03 20:39:00.
