data_PCOD9390057
_publ_section_title
;
Structure prediction by ZEFSAII (Michael W. Deem and Ramdas Pophale) SiO2 
 PCOD9390057
Probable space group: P N N N
;
_chemical_formula_sum "Si O2"
_cell_formula_units_Z 46
_cell_length_a 17.765221
_cell_length_b 7.593498
_cell_length_c 15.710148
_cell_angle_alpha 90.000000
_cell_angle_beta 90.000000
_cell_angle_gamma 90.000000
_cell_volume 2119.301638
_symmetry_space_group_name_H-M "P N N N"
_symmetry_group_IT_number 48
_space_group.IT_coordinate_system_code '2'
_symmetry_cell_setting 'orthorhombic'
loop_
_space_group_symop_operation_xyz
x,y,z
1/2-x,1/2-y,z
x,1/2-y,1/2-z
1/2-x,y,1/2-z
-x,-y,-z
1/2+x,1/2+y,-z
-x,1/2+y,1/2+z
1/2+x,-y,1/2+z
loop_
_atom_site_type_symbol
_atom_site_label
_atom_site_fract_x
_atom_site_fract_y
_atom_site_fract_z
Si Si1 0.527350 0.555209 0.138628
Si Si2 0.750000 0.750000 0.750000
Si Si3 0.853104 0.750000 0.250000
Si Si4 0.942411 0.836776 0.500642
Si Si5 0.150287 0.624521 0.542627
Si Si6 0.874836 0.567612 0.632274
Si Si7 0.199156 0.483084 0.903673
O O1 0.589639 0.618670 0.203327
O O2 0.520795 0.705803 0.067765
O O3 0.569211 0.403268 0.085023
O O4 0.447136 0.514628 0.180002
O O5 0.805579 0.632890 0.689778
O O6 0.811023 0.617990 0.185256
O O7 0.915873 0.732209 0.584739
O O8 0.860765 0.890570 0.464408
O O9 0.000000 0.000000 0.500000
O O10 0.147114 0.574047 0.442125
O O11 0.176222 0.813137 0.578459
O O12 0.212656 0.483968 0.574797
#
# Coordination Sequence:
#
# PCOD9390057 Si02
#       7
#     8   2   4   8   8   8   8
#     4  10  22  38  61  88 125 165 208 273 327 392
#     4  12  28  40  64  94 136 188 216 302 372 406
#     4  10  24  39  58  97 134 166 206 261 346 408
#     4  10  19  36  66  93 119 168 224 276 322 397
#     4  10  21  40  65  91 120 171 221 265 317 392
#     4  11  23  43  62  91 126 165 227 275 339 409
#     4  10  21  37  62  92 127 164 208 265 325 393
#
# _framework density 21.705262999999999
#
# number of rings (size 3 to 8) (size 9 to 14) (size 15 to 20)
#    0.000    1.739    0.000    5.217    0.000   11.826 
#    0.000    5.217    0.000    6.261    0.000    0.000 
#    0.000    0.000    0.000    0.000    0.000    0.000 
#
# Total GULP energy -256289.310969 kJ/mol
# GULP energy per Si atom -5571.506760 kJ/mol
# Density = 2.165586 g / cm^3
# Si number density = 21.705263 Si / 1000 Ang^3
#
#
#
# Elastic Constant Matrix: (Units=GPa)
#
#
# Indices 1 2 3 4 5 6 
#
# 1 165.6674 41.6167 44.1394 0.0000 0.0000 0.0000
# 2 41.6167 95.2329 22.2280 0.0000 0.0000 0.0000
# 3 44.1394 22.2280 65.8547 0.0000 0.0000 0.0000
# 4 0.0000 0.0000 0.0000 15.4021 0.0000 0.0000
# 5 0.0000 0.0000 0.0000 0.0000 14.7810 0.0000
# 6 0.0000 0.0000 0.0000 0.0000 0.0000 37.1511
#
#
#
# Elastic Compliance Matrix: (Units=1/GPa)
#
#
# Indices 1 2 3 4 5 6 
#
# 1 0.007816 -0.002380 -0.004435 0.000000 0.000000 0.000000
# 2 -0.002380 0.012123 -0.002497 0.000000 0.000000 0.000000
# 3 -0.004435 -0.002497 0.019000 0.000000 0.000000 0.000000
# 4 0.000000 0.000000 0.000000 0.064926 0.000000 0.000000
# 5 0.000000 0.000000 0.000000 0.000000 0.067655 0.000000
# 6 0.000000 0.000000 0.000000 0.000000 0.000000 0.026917
#
#
# Mechanical properties :
#
#
# Convention : Reuss Voigt Hill
#
# Bulk Modulus (GPa) = 49.22370 60.30258 54.76314
# Shear Modulus (GPa) = 22.33803 28.05156 25.19479
#
# Velocity S-wave (km/s) = 3.21152 3.59888 3.41070
# Velocity P-wave (km/s) = 6.03981 6.71655 6.38715
#
# Compressibility (1/GPa) = 0.02031542
#
# Stress axis : x y z
#
# Youngs Moduli (GPa) = 127.94568 82.48446 52.63071
#
# Poissons Ratio (x) = 0.19634 0.23343
# Poissons Ratio (y) = 0.30455 0.13140
# Poissons Ratio (z) = 0.56746 0.20593
#
# Static dielectric constant tensor:
#      x y z
#    x 1.879100 0.000000 0.000000 
#    y 0.000000 1.595460 0.000000 
#    z 0.000000 0.000000 1.837240 
# 
# From -- ./inp_files/31948.got.cif
#   From: 2010.05.17/outbox.cif.g08.bks.cpg/sg48_16_cif.got.tgz:31948.got - 2010.06.03 20:39:00.
