data_PCOD9390289
_publ_section_title
;
Structure prediction by ZEFSAII (Michael W. Deem and Ramdas Pophale) SiO2 
 PCOD9390289
Probable space group: P N N N
;
_chemical_formula_sum "Si O2"
_cell_formula_units_Z 56
_cell_length_a 15.494664
_cell_length_b 9.266674
_cell_length_c 17.582576
_cell_angle_alpha 90.000000
_cell_angle_beta 90.000000
_cell_angle_gamma 90.000000
_cell_volume 2524.576593
_symmetry_space_group_name_H-M "P N N N"
_symmetry_group_IT_number 48
_space_group.IT_coordinate_system_code '2'
_symmetry_cell_setting 'orthorhombic'
loop_
_space_group_symop_operation_xyz
x,y,z
1/2-x,1/2-y,z
x,1/2-y,1/2-z
1/2-x,y,1/2-z
-x,-y,-z
1/2+x,1/2+y,-z
-x,1/2+y,1/2+z
1/2+x,-y,1/2+z
loop_
_atom_site_type_symbol
_atom_site_label
_atom_site_fract_x
_atom_site_fract_y
_atom_site_fract_z
Si Si1 0.392183 0.933502 0.418161
Si Si2 0.755689 0.421842 0.379640
Si Si3 0.226228 0.415541 0.038483
Si Si4 0.557073 0.389279 0.094389
Si Si5 0.479374 0.803537 0.163742
Si Si6 0.528022 0.578748 0.579210
Si Si7 0.164634 0.180807 0.667368
O O1 0.414822 0.924309 0.507531
O O2 0.404678 0.775162 0.383302
O O3 0.299861 0.008768 0.409678
O O4 0.471179 0.024805 0.383031
O O5 0.750000 0.250000 0.379930
O O6 0.729801 0.486656 0.462234
O O7 0.857474 0.440901 0.361055
O O8 0.689271 0.512140 0.328063
O O9 0.250000 0.250000 0.025134
O O10 0.129905 0.401749 0.069170
O O11 0.528926 0.221452 0.092716
O O12 0.474894 0.750000 0.250000
O O13 0.575315 0.775343 0.128128
O O14 0.477903 0.973653 0.151627
O O15 0.500000 0.500000 0.500000
O O16 0.250000 0.250000 0.632006
O O17 0.157858 0.250000 0.750000
#
# Coordination Sequence:
#
# PCOD9390289 Si02
#       7
#     8   8   8   8   8   8   8
#     4  10  21  38  60  91 125 164 215 264 320 383
#     4  11  22  34  59  99 132 160 210 278 324 381
#     4  11  23  39  62  92 126 167 214 269 332 394
#     4  10  20  35  60  93 126 164 208 268 325 375
#     4  11  24  41  63  93 130 172 215 269 328 395
#     4  12  22  39  65  95 129 169 214 272 334 389
#     4  10  21  39  62  87 124 175 214 248 320 404
#
# _framework density 22.181937999999999
#
# number of rings (size 3 to 8) (size 9 to 14) (size 15 to 20)
#    0.000    1.286    2.857    3.857    2.000    0.000 
#    0.000    3.571    0.000    9.429    0.000    0.000 
#    0.000    0.000    0.000    0.000    0.000    0.000 
#
# Total GULP energy -312489.381121 kJ/mol
# GULP energy per Si atom -5580.167520 kJ/mol
# Density = 2.213145 g / cm^3
# Si number density = 22.181938 Si / 1000 Ang^3
#
#
#
# Elastic Constant Matrix: (Units=GPa)
#
#
# Indices 1 2 3 4 5 6 
#
# 1 130.5860 19.0192 19.0218 0.0000 0.0000 0.0000
# 2 19.0192 121.5370 7.0580 0.0000 0.0000 0.0000
# 3 19.0218 7.0580 33.0575 0.0000 0.0000 0.0000
# 4 0.0000 0.0000 0.0000 11.7266 0.0000 0.0000
# 5 0.0000 0.0000 0.0000 0.0000 6.5118 0.0000
# 6 0.0000 0.0000 0.0000 0.0000 0.0000 38.7882
#
#
#
# Elastic Compliance Matrix: (Units=1/GPa)
#
#
# Indices 1 2 3 4 5 6 
#
# 1 0.008491 -0.001058 -0.004660 0.000000 0.000000 0.000000
# 2 -0.001058 0.008463 -0.001198 0.000000 0.000000 0.000000
# 3 -0.004660 -0.001198 0.033187 0.000000 0.000000 0.000000
# 4 0.000000 0.000000 0.000000 0.085276 0.000000 0.000000
# 5 0.000000 0.000000 0.000000 0.000000 0.153568 0.000000
# 6 0.000000 0.000000 0.000000 0.000000 0.000000 0.025781
#
#
# Mechanical properties :
#
#
# Convention : Reuss Voigt Hill
#
# Bulk Modulus (GPa) = 27.54112 41.70871 34.62492
# Shear Modulus (GPa) = 14.67562 27.41074 21.04318
#
# Velocity S-wave (km/s) = 2.57495 3.51910 3.08338
# Velocity P-wave (km/s) = 4.61340 5.94608 5.32163
#
# Compressibility (1/GPa) = 0.03630935
#
# Stress axis : x y z
#
# Youngs Moduli (GPa) = 117.77654 118.15995 30.13186
#
# Poissons Ratio (x) = 0.12502 0.14041
# Poissons Ratio (y) = 0.12462 0.03610
# Poissons Ratio (z) = 0.54881 0.14157
#
# Static dielectric constant tensor:
#      x y z
#    x 1.924250 0.000000 0.000000 
#    y 0.000000 1.945630 0.000000 
#    z 0.000000 0.000000 1.839610 
# 
# From -- ./inp_files/34478.got.cif
#   From: 2010.05.17/outbox.cif.g08.bks.cpg/sg48_18_cif.got.tgz:34478.got - 2010.06.03 20:39:00.
