data_PCOD9390120
_publ_section_title
;
Structure prediction by ZEFSAII (Michael W. Deem and Ramdas Pophale) SiO2 
 PCOD9390120
Probable space group: P N N N
;
_chemical_formula_sum "Si O2"
_cell_formula_units_Z 52
_cell_length_a 16.507545
_cell_length_b 11.512496
_cell_length_c 14.154519
_cell_angle_alpha 90.000000
_cell_angle_beta 90.000000
_cell_angle_gamma 90.000000
_cell_volume 2689.967902
_symmetry_space_group_name_H-M "P N N N"
_symmetry_group_IT_number 48
_space_group.IT_coordinate_system_code '2'
_symmetry_cell_setting 'orthorhombic'
loop_
_space_group_symop_operation_xyz
x,y,z
1/2-x,1/2-y,z
x,1/2-y,1/2-z
1/2-x,y,1/2-z
-x,-y,-z
1/2+x,1/2+y,-z
-x,1/2+y,1/2+z
1/2+x,-y,1/2+z
loop_
_atom_site_type_symbol
_atom_site_label
_atom_site_fract_x
_atom_site_fract_y
_atom_site_fract_z
Si Si1 0.049024 0.191123 0.844252
Si Si2 0.552260 0.302617 0.158069
Si Si3 0.750000 0.048023 0.750000
Si Si4 0.217941 0.873488 0.458515
Si Si5 0.528447 0.131557 0.992306
Si Si6 0.141949 0.498976 0.540623
Si Si7 0.920035 0.989467 0.825880
O O1 0.081954 0.250000 0.750000
O O2 0.016942 0.290350 0.914620
O O3 0.973340 0.107032 0.814121
O O4 0.114334 0.110755 0.897870
O O5 0.595199 0.250000 0.250000
O O6 0.605818 0.389481 0.094936
O O7 0.477765 0.381117 0.194226
O O8 0.521756 0.200624 0.090457
O O9 0.759170 0.115991 0.651868
O O10 0.836525 0.984820 0.767224
O O11 0.250000 0.750000 0.493871
O O12 0.122791 0.874776 0.467360
O O13 0.264736 0.974152 0.516044
O O14 0.500000 0.000000 0.000000
O O15 0.100232 0.487848 0.437858
#
# Coordination Sequence:
#
# PCOD9390120 Si02
#       7
#     8   8   4   8   8   8   8
#     4  11  21  38  66  93 125 172 218 256 316 396
#     4  11  22  38  63  89 125 172 215 254 308 385
#     4  10  21  32  63 102 126 158 201 265 336 380
#     4  11  21  40  64  95 131 160 210 274 324 376
#     4  12  25  40  62  98 129 161 215 275 315 372
#     4  10  20  41  65  89 126 174 207 257 333 379
#     4  10  19  39  62  92 130 167 208 259 324 394
#
# _framework density 19.331085000000002
#
# number of rings (size 3 to 8) (size 9 to 14) (size 15 to 20)
#    0.000    1.231    4.615    3.000    6.462    0.000 
#    0.000    2.692    0.000    0.923    0.000    0.000 
#    0.000    0.000    0.000    0.000    0.000    0.000 
#
# Total GULP energy -290279.801306 kJ/mol
# GULP energy per Si atom -5582.303871 kJ/mol
# Density = 1.928709 g / cm^3
# Si number density = 19.331085 Si / 1000 Ang^3
#
#
#
# Elastic Constant Matrix: (Units=GPa)
#
#
# Indices 1 2 3 4 5 6 
#
# 1 71.0199 43.0317 25.1646 0.0000 0.0000 0.0000
# 2 43.0317 132.3553 48.3263 0.0000 0.0000 0.0000
# 3 25.1646 48.3263 101.6467 0.0000 0.0000 0.0000
# 4 0.0000 0.0000 0.0000 28.3629 0.0000 0.0000
# 5 0.0000 0.0000 0.0000 0.0000 10.9006 0.0000
# 6 0.0000 0.0000 0.0000 0.0000 0.0000 40.3779
#
#
#
# Elastic Compliance Matrix: (Units=1/GPa)
#
#
# Indices 1 2 3 4 5 6 
#
# 1 0.017868 -0.005075 -0.002011 0.000000 0.000000 0.000000
# 2 -0.005075 0.010584 -0.003776 0.000000 0.000000 0.000000
# 3 -0.002011 -0.003776 0.012131 0.000000 0.000000 0.000000
# 4 0.000000 0.000000 0.000000 0.035257 0.000000 0.000000
# 5 0.000000 0.000000 0.000000 0.000000 0.091738 0.000000
# 6 0.000000 0.000000 0.000000 0.000000 0.000000 0.024766
#
#
# Mechanical properties :
#
#
# Convention : Reuss Voigt Hill
#
# Bulk Modulus (GPa) = 53.02191 59.78523 56.40357
# Shear Modulus (GPa) = 22.69077 28.49490 25.59283
#
# Velocity S-wave (km/s) = 3.42979 3.84350 3.64252
# Velocity P-wave (km/s) = 6.57058 7.11974 6.85066
#
# Compressibility (1/GPa) = 0.01886013
#
# Stress axis : x y z
#
# Youngs Moduli (GPa) = 55.96559 94.48209 82.43483
#
# Poissons Ratio (x) = 0.47951 0.16575
# Poissons Ratio (y) = 0.28404 0.31124
# Poissons Ratio (z) = 0.11253 0.35672
#
# Static dielectric constant tensor:
#      x y z
#    x 1.587890 0.000000 0.000000 
#    y 0.000000 1.677500 0.000000 
#    z 0.000000 0.000000 1.678590 
# 
# From -- ./inp_files/28006.got.cif
#   From: 2010.05.17/outbox.cif.g08.bks.cpg/sg48_15_cif.got.tgz:28006.got - 2010.06.03 20:39:00.
