data_PCOD9390770
_publ_section_title
;
Structure prediction by ZEFSAII (Michael W. Deem and Ramdas Pophale) SiO2 
 PCOD9390770
Probable space group: P N N N
;
_chemical_formula_sum "Si O2"
_cell_formula_units_Z 52
_cell_length_a 17.330398
_cell_length_b 24.233713
_cell_length_c 5.550267
_cell_angle_alpha 90.000000
_cell_angle_beta 90.000000
_cell_angle_gamma 90.000000
_cell_volume 2331.000531
_symmetry_space_group_name_H-M "P N N N"
_symmetry_group_IT_number 48
_space_group.IT_coordinate_system_code '2'
_symmetry_cell_setting 'orthorhombic'
loop_
_space_group_symop_operation_xyz
x,y,z
1/2-x,1/2-y,z
x,1/2-y,1/2-z
1/2-x,y,1/2-z
-x,-y,-z
1/2+x,1/2+y,-z
-x,1/2+y,1/2+z
1/2+x,-y,1/2+z
loop_
_atom_site_type_symbol
_atom_site_label
_atom_site_fract_x
_atom_site_fract_y
_atom_site_fract_z
Si Si1 0.668854 0.669102 0.883771
Si Si2 0.081991 0.070461 0.888054
Si Si3 0.629203 0.108410 0.034355
Si Si4 0.663728 0.271757 0.500895
Si Si5 0.098142 0.556451 0.473915
Si Si6 0.043713 0.353011 0.994476
Si Si7 0.393595 0.250000 0.750000
O O1 0.750000 0.666099 0.750000
O O2 0.596980 0.669358 0.703533
O O3 0.648155 0.612158 0.021795
O O4 0.661328 0.723329 0.047276
O O5 0.076159 0.088710 0.608276
O O6 0.098522 0.008503 0.967181
O O7 0.991892 0.077862 0.973326
O O8 0.676921 0.162996 0.992605
O O9 0.629621 0.070536 0.793826
O O10 0.543492 0.134664 0.050276
O O11 0.642115 0.082321 0.296769
O O12 0.750000 0.250000 0.498381
O O13 0.626249 0.250000 0.750000
O O14 0.626004 0.250000 0.250000
O O15 0.053474 0.303076 0.806467
#
# Coordination Sequence:
#
# PCOD9390770 Si02
#       7
#     8   8   8   8   8   8   4
#     4  11  23  41  63  85 130 170 222 264 337 404
#     4   9  21  38  62  94 129 167 212 270 331 386
#     4  11  22  38  66 102 128 169 215 271 322 383
#     4  10  22  40  64  88 128 172 212 252 322 386
#     4  10  21  38  67  99 134 164 216 274 329 380
#     4  10  22  37  61  91 130 159 220 265 330 380
#     4  10  24  39  54  92 119 170 210 280 315 400
#
# _framework density 22.308018000000001
#
# number of rings (size 3 to 8) (size 9 to 14) (size 15 to 20)
#    0.000    1.846    1.538    1.385    3.231    7.385 
#    0.000    0.000   10.154    0.000    0.000    0.000 
#    0.000    0.000    0.000    0.000    0.000    0.000 
#
# Total GULP energy -289888.414796 kJ/mol
# GULP energy per Si atom -5574.777208 kJ/mol
# Density = 2.225724 g / cm^3
# Si number density = 22.308018 Si / 1000 Ang^3
#
#
#
# Elastic Constant Matrix: (Units=GPa)
#
#
# Indices 1 2 3 4 5 6 
#
# 1 38.8170 8.8185 14.1679 0.0000 0.0000 0.0000
# 2 8.8185 107.9126 43.7983 0.0000 0.0000 0.0000
# 3 14.1679 43.7983 130.6962 0.0000 0.0000 0.0000
# 4 0.0000 0.0000 0.0000 35.7844 0.0000 0.0000
# 5 0.0000 0.0000 0.0000 0.0000 4.2091 0.0000
# 6 0.0000 0.0000 0.0000 0.0000 0.0000 27.1940
#
#
#
# Elastic Compliance Matrix: (Units=1/GPa)
#
#
# Indices 1 2 3 4 5 6 
#
# 1 0.026952 -0.001177 -0.002527 0.000000 0.000000 0.000000
# 2 -0.001177 0.010777 -0.003484 0.000000 0.000000 0.000000
# 3 -0.002527 -0.003484 0.009093 0.000000 0.000000 0.000000
# 4 0.000000 0.000000 0.000000 0.027945 0.000000 0.000000
# 5 0.000000 0.000000 0.000000 0.000000 0.237582 0.000000
# 6 0.000000 0.000000 0.000000 0.000000 0.000000 0.036773
#
#
# Mechanical properties :
#
#
# Convention : Reuss Voigt Hill
#
# Bulk Modulus (GPa) = 30.82090 45.66612 38.24351
# Shear Modulus (GPa) = 13.35782 27.48024 20.41903
#
# Velocity S-wave (km/s) = 2.44967 3.51359 3.02871
# Velocity P-wave (km/s) = 4.67410 6.08075 5.42323
#
# Compressibility (1/GPa) = 0.03244551
#
# Stress axis : x y z
#
# Youngs Moduli (GPa) = 37.10343 92.79070 109.97680
#
# Poissons Ratio (x) = 0.10919 0.27795
# Poissons Ratio (y) = 0.04366 0.38315
# Poissons Ratio (z) = 0.09377 0.32328
#
# Static dielectric constant tensor:
#      x y z
#    x 1.814040 0.000000 0.000000 
#    y 0.000000 1.860090 0.000000 
#    z 0.000000 0.000000 1.959160 
# 
# From -- ./inp_files/5247.got.cif
#   From: 2010.05.17/outbox.cif.g08.bks.cpg/sg48_3_cif.got.tgz:5247.got - 2010.06.03 20:39:00.
