data_PCOD9390184
_publ_section_title
;
Structure prediction by ZEFSAII (Michael W. Deem and Ramdas Pophale) SiO2 
 PCOD9390184
Probable space group: P N N N
;
_chemical_formula_sum "Si O2"
_cell_formula_units_Z 48
_cell_length_a 12.105855
_cell_length_b 15.972490
_cell_length_c 11.904825
_cell_angle_alpha 90.000000
_cell_angle_beta 90.000000
_cell_angle_gamma 90.000000
_cell_volume 2301.924675
_symmetry_space_group_name_H-M "P N N N"
_symmetry_group_IT_number 48
_space_group.IT_coordinate_system_code '2'
_symmetry_cell_setting 'orthorhombic'
loop_
_space_group_symop_operation_xyz
x,y,z
1/2-x,1/2-y,z
x,1/2-y,1/2-z
1/2-x,y,1/2-z
-x,-y,-z
1/2+x,1/2+y,-z
-x,1/2+y,1/2+z
1/2+x,-y,1/2+z
loop_
_atom_site_type_symbol
_atom_site_label
_atom_site_fract_x
_atom_site_fract_y
_atom_site_fract_z
Si Si1 0.165486 0.999474 0.085068
Si Si2 0.922333 0.495211 0.332163
Si Si3 0.942798 0.838555 0.307065
Si Si4 0.900488 0.412040 0.111147
Si Si5 0.136154 0.089230 0.478658
Si Si6 0.308223 0.662357 0.404089
O O1 0.226471 0.914484 0.123109
O O2 0.053351 0.015892 0.150607
O O3 0.132806 0.988789 0.953485
O O4 0.252073 0.075279 0.088409
O O5 0.910280 0.587104 0.277469
O O6 0.877019 0.430546 0.240270
O O7 0.930698 0.750000 0.250000
O O8 0.869022 0.846398 0.418902
O O9 0.071693 0.848561 0.345798
O O10 0.882331 0.499367 0.042248
O O11 0.834139 0.345264 0.037782
O O12 0.030599 0.394482 0.098093
O O13 0.250000 0.750000 0.378092
#
# Coordination Sequence:
#
# PCOD9390184 Si02
#       6
#     8   8   8   8   8   8
#     4  10  20  33  50  75 108 144 183 221 255 306
#     4  10  20  33  50  75 108 144 183 221 255 306
#     4  10  20  34  55  83 109 132 167 223 284 330
#     4   8  16  31  49  72 104 138 171 208 255 315
#     4   8  16  31  49  72 104 138 171 208 255 315
#     4  10  20  34  55  83 109 132 167 223 284 330
#
# _framework density 20.852115999999999
#
# number of rings (size 3 to 8) (size 9 to 14) (size 15 to 20)
#    0.000    2.667    0.000    4.000    0.000   10.333 
#    0.000    3.333    0.000    0.000    0.000    2.333 
#    0.000   21.333    0.000    0.000    0.000    0.000 
#
# Total GULP energy -268032.623102 kJ/mol
# GULP energy per Si atom -5584.012981 kJ/mol
# Density = 2.080466 g / cm^3
# Si number density = 20.852116 Si / 1000 Ang^3
#
#
#
# Elastic Constant Matrix: (Units=GPa)
#
#
# Indices 1 2 3 4 5 6 
#
# 1 92.3852 27.5880 3.8132 0.0000 0.0000 0.0000
# 2 27.5880 68.5238 35.5952 0.0000 0.0000 0.0000
# 3 3.8132 35.5952 90.1452 0.0000 0.0000 0.0000
# 4 0.0000 0.0000 0.0000 7.1169 0.0000 0.0000
# 5 0.0000 0.0000 0.0000 0.0000 15.5233 0.0000
# 6 0.0000 0.0000 0.0000 0.0000 0.0000 22.3910
#
#
#
# Elastic Compliance Matrix: (Units=1/GPa)
#
#
# Indices 1 2 3 4 5 6 
#
# 1 0.012542 -0.006006 0.001841 0.000000 0.000000 0.000000
# 2 -0.006006 0.021235 -0.008131 0.000000 0.000000 0.000000
# 3 0.001841 -0.008131 0.014226 0.000000 0.000000 0.000000
# 4 0.000000 0.000000 0.000000 0.140511 0.000000 0.000000
# 5 0.000000 0.000000 0.000000 0.000000 0.064419 0.000000
# 6 0.000000 0.000000 0.000000 0.000000 0.000000 0.044661
#
#
# Mechanical properties :
#
#
# Convention : Reuss Voigt Hill
#
# Bulk Modulus (GPa) = 42.71433 42.78301 42.74867
# Shear Modulus (GPa) = 15.15204 21.27675 18.21440
#
# Velocity S-wave (km/s) = 2.69856 3.19778 2.95872
# Velocity P-wave (km/s) = 5.49895 5.84776 5.67604
#
# Compressibility (1/GPa) = 0.02341135
#
# Stress axis : x y z
#
# Youngs Moduli (GPa) = 79.73436 47.09200 70.29401
#
# Poissons Ratio (x) = 0.28282 -0.12940
# Poissons Ratio (y) = 0.47885 0.57156
# Poissons Ratio (z) = -0.14678 0.38290
#
# Static dielectric constant tensor:
#      x y z
#    x 1.797590 0.000000 0.000000 
#    y 0.000000 1.717640 0.000000 
#    z 0.000000 0.000000 1.787920 
# 
# From -- ./inp_files/20056.got.cif
#   From: 2010.05.17/outbox.cif.g08.bks.cpg/sg48_11_cif.got.tgz:20056.got - 2010.06.03 20:39:00.
