data_PCOD9390111
_publ_section_title
;
Structure prediction by ZEFSAII (Michael W. Deem and Ramdas Pophale) SiO2 
 PCOD9390111
Probable space group: P N N N
;
_chemical_formula_sum "Si O2"
_cell_formula_units_Z 40
_cell_length_a 8.478754
_cell_length_b 8.874690
_cell_length_c 23.698195
_cell_angle_alpha 90.000000
_cell_angle_beta 90.000000
_cell_angle_gamma 90.000000
_cell_volume 1783.201806
_symmetry_space_group_name_H-M "P N N N"
_symmetry_group_IT_number 48
_space_group.IT_coordinate_system_code '2'
_symmetry_cell_setting 'orthorhombic'
loop_
_space_group_symop_operation_xyz
x,y,z
1/2-x,1/2-y,z
x,1/2-y,1/2-z
1/2-x,y,1/2-z
-x,-y,-z
1/2+x,1/2+y,-z
-x,1/2+y,1/2+z
1/2+x,-y,1/2+z
loop_
_atom_site_type_symbol
_atom_site_label
_atom_site_fract_x
_atom_site_fract_y
_atom_site_fract_z
Si Si1 0.574389 0.898696 0.081709
Si Si2 0.076998 0.675545 0.195291
Si Si3 0.934103 0.426551 0.260277
Si Si4 0.575367 0.789250 0.957041
Si Si5 0.643606 0.398410 0.118657
O O1 0.505286 0.813956 0.135474
O O2 0.472825 0.048744 0.068007
O O3 0.743041 0.968170 0.098555
O O4 0.571096 0.803559 0.024615
O O5 0.250000 0.750000 0.191727
O O6 0.994141 0.750000 0.250000
O O7 0.055741 0.504352 0.217111
O O8 0.944549 0.250000 0.250000
O O9 0.750000 0.472412 0.250000
O O10 0.957667 0.448993 0.327279
O O11 0.750000 0.750000 0.938702
O O12 0.458630 0.664169 0.932724
O O13 0.750000 0.250000 0.135942
#
# Coordination Sequence:
#
# PCOD9390111 Si02
#       5
#     8   8   8   8   8
#     4  10  22  43  65  89 135 183 224 278 345 421
#     4  11  26  44  64 102 147 180 216 286 369 416
#     4  11  19  40  74 102 125 178 243 291 329 408
#     4  10  23  39  64  98 130 175 231 294 341 393
#     4  10  19  38  67  99 126 171 239 286 340 407
#
# _framework density 22.431560999999999
#
# number of rings (size 3 to 8) (size 9 to 14) (size 15 to 20)
#    0.000    1.600    4.000    1.200    0.000   10.000 
#    0.000    2.000    0.000    0.000    0.000    0.000 
#    0.000    0.000    0.000    0.000    0.000    0.000 
#
# Total GULP energy -223542.206042 kJ/mol
# GULP energy per Si atom -5588.555151 kJ/mol
# Density = 2.238051 g / cm^3
# Si number density = 22.431561 Si / 1000 Ang^3
#
#
#
# Elastic Constant Matrix: (Units=GPa)
#
#
# Indices 1 2 3 4 5 6 
#
# 1 106.2728 56.5185 45.0158 0.0000 0.0000 0.0000
# 2 56.5185 59.6580 41.8342 0.0000 0.0000 0.0000
# 3 45.0158 41.8342 158.7250 0.0000 0.0000 0.0000
# 4 0.0000 0.0000 0.0000 24.6016 0.0000 0.0000
# 5 0.0000 0.0000 0.0000 0.0000 15.1266 0.0000
# 6 0.0000 0.0000 0.0000 0.0000 0.0000 32.0540
#
#
#
# Elastic Compliance Matrix: (Units=1/GPa)
#
#
# Indices 1 2 3 4 5 6 
#
# 1 0.019046 -0.017488 -0.000792 0.000000 0.000000 0.000000
# 2 -0.017488 0.036620 -0.004692 0.000000 0.000000 0.000000
# 3 -0.000792 -0.004692 0.007762 0.000000 0.000000 0.000000
# 4 0.000000 0.000000 0.000000 0.040648 0.000000 0.000000
# 5 0.000000 0.000000 0.000000 0.000000 0.066109 0.000000
# 6 0.000000 0.000000 0.000000 0.000000 0.000000 0.031197
#
#
# Mechanical properties :
#
#
# Convention : Reuss Voigt Hill
#
# Bulk Modulus (GPa) = 57.19892 67.93252 62.56572
# Shear Modulus (GPa) = 19.75084 26.44226 23.09655
#
# Velocity S-wave (km/s) = 2.97053 3.43709 3.21229
# Velocity P-wave (km/s) = 6.10901 6.78981 6.45839
#
# Compressibility (1/GPa) = 0.01748285
#
# Stress axis : x y z
#
# Youngs Moduli (GPa) = 52.50460 27.30742 128.83987
#
# Poissons Ratio (x) = 0.47755 0.10209
# Poissons Ratio (y) = 0.91820 0.60451
# Poissons Ratio (z) = 0.04160 0.12813
#
# Static dielectric constant tensor:
#      x y z
#    x 1.823930 0.000000 0.000000 
#    y 0.000000 1.968200 0.000000 
#    z 0.000000 0.000000 1.824530 
# 
# From -- ./inp_files/9011.got.cif
#   From: 2010.05.17/outbox.cif.g08.bks.cpg/sg48_5_cif.got.tgz:9011.got - 2010.06.03 20:39:00.
