data_PCOD9390906
_publ_section_title
;
Structure prediction by ZEFSAII (Michael W. Deem and Ramdas Pophale) SiO2 
 PCOD9390906
Probable space group: P N N N
;
_chemical_formula_sum "Si O2"
_cell_formula_units_Z 32
_cell_length_a 7.368959
_cell_length_b 5.333748
_cell_length_c 34.335065
_cell_angle_alpha 90.000000
_cell_angle_beta 90.000000
_cell_angle_gamma 90.000000
_cell_volume 1349.511243
_symmetry_space_group_name_H-M "P N N N"
_symmetry_group_IT_number 48
_space_group.IT_coordinate_system_code '2'
_symmetry_cell_setting 'orthorhombic'
loop_
_space_group_symop_operation_xyz
x,y,z
1/2-x,1/2-y,z
x,1/2-y,1/2-z
1/2-x,y,1/2-z
-x,-y,-z
1/2+x,1/2+y,-z
-x,1/2+y,1/2+z
1/2+x,-y,1/2+z
loop_
_atom_site_type_symbol
_atom_site_label
_atom_site_fract_x
_atom_site_fract_y
_atom_site_fract_z
Si Si1 0.468661 0.004075 0.545858
Si Si2 0.462516 0.308513 0.795498
Si Si3 0.553318 0.672768 0.660208
Si Si4 0.442180 0.987645 0.921003
O O1 0.545602 0.742784 0.560252
O O2 0.254995 0.998682 0.558223
O O3 0.500000 0.000000 0.500000
O O4 0.534084 0.248959 0.568925
O O5 0.250000 0.250000 0.802126
O O6 0.496851 0.250000 0.750000
O O7 0.493891 0.589942 0.812635
O O8 0.571125 0.085935 0.816376
O O9 0.750000 0.750000 0.644546
O O10 0.427522 0.588988 0.624094
#
# Coordination Sequence:
#
# PCOD9390906 Si02
#       4
#     8   8   8   8
#     4  10  21  41  67  92 125 175 238 293 361 423
#     4  11  26  46  75 108 144 191 246 301 358 430
#     4  12  26  45  71 106 151 194 239 298 367 446
#     4  10  23  41  65  98 132 179 232 296 362 426
#
# _framework density 23.712288999999998
#
# number of rings (size 3 to 8) (size 9 to 14) (size 15 to 20)
#    0.000    1.250    0.000    4.500   10.500    5.000 
#   13.500    0.000    0.000    0.000    0.000    0.000 
#    0.000    0.000    0.000    0.000    0.000    0.000 
#
# Total GULP energy -178591.782524 kJ/mol
# GULP energy per Si atom -5580.993204 kJ/mol
# Density = 2.365832 g / cm^3
# Si number density = 23.712289 Si / 1000 Ang^3
#
#
#
# Elastic Constant Matrix: (Units=GPa)
#
#
# Indices 1 2 3 4 5 6 
#
# 1 98.3148 15.3769 34.0624 0.0000 0.0000 0.0000
# 2 15.3769 263.4810 83.0845 0.0000 0.0000 0.0000
# 3 34.0624 83.0845 179.5745 0.0000 0.0000 0.0000
# 4 0.0000 0.0000 0.0000 51.2077 0.0000 0.0000
# 5 0.0000 0.0000 0.0000 0.0000 25.5972 0.0000
# 6 0.0000 0.0000 0.0000 0.0000 0.0000 5.3813
#
#
#
# Elastic Compliance Matrix: (Units=1/GPa)
#
#
# Indices 1 2 3 4 5 6 
#
# 1 0.010887 0.000019 -0.002074 0.000000 0.000000 0.000000
# 2 0.000019 0.004444 -0.002059 0.000000 0.000000 0.000000
# 3 -0.002074 -0.002059 0.006915 0.000000 0.000000 0.000000
# 4 0.000000 0.000000 0.000000 0.019528 0.000000 0.000000
# 5 0.000000 0.000000 0.000000 0.000000 0.039067 0.000000
# 6 0.000000 0.000000 0.000000 0.000000 0.000000 0.185829
#
#
# Mechanical properties :
#
#
# Convention : Reuss Voigt Hill
#
# Bulk Modulus (GPa) = 71.34533 89.60199 80.47366
# Shear Modulus (GPa) = 17.88455 43.69367 30.78911
#
# Velocity S-wave (km/s) = 2.74931 4.29728 3.60730
# Velocity P-wave (km/s) = 6.34283 7.90514 7.16669
#
# Compressibility (1/GPa) = 0.01401633
#
# Stress axis : x y z
#
# Youngs Moduli (GPa) = 91.85300 225.03841 144.61455
#
# Poissons Ratio (x) = -0.00417 0.29988
# Poissons Ratio (y) = -0.00170 0.29783
# Poissons Ratio (z) = 0.19047 0.46346
#
# Static dielectric constant tensor:
#      x y z
#    x 1.891120 0.000000 0.000000 
#    y 0.000000 1.914880 0.000000 
#    z 0.000000 0.000000 1.987760 
# 
# From -- ./inp_files/1141.got.cif
#   From: 2010.05.17/outbox.cif.g08.bks.cpg/sg48_1_cif.got.tgz:1141.got - 2010.06.03 20:39:00.
