data_PCOD9390970
_publ_section_title
;
Structure prediction by ZEFSAII (Michael W. Deem and Ramdas Pophale) SiO2 
 PCOD9390970
Probable space group: P N N N
;
_chemical_formula_sum "Si O2"
_cell_formula_units_Z 34
_cell_length_a 5.168863
_cell_length_b 19.401793
_cell_length_c 16.812328
_cell_angle_alpha 90.000000
_cell_angle_beta 90.000000
_cell_angle_gamma 90.000000
_cell_volume 1686.027844
_symmetry_space_group_name_H-M "P N N N"
_symmetry_group_IT_number 48
_space_group.IT_coordinate_system_code '2'
_symmetry_cell_setting 'orthorhombic'
loop_
_space_group_symop_operation_xyz
x,y,z
1/2-x,1/2-y,z
x,1/2-y,1/2-z
1/2-x,y,1/2-z
-x,-y,-z
1/2+x,1/2+y,-z
-x,1/2+y,1/2+z
1/2+x,-y,1/2+z
loop_
_atom_site_type_symbol
_atom_site_label
_atom_site_fract_x
_atom_site_fract_y
_atom_site_fract_z
Si Si1 0.557877 0.127030 0.823805
Si Si2 0.222728 0.667909 0.486973
Si Si3 0.750000 0.984292 0.250000
Si Si4 0.750000 0.750000 0.250000
Si Si5 0.721557 0.668137 0.590598
Si Si6 0.750000 0.579424 0.750000
O O1 0.750000 0.114496 0.750000
O O2 0.338298 0.068294 0.819886
O O3 0.421352 0.200118 0.805037
O O4 0.715490 0.130063 0.904864
O O5 0.250000 0.750000 0.471075
O O6 0.448855 0.652644 0.549584
O O7 0.949426 0.651994 0.527610
O O8 0.502562 0.032250 0.262034
O O9 0.750000 0.750000 0.606726
O O10 0.734362 0.626474 0.671894
#
# Coordination Sequence:
#
# PCOD9390970 Si02
#       6
#     8   8   4   2   8   4
#     4  11  23  41  63  96 134 173 214 253 317 387
#     4  10  22  38  64 100 132 156 204 271 329 380
#     4  11  26  41  67  90 129 182 218 260 301 392
#     4  10  22  32  68  98 118 184 206 258 318 386
#     4  10  23  41  68  98 122 161 212 278 331 381
#     4  12  23  48  66  87 126 174 222 268 326 375
#
# _framework density 20.165742000000002
#
# number of rings (size 3 to 8) (size 9 to 14) (size 15 to 20)
#    0.000    1.412    1.176    3.529   11.529    0.000 
#    0.000   11.765    0.000    0.000    0.000    0.000 
#    0.000    0.000    0.000    0.000    0.000    0.000 
#
# Total GULP energy -190084.373503 kJ/mol
# GULP energy per Si atom -5590.716868 kJ/mol
# Density = 2.011984 g / cm^3
# Si number density = 20.165742 Si / 1000 Ang^3
#
#
#
# Elastic Constant Matrix: (Units=GPa)
#
#
# Indices 1 2 3 4 5 6 
#
# 1 104.2090 51.5050 16.7064 0.0000 0.0000 0.0000
# 2 51.5050 88.1689 66.9180 0.0000 0.0000 0.0000
# 3 16.7064 66.9180 110.8928 0.0000 0.0000 0.0000
# 4 0.0000 0.0000 0.0000 -6.1729 0.0000 0.0000
# 5 0.0000 0.0000 0.0000 0.0000 17.8179 0.0000
# 6 0.0000 0.0000 0.0000 0.0000 0.0000 51.9820
#
#
#
# Elastic Compliance Matrix: (Units=1/GPa)
#
#
# Indices 1 2 3 4 5 6 
#
# 1 0.015201 -0.013177 0.005661 0.000000 0.000000 0.000000
# 2 -0.013177 0.032348 -0.017535 0.000000 0.000000 0.000000
# 3 0.005661 -0.017535 0.018746 0.000000 0.000000 0.000000
# 4 0.000000 0.000000 0.000000 -0.161998 0.000000 0.000000
# 5 0.000000 0.000000 0.000000 0.000000 0.056123 0.000000
# 6 0.000000 0.000000 0.000000 0.000000 0.000000 0.019237
#
#
# Mechanical properties :
#
#
# Convention : Reuss Voigt Hill
#
# Bulk Modulus (GPa) = 61.75005 63.72550 62.73778
# Shear Modulus (GPa) = 142.21544 23.93482 83.07513
#
# Velocity S-wave (km/s) = 8.40692 3.44889 6.42539
# Velocity P-wave (km/s) = 11.17689 6.89414 9.28580
#
# Compressibility (1/GPa) = 0.01619432
#
# Stress axis : x y z
#
# Youngs Moduli (GPa) = 65.78490 30.91377 53.34361
#
# Poissons Ratio (x) = 0.40734 -0.30200
# Poissons Ratio (y) = 0.86683 0.93539
# Poissons Ratio (z) = -0.37243 0.54208
#
# Static dielectric constant tensor:
#      x y z
#    x 1.728410 0.000000 0.000000 
#    y 0.000000 1.732230 0.000000 
#    z 0.000000 0.000000 1.673830 
# 
# From -- ./inp_files/3253.got.cif
#   From: 2010.05.17/outbox.cif.g08.bks.cpg/sg48_2_cif.got.tgz:3253.got - 2010.06.03 20:39:00.
