data_PCOD9390825
_publ_section_title
;
Structure prediction by ZEFSAII (Michael W. Deem and Ramdas Pophale) SiO2 
 PCOD9390825
Probable space group: P N N N
;
_chemical_formula_sum "Si O2"
_cell_formula_units_Z 38
_cell_length_a 14.692440
_cell_length_b 5.393494
_cell_length_c 20.318645
_cell_angle_alpha 90.000000
_cell_angle_beta 90.000000
_cell_angle_gamma 90.000000
_cell_volume 1610.122312
_symmetry_space_group_name_H-M "P N N N"
_symmetry_group_IT_number 48
_space_group.IT_coordinate_system_code '2'
_symmetry_cell_setting 'orthorhombic'
loop_
_space_group_symop_operation_xyz
x,y,z
1/2-x,1/2-y,z
x,1/2-y,1/2-z
1/2-x,y,1/2-z
-x,-y,-z
1/2+x,1/2+y,-z
-x,1/2+y,1/2+z
1/2+x,-y,1/2+z
loop_
_atom_site_type_symbol
_atom_site_label
_atom_site_fract_x
_atom_site_fract_y
_atom_site_fract_z
Si Si1 0.576559 0.577512 0.811164
Si Si2 0.108349 0.536172 0.986985
Si Si3 0.905720 0.543447 0.539099
Si Si4 0.250000 0.250000 0.250000
Si Si5 0.691236 0.494637 0.345153
Si Si6 0.940193 0.750000 0.250000
O O1 0.543558 0.750000 0.750000
O O2 0.573705 0.637428 0.887499
O O3 0.683549 0.575473 0.792731
O O4 0.510427 0.344701 0.804983
O O5 0.147343 0.269089 0.006624
O O6 0.138990 0.772951 0.030068
O O7 0.133631 0.567280 0.910840
O O8 0.000000 0.500000 0.000000
O O9 0.000000 0.500000 0.500000
O O10 0.750000 0.250000 0.332948
O O11 0.625161 0.553306 0.284436
O O12 0.750000 0.750000 0.353886
#
# Coordination Sequence:
#
# PCOD9390825 Si02
#       6
#     8   8   8   2   8   4
#     4  10  25  45  74 110 154 209 265 333 407 490
#     4  10  22  43  73  99 141 193 253 310 386 466
#     4  10  21  39  72 106 139 190 258 315 376 481
#     4   8  24  46  68 112 164 192 276 352 400 474
#     4  12  29  50  74 116 161 200 267 341 395 478
#     4  12  27  45  82 104 154 228 260 313 425 500
#
# _framework density 23.60069
#
# number of rings (size 3 to 8) (size 9 to 14) (size 15 to 20)
#    0.632    0.842    0.000    4.105   11.789    1.263 
#    5.684    0.000    0.000    0.000    0.000    0.000 
#    0.000    0.000    0.000    0.000    0.000    0.000 
#
# Total GULP energy -211887.305651 kJ/mol
# GULP energy per Si atom -5575.981728 kJ/mol
# Density = 2.354697 g / cm^3
# Si number density = 23.600690 Si / 1000 Ang^3
#
#
#
# Elastic Constant Matrix: (Units=GPa)
#
#
# Indices 1 2 3 4 5 6 
#
# 1 149.9746 47.0234 48.3418 0.0000 0.0000 0.0000
# 2 47.0234 169.4078 27.3378 0.0000 0.0000 0.0000
# 3 48.3418 27.3378 154.4677 0.0000 0.0000 0.0000
# 4 0.0000 0.0000 0.0000 33.2466 0.0000 0.0000
# 5 0.0000 0.0000 0.0000 0.0000 25.8316 0.0000
# 6 0.0000 0.0000 0.0000 0.0000 0.0000 137.6115
#
#
#
# Elastic Compliance Matrix: (Units=1/GPa)
#
#
# Indices 1 2 3 4 5 6 
#
# 1 0.007946 -0.001857 -0.002158 0.000000 0.000000 0.000000
# 2 -0.001857 0.006511 -0.000571 0.000000 0.000000 0.000000
# 3 -0.002158 -0.000571 0.007250 0.000000 0.000000 0.000000
# 4 0.000000 0.000000 0.000000 0.030078 0.000000 0.000000
# 5 0.000000 0.000000 0.000000 0.000000 0.038712 0.000000
# 6 0.000000 0.000000 0.000000 0.000000 0.000000 0.007267
#
#
# Mechanical properties :
#
#
# Convention : Reuss Voigt Hill
#
# Bulk Modulus (GPa) = 79.78262 79.91732 79.84997
# Shear Modulus (GPa) = 44.99863 62.74775 53.87319
#
# Velocity S-wave (km/s) = 4.37128 5.16188 4.78294
# Velocity P-wave (km/s) = 7.70428 8.33441 8.02553
#
# Compressibility (1/GPa) = 0.01253406
#
# Stress axis : x y z
#
# Youngs Moduli (GPa) = 125.85386 153.59567 137.92621
#
# Poissons Ratio (x) = 0.28527 0.29764
# Poissons Ratio (y) = 0.23375 0.07876
# Poissons Ratio (z) = 0.27159 0.08770
#
# Static dielectric constant tensor:
#      x y z
#    x 1.843020 0.000000 0.000000 
#    y 0.000000 1.972980 0.000000 
#    z 0.000000 0.000000 1.898460 
# 
# From -- ./inp_files/31841.got.cif
#   From: 2010.05.17/outbox.cif.g08.bks.cpg/sg48_16_cif.got.tgz:31841.got - 2010.06.03 20:39:00.
