data_PCOD9390056
_publ_section_title
;
Structure prediction by ZEFSAII (Michael W. Deem and Ramdas Pophale) SiO2 
 PCOD9390056
Probable space group: P N N N
;
_chemical_formula_sum "Si O2"
_cell_formula_units_Z 52
_cell_length_a 17.456587
_cell_length_b 7.115185
_cell_length_c 17.777851
_cell_angle_alpha 90.000000
_cell_angle_beta 90.000000
_cell_angle_gamma 90.000000
_cell_volume 2208.130801
_symmetry_space_group_name_H-M "P N N N"
_symmetry_group_IT_number 48
_space_group.IT_coordinate_system_code '2'
_symmetry_cell_setting 'orthorhombic'
loop_
_space_group_symop_operation_xyz
x,y,z
1/2-x,1/2-y,z
x,1/2-y,1/2-z
1/2-x,y,1/2-z
-x,-y,-z
1/2+x,1/2+y,-z
-x,1/2+y,1/2+z
1/2+x,-y,1/2+z
loop_
_atom_site_type_symbol
_atom_site_label
_atom_site_fract_x
_atom_site_fract_y
_atom_site_fract_z
Si Si1 0.639654 0.511568 0.854412
Si Si2 0.494622 0.976913 0.731117
Si Si3 0.227245 0.942980 0.011196
Si Si4 0.388657 0.142256 0.038306
Si Si5 0.366106 0.892345 0.623433
Si Si6 0.457289 0.496855 0.605432
Si Si7 0.250000 0.750000 0.750000
Si Si8 0.750000 0.750000 0.750000
O O1 0.573842 0.442865 0.799773
O O2 0.609488 0.668930 0.913066
O O3 0.699499 0.618169 0.802254
O O4 0.682551 0.380207 0.913418
O O5 0.506341 0.750000 0.750000
O O6 0.436152 0.994456 0.663423
O O7 0.460185 0.056075 0.807579
O O8 0.250000 0.750000 0.971674
O O9 0.170706 0.009790 0.945238
O O10 0.301127 0.065102 0.033569
O O11 0.453718 0.019834 0.080878
O O12 0.419650 0.141687 0.953822
O O13 0.406733 0.691833 0.598931
O O14 0.305753 0.858848 0.691720
#
# Coordination Sequence:
#
# PCOD9390056 Si02
#       8
#     8   8   8   8   8   8   2   2
#     4  12  23  39  68  88 125 170 226 256 313 380
#     4  10  19  37  61  96 114 161 217 267 300 390
#     4  12  25  39  58  97 132 162 204 276 327 377
#     4  11  20  38  62  94 122 169 212 258 316 387
#     4  11  20  35  60  96 126 157 207 263 323 381
#     4  10  19  36  66  89 123 160 212 263 317 381
#     4  12  16  30  64  96 126 152 200 268 310 366
#     4  12  20  38  66  92 112 172 222 268 288 382
#
# _framework density 23.549330000000001
#
# number of rings (size 3 to 8) (size 9 to 14) (size 15 to 20)
#    0.000    0.923   10.000    0.000    0.000    0.615 
#    0.000    0.385    0.000    2.769    0.000    0.000 
#    0.000    0.000    0.000    0.000    0.000    0.000 
#
# Total GULP energy -290287.006412 kJ/mol
# GULP energy per Si atom -5582.442431 kJ/mol
# Density = 2.349573 g / cm^3
# Si number density = 23.549330 Si / 1000 Ang^3
#
#
#
# Elastic Constant Matrix: (Units=GPa)
#
#
# Indices 1 2 3 4 5 6 
#
# 1 123.2080 14.5718 28.6427 0.0000 0.0000 0.0000
# 2 14.5718 48.1367 11.5529 0.0000 0.0000 0.0000
# 3 28.6427 11.5529 133.8885 0.0000 0.0000 0.0000
# 4 0.0000 0.0000 0.0000 32.5221 0.0000 0.0000
# 5 0.0000 0.0000 0.0000 0.0000 44.1116 0.0000
# 6 0.0000 0.0000 0.0000 0.0000 0.0000 48.2808
#
#
#
# Elastic Compliance Matrix: (Units=1/GPa)
#
#
# Indices 1 2 3 4 5 6 
#
# 1 0.008774 -0.002252 -0.001683 0.000000 0.000000 0.000000
# 2 -0.002252 0.021792 -0.001399 0.000000 0.000000 0.000000
# 3 -0.001683 -0.001399 0.007950 0.000000 0.000000 0.000000
# 4 0.000000 0.000000 0.000000 0.030748 0.000000 0.000000
# 5 0.000000 0.000000 0.000000 0.000000 0.022670 0.000000
# 6 0.000000 0.000000 0.000000 0.000000 0.000000 0.020712
#
#
# Mechanical properties :
#
#
# Convention : Reuss Voigt Hill
#
# Bulk Modulus (GPa) = 35.90880 46.08531 40.99706
# Shear Modulus (GPa) = 37.70887 41.68063 39.69475
#
# Velocity S-wave (km/s) = 4.00593 4.21162 4.11006
# Velocity P-wave (km/s) = 6.05624 6.57742 6.32220
#
# Compressibility (1/GPa) = 0.02784832
#
# Stress axis : x y z
#
# Youngs Moduli (GPa) = 113.97448 45.88924 125.79329
#
# Poissons Ratio (x) = 0.10335 0.21167
# Poissons Ratio (y) = 0.25669 0.17593
# Poissons Ratio (z) = 0.19178 0.06418
#
# Static dielectric constant tensor:
#      x y z
#    x 2.437050 0.000000 0.000000 
#    y 0.000000 2.209910 0.000000 
#    z 0.000000 0.000000 1.803350 
# 
# From -- ./inp_files/31987.got.cif
#   From: 2010.05.17/outbox.cif.g08.bks.cpg/sg48_16_cif.got.tgz:31987.got - 2010.06.03 20:39:00.
