data_PCOD9390472
_publ_section_title
;
Structure prediction by ZEFSAII (Michael W. Deem and Ramdas Pophale) SiO2 
 PCOD9390472
Probable space group: P N N N
;
_chemical_formula_sum "Si O2"
_cell_formula_units_Z 48
_cell_length_a 14.866514
_cell_length_b 8.638772
_cell_length_c 18.342745
_cell_angle_alpha 90.000000
_cell_angle_beta 90.000000
_cell_angle_gamma 90.000000
_cell_volume 2355.729848
_symmetry_space_group_name_H-M "P N N N"
_symmetry_group_IT_number 48
_space_group.IT_coordinate_system_code '2'
_symmetry_cell_setting 'orthorhombic'
loop_
_space_group_symop_operation_xyz
x,y,z
1/2-x,1/2-y,z
x,1/2-y,1/2-z
1/2-x,y,1/2-z
-x,-y,-z
1/2+x,1/2+y,-z
-x,1/2+y,1/2+z
1/2+x,-y,1/2+z
loop_
_atom_site_type_symbol
_atom_site_label
_atom_site_fract_x
_atom_site_fract_y
_atom_site_fract_z
Si Si1 0.345732 0.931202 0.767570
Si Si2 0.791112 0.917806 0.827057
Si Si3 0.967848 0.174454 0.627574
Si Si4 0.532404 0.021702 0.721690
Si Si5 0.669746 0.626664 0.406832
Si Si6 0.204851 0.592719 0.039441
O O1 0.344464 0.750000 0.750000
O O2 0.250000 0.003359 0.750000
O O3 0.426222 0.993988 0.718312
O O4 0.349803 0.983594 0.851101
O O5 0.750000 0.750000 0.842030
O O6 0.750000 0.975960 0.750000
O O7 0.897530 0.901107 0.811374
O O8 0.762944 0.032380 0.891540
O O9 0.946406 0.326493 0.674888
O O10 0.957149 0.044458 0.691219
O O11 0.894556 0.137211 0.567158
O O12 0.068414 0.196852 0.595215
O O13 0.750000 0.750000 0.388071
O O14 0.697681 0.545412 0.481825
O O15 0.250000 0.750000 0.009792
#
# Coordination Sequence:
#
# PCOD9390472 Si02
#       6
#     8   8   8   8   8   8
#     4  10  23  41  68  94 126 167 221 284 332 393
#     4  11  23  37  64  98 136 173 217 272 335 402
#     4  10  21  40  66  96 129 172 225 278 338 403
#     4  10  20  38  65  99 130 168 222 280 344 403
#     4  11  25  45  68  93 132 176 228 277 334 405
#     4  12  24  41  66  94 137 181 215 274 337 407
#
# _framework density 20.375851000000001
#
# number of rings (size 3 to 8) (size 9 to 14) (size 15 to 20)
#    0.000    1.333    3.333    2.000    4.667    2.000 
#    0.000    2.500    0.000    0.000    0.000    0.000 
#    0.000    0.000    0.000    0.000    0.000    0.000 
#
# Total GULP energy -267373.836732 kJ/mol
# GULP energy per Si atom -5570.288265 kJ/mol
# Density = 2.032947 g / cm^3
# Si number density = 20.375851 Si / 1000 Ang^3
#
#
#
# Elastic Constant Matrix: (Units=GPa)
#
#
# Indices 1 2 3 4 5 6 
#
# 1 151.3499 30.4666 19.6826 0.0000 0.0000 0.0000
# 2 30.4666 69.4987 29.2897 0.0000 0.0000 0.0000
# 3 19.6826 29.2897 65.6089 0.0000 0.0000 0.0000
# 4 0.0000 0.0000 0.0000 29.7758 0.0000 0.0000
# 5 0.0000 0.0000 0.0000 0.0000 18.1571 0.0000
# 6 0.0000 0.0000 0.0000 0.0000 0.0000 27.6694
#
#
#
# Elastic Compliance Matrix: (Units=1/GPa)
#
#
# Indices 1 2 3 4 5 6 
#
# 1 0.007293 -0.002802 -0.000937 0.000000 0.000000 0.000000
# 2 -0.002802 0.018800 -0.007552 0.000000 0.000000 0.000000
# 3 -0.000937 -0.007552 0.018894 0.000000 0.000000 0.000000
# 4 0.000000 0.000000 0.000000 0.033584 0.000000 0.000000
# 5 0.000000 0.000000 0.000000 0.000000 0.055075 0.000000
# 6 0.000000 0.000000 0.000000 0.000000 0.000000 0.036141
#
#
# Mechanical properties :
#
#
# Convention : Reuss Voigt Hill
#
# Bulk Modulus (GPa) = 44.63327 49.48171 47.05749
# Shear Modulus (GPa) = 25.02015 28.92169 26.97092
#
# Velocity S-wave (km/s) = 3.50799 3.77159 3.64218
# Velocity P-wave (km/s) = 6.19359 6.58056 6.39000
#
# Compressibility (1/GPa) = 0.02240481
#
# Stress axis : x y z
#
# Youngs Moduli (GPa) = 137.11502 53.19137 52.92572
#
# Poissons Ratio (x) = 0.14906 0.04959
# Poissons Ratio (y) = 0.38424 0.39970
# Poissons Ratio (z) = 0.12846 0.40171
#
# Static dielectric constant tensor:
#      x y z
#    x 1.814490 0.000000 0.000000 
#    y 0.000000 1.733490 0.000000 
#    z 0.000000 0.000000 1.754420 
# 
# From -- ./inp_files/31559.got.cif
#   From: 2010.05.17/outbox.cif.g08.bks.cpg/sg48_16_cif.got.tgz:31559.got - 2010.06.03 20:39:00.
