data_PCOD9390002
_publ_section_title
;
Structure prediction by ZEFSAII (Michael W. Deem and Ramdas Pophale) SiO2 
 PCOD9390002
Probable space group: P N N N
;
_chemical_formula_sum "Si O2"
_cell_formula_units_Z 58
_cell_length_a 8.974288
_cell_length_b 11.326861
_cell_length_c 26.422808
_cell_angle_alpha 90.000000
_cell_angle_beta 90.000000
_cell_angle_gamma 90.000000
_cell_volume 2685.891981
_symmetry_space_group_name_H-M "P N N N"
_symmetry_group_IT_number 48
_space_group.IT_coordinate_system_code '2'
_symmetry_cell_setting 'orthorhombic'
loop_
_space_group_symop_operation_xyz
x,y,z
1/2-x,1/2-y,z
x,1/2-y,1/2-z
1/2-x,y,1/2-z
-x,-y,-z
1/2+x,1/2+y,-z
-x,1/2+y,1/2+z
1/2+x,-y,1/2+z
loop_
_atom_site_type_symbol
_atom_site_label
_atom_site_fract_x
_atom_site_fract_y
_atom_site_fract_z
Si Si1 0.224165 0.881345 0.324238
Si Si2 0.250000 0.250000 0.750000
Si Si3 0.210394 0.981601 0.426838
Si Si4 0.700821 0.382567 0.469667
Si Si5 0.585232 0.591083 0.727330
Si Si6 0.937883 0.956435 0.195374
Si Si7 0.527896 0.686022 0.616135
Si Si8 0.962559 0.458240 0.408939
O O1 0.250000 0.750000 0.308233
O O2 0.387109 0.937904 0.318370
O O3 0.166018 0.894050 0.381300
O O4 0.112188 0.956483 0.291038
O O5 0.145365 0.157887 0.781772
O O6 0.389104 0.976010 0.426880
O O7 0.165226 0.112502 0.407874
O O8 0.140803 0.943341 0.479686
O O9 0.750000 0.250000 0.483683
O O10 0.603759 0.370229 0.418449
O O11 0.846712 0.453198 0.453899
O O12 0.750000 0.626048 0.750000
O O13 0.452685 0.570499 0.767481
O O14 0.540610 0.661616 0.676606
O O15 0.878948 0.988578 0.140025
O O16 0.511080 0.824830 0.606503
#
# Coordination Sequence:
#
# PCOD9390002 Si02
#       8
#     8   2   8   8   8   8   8   8
#     4   9  17  33  55  82 110 140 185 237 297 347
#     4  12  24  36  58  78 116 156 200 238 296 358
#     4  10  19  35  60  87 113 149 195 244 290 353
#     4  10  21  37  58  83 118 157 194 240 301 355
#     4   9  19  35  58  86 113 149 194 249 298 350
#     4  10  22  36  55  80 111 152 189 238 291 351
#     4  10  21  37  61  87 115 153 198 246 291 356
#     4  10  22  39  58  83 121 156 190 240 302 354
#
# _framework density 21.594315999999999
#
# number of rings (size 3 to 8) (size 9 to 14) (size 15 to 20)
#    0.000    2.207    0.000    3.310    1.931    2.483 
#    0.000    3.448    9.103    0.000    0.000    0.000 
#    0.000    0.000    0.000    0.000    0.000    0.000 
#
# Total GULP energy -323115.028273 kJ/mol
# GULP energy per Si atom -5570.948763 kJ/mol
# Density = 2.154517 g / cm^3
# Si number density = 21.594316 Si / 1000 Ang^3
#
#
#
# Elastic Constant Matrix: (Units=GPa)
#
#
# Indices 1 2 3 4 5 6 
#
# 1 40.3449 -4.2286 21.8171 0.0000 0.0000 0.0000
# 2 -4.2286 53.2684 29.3067 0.0000 0.0000 0.0000
# 3 21.8171 29.3067 150.8182 0.0000 0.0000 0.0000
# 4 0.0000 0.0000 0.0000 -15.6712 0.0000 0.0000
# 5 0.0000 0.0000 0.0000 0.0000 20.8877 0.0000
# 6 0.0000 0.0000 0.0000 0.0000 0.0000 16.8385
#
#
#
# Elastic Compliance Matrix: (Units=1/GPa)
#
#
# Indices 1 2 3 4 5 6 
#
# 1 0.028026 0.004989 -0.005024 0.000000 0.000000 0.000000
# 2 0.004989 0.021908 -0.004979 0.000000 0.000000 0.000000
# 3 -0.005024 -0.004979 0.008325 0.000000 0.000000 0.000000
# 4 0.000000 0.000000 0.000000 -0.063811 0.000000 0.000000
# 5 0.000000 0.000000 0.000000 0.000000 0.047875 0.000000
# 6 0.000000 0.000000 0.000000 0.000000 0.000000 0.059388
#
#
# Mechanical properties :
#
#
# Convention : Reuss Voigt Hill
#
# Bulk Modulus (GPa) = 20.73358 37.58020 29.15689
# Shear Modulus (GPa) = 39.11923 17.58009 28.34966
#
# Velocity S-wave (km/s) = 4.26085 2.85635 3.62723
# Velocity P-wave (km/s) = 5.81625 5.32155 5.57439
#
# Compressibility (1/GPa) = 0.04823094
#
# Stress axis : x y z
#
# Youngs Moduli (GPa) = 35.68156 45.64541 120.12516
#
# Poissons Ratio (x) = -0.22771 0.60345
# Poissons Ratio (y) = -0.17800 0.59807
# Poissons Ratio (z) = 0.17925 0.22726
#
# Static dielectric constant tensor:
#      x y z
#    x 1.847540 0.000000 0.000000 
#    y 0.000000 1.826200 0.000000 
#    z 0.000000 0.000000 1.882240 
# 
# From -- ./inp_files/37522.got.cif
#   From: 2010.05.17/outbox.cif.g08.bks.cpg/sg48_19_cif.got.tgz:37522.got - 2010.06.03 20:39:00.
