data_PCOD9390718
_publ_section_title
;
Structure prediction by ZEFSAII (Michael W. Deem and Ramdas Pophale) SiO2 
 PCOD9390718
Probable space group: P N N N
;
_chemical_formula_sum "Si O2"
_cell_formula_units_Z 36
_cell_length_a 17.978315
_cell_length_b 20.006226
_cell_length_c 5.034681
_cell_angle_alpha 90.000000
_cell_angle_beta 90.000000
_cell_angle_gamma 90.000000
_cell_volume 1810.865166
_symmetry_space_group_name_H-M "P N N N"
_symmetry_group_IT_number 48
_space_group.IT_coordinate_system_code '2'
_symmetry_cell_setting 'orthorhombic'
loop_
_space_group_symop_operation_xyz
x,y,z
1/2-x,1/2-y,z
x,1/2-y,1/2-z
1/2-x,y,1/2-z
-x,-y,-z
1/2+x,1/2+y,-z
-x,1/2+y,1/2+z
1/2+x,-y,1/2+z
loop_
_atom_site_type_symbol
_atom_site_label
_atom_site_fract_x
_atom_site_fract_y
_atom_site_fract_z
Si Si1 0.968488 0.621181 0.587250
Si Si2 0.544099 0.433565 0.578747
Si Si3 0.664249 0.531634 0.668272
Si Si4 0.078908 0.250000 0.750000
Si Si5 0.301414 0.337401 0.510847
O O1 0.892844 0.576517 0.643424
O O2 0.956218 0.692058 0.437742
O O3 0.019331 0.583488 0.373957
O O4 0.015273 0.620475 0.863912
O O5 0.500000 0.500000 0.500000
O O6 0.627719 0.461769 0.587429
O O7 0.750000 0.521562 0.750000
O O8 0.671664 0.586966 0.438744
O O9 0.128047 0.209330 0.534683
O O10 0.250000 0.318536 0.750000
O O11 0.250000 0.333151 0.250000
#
# Coordination Sequence:
#
# PCOD9390718 Si02
#       5
#     8   8   8   4   8
#     4  11  24  37  56  82 116 157 194 236 287 345
#     4  10  21  39  56  79 115 152 191 242 291 338
#     4  10  21  38  60  86 116 153 197 242 295 354
#     4  12  23  38  56  78 115 162 204 234 282 358
#     4  11  25  37  52  83 119 153 187 231 283 342
#
# _framework density 19.879999999999999
#
# number of rings (size 3 to 8) (size 9 to 14) (size 15 to 20)
#    0.000    1.333    0.000    8.333    0.000   15.111 
#    0.000    0.000    0.000    0.000    0.000    0.778 
#    0.000   14.222    0.000    0.000    0.000    0.444 
#
# Total GULP energy -200510.365092 kJ/mol
# GULP energy per Si atom -5569.732364 kJ/mol
# Density = 1.983475 g / cm^3
# Si number density = 19.880000 Si / 1000 Ang^3
#
#
#
# Elastic Constant Matrix: (Units=GPa)
#
#
# Indices 1 2 3 4 5 6 
#
# 1 115.6089 59.0730 35.2172 0.0000 0.0000 0.0000
# 2 59.0730 81.7174 18.5670 0.0000 0.0000 0.0000
# 3 35.2172 18.5670 106.5245 0.0000 0.0000 0.0000
# 4 0.0000 0.0000 0.0000 41.6264 0.0000 0.0000
# 5 0.0000 0.0000 0.0000 0.0000 11.7912 0.0000
# 6 0.0000 0.0000 0.0000 0.0000 0.0000 32.0347
#
#
#
# Elastic Compliance Matrix: (Units=1/GPa)
#
#
# Indices 1 2 3 4 5 6 
#
# 1 0.014649 -0.009881 -0.003121 0.000000 0.000000 0.000000
# 2 -0.009881 0.019406 -0.000116 0.000000 0.000000 0.000000
# 3 -0.003121 -0.000116 0.010439 0.000000 0.000000 0.000000
# 4 0.000000 0.000000 0.000000 0.024023 0.000000 0.000000
# 5 0.000000 0.000000 0.000000 0.000000 0.084809 0.000000
# 6 0.000000 0.000000 0.000000 0.000000 0.000000 0.031216
#
#
# Mechanical properties :
#
#
# Convention : Reuss Voigt Hill
#
# Bulk Modulus (GPa) = 54.76436 58.84057 56.80246
# Shear Modulus (GPa) = 23.05576 29.82339 26.43958
#
# Velocity S-wave (km/s) = 3.40920 3.87741 3.65082
# Velocity P-wave (km/s) = 6.56537 7.05038 6.81219
#
# Compressibility (1/GPa) = 0.01826005
#
# Stress axis : x y z
#
# Youngs Moduli (GPa) = 68.26210 51.52927 95.79017
#
# Poissons Ratio (x) = 0.50915 0.29895
# Poissons Ratio (y) = 0.67449 0.01110
# Poissons Ratio (z) = 0.21304 0.00597
#
# Static dielectric constant tensor:
#      x y z
#    x 1.935510 0.000000 0.000000 
#    y 0.000000 1.780350 0.000000 
#    z 0.000000 0.000000 2.353410 
# 
# From -- ./inp_files/4332.got.cif
#   From: 2010.05.17/outbox.cif.g08.bks.cpg/sg48_3_cif.got.tgz:4332.got - 2010.06.03 20:39:00.
