data_PCOD9390307
_publ_section_title
;
Structure prediction by ZEFSAII (Michael W. Deem and Ramdas Pophale) SiO2 
 PCOD9390307
Probable space group: P N N N
;
_chemical_formula_sum "Si O2"
_cell_formula_units_Z 40
_cell_length_a 17.448112
_cell_length_b 8.396604
_cell_length_c 15.587379
_cell_angle_alpha 90.000000
_cell_angle_beta 90.000000
_cell_angle_gamma 90.000000
_cell_volume 2283.627199
_symmetry_space_group_name_H-M "P N N N"
_symmetry_group_IT_number 48
_space_group.IT_coordinate_system_code '2'
_symmetry_cell_setting 'orthorhombic'
loop_
_space_group_symop_operation_xyz
x,y,z
1/2-x,1/2-y,z
x,1/2-y,1/2-z
1/2-x,y,1/2-z
-x,-y,-z
1/2+x,1/2+y,-z
-x,1/2+y,1/2+z
1/2+x,-y,1/2+z
loop_
_atom_site_type_symbol
_atom_site_label
_atom_site_fract_x
_atom_site_fract_y
_atom_site_fract_z
Si Si1 0.322447 0.076331 0.204079
Si Si2 0.481460 0.376178 0.073454
Si Si3 0.517452 0.437963 0.744685
Si Si4 0.060459 0.946047 0.573778
Si Si5 0.671474 0.824095 0.984356
O O1 0.335548 0.250000 0.250000
O O2 0.250000 0.001305 0.250000
O O3 0.302973 0.100928 0.105616
O O4 0.397402 0.972206 0.210808
O O5 0.483837 0.466813 0.165044
O O6 0.548146 0.242970 0.073309
O O7 0.399461 0.292650 0.046877
O O8 0.500000 0.500000 0.000000
O O9 0.503717 0.250000 0.750000
O O10 0.463112 0.503459 0.669610
O O11 0.136124 0.039890 0.545173
O O12 0.000000 0.000000 0.500000
O O13 0.750000 0.750000 0.021322
#
# Coordination Sequence:
#
# PCOD9390307 Si02
#       5
#     8   8   8   8   8
#     4  11  18  33  54  83 117 162 187 229 303 368
#     4  11  22  37  59  87 115 154 207 254 299 361
#     4  12  21  34  57  85 119 153 202 251 296 359
#     4  10  20  36  57  83 117 158 200 240 296 365
#     4  11  20  36  60  85 122 160 200 245 307 373
#
# _framework density 17.515993999999999
#
# number of rings (size 3 to 8) (size 9 to 14) (size 15 to 20)
#    0.000    1.000    8.000    3.000    0.000    0.400 
#    0.000    1.000    0.000    5.400    0.000    5.600 
#    0.000    0.000    0.000    0.000    0.000    0.000 
#
# Total GULP energy -222793.890748 kJ/mol
# GULP energy per Si atom -5569.847269 kJ/mol
# Density = 1.747613 g / cm^3
# Si number density = 17.515994 Si / 1000 Ang^3
#
#
#
# Elastic Constant Matrix: (Units=GPa)
#
#
# Indices 1 2 3 4 5 6 
#
# 1 98.9712 39.4350 35.5534 0.0000 0.0000 0.0000
# 2 39.4350 113.6987 40.4788 0.0000 0.0000 0.0000
# 3 35.5534 40.4788 72.1732 0.0000 0.0000 0.0000
# 4 0.0000 0.0000 0.0000 2.9993 0.0000 0.0000
# 5 0.0000 0.0000 0.0000 0.0000 29.7553 0.0000
# 6 0.0000 0.0000 0.0000 0.0000 0.0000 30.4847
#
#
#
# Elastic Compliance Matrix: (Units=1/GPa)
#
#
# Indices 1 2 3 4 5 6 
#
# 1 0.012940 -0.002772 -0.004820 0.000000 0.000000 0.000000
# 2 -0.002772 0.011583 -0.005131 0.000000 0.000000 0.000000
# 3 -0.004820 -0.005131 0.019107 0.000000 0.000000 0.000000
# 4 0.000000 0.000000 0.000000 0.333412 0.000000 0.000000
# 5 0.000000 0.000000 0.000000 0.000000 0.033607 0.000000
# 6 0.000000 0.000000 0.000000 0.000000 0.000000 0.032803
#
#
# Mechanical properties :
#
#
# Convention : Reuss Voigt Hill
#
# Bulk Modulus (GPa) = 54.98957 57.30862 56.14909
# Shear Modulus (GPa) = 10.52719 23.93958 17.23339
#
# Velocity S-wave (km/s) = 2.45420 3.70094 3.14007
# Velocity P-wave (km/s) = 6.28433 7.14503 6.72846
#
# Compressibility (1/GPa) = 0.01818527
#
# Stress axis : x y z
#
# Youngs Moduli (GPa) = 77.28069 86.33038 52.33552
#
# Poissons Ratio (x) = 0.23932 0.25223
# Poissons Ratio (y) = 0.21424 0.26853
# Poissons Ratio (z) = 0.37246 0.44296
#
# Static dielectric constant tensor:
#      x y z
#    x 1.602560 0.000000 0.000000 
#    y 0.000000 1.686450 0.000000 
#    z 0.000000 0.000000 1.592460 
# 
# From -- ./inp_files/12309.got.cif
#   From: 2010.05.17/outbox.cif.g08.bks.cpg/sg48_7_cif.got.tgz:12309.got - 2010.06.03 20:39:00.
