data_PCOD9390805
_publ_section_title
;
Structure prediction by ZEFSAII (Michael W. Deem and Ramdas Pophale) SiO2 
 PCOD9390805
Probable space group: P N N N
;
_chemical_formula_sum "Si O2"
_cell_formula_units_Z 58
_cell_length_a 24.784199
_cell_length_b 9.244771
_cell_length_c 10.731602
_cell_angle_alpha 90.000000
_cell_angle_beta 90.000000
_cell_angle_gamma 90.000000
_cell_volume 2458.870197
_symmetry_space_group_name_H-M "P N N N"
_symmetry_group_IT_number 48
_space_group.IT_coordinate_system_code '2'
_symmetry_cell_setting 'orthorhombic'
loop_
_space_group_symop_operation_xyz
x,y,z
1/2-x,1/2-y,z
x,1/2-y,1/2-z
1/2-x,y,1/2-z
-x,-y,-z
1/2+x,1/2+y,-z
-x,1/2+y,1/2+z
1/2+x,-y,1/2+z
loop_
_atom_site_type_symbol
_atom_site_label
_atom_site_fract_x
_atom_site_fract_y
_atom_site_fract_z
Si Si1 0.950707 0.607790 0.205236
Si Si2 0.693415 0.336472 0.867903
Si Si3 0.552435 0.903704 0.481813
Si Si4 0.639852 0.216354 0.103462
Si Si5 0.250000 0.250000 0.750000
Si Si6 0.988044 0.179938 0.382834
Si Si7 0.164198 0.113129 0.578071
Si Si8 0.343706 0.148854 0.368406
O O1 0.981755 0.750000 0.250000
O O2 0.987951 0.490490 0.141391
O O3 0.895038 0.642540 0.135688
O O4 0.929927 0.945815 0.157924
O O5 0.750000 0.250000 0.880230
O O6 0.666617 0.250000 0.750000
O O7 0.694417 0.509810 0.843132
O O8 0.664736 0.322251 0.001719
O O9 0.527334 0.745053 0.514340
O O10 0.600599 0.918642 0.579007
O O11 0.500000 0.000000 0.500000
O O12 0.652199 0.250000 0.250000
O O13 0.574840 0.213726 0.092107
O O14 0.661392 0.058734 0.058393
O O15 0.211149 0.146725 0.673203
O O16 0.002840 0.250000 0.250000
O O17 0.173620 0.231775 0.470798
O O18 0.353189 0.250000 0.250000
#
# Coordination Sequence:
#
# PCOD9390805 Si02
#       8
#     8   8   8   8   2   8   8   8
#     4  11  22  43  64  98 154 186 236 316 380 418
#     4  11  27  51  75 104 149 197 248 311 396 472
#     4  12  23  41  73 107 144 202 256 304 367 453
#     4  10  24  44  74 107 155 194 247 314 378 448
#     4  12  24  40  76 108 144 184 254 302 380 464
#     4  10  21  39  65 101 143 193 247 298 364 440
#     4  11  25  44  71 110 148 191 248 319 389 450
#     4  12  27  49  79 107 154 196 255 325 386 464
#
# _framework density 23.588069000000001
#
# number of rings (size 3 to 8) (size 9 to 14) (size 15 to 20)
#    0.000    0.966    3.448    2.069    7.724    0.828 
#    0.000    2.759    0.000    0.000    0.000    0.000 
#    0.000    0.000    0.000    0.000    0.000    0.000 
#
# Total GULP energy -323959.480376 kJ/mol
# GULP energy per Si atom -5585.508282 kJ/mol
# Density = 2.353438 g / cm^3
# Si number density = 23.588069 Si / 1000 Ang^3
#
#
#
# Elastic Constant Matrix: (Units=GPa)
#
#
# Indices 1 2 3 4 5 6 
#
# 1 81.6025 41.7156 37.6781 0.0000 0.0000 0.0000
# 2 41.7156 170.3263 33.7809 0.0000 0.0000 0.0000
# 3 37.6781 33.7809 127.6454 0.0000 0.0000 0.0000
# 4 0.0000 0.0000 0.0000 42.7541 0.0000 0.0000
# 5 0.0000 0.0000 0.0000 0.0000 27.0233 0.0000
# 6 0.0000 0.0000 0.0000 0.0000 0.0000 49.0176
#
#
#
# Elastic Compliance Matrix: (Units=1/GPa)
#
#
# Indices 1 2 3 4 5 6 
#
# 1 0.015567 -0.003062 -0.003785 0.000000 0.000000 0.000000
# 2 -0.003062 0.006799 -0.000895 0.000000 0.000000 0.000000
# 3 -0.003785 -0.000895 0.009188 0.000000 0.000000 0.000000
# 4 0.000000 0.000000 0.000000 0.023390 0.000000 0.000000
# 5 0.000000 0.000000 0.000000 0.000000 0.037005 0.000000
# 6 0.000000 0.000000 0.000000 0.000000 0.000000 0.020401
#
#
# Mechanical properties :
#
#
# Convention : Reuss Voigt Hill
#
# Bulk Modulus (GPa) = 62.22810 67.32483 64.77646
# Shear Modulus (GPa) = 37.54009 41.51899 39.52954
#
# Velocity S-wave (km/s) = 3.99367 4.19999 4.09813
# Velocity P-wave (km/s) = 6.90683 7.21968 7.06499
#
# Compressibility (1/GPa) = 0.01606991
#
# Stress axis : x y z
#
# Youngs Moduli (GPa) = 64.23677 147.08885 108.83357
#
# Poissons Ratio (x) = 0.45040 0.41191
# Poissons Ratio (y) = 0.19670 0.09745
# Poissons Ratio (z) = 0.24312 0.13170
#
# Static dielectric constant tensor:
#      x y z
#    x 1.853680 0.000000 0.000000 
#    y 0.000000 2.298490 0.000000 
#    z 0.000000 0.000000 2.125250 
# 
# From -- ./inp_files/23644.got.cif
#   From: 2010.05.17/outbox.cif.g08.bks.cpg/sg48_12_cif.got.tgz:23644.got - 2010.06.03 20:39:00.
