data_PCOD9390436
_publ_section_title
;
Structure prediction by ZEFSAII (Michael W. Deem and Ramdas Pophale) SiO2 
 PCOD9390436
Probable space group: P N N N
;
_chemical_formula_sum "Si O2"
_cell_formula_units_Z 42
_cell_length_a 8.739366
_cell_length_b 20.080017
_cell_length_c 12.135251
_cell_angle_alpha 90.000000
_cell_angle_beta 90.000000
_cell_angle_gamma 90.000000
_cell_volume 2129.574155
_symmetry_space_group_name_H-M "P N N N"
_symmetry_group_IT_number 48
_space_group.IT_coordinate_system_code '2'
_symmetry_cell_setting 'orthorhombic'
loop_
_space_group_symop_operation_xyz
x,y,z
1/2-x,1/2-y,z
x,1/2-y,1/2-z
1/2-x,y,1/2-z
-x,-y,-z
1/2+x,1/2+y,-z
-x,1/2+y,1/2+z
1/2+x,-y,1/2+z
loop_
_atom_site_type_symbol
_atom_site_label
_atom_site_fract_x
_atom_site_fract_y
_atom_site_fract_z
Si Si1 0.142581 0.970506 0.567290
Si Si2 0.161847 0.533180 0.363681
Si Si3 0.324263 0.372758 0.095643
Si Si4 0.006497 0.850411 0.697090
Si Si5 0.830139 0.597316 0.355083
Si Si6 0.250000 0.750000 0.750000
O O1 0.255093 0.939757 0.474200
O O2 0.081712 0.919566 0.658166
O O3 0.224139 0.033060 0.621922
O O4 0.000000 0.000000 0.500000
O O5 0.250000 0.543492 0.250000
O O6 0.161385 0.453153 0.385386
O O7 0.998406 0.566317 0.344877
O O8 0.456326 0.345646 0.175036
O O9 0.157431 0.348135 0.135781
O O10 0.335012 0.359880 0.966548
O O11 0.136283 0.795912 0.678864
O O12 0.750000 0.630741 0.250000
#
# Coordination Sequence:
#
# PCOD9390436 Si02
#       6
#     8   8   8   8   8   2
#     4  11  19  34  59  86 127 167 196 265 317 385
#     4  11  20  31  52  96 126 169 200 236 338 385
#     4  10  20  38  61  78 126 168 199 261 308 383
#     4  11  23  41  59  86 122 160 217 253 314 371
#     4  11  22  31  53  96 128 162 201 240 330 390
#     4  12  32  38  64  92 118 174 220 268 310 364
#
# _framework density 19.722251
#
# number of rings (size 3 to 8) (size 9 to 14) (size 15 to 20)
#    0.000    1.143    5.714    4.571    6.667    1.524 
#    0.000    0.000    0.000    0.000    0.000    7.333 
#    0.000    0.000    0.000    0.000    0.000    0.000 
#
# Total GULP energy -234453.572244 kJ/mol
# GULP energy per Si atom -5582.227911 kJ/mol
# Density = 1.967736 g / cm^3
# Si number density = 19.722251 Si / 1000 Ang^3
#
#
#
# Elastic Constant Matrix: (Units=GPa)
#
#
# Indices 1 2 3 4 5 6 
#
# 1 107.7936 15.6279 33.8982 0.0000 0.0000 0.0000
# 2 15.6279 27.1928 0.0515 0.0000 0.0000 0.0000
# 3 33.8982 0.0515 125.3366 0.0000 0.0000 0.0000
# 4 0.0000 0.0000 0.0000 3.4217 0.0000 0.0000
# 5 0.0000 0.0000 0.0000 0.0000 30.8492 0.0000
# 6 0.0000 0.0000 0.0000 0.0000 0.0000 23.6753
#
#
#
# Elastic Compliance Matrix: (Units=1/GPa)
#
#
# Indices 1 2 3 4 5 6 
#
# 1 0.011153 -0.006404 -0.003014 0.000000 0.000000 0.000000
# 2 -0.006404 0.040452 0.001715 0.000000 0.000000 0.000000
# 3 -0.003014 0.001715 0.008793 0.000000 0.000000 0.000000
# 4 0.000000 0.000000 0.000000 0.292250 0.000000 0.000000
# 5 0.000000 0.000000 0.000000 0.000000 0.032416 0.000000
# 6 0.000000 0.000000 0.000000 0.000000 0.000000 0.042238
#
#
# Mechanical properties :
#
#
# Convention : Reuss Voigt Hill
#
# Bulk Modulus (GPa) = 22.22576 39.94200 31.08388
# Shear Modulus (GPa) = 10.92409 25.63893 18.28151
#
# Velocity S-wave (km/s) = 2.35605 3.60946 3.04789
# Velocity P-wave (km/s) = 4.32379 6.13736 5.30859
#
# Compressibility (1/GPa) = 0.04499283
#
# Stress axis : x y z
#
# Youngs Moduli (GPa) = 89.66010 24.72080 113.72777
#
# Poissons Ratio (x) = 0.15832 0.34276
# Poissons Ratio (y) = 0.57420 -0.19509
# Poissons Ratio (z) = 0.27022 -0.04241
#
# Static dielectric constant tensor:
#      x y z
#    x 1.831550 0.000000 0.000000 
#    y 0.000000 1.680460 0.000000 
#    z 0.000000 0.000000 1.773320 
# 
# From -- ./inp_files/11166.got.cif
#   From: 2010.05.17/outbox.cif.g08.bks.cpg/sg48_6_cif.got.tgz:11166.got - 2010.06.03 20:39:00.
