data_PCOD9390562
_publ_section_title
;
Structure prediction by ZEFSAII (Michael W. Deem and Ramdas Pophale) SiO2 
 PCOD9390562
Probable space group: P N N N
;
_chemical_formula_sum "Si O2"
_cell_formula_units_Z 64
_cell_length_a 10.474344
_cell_length_b 8.980773
_cell_length_c 30.917860
_cell_angle_alpha 90.000000
_cell_angle_beta 90.000000
_cell_angle_gamma 90.000000
_cell_volume 2908.372158
_symmetry_space_group_name_H-M "P N N N"
_symmetry_group_IT_number 48
_space_group.IT_coordinate_system_code '2'
_symmetry_cell_setting 'orthorhombic'
loop_
_space_group_symop_operation_xyz
x,y,z
1/2-x,1/2-y,z
x,1/2-y,1/2-z
1/2-x,y,1/2-z
-x,-y,-z
1/2+x,1/2+y,-z
-x,1/2+y,1/2+z
1/2+x,-y,1/2+z
loop_
_atom_site_type_symbol
_atom_site_label
_atom_site_fract_x
_atom_site_fract_y
_atom_site_fract_z
Si Si1 0.666272 0.492005 0.598836
Si Si2 0.896102 0.574000 0.250184
Si Si3 0.945888 0.017948 0.923427
Si Si4 0.524873 0.599758 0.672842
Si Si5 0.539476 0.082166 0.333588
Si Si6 0.562106 0.676480 0.434214
Si Si7 0.604669 0.769942 0.974339
Si Si8 0.789863 0.410152 0.107590
O O1 0.797911 0.434565 0.578413
O O2 0.653939 0.551599 0.648029
O O3 0.558348 0.368375 0.594662
O O4 0.621590 0.625719 0.567115
O O5 0.887115 0.750000 0.250000
O O6 0.750000 0.511525 0.250000
O O7 0.974429 0.510128 0.209640
O O8 0.960345 0.534968 0.295528
O O9 0.053825 0.143641 0.929152
O O10 0.954883 0.885257 0.958371
O O11 0.957843 0.948567 0.875903
O O12 0.513261 0.768291 0.688670
O O13 0.419547 0.610104 0.634397
O O14 0.681110 0.075874 0.355521
O O15 0.533956 0.658709 0.485124
O O16 0.674342 0.560345 0.419876
O O17 0.750000 0.750000 0.991129
O O18 0.750000 0.250000 0.085181
#
# Coordination Sequence:
#
# PCOD9390562 Si02
#       8
#     8   8   8   8   8   8   8   8
#     4  10  22  44  64  88 128 179 224 263 332 401
#     4  11  24  38  63 100 136 165 209 275 338 401
#     4  11  24  40  65  95 131 175 222 274 334 396
#     4  10  20  41  65  89 128 176 218 266 327 405
#     4  11  22  38  66  94 130 173 217 265 339 402
#     4  11  23  39  67  94 130 172 222 277 333 397
#     4  10  22  42  63  93 129 169 221 283 332 393
#     4   9  21  38  61  97 130 174 213 268 333 403
#
# _framework density 22.005438999999999
#
# number of rings (size 3 to 8) (size 9 to 14) (size 15 to 20)
#    0.000    1.625    2.500    1.500    5.250    0.500 
#    0.000    0.625    0.000    2.250    0.000    0.000 
#    0.000    0.000    0.000    0.000    0.000    0.000 
#
# Total GULP energy -356408.870490 kJ/mol
# GULP energy per Si atom -5568.888601 kJ/mol
# Density = 2.195535 g / cm^3
# Si number density = 22.005439 Si / 1000 Ang^3
#
#
#
# Elastic Constant Matrix: (Units=GPa)
#
#
# Indices 1 2 3 4 5 6 
#
# 1 47.4759 18.5827 9.4247 0.0000 0.0000 0.0000
# 2 18.5827 133.4187 39.6908 0.0000 0.0000 0.0000
# 3 9.4247 39.6908 83.3851 0.0000 0.0000 0.0000
# 4 0.0000 0.0000 0.0000 42.8096 0.0000 0.0000
# 5 0.0000 0.0000 0.0000 0.0000 7.5676 0.0000
# 6 0.0000 0.0000 0.0000 0.0000 0.0000 18.8067
#
#
#
# Elastic Compliance Matrix: (Units=1/GPa)
#
#
# Indices 1 2 3 4 5 6 
#
# 1 0.022384 -0.002755 -0.001219 0.000000 0.000000 0.000000
# 2 -0.002755 0.009071 -0.004006 0.000000 0.000000 0.000000
# 3 -0.001219 -0.004006 0.014037 0.000000 0.000000 0.000000
# 4 0.000000 0.000000 0.000000 0.023359 0.000000 0.000000
# 5 0.000000 0.000000 0.000000 0.000000 0.132142 0.000000
# 6 0.000000 0.000000 0.000000 0.000000 0.000000 0.053173
#
#
# Mechanical properties :
#
#
# Convention : Reuss Voigt Hill
#
# Bulk Modulus (GPa) = 33.86173 44.40845 39.13509
# Shear Modulus (GPa) = 17.85912 26.94221 22.40067
#
# Velocity S-wave (km/s) = 2.85191 3.50286 3.19401
# Velocity P-wave (km/s) = 5.12502 6.04851 5.60581
#
# Compressibility (1/GPa) = 0.02953186
#
# Stress axis : x y z
#
# Youngs Moduli (GPa) = 44.67555 110.24448 71.23917
#
# Poissons Ratio (x) = 0.30374 0.08681
# Poissons Ratio (y) = 0.12309 0.28540
# Poissons Ratio (z) = 0.05444 0.44166
#
# Static dielectric constant tensor:
#      x y z
#    x 1.959470 0.000000 0.000000 
#    y 0.000000 1.939580 0.000000 
#    z 0.000000 0.000000 1.771050 
# 
# From -- ./inp_files/38975.got.cif
#   From: 2010.05.17/outbox.cif.g08.bks.cpg/sg48_20_cif.got.tgz:38975.got - 2010.06.03 20:39:00.
