data_PCOD9390229
_publ_section_title
;
Structure prediction by ZEFSAII (Michael W. Deem and Ramdas Pophale) SiO2 
 PCOD9390229
Probable space group: P N N N
;
_chemical_formula_sum "Si O2"
_cell_formula_units_Z 60
_cell_length_a 15.406734
_cell_length_b 14.983807
_cell_length_c 11.953880
_cell_angle_alpha 90.000000
_cell_angle_beta 90.000000
_cell_angle_gamma 90.000000
_cell_volume 2759.571473
_symmetry_space_group_name_H-M "P N N N"
_symmetry_group_IT_number 48
_space_group.IT_coordinate_system_code '2'
_symmetry_cell_setting 'orthorhombic'
loop_
_space_group_symop_operation_xyz
x,y,z
1/2-x,1/2-y,z
x,1/2-y,1/2-z
1/2-x,y,1/2-z
-x,-y,-z
1/2+x,1/2+y,-z
-x,1/2+y,1/2+z
1/2+x,-y,1/2+z
loop_
_atom_site_type_symbol
_atom_site_label
_atom_site_fract_x
_atom_site_fract_y
_atom_site_fract_z
Si Si1 0.173606 0.866960 0.660293
Si Si2 0.292955 0.165746 0.475688
Si Si3 0.072960 0.860206 0.057875
Si Si4 0.450383 0.061526 0.364700
Si Si5 0.522511 0.827857 0.830017
Si Si6 0.931065 0.779921 0.416830
Si Si7 0.250000 0.750000 0.470637
Si Si8 0.179457 0.423234 0.845889
O O1 0.250000 0.849705 0.750000
O O2 0.203672 0.824682 0.545079
O O3 0.080915 0.823812 0.678810
O O4 0.160032 0.972706 0.657130
O O5 0.250000 0.250000 0.411698
O O6 0.363922 0.108081 0.412377
O O7 0.346591 0.217384 0.572247
O O8 0.223716 0.102813 0.535875
O O9 0.167737 0.812688 0.071940
O O10 0.031740 0.888763 0.932237
O O11 0.009428 0.785502 0.107382
O O12 0.058783 0.956589 0.113965
O O13 0.453835 0.081853 0.233703
O O14 0.559070 0.750000 0.750000
O O15 0.550473 0.816794 0.957361
O O16 0.904974 0.861044 0.337686
O O17 0.250000 0.405510 0.750000
#
# Coordination Sequence:
#
# PCOD9390229 Si02
#       8
#     8   8   8   8   8   8   4   8
#     4  11  22  33  59  94 132 164 214 272 343 390
#     4   9  18  35  58  83 117 160 206 264 323 390
#     4  10  20  34  59  92 129 183 219 268 339 414
#     4  10  20  36  59  89 135 164 225 272 331 416
#     4  12  20  38  60  94 130 172 213 279 333 407
#     4  10  21  39  60  90 127 174 215 269 343 399
#     4  12  19  36  58  98 135 172 214 278 334 402
#     4  10  23  41  61  93 128 162 214 285 339 407
#
# _framework density 21.742507
#
# number of rings (size 3 to 8) (size 9 to 14) (size 15 to 20)
#    0.000    1.600    4.000    2.600    0.000    8.267 
#    0.000    4.667    0.000    0.000    0.000    0.933 
#    0.000    0.000    0.000    0.000    0.000    0.000 
#
# Total GULP energy -334356.435373 kJ/mol
# GULP energy per Si atom -5572.607256 kJ/mol
# Density = 2.169302 g / cm^3
# Si number density = 21.742507 Si / 1000 Ang^3
#
#
#
# Elastic Constant Matrix: (Units=GPa)
#
#
# Indices 1 2 3 4 5 6 
#
# 1 97.8429 52.9200 19.9165 0.0000 0.0000 0.0000
# 2 52.9200 144.0834 38.3269 0.0000 0.0000 0.0000
# 3 19.9165 38.3269 48.6694 0.0000 0.0000 0.0000
# 4 0.0000 0.0000 0.0000 26.3366 0.0000 0.0000
# 5 0.0000 0.0000 0.0000 0.0000 10.8157 0.0000
# 6 0.0000 0.0000 0.0000 0.0000 0.0000 29.7454
#
#
#
# Elastic Compliance Matrix: (Units=1/GPa)
#
#
# Indices 1 2 3 4 5 6 
#
# 1 0.012900 -0.004217 -0.001958 0.000000 0.000000 0.000000
# 2 -0.004217 0.010158 -0.006274 0.000000 0.000000 0.000000
# 3 -0.001958 -0.006274 0.026289 0.000000 0.000000 0.000000
# 4 0.000000 0.000000 0.000000 0.037970 0.000000 0.000000
# 5 0.000000 0.000000 0.000000 0.000000 0.092458 0.000000
# 6 0.000000 0.000000 0.000000 0.000000 0.000000 0.033619
#
#
# Mechanical properties :
#
#
# Convention : Reuss Voigt Hill
#
# Bulk Modulus (GPa) = 40.90145 56.99138 48.94642
# Shear Modulus (GPa) = 20.28885 25.34169 22.81527
#
# Velocity S-wave (km/s) = 3.05805 3.41770 3.24287
# Velocity P-wave (km/s) = 5.59656 6.46862 6.04833
#
# Compressibility (1/GPa) = 0.02444901
#
# Stress axis : x y z
#
# Youngs Moduli (GPa) = 77.51973 98.44265 38.03930
#
# Poissons Ratio (x) = 0.41515 0.07448
# Poissons Ratio (y) = 0.32691 0.23865
# Poissons Ratio (z) = 0.15178 0.61761
#
# Static dielectric constant tensor:
#      x y z
#    x 1.844040 0.000000 0.000000 
#    y 0.000000 1.811940 0.000000 
#    z 0.000000 0.000000 1.836590 
# 
# From -- ./inp_files/27455.got.cif
#   From: 2010.05.17/outbox.cif.g08.bks.cpg/sg48_14_cif.got.tgz:27455.got - 2010.06.03 20:39:00.
