data_PCOD9390221
_publ_section_title
;
Structure prediction by ZEFSAII (Michael W. Deem and Ramdas Pophale) SiO2 
 PCOD9390221
Probable space group: P N N N
;
_chemical_formula_sum "Si O2"
_cell_formula_units_Z 60
_cell_length_a 12.272539
_cell_length_b 11.703809
_cell_length_c 22.677282
_cell_angle_alpha 90.000000
_cell_angle_beta 90.000000
_cell_angle_gamma 90.000000
_cell_volume 3257.261659
_symmetry_space_group_name_H-M "P N N N"
_symmetry_group_IT_number 48
_space_group.IT_coordinate_system_code '2'
_symmetry_cell_setting 'orthorhombic'
loop_
_space_group_symop_operation_xyz
x,y,z
1/2-x,1/2-y,z
x,1/2-y,1/2-z
1/2-x,y,1/2-z
-x,-y,-z
1/2+x,1/2+y,-z
-x,1/2+y,1/2+z
1/2+x,-y,1/2+z
loop_
_atom_site_type_symbol
_atom_site_label
_atom_site_fract_x
_atom_site_fract_y
_atom_site_fract_z
Si Si1 0.059897 0.599453 0.188848
Si Si2 0.767431 0.386641 0.610216
Si Si3 0.575946 0.495005 0.404988
Si Si4 0.250000 0.250000 0.989662
Si Si5 0.665971 0.150032 0.489016
Si Si6 0.175273 0.047195 0.904171
Si Si7 0.984097 0.368706 0.674888
Si Si8 0.020610 0.180165 0.495328
O O1 0.177129 0.578820 0.157971
O O2 0.047305 0.594060 0.258910
O O3 0.022371 0.729995 0.173896
O O4 0.984727 0.509286 0.156171
O O5 0.750000 0.250000 0.606693
O O6 0.768755 0.418551 0.540958
O O7 0.886449 0.413077 0.634141
O O8 0.702632 0.505558 0.390622
O O9 0.541240 0.386507 0.443357
O O10 0.536803 0.599699 0.447479
O O11 0.197244 0.153915 0.947433
O O12 0.144106 0.292876 0.024427
O O13 0.750000 0.250000 0.469325
O O14 0.557494 0.214213 0.511921
O O15 0.628666 0.060045 0.440388
O O16 0.098139 0.086934 0.851033
#
# Coordination Sequence:
#
# PCOD9390221 Si02
#       8
#     8   8   8   4   8   8   8   8
#     4  10  20  34  56  79 114 154 191 232 287 341
#     4   9  18  31  54  81 115 145 186 232 291 346
#     4  10  20  35  55  78 113 155 188 230 281 359
#     4  10  22  34  52  85 118 151 182 236 296 356
#     4  11  20  35  58  86 114 155 189 234 288 347
#     4  11  22  36  55  83 122 146 187 236 287 346
#     4  10  20  35  52  83 114 149 192 241 283 335
#     4  10  20  35  54  80 118 148 191 231 293 349
#
# _framework density 18.420380000000002
#
# number of rings (size 3 to 8) (size 9 to 14) (size 15 to 20)
#    0.000    1.867    1.333    5.200    3.733    4.267 
#    0.000    1.333    0.000    0.800    0.000    0.000 
#    0.000    0.000    0.000    0.000    0.000    0.000 
#
# Total GULP energy -334404.087332 kJ/mol
# GULP energy per Si atom -5573.401456 kJ/mol
# Density = 1.837845 g / cm^3
# Si number density = 18.420380 Si / 1000 Ang^3
#
#
#
# Elastic Constant Matrix: (Units=GPa)
#
#
# Indices 1 2 3 4 5 6 
#
# 1 100.8126 19.0237 10.1651 0.0000 0.0000 0.0000
# 2 19.0237 36.5281 19.7836 0.0000 0.0000 0.0000
# 3 10.1651 19.7836 56.8993 0.0000 0.0000 0.0000
# 4 0.0000 0.0000 0.0000 17.5406 0.0000 0.0000
# 5 0.0000 0.0000 0.0000 0.0000 24.7361 0.0000
# 6 0.0000 0.0000 0.0000 0.0000 0.0000 18.3754
#
#
#
# Elastic Compliance Matrix: (Units=1/GPa)
#
#
# Indices 1 2 3 4 5 6 
#
# 1 0.011001 -0.005747 0.000033 0.000000 0.000000 0.000000
# 2 -0.005747 0.036730 -0.011744 0.000000 0.000000 0.000000
# 3 0.000033 -0.011744 0.021652 0.000000 0.000000 0.000000
# 4 0.000000 0.000000 0.000000 0.057011 0.000000 0.000000
# 5 0.000000 0.000000 0.000000 0.000000 0.040427 0.000000
# 6 0.000000 0.000000 0.000000 0.000000 0.000000 0.054420
#
#
# Mechanical properties :
#
#
# Convention : Reuss Voigt Hill
#
# Bulk Modulus (GPa) = 29.01362 32.46498 30.73930
# Shear Modulus (GPa) = 18.68143 21.81493 20.24818
#
# Velocity S-wave (km/s) = 3.18806 3.44507 3.31906
# Velocity P-wave (km/s) = 5.41633 5.78684 5.60465
#
# Compressibility (1/GPa) = 0.03446657
#
# Stress axis : x y z
#
# Youngs Moduli (GPa) = 90.90476 27.22593 46.18424
#
# Poissons Ratio (x) = 0.15646 -0.00152
# Poissons Ratio (y) = 0.52242 0.54239
# Poissons Ratio (z) = -0.00299 0.31974
#
# Static dielectric constant tensor:
#      x y z
#    x 1.702980 0.000000 0.000000 
#    y 0.000000 1.663010 0.000000 
#    z 0.000000 0.000000 1.646750 
# 
# From -- ./inp_files/22941.got.cif
#   From: 2010.05.17/outbox.cif.g08.bks.cpg/sg48_12_cif.got.tgz:22941.got - 2010.06.03 20:39:00.
