data_PCOD9390265
_publ_section_title
;
Structure prediction by ZEFSAII (Michael W. Deem and Ramdas Pophale) SiO2 
 PCOD9390265
Probable space group: P N N N
;
_chemical_formula_sum "Si O2"
_cell_formula_units_Z 64
_cell_length_a 7.695206
_cell_length_b 15.567691
_cell_length_c 20.717605
_cell_angle_alpha 90.000000
_cell_angle_beta 90.000000
_cell_angle_gamma 90.000000
_cell_volume 2481.898415
_symmetry_space_group_name_H-M "P N N N"
_symmetry_group_IT_number 48
_space_group.IT_coordinate_system_code '2'
_symmetry_cell_setting 'orthorhombic'
loop_
_space_group_symop_operation_xyz
x,y,z
1/2-x,1/2-y,z
x,1/2-y,1/2-z
1/2-x,y,1/2-z
-x,-y,-z
1/2+x,1/2+y,-z
-x,1/2+y,1/2+z
1/2+x,-y,1/2+z
loop_
_atom_site_type_symbol
_atom_site_label
_atom_site_fract_x
_atom_site_fract_y
_atom_site_fract_z
Si Si1 0.047005 0.340385 0.777143
Si Si2 0.083891 0.293885 0.140895
Si Si3 0.474389 0.421727 0.589961
Si Si4 0.698179 0.410910 0.353666
Si Si5 0.492528 0.526681 0.178714
Si Si6 0.058303 0.850010 0.955675
Si Si7 0.147169 0.163570 0.924080
Si Si8 0.248735 0.458820 0.420432
O O1 0.980639 0.250000 0.750000
O O2 0.250000 0.343975 0.750000
O O3 0.005461 0.351746 0.852971
O O4 0.966945 0.423291 0.744000
O O5 0.250000 0.250000 0.174640
O O6 0.011533 0.220077 0.094638
O O7 0.152960 0.370469 0.094664
O O8 0.924889 0.339262 0.178041
O O9 0.408008 0.503997 0.629859
O O10 0.312092 0.390447 0.546891
O O11 0.640148 0.460648 0.553632
O O12 0.869068 0.448401 0.318548
O O13 0.760058 0.373712 0.423475
O O14 0.571661 0.601031 0.130780
O O15 0.315882 0.492681 0.149338
O O16 0.936143 0.934505 0.951360
O O17 0.009038 0.816789 0.026626
O O18 0.250000 0.250000 0.904141
#
# Coordination Sequence:
#
# PCOD9390265 Si02
#       8
#     8   8   8   8   8   8   8   8
#     4  11  20  37  63  88 112 150 195 233 287 342
#     4   9  17  34  57  81 112 147 192 229 279 342
#     4  10  21  36  58  84 114 152 194 236 290 341
#     4   9  18  33  56  85 111 147 192 237 280 340
#     4  10  21  36  58  86 116 150 194 239 286 339
#     4  10  20  35  56  82 114 153 194 234 286 342
#     4  11  21  36  55  79 114 153 195 240 280 341
#     4   9  20  37  53  83 117 151 190 239 288 341
#
# _framework density 25.786711
#
# number of rings (size 3 to 8) (size 9 to 14) (size 15 to 20)
#    0.000    2.125    2.500    2.250    0.000    5.500 
#    0.000    9.375    0.000    0.000    0.000  117.250 
#    0.000    0.000    0.000    0.000    0.000    0.000 
#
# Total GULP energy -357093.099215 kJ/mol
# GULP energy per Si atom -5579.579675 kJ/mol
# Density = 2.572802 g / cm^3
# Si number density = 25.786711 Si / 1000 Ang^3
#
#
#
# Elastic Constant Matrix: (Units=GPa)
#
#
# Indices 1 2 3 4 5 6 
#
# 1 88.4577 46.9934 5.6289 0.0000 0.0000 0.0000
# 2 46.9934 121.6735 30.9365 0.0000 0.0000 0.0000
# 3 5.6289 30.9365 58.1960 0.0000 0.0000 0.0000
# 4 0.0000 0.0000 0.0000 10.9454 0.0000 0.0000
# 5 0.0000 0.0000 0.0000 0.0000 20.2529 0.0000
# 6 0.0000 0.0000 0.0000 0.0000 0.0000 8.6051
#
#
#
# Elastic Compliance Matrix: (Units=1/GPa)
#
#
# Indices 1 2 3 4 5 6 
#
# 1 0.014386 -0.006015 0.001806 0.000000 0.000000 0.000000
# 2 -0.006015 0.012018 -0.005807 0.000000 0.000000 0.000000
# 3 0.001806 -0.005807 0.020096 0.000000 0.000000 0.000000
# 4 0.000000 0.000000 0.000000 0.091363 0.000000 0.000000
# 5 0.000000 0.000000 0.000000 0.000000 0.049376 0.000000
# 6 0.000000 0.000000 0.000000 0.000000 0.000000 0.116210
#
#
# Mechanical properties :
#
#
# Convention : Reuss Voigt Hill
#
# Bulk Modulus (GPa) = 37.78238 48.38274 43.08256
# Shear Modulus (GPa) = 15.04651 20.27858 17.66254
#
# Velocity S-wave (km/s) = 2.41819 2.80732 2.61999
# Velocity P-wave (km/s) = 4.74137 5.41400 5.08881
#
# Compressibility (1/GPa) = 0.02646736
#
# Stress axis : x y z
#
# Youngs Moduli (GPa) = 69.51422 83.20516 49.76212
#
# Poissons Ratio (x) = 0.50051 -0.08988
# Poissons Ratio (y) = 0.41815 0.28897
# Poissons Ratio (z) = -0.12556 0.48318
#
# Static dielectric constant tensor:
#      x y z
#    x 2.228700 0.000000 0.000000 
#    y 0.000000 2.019380 0.000000 
#    z 0.000000 0.000000 2.112930 
# 
# From -- ./inp_files/35984.got.cif
#   From: 2010.05.17/outbox.cif.g08.bks.cpg/sg48_18_cif.got.tgz:35984.got - 2010.06.03 20:39:00.
