data_PCOD9390617
_publ_section_title
;
Structure prediction by ZEFSAII (Michael W. Deem and Ramdas Pophale) SiO2 
 PCOD9390617
Probable space group: P N N N
;
_chemical_formula_sum "Si O2"
_cell_formula_units_Z 34
_cell_length_a 4.901330
_cell_length_b 13.726430
_cell_length_c 23.612867
_cell_angle_alpha 90.000000
_cell_angle_beta 90.000000
_cell_angle_gamma 90.000000
_cell_volume 1588.620873
_symmetry_space_group_name_H-M "P N N N"
_symmetry_group_IT_number 48
_space_group.IT_coordinate_system_code '2'
_symmetry_cell_setting 'orthorhombic'
loop_
_space_group_symop_operation_xyz
x,y,z
1/2-x,1/2-y,z
x,1/2-y,1/2-z
1/2-x,y,1/2-z
-x,-y,-z
1/2+x,1/2+y,-z
-x,1/2+y,1/2+z
1/2+x,-y,1/2+z
loop_
_atom_site_type_symbol
_atom_site_label
_atom_site_fract_x
_atom_site_fract_y
_atom_site_fract_z
Si Si1 0.380438 0.848729 0.993565
Si Si2 0.250000 0.250000 0.399604
Si Si3 0.529487 0.432758 0.608624
Si Si4 0.947829 0.067033 0.103596
Si Si5 0.250000 0.750000 0.177055
Si Si6 0.250000 0.250000 0.750000
O O1 0.250000 0.750000 0.018282
O O2 0.568325 0.815251 0.941651
O O3 0.147693 0.907657 0.960515
O O4 0.535931 0.900776 0.044107
O O5 0.448597 0.170660 0.370602
O O6 0.300779 0.506805 0.630952
O O7 0.598540 0.336193 0.643696
O O8 0.804577 0.493417 0.603929
O O9 0.512472 0.701291 0.210413
#
# Coordination Sequence:
#
# PCOD9390617 Si02
#       6
#     8   4   8   8   4   2
#     4  10  21  34  51  76 121 173 206 249 285 327
#     4  10  22  37  48  76 118 182 206 240 289 332
#     4  12  23  36  58  86 114 154 217 251 287 357
#     4  11  23  35  53  78 122 169 209 245 289 328
#     4  11  24  44  66  94 116 154 198 258 314 397
#     4  10  24  48  68  82 124 152 176 262 358 362
#
# _framework density 21.40221
#
# number of rings (size 3 to 8) (size 9 to 14) (size 15 to 20)
#    0.000    1.176    3.529    2.824    6.588    0.941 
#    0.000    0.000    0.000    0.000    0.000    0.000 
#    0.000   26.353    0.471    0.000    0.000    0.000 
#
# Total GULP energy -189363.540646 kJ/mol
# GULP energy per Si atom -5569.515901 kJ/mol
# Density = 2.135350 g / cm^3
# Si number density = 21.402210 Si / 1000 Ang^3
#
#
#
# Elastic Constant Matrix: (Units=GPa)
#
#
# Indices 1 2 3 4 5 6 
#
# 1 132.7592 60.9605 15.1818 0.0000 0.0000 0.0000
# 2 60.9605 114.1704 29.5535 0.0000 0.0000 0.0000
# 3 15.1818 29.5535 21.3667 0.0000 0.0000 0.0000
# 4 0.0000 0.0000 0.0000 -3.1265 0.0000 0.0000
# 5 0.0000 0.0000 0.0000 0.0000 3.1100 0.0000
# 6 0.0000 0.0000 0.0000 0.0000 0.0000 56.1598
#
#
#
# Elastic Compliance Matrix: (Units=1/GPa)
#
#
# Indices 1 2 3 4 5 6 
#
# 1 0.009982 -0.005442 0.000435 0.000000 0.000000 0.000000
# 2 -0.005442 0.016611 -0.019109 0.000000 0.000000 0.000000
# 3 0.000435 -0.019109 0.072923 0.000000 0.000000 0.000000
# 4 0.000000 0.000000 0.000000 -0.319845 0.000000 0.000000
# 5 0.000000 0.000000 0.000000 0.000000 0.321538 0.000000
# 6 0.000000 0.000000 0.000000 0.000000 0.000000 0.017806
#
#
# Mechanical properties :
#
#
# Convention : Reuss Voigt Hill
#
# Bulk Modulus (GPa) = 19.49921 53.29865 36.39893
# Shear Modulus (GPa) = 27.12354 22.06870 24.59612
#
# Velocity S-wave (km/s) = 3.56381 3.21462 3.39371
# Velocity P-wave (km/s) = 5.10539 6.22381 5.69213
#
# Compressibility (1/GPa) = 0.05128412
#
# Stress axis : x y z
#
# Youngs Moduli (GPa) = 100.18364 60.20054 13.71306
#
# Poissons Ratio (x) = 0.32763 -0.00597
# Poissons Ratio (y) = 0.54523 0.26204
# Poissons Ratio (z) = -0.04361 1.15036
#
# Static dielectric constant tensor:
#      x y z
#    x 1.882140 0.000000 0.000000 
#    y 0.000000 1.879250 0.000000 
#    z 0.000000 0.000000 1.814290 
# 
# From -- ./inp_files/38251.got.cif
#   From: 2010.05.17/outbox.cif.g08.bks.cpg/sg48_20_cif.got.tgz:38251.got - 2010.06.03 20:39:00.
