data_PCOD9390116
_publ_section_title
;
Structure prediction by ZEFSAII (Michael W. Deem and Ramdas Pophale) SiO2 
 PCOD9390116
Probable space group: P N N N
;
_chemical_formula_sum "Si O2"
_cell_formula_units_Z 52
_cell_length_a 5.657862
_cell_length_b 19.504865
_cell_length_c 22.630255
_cell_angle_alpha 90.000000
_cell_angle_beta 90.000000
_cell_angle_gamma 90.000000
_cell_volume 2497.380675
_symmetry_space_group_name_H-M "P N N N"
_symmetry_group_IT_number 48
_space_group.IT_coordinate_system_code '2'
_symmetry_cell_setting 'orthorhombic'
loop_
_space_group_symop_operation_xyz
x,y,z
1/2-x,1/2-y,z
x,1/2-y,1/2-z
1/2-x,y,1/2-z
-x,-y,-z
1/2+x,1/2+y,-z
-x,1/2+y,1/2+z
1/2+x,-y,1/2+z
loop_
_atom_site_type_symbol
_atom_site_label
_atom_site_fract_x
_atom_site_fract_y
_atom_site_fract_z
Si Si1 0.889548 0.186020 0.171179
Si Si2 0.746715 0.549132 0.539881
Si Si3 0.917196 0.447993 0.150211
Si Si4 0.543352 0.696099 0.957841
Si Si5 0.489020 0.788488 0.410136
Si Si6 0.750000 0.600758 0.750000
Si Si7 0.378292 0.056495 0.588780
O O1 0.750000 0.250000 0.195754
O O2 0.721396 0.121439 0.161757
O O3 0.963716 0.213838 0.107293
O O4 0.095870 0.152689 0.210018
O O5 0.538509 0.559030 0.586235
O O6 0.903742 0.616213 0.549358
O O7 0.702652 0.554452 0.469259
O O8 0.895067 0.483464 0.561586
O O9 0.741680 0.512239 0.140858
O O10 0.103225 0.447186 0.204287
O O11 0.750000 0.750000 0.968520
O O12 0.417421 0.700037 0.020811
O O13 0.750000 0.750000 0.403995
O O14 0.547830 0.867267 0.391602
O O15 0.250000 0.750000 0.384934
#
# Coordination Sequence:
#
# PCOD9390116 Si02
#       7
#     8   8   8   8   8   4   8
#     4  12  26  42  62  84 123 179 236 286 331 375
#     4  10  20  38  61  93 125 167 221 269 332 397
#     4  12  23  42  62  86 123 176 227 283 335 403
#     4  10  19  39  58  88 125 176 224 276 325 392
#     4  10  23  40  64 100 139 175 217 270 345 428
#     4  12  28  45  56  84 128 169 242 298 340 387
#     4  10  22  38  64  94 130 172 215 271 338 417
#
# _framework density 20.821814
#
# number of rings (size 3 to 8) (size 9 to 14) (size 15 to 20)
#    0.000    1.231    3.077    2.308    2.154    4.308 
#    0.000    0.000    0.000    0.000    0.000    0.000 
#    0.000   17.231    0.000    0.000    0.000    0.000 
#
# Total GULP energy -289489.230286 kJ/mol
# GULP energy per Si atom -5567.100582 kJ/mol
# Density = 2.077442 g / cm^3
# Si number density = 20.821814 Si / 1000 Ang^3
#
#
#
# Elastic Constant Matrix: (Units=GPa)
#
#
# Indices 1 2 3 4 5 6 
#
# 1 82.3704 60.1484 27.3773 0.0000 0.0000 0.0000
# 2 60.1484 164.5029 16.5520 0.0000 0.0000 0.0000
# 3 27.3773 16.5520 59.9202 0.0000 0.0000 0.0000
# 4 0.0000 0.0000 0.0000 -353.1031 0.0000 0.0000
# 5 0.0000 0.0000 0.0000 0.0000 102.1897 0.0000
# 6 0.0000 0.0000 0.0000 0.0000 0.0000 12.8368
#
#
#
# Elastic Compliance Matrix: (Units=1/GPa)
#
#
# Indices 1 2 3 4 5 6 
#
# 1 0.019022 -0.006254 -0.006963 0.000000 0.000000 0.000000
# 2 -0.006254 0.008309 0.000562 0.000000 0.000000 0.000000
# 3 -0.006963 0.000562 0.019715 0.000000 0.000000 0.000000
# 4 0.000000 0.000000 0.000000 -0.002832 0.000000 0.000000
# 5 0.000000 0.000000 0.000000 0.000000 0.009786 0.000000
# 6 0.000000 0.000000 0.000000 0.000000 0.000000 0.077901
#
#
# Mechanical properties :
#
#
# Convention : Reuss Voigt Hill
#
# Bulk Modulus (GPa) = 46.00821 57.21652 51.61237
# Shear Modulus (GPa) = 30.40317 -34.10094 -1.84888
#
# Velocity S-wave (km/s) = 3.82535 -4.05130 -0.94334
# Velocity P-wave (km/s) = 6.45408 2.37796 4.86363
#
# Compressibility (1/GPa) = 0.02173525
#
# Stress axis : x y z
#
# Youngs Moduli (GPa) = 52.57137 120.34862 50.72273
#
# Poissons Ratio (x) = 0.75271 0.35320
# Poissons Ratio (y) = 0.32880 -0.02852
# Poissons Ratio (z) = 0.36607 -0.06768
#
# Static dielectric constant tensor:
#      x y z
#    x 1.754960 0.000000 0.000000 
#    y 0.000000 1.742790 0.000000 
#    z 0.000000 0.000000 1.798240 
# 
# From -- ./inp_files/37159.got.cif
#   From: 2010.05.17/outbox.cif.g08.bks.cpg/sg48_19_cif.got.tgz:37159.got - 2010.06.03 20:39:00.
