data_PCOD9390241
_publ_section_title
;
Structure prediction by ZEFSAII (Michael W. Deem and Ramdas Pophale) SiO2 
 PCOD9390241
Probable space group: P N N N
;
_chemical_formula_sum "Si O2"
_cell_formula_units_Z 36
_cell_length_a 22.051143
_cell_length_b 8.831390
_cell_length_c 9.294237
_cell_angle_alpha 90.000000
_cell_angle_beta 90.000000
_cell_angle_gamma 90.000000
_cell_volume 1809.980568
_symmetry_space_group_name_H-M "P N N N"
_symmetry_group_IT_number 48
_space_group.IT_coordinate_system_code '2'
_symmetry_cell_setting 'orthorhombic'
loop_
_space_group_symop_operation_xyz
x,y,z
1/2-x,1/2-y,z
x,1/2-y,1/2-z
1/2-x,y,1/2-z
-x,-y,-z
1/2+x,1/2+y,-z
-x,1/2+y,1/2+z
1/2+x,-y,1/2+z
loop_
_atom_site_type_symbol
_atom_site_label
_atom_site_fract_x
_atom_site_fract_y
_atom_site_fract_z
Si Si1 0.666210 0.503311 0.886966
Si Si2 0.182482 0.067501 0.783271
Si Si3 0.250000 0.250000 0.250000
Si Si4 0.432782 0.396540 0.645204
Si Si5 0.553380 0.910544 0.813006
Si Si6 0.250000 0.750000 0.250000
O O1 0.707536 0.645671 0.844431
O O2 0.605647 0.517799 0.789138
O O3 0.705647 0.356605 0.843885
O O4 0.660426 0.523785 0.057327
O O5 0.185830 0.250000 0.750000
O O6 0.250000 0.009068 0.750000
O O7 0.127830 0.010899 0.684084
O O8 0.434564 0.250000 0.750000
O O9 0.495395 0.482206 0.673778
O O10 0.425813 0.370625 0.475136
O O11 0.534455 0.750000 0.750000
#
# Coordination Sequence:
#
# PCOD9390241 Si02
#       6
#     8   8   2   8   8   2
#     4  11  23  41  66  95 131 174 219 270 329 402
#     4  10  21  38  66  97 126 164 210 275 328 388
#     4  10  20  34  66  94 116 162 220 270 304 390
#     4  10  24  41  62  95 132 168 218 277 332 389
#     4  11  23  42  67  94 126 176 224 271 326 395
#     4  10  28  42  62  98 144 174 216 266 332 402
#
# _framework density 19.889714999999999
#
# number of rings (size 3 to 8) (size 9 to 14) (size 15 to 20)
#    0.000    1.556    1.111    4.000    7.778    3.556 
#    4.000    0.556    0.000    0.000    0.000    0.000 
#    0.000    0.000    0.000    0.000    0.000    0.000 
#
# Total GULP energy -200755.958680 kJ/mol
# GULP energy per Si atom -5576.554408 kJ/mol
# Density = 1.984445 g / cm^3
# Si number density = 19.889715 Si / 1000 Ang^3
#
#
#
# Elastic Constant Matrix: (Units=GPa)
#
#
# Indices 1 2 3 4 5 6 
#
# 1 105.6575 8.8654 50.5841 0.0000 0.0000 0.0000
# 2 8.8654 59.0926 27.5698 0.0000 0.0000 0.0000
# 3 50.5841 27.5698 164.2572 0.0000 0.0000 0.0000
# 4 0.0000 0.0000 0.0000 501.8076 0.0000 0.0000
# 5 0.0000 0.0000 0.0000 0.0000 56.8012 0.0000
# 6 0.0000 0.0000 0.0000 0.0000 0.0000 -41.9108
#
#
#
# Elastic Compliance Matrix: (Units=1/GPa)
#
#
# Indices 1 2 3 4 5 6 
#
# 1 0.011102 -0.000076 -0.003406 0.000000 0.000000 0.000000
# 2 -0.000076 0.018361 -0.003058 0.000000 0.000000 0.000000
# 3 -0.003406 -0.003058 0.007650 0.000000 0.000000 0.000000
# 4 0.000000 0.000000 0.000000 0.001993 0.000000 0.000000
# 5 0.000000 0.000000 0.000000 0.000000 0.017605 0.000000
# 6 0.000000 0.000000 0.000000 0.000000 0.000000 -0.023860
#
#
# Mechanical properties :
#
#
# Convention : Reuss Voigt Hill
#
# Bulk Modulus (GPa) = 41.61233 55.89399 48.75316
# Shear Modulus (GPa) = 92.69156 119.47213 106.08184
#
# Velocity S-wave (km/s) = 6.83403 7.75872 7.31101
# Velocity P-wave (km/s) = 9.12353 10.41281 9.78942
#
# Compressibility (1/GPa) = 0.02403134
#
# Stress axis : x y z
#
# Youngs Moduli (GPa) = 90.07723 54.46360 130.71523
#
# Poissons Ratio (x) = 0.00416 0.44521
# Poissons Ratio (y) = 0.00689 0.39976
# Poissons Ratio (z) = 0.30680 0.16656
#
# Static dielectric constant tensor:
#      x y z
#    x 1.785800 0.000000 0.000000 
#    y 0.000000 1.708080 0.000000 
#    z 0.000000 0.000000 2.343400 
# 
# From -- ./inp_files/8801.got.cif
#   From: 2010.05.17/outbox.cif.g08.bks.cpg/sg48_5_cif.got.tgz:8801.got - 2010.06.03 20:39:00.
