data_PCOD9390756
_publ_section_title
;
Structure prediction by ZEFSAII (Michael W. Deem and Ramdas Pophale) SiO2 
 PCOD9390756
Probable space group: P N N N
;
_chemical_formula_sum "Si O2"
_cell_formula_units_Z 40
_cell_length_a 11.482396
_cell_length_b 33.520500
_cell_length_c 5.206252
_cell_angle_alpha 90.000000
_cell_angle_beta 90.000000
_cell_angle_gamma 90.000000
_cell_volume 2003.863774
_symmetry_space_group_name_H-M "P N N N"
_symmetry_group_IT_number 48
_space_group.IT_coordinate_system_code '2'
_symmetry_cell_setting 'orthorhombic'
loop_
_space_group_symop_operation_xyz
x,y,z
1/2-x,1/2-y,z
x,1/2-y,1/2-z
1/2-x,y,1/2-z
-x,-y,-z
1/2+x,1/2+y,-z
-x,1/2+y,1/2+z
1/2+x,-y,1/2+z
loop_
_atom_site_type_symbol
_atom_site_label
_atom_site_fract_x
_atom_site_fract_y
_atom_site_fract_z
Si Si1 0.250000 0.423390 0.750000
Si Si2 0.750000 0.867356 0.750000
Si Si3 0.986733 0.972673 0.247755
Si Si4 0.888712 0.110206 0.787285
Si Si5 0.304696 0.794501 0.988294
Si Si6 0.509982 0.344232 0.296144
O O1 0.243814 0.395400 0.500200
O O2 0.362299 0.451188 0.738753
O O3 0.628989 0.843216 0.766157
O O4 0.075248 0.936007 0.207662
O O5 0.000000 0.000000 0.500000
O O6 0.000000 0.000000 0.000000
O O7 0.750000 0.111091 0.750000
O O8 0.950549 0.127827 0.532392
O O9 0.938471 0.135577 0.033167
O O10 0.250000 0.750000 0.986527
O O11 0.250000 0.810014 0.250000
O O12 0.250000 0.817651 0.750000
O O13 0.437747 0.801726 0.907810
#
# Coordination Sequence:
#
# PCOD9390756 Si02
#       6
#     4   4   8   8   8   8
#     4  12  24  46  62  86 130 175 224 280 331 398
#     4  12  22  42  64  93 128 174 224 266 322 402
#     4  12  26  42  61  87 120 175 220 276 336 388
#     4  12  25  41  62  93 126 161 220 278 329 382
#     4  10  21  38  64  98 130 165 204 257 326 401
#     4  12  22  41  64  95 128 169 211 268 327 385
#
# _framework density 19.961434000000001
#
# number of rings (size 3 to 8) (size 9 to 14) (size 15 to 20)
#    0.000    0.400    4.000    6.000    2.800    0.000 
#    0.000    0.000    0.000    2.400    0.000   11.200 
#    0.000    0.000    0.000    0.000    0.000    0.000 
#
# Total GULP energy -222842.403819 kJ/mol
# GULP energy per Si atom -5571.060095 kJ/mol
# Density = 1.991600 g / cm^3
# Si number density = 19.961434 Si / 1000 Ang^3
#
#
#
# Elastic Constant Matrix: (Units=GPa)
#
#
# Indices 1 2 3 4 5 6 
#
# 1 211.2613 71.1854 56.1653 0.0000 0.0000 0.0000
# 2 71.1854 123.0593 41.3822 0.0000 0.0000 0.0000
# 3 56.1653 41.3822 195.3972 0.0000 0.0000 0.0000
# 4 0.0000 0.0000 0.0000 14.5060 0.0000 0.0000
# 5 0.0000 0.0000 0.0000 0.0000 33.2654 0.0000
# 6 0.0000 0.0000 0.0000 0.0000 0.0000 45.1621
#
#
#
# Elastic Compliance Matrix: (Units=1/GPa)
#
#
# Indices 1 2 3 4 5 6 
#
# 1 0.006084 -0.003156 -0.001080 0.000000 0.000000 0.000000
# 2 -0.003156 0.010387 -0.001292 0.000000 0.000000 0.000000
# 3 -0.001080 -0.001292 0.005702 0.000000 0.000000 0.000000
# 4 0.000000 0.000000 0.000000 0.068937 0.000000 0.000000
# 5 0.000000 0.000000 0.000000 0.000000 0.030061 0.000000
# 6 0.000000 0.000000 0.000000 0.000000 0.000000 0.022142
#
#
# Mechanical properties :
#
#
# Convention : Reuss Voigt Hill
#
# Bulk Modulus (GPa) = 89.97154 96.35372 93.16263
# Shear Modulus (GPa) = 31.63029 42.65237 37.14133
#
# Velocity S-wave (km/s) = 3.98498 4.62750 4.31821
# Velocity P-wave (km/s) = 8.14518 8.77077 8.46376
#
# Compressibility (1/GPa) = 0.01111463
#
# Stress axis : x y z
#
# Youngs Moduli (GPa) = 164.36030 96.27860 175.37485
#
# Poissons Ratio (x) = 0.30387 0.18948
# Poissons Ratio (y) = 0.51875 0.22667
# Poissons Ratio (z) = 0.17758 0.12444
#
# Static dielectric constant tensor:
#      x y z
#    x 1.825080 0.000000 0.000000 
#    y 0.000000 1.532550 0.000000 
#    z 0.000000 0.000000 1.370560 
# 
# From -- ./inp_files/2599.got.cif
#   From: 2010.05.17/outbox.cif.g08.bks.cpg/sg48_2_cif.got.tgz:2599.got - 2010.06.03 20:39:00.
