data_PCOD9390214
_publ_section_title
;
Structure prediction by ZEFSAII (Michael W. Deem and Ramdas Pophale) SiO2 
 PCOD9390214
Probable space group: P N N N
;
_chemical_formula_sum "Si O2"
_cell_formula_units_Z 48
_cell_length_a 8.896717
_cell_length_b 15.417931
_cell_length_c 18.149583
_cell_angle_alpha 90.000000
_cell_angle_beta 90.000000
_cell_angle_gamma 90.000000
_cell_volume 2489.559585
_symmetry_space_group_name_H-M "P N N N"
_symmetry_group_IT_number 48
_space_group.IT_coordinate_system_code '2'
_symmetry_cell_setting 'orthorhombic'
loop_
_space_group_symop_operation_xyz
x,y,z
1/2-x,1/2-y,z
x,1/2-y,1/2-z
1/2-x,y,1/2-z
-x,-y,-z
1/2+x,1/2+y,-z
-x,1/2+y,1/2+z
1/2+x,-y,1/2+z
loop_
_atom_site_type_symbol
_atom_site_label
_atom_site_fract_x
_atom_site_fract_y
_atom_site_fract_z
Si Si1 0.132284 0.885990 0.159687
Si Si2 0.574575 0.756079 0.971614
Si Si3 0.102325 0.915884 0.987656
Si Si4 0.034371 0.552759 0.200877
Si Si5 0.580715 0.772704 0.148425
Si Si6 0.935262 0.439355 0.067035
O O1 0.303283 0.905705 0.181037
O O2 0.039875 0.955453 0.210260
O O3 0.047683 0.794711 0.175601
O O4 0.138093 0.891458 0.072039
O O5 0.750000 0.750000 0.950342
O O6 0.488235 0.666170 0.954868
O O7 0.496517 0.841694 0.940128
O O8 0.568360 0.769719 0.059921
O O9 0.255128 0.937263 0.944225
O O10 0.000000 0.000000 0.000000
O O11 0.929537 0.630957 0.177927
O O12 0.991833 0.476185 0.145575
O O13 0.750000 0.750000 0.166997
O O14 0.000000 0.500000 0.000000
#
# Coordination Sequence:
#
# PCOD9390214 Si02
#       6
#     8   8   8   8   8   8
#     4  10  22  37  55  83 122 160 203 242 305 369
#     4  10  21  37  60  88 120 157 202 254 305 362
#     4  11  23  39  62  89 118 155 203 257 310 366
#     4  11  22  36  57  84 122 164 198 245 302 374
#     4  10  20  34  54  85 124 161 198 241 305 373
#     4  12  21  37  60  88 123 162 204 249 304 369
#
# _framework density 19.280517
#
# number of rings (size 3 to 8) (size 9 to 14) (size 15 to 20)
#    0.000    1.333    3.333    2.500    4.667    5.333 
#    0.000    0.000    0.000    1.000    0.000    2.333 
#    0.000    0.000    0.000    0.000    0.000    0.000 
#
# Total GULP energy -267485.577585 kJ/mol
# GULP energy per Si atom -5572.616200 kJ/mol
# Density = 1.923663 g / cm^3
# Si number density = 19.280517 Si / 1000 Ang^3
#
#
#
# Elastic Constant Matrix: (Units=GPa)
#
#
# Indices 1 2 3 4 5 6 
#
# 1 130.0595 60.8830 14.9507 0.0000 0.0000 0.0000
# 2 60.8830 119.0022 12.1128 0.0000 0.0000 0.0000
# 3 14.9507 12.1128 40.0187 0.0000 0.0000 0.0000
# 4 0.0000 0.0000 0.0000 23.9193 0.0000 0.0000
# 5 0.0000 0.0000 0.0000 0.0000 6.9394 0.0000
# 6 0.0000 0.0000 0.0000 0.0000 0.0000 46.4159
#
#
#
# Elastic Compliance Matrix: (Units=1/GPa)
#
#
# Indices 1 2 3 4 5 6 
#
# 1 0.010316 -0.005041 -0.002328 0.000000 0.000000 0.000000
# 2 -0.005041 0.011134 -0.001487 0.000000 0.000000 0.000000
# 3 -0.002328 -0.001487 0.026308 0.000000 0.000000 0.000000
# 4 0.000000 0.000000 0.000000 0.041807 0.000000 0.000000
# 5 0.000000 0.000000 0.000000 0.000000 0.144104 0.000000
# 6 0.000000 0.000000 0.000000 0.000000 0.000000 0.021544
#
#
# Mechanical properties :
#
#
# Convention : Reuss Voigt Hill
#
# Bulk Modulus (GPa) = 33.28206 51.66370 42.47288
# Shear Modulus (GPa) = 17.67158 28.86385 23.26772
#
# Velocity S-wave (km/s) = 3.03074 3.87337 3.47767
# Velocity P-wave (km/s) = 5.43569 6.84529 6.18080
#
# Compressibility (1/GPa) = 0.03004622
#
# Stress axis : x y z
#
# Youngs Moduli (GPa) = 96.93530 89.81892 38.01104
#
# Poissons Ratio (x) = 0.45277 0.08850
# Poissons Ratio (y) = 0.48864 0.05651
# Poissons Ratio (z) = 0.22569 0.13353
#
# Static dielectric constant tensor:
#      x y z
#    x 1.548340 0.000000 0.000000 
#    y 0.000000 1.531810 0.000000 
#    z 0.000000 0.000000 1.755100 
# 
# From -- ./inp_files/25373.got.cif
#   From: 2010.05.17/outbox.cif.g08.bks.cpg/sg48_13_cif.got.tgz:25373.got - 2010.06.03 20:39:00.
