data_PCOD9390313
_publ_section_title
;
Structure prediction by ZEFSAII (Michael W. Deem and Ramdas Pophale) SiO2 
 PCOD9390313
Probable space group: P N N N
;
_chemical_formula_sum "Si O2"
_cell_formula_units_Z 64
_cell_length_a 18.781063
_cell_length_b 15.245052
_cell_length_c 12.317557
_cell_angle_alpha 90.000000
_cell_angle_beta 90.000000
_cell_angle_gamma 90.000000
_cell_volume 3526.741759
_symmetry_space_group_name_H-M "P N N N"
_symmetry_group_IT_number 48
_space_group.IT_coordinate_system_code '2'
_symmetry_cell_setting 'orthorhombic'
loop_
_space_group_symop_operation_xyz
x,y,z
1/2-x,1/2-y,z
x,1/2-y,1/2-z
1/2-x,y,1/2-z
-x,-y,-z
1/2+x,1/2+y,-z
-x,1/2+y,1/2+z
1/2+x,-y,1/2+z
loop_
_atom_site_type_symbol
_atom_site_label
_atom_site_fract_x
_atom_site_fract_y
_atom_site_fract_z
Si Si1 0.021995 0.657184 0.291784
Si Si2 0.965327 0.653725 0.713749
Si Si3 0.626834 0.348772 0.252877
Si Si4 0.189266 0.940540 0.937580
Si Si5 0.437658 0.428452 0.987846
Si Si6 0.651831 0.092000 0.011213
Si Si7 0.831329 0.278634 0.600052
Si Si8 0.040384 0.503096 0.117142
O O1 0.994808 0.750000 0.250000
O O2 0.105529 0.678932 0.325076
O O3 0.017601 0.581410 0.199895
O O4 0.971464 0.629905 0.391939
O O5 0.941758 0.750000 0.750000
O O6 0.931003 0.621541 0.602072
O O7 0.957571 0.584125 0.810910
O O8 0.050600 0.657712 0.693887
O O9 0.657117 0.250000 0.250000
O O10 0.675485 0.413356 0.185465
O O11 0.616160 0.387727 0.372451
O O12 0.272086 0.949179 0.960883
O O13 0.173328 0.853131 0.008294
O O14 0.135425 0.019387 0.964197
O O15 0.500000 0.500000 0.000000
O O16 0.646161 0.187033 0.953543
O O17 0.617871 0.027248 0.925330
O O18 0.750000 0.250000 0.637026
O O19 0.000000 0.500000 0.000000
#
# Coordination Sequence:
#
# PCOD9390313 Si02
#       8
#     8   8   8   8   8   8   8   8
#     4  12  24  39  62  94 133 170 210 263 321 389
#     4  11  24  40  66  91 119 162 213 268 311 367
#     4  11  19  32  57  90 128 165 201 245 314 395
#     4  11  21  37  58  87 127 171 210 251 305 384
#     4  12  22  41  64  88 123 172 221 253 299 383
#     4  11  23  35  56  92 129 161 199 263 329 381
#     4  10  20  36  57  90 128 165 199 246 324 404
#     4  12  24  41  60  92 129 163 213 264 324 380
#
# _framework density 18.147061000000001
#
# number of rings (size 3 to 8) (size 9 to 14) (size 15 to 20)
#    0.000    0.750    7.500    0.375    3.500    0.750 
#    0.000    1.875    0.000    1.500    0.000    0.875 
#    0.000    0.000    0.000    0.000    0.000    0.000 
#
# Total GULP energy -356486.355407 kJ/mol
# GULP energy per Si atom -5570.099303 kJ/mol
# Density = 1.810576 g / cm^3
# Si number density = 18.147061 Si / 1000 Ang^3
#
#
#
# Elastic Constant Matrix: (Units=GPa)
#
#
# Indices 1 2 3 4 5 6 
#
# 1 58.7145 35.0831 30.9950 0.0000 0.0000 0.0000
# 2 35.0831 132.4269 75.9324 0.0000 0.0000 0.0000
# 3 30.9950 75.9324 138.1780 0.0000 0.0000 0.0000
# 4 0.0000 0.0000 0.0000 33.4696 0.0000 0.0000
# 5 0.0000 0.0000 0.0000 0.0000 27.6679 0.0000
# 6 0.0000 0.0000 0.0000 0.0000 0.0000 20.7014
#
#
#
# Elastic Compliance Matrix: (Units=1/GPa)
#
#
# Indices 1 2 3 4 5 6 
#
# 1 0.020760 -0.004132 -0.002386 0.000000 0.000000 0.000000
# 2 -0.004132 0.011848 -0.005584 0.000000 0.000000 0.000000
# 3 -0.002386 -0.005584 0.010841 0.000000 0.000000 0.000000
# 4 0.000000 0.000000 0.000000 0.029878 0.000000 0.000000
# 5 0.000000 0.000000 0.000000 0.000000 0.036143 0.000000
# 6 0.000000 0.000000 0.000000 0.000000 0.000000 0.048306
#
#
# Mechanical properties :
#
#
# Convention : Reuss Voigt Hill
#
# Bulk Modulus (GPa) = 51.96152 68.14892 60.05522
# Shear Modulus (GPa) = 26.54021 28.85505 27.69763
#
# Velocity S-wave (km/s) = 3.82842 3.99189 3.91101
# Velocity P-wave (km/s) = 6.94537 7.67347 7.31848
#
# Compressibility (1/GPa) = 0.01924501
#
# Stress axis : x y z
#
# Youngs Moduli (GPa) = 48.16964 84.40548 92.24440
#
# Poissons Ratio (x) = 0.34872 0.22013
# Poissons Ratio (y) = 0.19901 0.51507
# Poissons Ratio (z) = 0.11495 0.47130
#
# Static dielectric constant tensor:
#      x y z
#    x 1.739840 0.000000 0.000000 
#    y 0.000000 1.581620 0.000000 
#    z 0.000000 0.000000 2.287790 
# 
# From -- ./inp_files/22337.got.cif
#   From: 2010.05.17/outbox.cif.g08.bks.cpg/sg48_12_cif.got.tgz:22337.got - 2010.06.03 20:39:00.
