data_PCOD9390439
_publ_section_title
;
Structure prediction by ZEFSAII (Michael W. Deem and Ramdas Pophale) SiO2 
 PCOD9390439
Probable space group: P N N N
;
_chemical_formula_sum "Si O2"
_cell_formula_units_Z 60
_cell_length_a 15.291697
_cell_length_b 25.410804
_cell_length_c 8.467968
_cell_angle_alpha 90.000000
_cell_angle_beta 90.000000
_cell_angle_gamma 90.000000
_cell_volume 3290.434868
_symmetry_space_group_name_H-M "P N N N"
_symmetry_group_IT_number 48
_space_group.IT_coordinate_system_code '2'
_symmetry_cell_setting 'orthorhombic'
loop_
_space_group_symop_operation_xyz
x,y,z
1/2-x,1/2-y,z
x,1/2-y,1/2-z
1/2-x,y,1/2-z
-x,-y,-z
1/2+x,1/2+y,-z
-x,1/2+y,1/2+z
1/2+x,-y,1/2+z
loop_
_atom_site_type_symbol
_atom_site_label
_atom_site_fract_x
_atom_site_fract_y
_atom_site_fract_z
Si Si1 0.568281 0.114096 0.522368
Si Si2 0.520845 0.809414 0.710572
Si Si3 0.145749 0.544978 0.737803
Si Si4 0.047832 0.876393 0.524639
Si Si5 0.714420 0.690591 0.915656
Si Si6 0.750000 0.634312 0.250000
Si Si7 0.430439 0.070701 0.754684
Si Si8 0.353255 0.809473 0.219892
O O1 0.546208 0.159298 0.397183
O O2 0.624563 0.070604 0.432260
O O3 0.481700 0.087348 0.595350
O O4 0.614298 0.145992 0.660222
O O5 0.495532 0.750000 0.750000
O O6 0.522088 0.844173 0.869480
O O7 0.610998 0.807930 0.614426
O O8 0.250000 0.537371 0.750000
O O9 0.106938 0.585073 0.868643
O O10 0.093193 0.490622 0.756463
O O11 0.110890 0.832602 0.444724
O O12 0.993832 0.910062 0.396132
O O13 0.750000 0.750000 0.919597
O O14 0.750000 0.665814 0.750000
O O15 0.739258 0.665522 0.083843
O O16 0.838382 0.600716 0.235340
O O17 0.388063 0.750000 0.250000
O O18 0.250000 0.806861 0.250000
#
# Coordination Sequence:
#
# PCOD9390439 Si02
#       8
#     8   8   8   8   8   4   8   8
#     4  10  22  38  60  85 118 154 193 245 302 366
#     4  11  20  37  57  83 120 158 195 238 302 362
#     4  11  22  40  63  86 113 153 201 249 309 363
#     4  10  23  38  61  87 118 157 196 251 307 368
#     4  11  22  38  58  87 128 171 204 254 298 361
#     4  12  23  40  62  92 126 170 213 254 310 366
#     4  11  22  40  60  85 120 155 204 250 300 361
#     4  10  20  38  61  89 120 151 194 250 305 367
#
# _framework density 18.234672
#
# number of rings (size 3 to 8) (size 9 to 14) (size 15 to 20)
#    0.000    1.333    3.333    3.400    0.000    0.000 
#    0.000    0.000    0.000    6.400    0.000    0.000 
#    0.000    0.000    0.000    0.000    0.000    0.000 
#
# Total GULP energy -334507.444062 kJ/mol
# GULP energy per Si atom -5575.124068 kJ/mol
# Density = 1.819317 g / cm^3
# Si number density = 18.234672 Si / 1000 Ang^3
#
#
#
# Elastic Constant Matrix: (Units=GPa)
#
#
# Indices 1 2 3 4 5 6 
#
# 1 80.8613 40.1159 20.7675 0.0000 0.0000 0.0000
# 2 40.1159 135.4944 54.6938 0.0000 0.0000 0.0000
# 3 20.7675 54.6938 102.0036 0.0000 0.0000 0.0000
# 4 0.0000 0.0000 0.0000 18.9953 0.0000 0.0000
# 5 0.0000 0.0000 0.0000 0.0000 -31.5140 0.0000
# 6 0.0000 0.0000 0.0000 0.0000 0.0000 29.1983
#
#
#
# Elastic Compliance Matrix: (Units=1/GPa)
#
#
# Indices 1 2 3 4 5 6 
#
# 1 0.014551 -0.003972 -0.000833 0.000000 0.000000 0.000000
# 2 -0.003972 0.010503 -0.004823 0.000000 0.000000 0.000000
# 3 -0.000833 -0.004823 0.012559 0.000000 0.000000 0.000000
# 4 0.000000 0.000000 0.000000 0.052645 0.000000 0.000000
# 5 0.000000 0.000000 0.000000 0.000000 -0.031732 0.000000
# 6 0.000000 0.000000 0.000000 0.000000 0.000000 0.034249
#
#
# Mechanical properties :
#
#
# Convention : Reuss Voigt Hill
#
# Bulk Modulus (GPa) = 54.47237 61.05708 57.76472
# Shear Modulus (GPa) = 42.31896 16.85472 29.58684
#
# Velocity S-wave (km/s) = 4.82269 3.04357 4.03247
# Velocity P-wave (km/s) = 7.80698 6.77553 7.30947
#
# Compressibility (1/GPa) = 0.01835793
#
# Stress axis : x y z
#
# Youngs Moduli (GPa) = 68.72240 95.20827 79.62255
#
# Poissons Ratio (x) = 0.37817 0.06631
# Poissons Ratio (y) = 0.27297 0.38403
# Poissons Ratio (z) = 0.05723 0.45920
#
# Static dielectric constant tensor:
#      x y z
#    x 1.547230 0.000000 0.000000 
#    y 0.000000 1.613600 0.000000 
#    z 0.000000 0.000000 1.689740 
# 
# From -- ./inp_files/13247.got.cif
#   From: 2010.05.17/outbox.cif.g08.bks.cpg/sg48_7_cif.got.tgz:13247.got - 2010.06.03 20:39:00.
