data_PCOD9390164
_publ_section_title
;
Structure prediction by ZEFSAII (Michael W. Deem and Ramdas Pophale) SiO2 
 PCOD9390164
Probable space group: P N N N
;
_chemical_formula_sum "Si O2"
_cell_formula_units_Z 34
_cell_length_a 16.892656
_cell_length_b 22.582522
_cell_length_c 5.163115
_cell_angle_alpha 90.000000
_cell_angle_beta 90.000000
_cell_angle_gamma 90.000000
_cell_volume 1969.618789
_symmetry_space_group_name_H-M "P N N N"
_symmetry_group_IT_number 48
_space_group.IT_coordinate_system_code '2'
_symmetry_cell_setting 'orthorhombic'
loop_
_space_group_symop_operation_xyz
x,y,z
1/2-x,1/2-y,z
x,1/2-y,1/2-z
1/2-x,y,1/2-z
-x,-y,-z
1/2+x,1/2+y,-z
-x,1/2+y,1/2+z
1/2+x,-y,1/2+z
loop_
_atom_site_type_symbol
_atom_site_label
_atom_site_fract_x
_atom_site_fract_y
_atom_site_fract_z
Si Si1 0.174418 0.362051 0.578119
Si Si2 0.075538 0.941744 0.766924
Si Si3 0.250000 0.250000 0.750000
Si Si4 0.975877 0.922259 0.276220
Si Si5 0.750000 0.949878 0.750000
Si Si6 0.250000 0.965933 0.750000
O O1 0.250000 0.383063 0.750000
O O2 0.195824 0.292726 0.571372
O O3 0.092719 0.375500 0.717822
O O4 0.179781 0.403355 0.323033
O O5 0.168652 0.929691 0.763829
O O6 0.024026 0.913198 0.538913
O O7 0.065663 0.012852 0.722971
O O8 0.037307 0.925501 0.039991
O O9 0.757132 0.993419 0.506655
#
# Coordination Sequence:
#
# PCOD9390164 Si02
#       6
#     8   8   2   8   4   4
#     4  10  21  36  54  74 104 140 178 219 257 309
#     4  10  21  32  48  75 100 138 175 212 248 325
#     4   8  22  42  52  82  96 148 184 216 256 324
#     4  10  20  32  49  73 103 131 179 212 257 301
#     4  12  20  31  54  72  96 152 170 213 254 300
#     4  12  21  34  50  75 106 141 182 205 260 316
#
# _framework density 17.262222999999999
#
# number of rings (size 3 to 8) (size 9 to 14) (size 15 to 20)
#    0.706    0.941    3.529    1.412    9.882    0.471 
#    0.000    0.000    0.000    0.000    0.000    0.000 
#    0.000    5.647    0.000    0.000    0.000    0.000 
#
# Total GULP energy -189408.200465 kJ/mol
# GULP energy per Si atom -5570.829425 kJ/mol
# Density = 1.722293 g / cm^3
# Si number density = 17.262223 Si / 1000 Ang^3
#
#
#
# Elastic Constant Matrix: (Units=GPa)
#
#
# Indices 1 2 3 4 5 6 
#
# 1 124.1365 16.3436 9.8993 0.0000 0.0000 0.0000
# 2 16.3436 42.1753 -0.4478 0.0000 0.0000 0.0000
# 3 9.8993 -0.4478 69.8521 0.0000 0.0000 0.0000
# 4 0.0000 0.0000 0.0000 -2.8724 0.0000 0.0000
# 5 0.0000 0.0000 0.0000 0.0000 16.0336 0.0000
# 6 0.0000 0.0000 0.0000 0.0000 0.0000 -3.9423
#
#
#
# Elastic Compliance Matrix: (Units=1/GPa)
#
#
# Indices 1 2 3 4 5 6 
#
# 1 0.008595 -0.003344 -0.001239 0.000000 0.000000 0.000000
# 2 -0.003344 0.025013 0.000634 0.000000 0.000000 0.000000
# 3 -0.001239 0.000634 0.014496 0.000000 0.000000 0.000000
# 4 0.000000 0.000000 0.000000 -0.348139 0.000000 0.000000
# 5 0.000000 0.000000 0.000000 0.000000 0.062369 0.000000
# 6 0.000000 0.000000 0.000000 0.000000 0.000000 -0.253657
#
#
# Mechanical properties :
#
#
# Convention : Reuss Voigt Hill
#
# Bulk Modulus (GPa) = 24.87225 31.97269 28.42247
# Shear Modulus (GPa) = -10.63777 15.86836 2.61529
#
# Velocity S-wave (km/s) = -2.48512 3.03521 1.23220
# Velocity P-wave (km/s) = 2.49105 5.55385 4.30410
#
# Compressibility (1/GPa) = 0.04020544
#
# Stress axis : x y z
#
# Youngs Moduli (GPa) = 116.35052 39.97914 68.98610
#
# Poissons Ratio (x) = 0.13368 0.08551
# Poissons Ratio (y) = 0.38905 -0.04375
# Poissons Ratio (z) = 0.14421 -0.02536
#
# Static dielectric constant tensor:
#      x y z
#    x 1.621760 0.000000 0.000000 
#    y 0.000000 1.583990 0.000000 
#    z 0.000000 0.000000 1.695150 
# 
# From -- ./inp_files/3428.got.cif
#   From: 2010.05.17/outbox.cif.g08.bks.cpg/sg48_2_cif.got.tgz:3428.got - 2010.06.03 20:39:00.
