data_PCOD9390299
_publ_section_title
;
Structure prediction by ZEFSAII (Michael W. Deem and Ramdas Pophale) SiO2 
 PCOD9390299
Probable space group: P N N N
;
_chemical_formula_sum "Si O2"
_cell_formula_units_Z 56
_cell_length_a 23.819442
_cell_length_b 11.052705
_cell_length_c 11.021345
_cell_angle_alpha 90.000000
_cell_angle_beta 90.000000
_cell_angle_gamma 90.000000
_cell_volume 2901.581405
_symmetry_space_group_name_H-M "P N N N"
_symmetry_group_IT_number 48
_space_group.IT_coordinate_system_code '2'
_symmetry_cell_setting 'orthorhombic'
loop_
_space_group_symop_operation_xyz
x,y,z
1/2-x,1/2-y,z
x,1/2-y,1/2-z
1/2-x,y,1/2-z
-x,-y,-z
1/2+x,1/2+y,-z
-x,1/2+y,1/2+z
1/2+x,-y,1/2+z
loop_
_atom_site_type_symbol
_atom_site_label
_atom_site_fract_x
_atom_site_fract_y
_atom_site_fract_z
Si Si1 0.010876 0.670595 0.631076
Si Si2 0.395838 0.569539 0.435737
Si Si3 0.840978 0.750000 0.750000
Si Si4 0.416960 0.250000 0.750000
Si Si5 0.606837 0.339834 0.956743
Si Si6 0.188365 0.519540 0.286544
Si Si7 0.410430 0.306551 0.493629
Si Si8 0.520209 0.420794 0.763609
O O1 0.023060 0.750000 0.750000
O O2 0.067334 0.620533 0.567952
O O3 0.971894 0.749479 0.539011
O O4 0.977466 0.553150 0.676619
O O5 0.380141 0.700076 0.487584
O O6 0.352183 0.548598 0.326328
O O7 0.401623 0.449894 0.514844
O O8 0.455959 0.573759 0.370602
O O9 0.809993 0.626825 0.709446
O O10 0.877941 0.780535 0.631592
O O11 0.387867 0.250136 0.619026
O O12 0.459248 0.363900 0.757741
O O13 0.658896 0.418366 0.904620
O O14 0.562493 0.342654 0.845412
O O15 0.250000 0.565378 0.250000
#
# Coordination Sequence:
#
# PCOD9390299 Si02
#       8
#     8   8   4   4   8   8   8   8
#     4  12  22  33  54  78 119 169 201 226 283 348
#     4  10  20  36  53  77 116 149 194 241 292 348
#     4  10  21  40  62  86 120 150 194 241 300 368
#     4  12  24  30  56  80 120 162 200 228 288 344
#     4  11  22  34  51  82 117 152 195 246 287 354
#     4  10  21  38  62  87 110 143 193 261 315 349
#     4  11  21  37  53  84 118 166 195 235 283 359
#     4  11  19  33  49  78 115 158 196 231 276 347
#
# _framework density 19.299821000000001
#
# number of rings (size 3 to 8) (size 9 to 14) (size 15 to 20)
#    0.000    1.143    5.000    3.643    4.000    2.286 
#    0.000    0.000    0.000    0.000    0.000   14.000 
#    0.000    0.000    0.000    0.000    0.000    0.000 
#
# Total GULP energy -311953.568708 kJ/mol
# GULP energy per Si atom -5570.599441 kJ/mol
# Density = 1.925589 g / cm^3
# Si number density = 19.299821 Si / 1000 Ang^3
#
#
#
# Elastic Constant Matrix: (Units=GPa)
#
#
# Indices 1 2 3 4 5 6 
#
# 1 61.7924 30.7205 22.7690 0.0000 0.0000 0.0000
# 2 30.7205 93.3082 15.2167 0.0000 0.0000 0.0000
# 3 22.7690 15.2167 95.5095 0.0000 0.0000 0.0000
# 4 0.0000 0.0000 0.0000 23.1559 0.0000 0.0000
# 5 0.0000 0.0000 0.0000 0.0000 8.4978 0.0000
# 6 0.0000 0.0000 0.0000 0.0000 0.0000 10.1407
#
#
#
# Elastic Compliance Matrix: (Units=1/GPa)
#
#
# Indices 1 2 3 4 5 6 
#
# 1 0.020709 -0.006174 -0.003953 0.000000 0.000000 0.000000
# 2 -0.006174 0.012843 -0.000574 0.000000 0.000000 0.000000
# 3 -0.003953 -0.000574 0.011504 0.000000 0.000000 0.000000
# 4 0.000000 0.000000 0.000000 0.043186 0.000000 0.000000
# 5 0.000000 0.000000 0.000000 0.000000 0.117678 0.000000
# 6 0.000000 0.000000 0.000000 0.000000 0.000000 0.098613
#
#
# Mechanical properties :
#
#
# Convention : Reuss Voigt Hill
#
# Bulk Modulus (GPa) = 42.27624 43.11361 42.69493
# Shear Modulus (GPa) = 14.97812 20.48579 17.73196
#
# Velocity S-wave (km/s) = 2.78884 3.26152 3.03440
# Velocity P-wave (km/s) = 5.68530 6.04738 5.86913
#
# Compressibility (1/GPa) = 0.02365395
#
# Stress axis : x y z
#
# Youngs Moduli (GPa) = 48.28783 77.86094 86.92512
#
# Poissons Ratio (x) = 0.48068 0.34365
# Poissons Ratio (y) = 0.29811 0.04994
# Poissons Ratio (z) = 0.19090 0.04473
#
# Static dielectric constant tensor:
#      x y z
#    x 1.686180 0.000000 0.000000 
#    y 0.000000 1.780850 0.000000 
#    z 0.000000 0.000000 1.712310 
# 
# From -- ./inp_files/23401.got.cif
#   From: 2010.05.17/outbox.cif.g08.bks.cpg/sg48_12_cif.got.tgz:23401.got - 2010.06.03 20:39:00.
