data_PCOD9390922
_publ_section_title
;
Structure prediction by ZEFSAII (Michael W. Deem and Ramdas Pophale) SiO2 
 PCOD9390922
Probable space group: P N N N
;
_chemical_formula_sum "Si O2"
_cell_formula_units_Z 40
_cell_length_a 8.768512
_cell_length_b 15.891768
_cell_length_c 12.232464
_cell_angle_alpha 90.000000
_cell_angle_beta 90.000000
_cell_angle_gamma 90.000000
_cell_volume 1704.559099
_symmetry_space_group_name_H-M "P N N N"
_symmetry_group_IT_number 48
_space_group.IT_coordinate_system_code '2'
_symmetry_cell_setting 'orthorhombic'
loop_
_space_group_symop_operation_xyz
x,y,z
1/2-x,1/2-y,z
x,1/2-y,1/2-z
1/2-x,y,1/2-z
-x,-y,-z
1/2+x,1/2+y,-z
-x,1/2+y,1/2+z
1/2+x,-y,1/2+z
loop_
_atom_site_type_symbol
_atom_site_label
_atom_site_fract_x
_atom_site_fract_y
_atom_site_fract_z
Si Si1 0.754082 0.541479 0.975082
Si Si2 0.453478 0.520023 0.669891
Si Si3 0.889438 0.405608 0.664910
Si Si4 0.403398 0.209639 0.544219
Si Si5 0.912090 0.292700 0.141973
O O1 0.665843 0.455938 0.942941
O O2 0.880399 0.542519 0.879818
O O3 0.851972 0.532861 0.085548
O O4 0.650044 0.623936 0.981870
O O5 0.487014 0.466919 0.777414
O O6 0.381741 0.611474 0.673093
O O7 0.750000 0.393259 0.750000
O O8 0.971736 0.320386 0.630610
O O9 0.250000 0.250000 0.591577
O O10 0.478930 0.275072 0.460124
O O11 0.750000 0.250000 0.118175
O O12 0.980856 0.250000 0.250000
#
# Coordination Sequence:
#
# PCOD9390922 Si02
#       5
#     8   8   8   8   8
#     4  10  21  41  71  96 134 188 236 287 359 433
#     4  10  21  42  68  95 140 182 238 293 348 435
#     4  10  23  43  72 104 140 198 245 287 369 453
#     4  12  24  43  72 107 145 180 240 309 363 423
#     4  11  24  41  68 107 142 183 231 302 368 419
#
# _framework density 23.466479
#
# number of rings (size 3 to 8) (size 9 to 14) (size 15 to 20)
#    0.000    1.400    2.000    3.000    0.000    4.400 
#    0.000    2.000    4.400    0.000    0.000    0.000 
#    0.000    0.000    0.000    0.000    0.000    0.000 
#
# Total GULP energy -223781.506417 kJ/mol
# GULP energy per Si atom -5594.537660 kJ/mol
# Density = 2.341307 g / cm^3
# Si number density = 23.466479 Si / 1000 Ang^3
#
#
#
# Elastic Constant Matrix: (Units=GPa)
#
#
# Indices 1 2 3 4 5 6 
#
# 1 91.5565 20.1382 25.3971 0.0000 0.0000 0.0000
# 2 20.1382 74.7366 18.9578 0.0000 0.0000 0.0000
# 3 25.3971 18.9578 45.1690 0.0000 0.0000 0.0000
# 4 0.0000 0.0000 0.0000 19.0294 0.0000 0.0000
# 5 0.0000 0.0000 0.0000 0.0000 23.8986 0.0000
# 6 0.0000 0.0000 0.0000 0.0000 0.0000 48.6917
#
#
#
# Elastic Compliance Matrix: (Units=1/GPa)
#
#
# Indices 1 2 3 4 5 6 
#
# 1 0.013170 -0.001869 -0.006620 0.000000 0.000000 0.000000
# 2 -0.001869 0.015240 -0.005345 0.000000 0.000000 0.000000
# 3 -0.006620 -0.005345 0.028105 0.000000 0.000000 0.000000
# 4 0.000000 0.000000 0.000000 0.052550 0.000000 0.000000
# 5 0.000000 0.000000 0.000000 0.000000 0.041843 0.000000
# 6 0.000000 0.000000 0.000000 0.000000 0.000000 0.020537
#
#
# Mechanical properties :
#
#
# Convention : Reuss Voigt Hill
#
# Bulk Modulus (GPa) = 34.66839 37.82759 36.24799
# Shear Modulus (GPa) = 23.95430 28.12185 26.03808
#
# Velocity S-wave (km/s) = 3.19844 3.46552 3.33466
# Velocity P-wave (km/s) = 5.33345 5.67168 5.50516
#
# Compressibility (1/GPa) = 0.02884472
#
# Stress axis : x y z
#
# Youngs Moduli (GPa) = 75.93101 65.61716 35.58094
#
# Poissons Ratio (x) = 0.12266 0.23556
# Poissons Ratio (y) = 0.14194 0.19019
# Poissons Ratio (z) = 0.50269 0.35074
#
# Static dielectric constant tensor:
#      x y z
#    x 1.907080 0.000000 0.000000 
#    y 0.000000 2.033160 0.000000 
#    z 0.000000 0.000000 1.898840 
# 
# From -- ./inp_files/12322.got.cif
#   From: 2010.05.17/outbox.cif.g08.bks.cpg/sg48_7_cif.got.tgz:12322.got - 2010.06.03 20:39:00.
