data_PCOD9390786
_publ_section_title
;
Structure prediction by ZEFSAII (Michael W. Deem and Ramdas Pophale) SiO2 
 PCOD9390786
Probable space group: P N N N
;
_chemical_formula_sum "Si O2"
_cell_formula_units_Z 52
_cell_length_a 21.080595
_cell_length_b 13.388034
_cell_length_c 8.981663
_cell_angle_alpha 90.000000
_cell_angle_beta 90.000000
_cell_angle_gamma 90.000000
_cell_volume 2534.874294
_symmetry_space_group_name_H-M "P N N N"
_symmetry_group_IT_number 48
_space_group.IT_coordinate_system_code '2'
_symmetry_cell_setting 'orthorhombic'
loop_
_space_group_symop_operation_xyz
x,y,z
1/2-x,1/2-y,z
x,1/2-y,1/2-z
1/2-x,y,1/2-z
-x,-y,-z
1/2+x,1/2+y,-z
-x,1/2+y,1/2+z
1/2+x,-y,1/2+z
loop_
_atom_site_type_symbol
_atom_site_label
_atom_site_fract_x
_atom_site_fract_y
_atom_site_fract_z
Si Si1 0.454286 0.137358 0.211503
Si Si2 0.360057 0.077885 0.947821
Si Si3 0.905721 0.090731 0.246456
Si Si4 0.412457 0.093194 0.522254
Si Si5 0.772993 0.551935 0.578703
Si Si6 0.412183 0.250000 0.750000
Si Si7 0.214769 0.647976 0.598542
O O1 0.433733 0.250000 0.250000
O O2 0.529762 0.135116 0.187591
O O3 0.444061 0.076541 0.363263
O O4 0.410552 0.095246 0.080449
O O5 0.374104 0.160513 0.824208
O O6 0.370828 0.968132 0.880004
O O7 0.288148 0.091943 0.994068
O O8 0.857656 0.160665 0.154395
O O9 0.919564 0.001730 0.128461
O O10 0.337796 0.105800 0.475073
O O11 0.441790 0.189526 0.609312
O O12 0.750000 0.557910 0.750000
O O13 0.782442 0.436986 0.526185
O O14 0.250000 0.750000 0.555291
O O15 0.250000 0.612193 0.750000
#
# Coordination Sequence:
#
# PCOD9390786 Si02
#       7
#     8   8   8   8   8   4   8
#     4  12  23  39  60  90 123 161 203 246 300 362
#     4  11  22  40  60  89 120 159 204 251 304 359
#     4  10  23  39  65  87 120 161 199 246 308 364
#     4  10  22  40  60  87 120 162 199 250 302 358
#     4  11  22  38  63  87 122 160 201 249 312 354
#     4  10  22  39  56  86 120 154 201 256 288 358
#     4  10  21  39  63  90 117 149 201 257 302 359
#
# _framework density 20.513836999999999
#
# number of rings (size 3 to 8) (size 9 to 14) (size 15 to 20)
#    0.000    1.385    4.615    0.923    2.154    1.538 
#    0.000    1.538    0.000    0.000    0.000    0.000 
#    0.000    0.000    0.000    0.000    0.000    0.000 
#
# Total GULP energy -289856.317261 kJ/mol
# GULP energy per Si atom -5574.159947 kJ/mol
# Density = 2.046715 g / cm^3
# Si number density = 20.513837 Si / 1000 Ang^3
#
#
#
# Elastic Constant Matrix: (Units=GPa)
#
#
# Indices 1 2 3 4 5 6 
#
# 1 105.1640 -4.6994 0.9545 0.0000 0.0000 0.0000
# 2 -4.6994 48.4974 -2.6424 0.0000 0.0000 0.0000
# 3 0.9545 -2.6424 71.8247 0.0000 0.0000 0.0000
# 4 0.0000 0.0000 0.0000 19.7923 0.0000 0.0000
# 5 0.0000 0.0000 0.0000 0.0000 20.5496 0.0000
# 6 0.0000 0.0000 0.0000 0.0000 0.0000 12.1104
#
#
#
# Elastic Compliance Matrix: (Units=1/GPa)
#
#
# Indices 1 2 3 4 5 6 
#
# 1 0.009551 0.000920 -0.000093 0.000000 0.000000 0.000000
# 2 0.000920 0.020750 0.000751 0.000000 0.000000 0.000000
# 3 -0.000093 0.000751 0.013952 0.000000 0.000000 0.000000
# 4 0.000000 0.000000 0.000000 0.050525 0.000000 0.000000
# 5 0.000000 0.000000 0.000000 0.000000 0.048663 0.000000
# 6 0.000000 0.000000 0.000000 0.000000 0.000000 0.082574
#
#
# Mechanical properties :
#
#
# Convention : Reuss Voigt Hill
#
# Bulk Modulus (GPa) = 21.09290 23.63463 22.36376
# Shear Modulus (GPa) = 20.95034 25.94868 23.44951
#
# Velocity S-wave (km/s) = 3.19921 3.56045 3.38465
# Velocity P-wave (km/s) = 4.89400 5.33374 5.11859
#
# Compressibility (1/GPa) = 0.04740932
#
# Stress axis : x y z
#
# Youngs Moduli (GPa) = 104.70181 48.19331 71.67603
#
# Poissons Ratio (x) = -0.04436 0.00667
# Poissons Ratio (y) = -0.09637 -0.05384
# Poissons Ratio (z) = 0.00974 -0.03620
#
# Static dielectric constant tensor:
#      x y z
#    x 1.749450 0.000000 0.000000 
#    y 0.000000 1.751220 0.000000 
#    z 0.000000 0.000000 1.779020 
# 
# From -- ./inp_files/13055.got.cif
#   From: 2010.05.17/outbox.cif.g08.bks.cpg/sg48_7_cif.got.tgz:13055.got - 2010.06.03 20:39:00.
