data_PCOD9390851
_publ_section_title
;
Structure prediction by ZEFSAII (Michael W. Deem and Ramdas Pophale) SiO2 
 PCOD9390851
Probable space group: P N N N
;
_chemical_formula_sum "Si O2"
_cell_formula_units_Z 32
_cell_length_a 9.520849
_cell_length_b 15.527826
_cell_length_c 9.582401
_cell_angle_alpha 90.000000
_cell_angle_beta 90.000000
_cell_angle_gamma 90.000000
_cell_volume 1416.643829
_symmetry_space_group_name_H-M "P N N N"
_symmetry_group_IT_number 48
_space_group.IT_coordinate_system_code '2'
_symmetry_cell_setting 'orthorhombic'
loop_
_space_group_symop_operation_xyz
x,y,z
1/2-x,1/2-y,z
x,1/2-y,1/2-z
1/2-x,y,1/2-z
-x,-y,-z
1/2+x,1/2+y,-z
-x,1/2+y,1/2+z
1/2+x,-y,1/2+z
loop_
_atom_site_type_symbol
_atom_site_label
_atom_site_fract_x
_atom_site_fract_y
_atom_site_fract_z
Si Si1 0.084046 0.745800 0.918076
Si Si2 0.918676 0.911158 0.967065
Si Si3 0.609040 0.480774 0.706020
Si Si4 0.886999 0.597291 0.050941
O O1 0.250000 0.750000 0.946532
O O2 0.066177 0.750000 0.750000
O O3 0.023367 0.833156 0.979665
O O4 0.991886 0.667098 0.980929
O O5 0.890799 0.934719 0.803743
O O6 0.777380 0.880564 0.046426
O O7 0.000000 0.000000 0.000000
O O8 0.750000 0.430751 0.750000
O O9 0.627422 0.512903 0.548253
O O10 0.462444 0.430258 0.695281
#
# Coordination Sequence:
#
# PCOD9390851 Si02
#       4
#     8   8   8   8
#     4  11  24  39  63  97 128 164 220 276 325 389
#     4  11  24  39  65  96 127 169 218 268 327 396
#     4   9  20  37  64  93 123 166 211 262 327 388
#     4  10  21  40  65  89 131 165 214 266 326 391
#
# _framework density 22.5886
#
# number of rings (size 3 to 8) (size 9 to 14) (size 15 to 20)
#    0.000    1.750    2.500    0.750   10.500    2.000 
#    0.000    1.250    0.000    3.000    0.000    0.000 
#    0.000    0.000    0.000    0.000    0.000    0.000 
#
# Total GULP energy -178136.880927 kJ/mol
# GULP energy per Si atom -5566.777529 kJ/mol
# Density = 2.253719 g / cm^3
# Si number density = 22.588600 Si / 1000 Ang^3
#
#
#
# Elastic Constant Matrix: (Units=GPa)
#
#
# Indices 1 2 3 4 5 6 
#
# 1 249.7190 91.5883 59.1661 0.0000 0.0000 0.0000
# 2 91.5883 111.8087 22.2346 0.0000 0.0000 0.0000
# 3 59.1661 22.2346 42.3940 0.0000 0.0000 0.0000
# 4 0.0000 0.0000 0.0000 32.0596 0.0000 0.0000
# 5 0.0000 0.0000 0.0000 0.0000 47.8657 0.0000
# 6 0.0000 0.0000 0.0000 0.0000 0.0000 46.2327
#
#
#
# Elastic Compliance Matrix: (Units=1/GPa)
#
#
# Indices 1 2 3 4 5 6 
#
# 1 0.007661 -0.004633 -0.008263 0.000000 0.000000 0.000000
# 2 -0.004633 0.012787 -0.000241 0.000000 0.000000 0.000000
# 3 -0.008263 -0.000241 0.035246 0.000000 0.000000 0.000000
# 4 0.000000 0.000000 0.000000 0.031192 0.000000 0.000000
# 5 0.000000 0.000000 0.000000 0.000000 0.020892 0.000000
# 6 0.000000 0.000000 0.000000 0.000000 0.000000 0.021630
#
#
# Mechanical properties :
#
#
# Convention : Reuss Voigt Hill
#
# Bulk Modulus (GPa) = 33.98842 83.32220 58.65531
# Shear Modulus (GPa) = 30.21398 40.62711 35.42055
#
# Velocity S-wave (km/s) = 3.66126 4.24555 3.96418
# Velocity P-wave (km/s) = 5.74042 7.81024 6.85392
#
# Compressibility (1/GPa) = 0.02942179
#
# Stress axis : x y z
#
# Youngs Moduli (GPa) = 130.52741 78.20724 28.37205
#
# Poissons Ratio (x) = 0.36230 0.23442
# Poissons Ratio (y) = 0.60468 0.00683
# Poissons Ratio (z) = 1.07849 0.01884
#
# Static dielectric constant tensor:
#      x y z
#    x 2.379120 0.000000 0.000000 
#    y 0.000000 1.814470 0.000000 
#    z 0.000000 0.000000 2.092030 
# 
# From -- ./inp_files/10128.got.cif
#   From: 2010.05.17/outbox.cif.g08.bks.cpg/sg48_6_cif.got.tgz:10128.got - 2010.06.03 20:39:00.
