data_PCOD9390041
_publ_section_title
;
Structure prediction by ZEFSAII (Michael W. Deem and Ramdas Pophale) SiO2 
 PCOD9390041
Probable space group: P N N N
;
_chemical_formula_sum "Si O2"
_cell_formula_units_Z 64
_cell_length_a 17.804512
_cell_length_b 8.257466
_cell_length_c 21.693468
_cell_angle_alpha 90.000000
_cell_angle_beta 90.000000
_cell_angle_gamma 90.000000
_cell_volume 3189.376973
_symmetry_space_group_name_H-M "P N N N"
_symmetry_group_IT_number 48
_space_group.IT_coordinate_system_code '2'
_symmetry_cell_setting 'orthorhombic'
loop_
_space_group_symop_operation_xyz
x,y,z
1/2-x,1/2-y,z
x,1/2-y,1/2-z
1/2-x,y,1/2-z
-x,-y,-z
1/2+x,1/2+y,-z
-x,1/2+y,1/2+z
1/2+x,-y,1/2+z
loop_
_atom_site_type_symbol
_atom_site_label
_atom_site_fract_x
_atom_site_fract_y
_atom_site_fract_z
Si Si1 0.847931 0.413052 0.154950
Si Si2 0.938517 0.410810 0.329427
Si Si3 0.543726 0.489917 0.935517
Si Si4 0.550065 0.110487 0.910372
Si Si5 0.793843 0.578795 0.365119
Si Si6 0.484031 0.420178 0.715159
Si Si7 0.823323 0.846097 0.998633
Si Si8 0.103211 0.013910 0.528703
O O1 0.887283 0.247707 0.174029
O O2 0.761816 0.452499 0.168396
O O3 0.902976 0.551936 0.182270
O O4 0.850465 0.422044 0.080651
O O5 0.877453 0.555525 0.339102
O O6 0.985378 0.446463 0.268446
O O7 0.995669 0.407411 0.386570
O O8 0.542960 0.304129 0.913610
O O9 0.627191 0.555346 0.949994
O O10 0.500000 0.500000 0.000000
O O11 0.545767 0.063975 0.838808
O O12 0.479443 0.017035 0.941099
O O13 0.612038 0.060510 0.960735
O O14 0.750000 0.750000 0.358375
O O15 0.802434 0.555164 0.439331
O O16 0.490448 0.250000 0.750000
O O17 0.750000 0.750000 0.974946
O O18 0.874907 0.700923 0.024367
#
# Coordination Sequence:
#
# PCOD9390041 Si02
#       8
#     8   8   8   8   8   8   8   8
#     4  11  23  38  59  91 129 165 212 259 310 374
#     4  12  24  39  60  91 124 168 221 267 305 371
#     4  12  21  36  62  91 123 159 212 264 313 376
#     4  10  21  36  60  92 118 157 207 259 315 367
#     4  11  21  39  60  85 131 177 208 254 311 383
#     4  11  23  41  60  84 129 167 214 254 306 377
#     4  11  22  38  58  91 131 159 201 256 329 385
#     4  10  19  36  60  88 123 158 198 259 323 369
#
# _framework density 20.066616
#
# number of rings (size 3 to 8) (size 9 to 14) (size 15 to 20)
#    0.000    1.000    6.250    2.250    3.500    0.500 
#    0.000    3.125    0.000    0.000    0.000    1.750 
#    0.000    0.000    0.000    0.000    0.000    0.000 
#
# Total GULP energy -357006.626136 kJ/mol
# GULP energy per Si atom -5578.228533 kJ/mol
# Density = 2.002094 g / cm^3
# Si number density = 20.066616 Si / 1000 Ang^3
#
#
#
# Elastic Constant Matrix: (Units=GPa)
#
#
# Indices 1 2 3 4 5 6 
#
# 1 31.2304 0.1771 28.9141 0.0000 0.0000 0.0000
# 2 0.1771 67.2445 29.0929 0.0000 0.0000 0.0000
# 3 28.9141 29.0929 135.3244 0.0000 0.0000 0.0000
# 4 0.0000 0.0000 0.0000 29.2036 0.0000 0.0000
# 5 0.0000 0.0000 0.0000 0.0000 4.2487 0.0000
# 6 0.0000 0.0000 0.0000 0.0000 0.0000 19.5836
#
#
#
# Elastic Compliance Matrix: (Units=1/GPa)
#
#
# Indices 1 2 3 4 5 6 
#
# 1 0.040892 0.004049 -0.009608 0.000000 0.000000 0.000000
# 2 0.004049 0.016797 -0.004476 0.000000 0.000000 0.000000
# 3 -0.009608 -0.004476 0.010405 0.000000 0.000000 0.000000
# 4 0.000000 0.000000 0.000000 0.034242 0.000000 0.000000
# 5 0.000000 0.000000 0.000000 0.000000 0.235367 0.000000
# 6 0.000000 0.000000 0.000000 0.000000 0.000000 0.051063
#
#
# Mechanical properties :
#
#
# Convention : Reuss Voigt Hill
#
# Bulk Modulus (GPa) = 20.82284 38.90750 29.86517
# Shear Modulus (GPa) = 11.76902 22.31486 17.04194
#
# Velocity S-wave (km/s) = 2.42440 3.33834 2.91738
# Velocity P-wave (km/s) = 4.27040 5.85582 5.12479
#
# Compressibility (1/GPa) = 0.04802420
#
# Stress axis : x y z
#
# Youngs Moduli (GPa) = 24.45450 59.53417 96.10921
#
# Poissons Ratio (x) = -0.24106 0.92339
# Poissons Ratio (y) = -0.09902 0.43021
# Poissons Ratio (z) = 0.23495 0.26649
#
# Static dielectric constant tensor:
#      x y z
#    x 1.759570 0.000000 0.000000 
#    y 0.000000 1.778770 0.000000 
#    z 0.000000 0.000000 1.771650 
# 
# From -- ./inp_files/34720.got.cif
#   From: 2010.05.17/outbox.cif.g08.bks.cpg/sg48_18_cif.got.tgz:34720.got - 2010.06.03 20:39:00.
