data_PCOD9390207
_publ_section_title
;
Structure prediction by ZEFSAII (Michael W. Deem and Ramdas Pophale) SiO2 
 PCOD9390207
Probable space group: P N N N
;
_chemical_formula_sum "Si O2"
_cell_formula_units_Z 42
_cell_length_a 5.290740
_cell_length_b 18.833700
_cell_length_c 22.737857
_cell_angle_alpha 90.000000
_cell_angle_beta 90.000000
_cell_angle_gamma 90.000000
_cell_volume 2265.695796
_symmetry_space_group_name_H-M "P N N N"
_symmetry_group_IT_number 48
_space_group.IT_coordinate_system_code '2'
_symmetry_cell_setting 'orthorhombic'
loop_
_space_group_symop_operation_xyz
x,y,z
1/2-x,1/2-y,z
x,1/2-y,1/2-z
1/2-x,y,1/2-z
-x,-y,-z
1/2+x,1/2+y,-z
-x,1/2+y,1/2+z
1/2+x,-y,1/2+z
loop_
_atom_site_type_symbol
_atom_site_label
_atom_site_fract_x
_atom_site_fract_y
_atom_site_fract_z
Si Si1 0.750000 0.836587 0.081555
Si Si2 0.750000 0.004849 0.750000
Si Si3 0.250000 0.336280 0.055866
Si Si4 0.250000 0.909545 0.750000
Si Si5 0.250000 0.624573 0.152347
Si Si6 0.250000 0.835807 0.624739
Si Si7 0.250000 0.750000 0.250000
O O1 0.750000 0.750000 0.086906
O O2 0.500562 0.866467 0.113125
O O3 0.999439 0.866467 0.113124
O O4 0.750000 0.855453 0.012672
O O5 0.750000 0.053984 0.808205
O O6 0.499587 0.957609 0.750000
O O7 0.250000 0.250000 0.057210
O O8 0.500503 0.360121 0.089917
O O9 0.999498 0.360121 0.089918
O O10 0.250000 0.863013 0.691028
O O11 0.250000 0.688556 0.198970
O O12 0.250000 0.750000 0.624995
#
# Coordination Sequence:
#
# PCOD9390207 Si02
#       7
#     8   4   8   4   8   8   2
#     4  11  19  34  58  88 116 157 184 236 288 341
#     4  11  26  41  55  82 113 166 186 244 277 340
#     4   9  19  33  56  90 125 140 177 229 303 341
#     4  12  23  42  64  79 114 150 198 222 302 353
#     4  11  22  36  56  82 121 150 203 236 282 321
#     4  10  20  37  62  93 113 140 178 247 288 349
#     4  10  20  34  52  86 110 146 194 252 262 314
#
# _framework density 18.537351000000001
#
# number of rings (size 3 to 8) (size 9 to 14) (size 15 to 20)
#    0.000    1.524    1.905    3.714    0.000    6.095 
#    0.000    3.810    0.000   22.857    0.000    0.000 
#    0.000    0.000    0.000    0.000    0.000    0.000 
#
# Total GULP energy -234096.146588 kJ/mol
# GULP energy per Si atom -5573.717776 kJ/mol
# Density = 1.849516 g / cm^3
# Si number density = 18.537351 Si / 1000 Ang^3
#
#
#
# Elastic Constant Matrix: (Units=GPa)
#
#
# Indices 1 2 3 4 5 6 
#
# 1 215.3501 40.3945 118.5099 0.0000 0.0000 0.0000
# 2 40.3945 32.4613 32.5086 0.0000 0.0000 0.0000
# 3 118.5099 32.5086 210.5242 0.0000 0.0000 0.0000
# 4 0.0000 0.0000 0.0000 42.0235 0.0000 0.0000
# 5 0.0000 0.0000 0.0000 0.0000 13.1871 0.0000
# 6 0.0000 0.0000 0.0000 0.0000 0.0000 -3.9772
#
#
#
# Elastic Compliance Matrix: (Units=1/GPa)
#
#
# Indices 1 2 3 4 5 6 
#
# 1 0.007642 -0.006153 -0.003352 0.000000 0.000000 0.000000
# 2 -0.006153 0.041396 -0.002928 0.000000 0.000000 0.000000
# 3 -0.003352 -0.002928 0.007089 0.000000 0.000000 0.000000
# 4 0.000000 0.000000 0.000000 0.023796 0.000000 0.000000
# 5 0.000000 0.000000 0.000000 0.000000 0.075832 0.000000
# 6 0.000000 0.000000 0.000000 0.000000 0.000000 -0.251436
#
#
# Mechanical properties :
#
#
# Convention : Reuss Voigt Hill
#
# Bulk Modulus (GPa) = 31.98981 93.46242 62.72611
# Shear Modulus (GPa) = -82.79058 28.04151 -27.37453
#
# Velocity S-wave (km/s) = -6.69018 3.89357 -3.84698
# Velocity P-wave (km/s) = 6.51026 8.41077 3.76547
#
# Compressibility (1/GPa) = 0.03125996
#
# Stress axis : x y z
#
# Youngs Moduli (GPa) = 130.84809 24.15716 141.06078
#
# Poissons Ratio (x) = 0.14865 0.47283
# Poissons Ratio (y) = 0.80515 0.41307
# Poissons Ratio (z) = 0.43860 0.07074
#
# Static dielectric constant tensor:
#      x y z
#    x 1.627980 0.000000 0.000000 
#    y 0.000000 1.617160 0.000000 
#    z 0.000000 0.000000 1.600650 
# 
# From -- ./inp_files/32878.got.cif
#   From: 2010.05.17/outbox.cif.g08.bks.cpg/sg48_17_cif.got.tgz:32878.got - 2010.06.03 20:39:00.
