data_PCOD9390362
_publ_section_title
;
Structure prediction by ZEFSAII (Michael W. Deem and Ramdas Pophale) SiO2 
 PCOD9390362
Probable space group: P N N N
;
_chemical_formula_sum "Si O2"
_cell_formula_units_Z 64
_cell_length_a 8.934195
_cell_length_b 20.511764
_cell_length_c 18.783665
_cell_angle_alpha 90.000000
_cell_angle_beta 90.000000
_cell_angle_gamma 90.000000
_cell_volume 3442.221180
_symmetry_space_group_name_H-M "P N N N"
_symmetry_group_IT_number 48
_space_group.IT_coordinate_system_code '2'
_symmetry_cell_setting 'orthorhombic'
loop_
_space_group_symop_operation_xyz
x,y,z
1/2-x,1/2-y,z
x,1/2-y,1/2-z
1/2-x,y,1/2-z
-x,-y,-z
1/2+x,1/2+y,-z
-x,1/2+y,1/2+z
1/2+x,-y,1/2+z
loop_
_atom_site_type_symbol
_atom_site_label
_atom_site_fract_x
_atom_site_fract_y
_atom_site_fract_z
Si Si1 0.400845 0.400954 0.317289
Si Si2 0.154993 0.474170 0.677545
Si Si3 0.692689 0.818327 0.588566
Si Si4 0.214870 0.891503 0.619588
Si Si5 0.195212 0.933195 0.024334
Si Si6 0.705433 0.034946 0.678730
Si Si7 0.559101 0.185229 0.298955
Si Si8 0.664651 0.925955 0.470215
O O1 0.298072 0.344043 0.348024
O O2 0.542621 0.407431 0.368462
O O3 0.301183 0.466868 0.318689
O O4 0.478063 0.373846 0.244995
O O5 0.250000 0.464935 0.750000
O O6 0.195256 0.545090 0.646412
O O7 0.198538 0.424078 0.614034
O O8 0.974346 0.474629 0.683953
O O9 0.750000 0.750000 0.561674
O O10 0.534044 0.809200 0.627482
O O11 0.703187 0.869202 0.524560
O O12 0.246145 0.884532 0.535883
O O13 0.276846 0.835065 0.671501
O O14 0.015386 0.930539 0.024332
O O15 0.243515 0.928333 0.105891
O O16 0.233836 0.006897 0.000042
O O17 0.750000 0.072122 0.750000
O O18 0.551092 0.250000 0.250000
#
# Coordination Sequence:
#
# PCOD9390362 Si02
#       8
#     8   8   8   8   8   8   8   8
#     4  12  24  33  51  82 108 151 191 239 279 330
#     4  10  20  37  58  84 107 147 181 231 300 354
#     4  12  22  39  55  78 110 150 196 240 281 334
#     4  11  22  37  54  76 117 151 192 233 284 339
#     4   9  18  34  56  78 108 155 187 227 289 349
#     4  11  20  33  54  81 115 141 185 230 289 351
#     4  12  24  39  54  76 111 162 202 230 274 341
#     4   9  18  35  58  78 106 149 192 229 284 354
#
# _framework density 18.592645999999998
#
# number of rings (size 3 to 8) (size 9 to 14) (size 15 to 20)
#    0.000    1.250    3.750    5.250    0.000    1.500 
#    2.250    0.000    0.000    0.375    0.000    0.000 
#    0.000    0.000    0.000    0.000    0.000    0.000 
#
# Total GULP energy -356907.052477 kJ/mol
# GULP energy per Si atom -5576.672695 kJ/mol
# Density = 1.855033 g / cm^3
# Si number density = 18.592646 Si / 1000 Ang^3
#
#
#
# Elastic Constant Matrix: (Units=GPa)
#
#
# Indices 1 2 3 4 5 6 
#
# 1 74.1463 -4.3442 29.4691 0.0000 0.0000 0.0000
# 2 -4.3442 38.5316 25.1267 0.0000 0.0000 0.0000
# 3 29.4691 25.1267 147.2797 0.0000 0.0000 0.0000
# 4 0.0000 0.0000 0.0000 27.2531 0.0000 0.0000
# 5 0.0000 0.0000 0.0000 0.0000 14.0160 0.0000
# 6 0.0000 0.0000 0.0000 0.0000 0.0000 15.3330
#
#
#
# Elastic Compliance Matrix: (Units=1/GPa)
#
#
# Indices 1 2 3 4 5 6 
#
# 1 0.015224 0.004166 -0.003757 0.000000 0.000000 0.000000
# 2 0.004166 0.030342 -0.006010 0.000000 0.000000 0.000000
# 3 -0.003757 -0.006010 0.008567 0.000000 0.000000 0.000000
# 4 0.000000 0.000000 0.000000 0.036693 0.000000 0.000000
# 5 0.000000 0.000000 0.000000 0.000000 0.071347 0.000000
# 6 0.000000 0.000000 0.000000 0.000000 0.000000 0.065219
#
#
# Mechanical properties :
#
#
# Convention : Reuss Voigt Hill
#
# Bulk Modulus (GPa) = 23.29300 40.05122 31.67211
# Shear Modulus (GPa) = 19.77040 25.30083 22.53562
#
# Velocity S-wave (km/s) = 3.26444 3.69290 3.48526
# Velocity P-wave (km/s) = 5.17339 6.30647 5.76782
#
# Compressibility (1/GPa) = 0.04293136
#
# Stress axis : x y z
#
# Youngs Moduli (GPa) = 65.68503 32.95791 116.72833
#
# Poissons Ratio (x) = -0.13732 0.43855
# Poissons Ratio (y) = -0.27367 0.70155
# Poissons Ratio (z) = 0.24678 0.19808
#
# Static dielectric constant tensor:
#      x y z
#    x 1.711690 0.000000 0.000000 
#    y 0.000000 1.635150 0.000000 
#    z 0.000000 0.000000 1.710290 
# 
# From -- ./inp_files/30645.got.cif
#   From: 2010.05.17/outbox.cif.g08.bks.cpg/sg48_16_cif.got.tgz:30645.got - 2010.06.03 20:39:00.
