data_PCOD9390645
_publ_section_title
;
Structure prediction by ZEFSAII (Michael W. Deem and Ramdas Pophale) SiO2 
 PCOD9390645
Probable space group: P N N N
;
_chemical_formula_sum "Si O2"
_cell_formula_units_Z 32
_cell_length_a 19.810417
_cell_length_b 5.242746
_cell_length_c 16.372594
_cell_angle_alpha 90.000000
_cell_angle_beta 90.000000
_cell_angle_gamma 90.000000
_cell_volume 1700.473731
_symmetry_space_group_name_H-M "P N N N"
_symmetry_group_IT_number 48
_space_group.IT_coordinate_system_code '2'
_symmetry_cell_setting 'orthorhombic'
loop_
_space_group_symop_operation_xyz
x,y,z
1/2-x,1/2-y,z
x,1/2-y,1/2-z
1/2-x,y,1/2-z
-x,-y,-z
1/2+x,1/2+y,-z
-x,1/2+y,1/2+z
1/2+x,-y,1/2+z
loop_
_atom_site_type_symbol
_atom_site_label
_atom_site_fract_x
_atom_site_fract_y
_atom_site_fract_z
Si Si1 0.506585 0.250000 0.750000
Si Si2 0.087773 0.742973 0.005483
Si Si3 0.322502 0.859199 0.341850
Si Si4 0.103354 0.250000 0.250000
Si Si5 0.937349 0.757677 0.076853
O O1 0.552678 0.507051 0.740396
O O2 0.460141 0.271335 0.829728
O O3 0.126136 0.755382 0.091147
O O4 0.008618 0.749742 0.028273
O O5 0.100803 0.495115 0.951534
O O6 0.101875 0.994743 0.953383
O O7 0.250000 0.750000 0.369324
O O8 0.327034 0.750000 0.250000
O O9 0.346315 0.153970 0.323316
#
# Coordination Sequence:
#
# PCOD9390645 Si02
#       5
#     4   8   8   4   8
#     4  12  22  38  63  90 117 158 192 242 312 356
#     4  10  21  37  54  84 115 152 191 242 291 348
#     4  11  25  41  58  84 120 166 203 232 284 354
#     4  12  22  39  58  86 120 158 197 242 278 350
#     4  10  21  35  59  83 116 148 190 245 300 350
#
# _framework density 18.818286000000001
#
# number of rings (size 3 to 8) (size 9 to 14) (size 15 to 20)
#    0.000    1.250    3.750    1.500   10.500    2.000 
#    0.000    0.000    0.000    0.000    0.000    5.250 
#    0.000    0.000    0.000    0.000    0.000    0.000 
#
# Total GULP energy -178163.789710 kJ/mol
# GULP energy per Si atom -5567.618428 kJ/mol
# Density = 1.877545 g / cm^3
# Si number density = 18.818286 Si / 1000 Ang^3
#
#
#
# Elastic Constant Matrix: (Units=GPa)
#
#
# Indices 1 2 3 4 5 6 
#
# 1 47.8304 45.6596 10.8240 0.0000 0.0000 0.0000
# 2 45.6596 172.4504 74.8429 0.0000 0.0000 0.0000
# 3 10.8240 74.8429 72.4172 0.0000 0.0000 0.0000
# 4 0.0000 0.0000 0.0000 24.1424 0.0000 0.0000
# 5 0.0000 0.0000 0.0000 0.0000 5.5710 0.0000
# 6 0.0000 0.0000 0.0000 0.0000 0.0000 8.1846
#
#
#
# Elastic Compliance Matrix: (Units=1/GPa)
#
#
# Indices 1 2 3 4 5 6 
#
# 1 0.029659 -0.010751 0.006678 0.000000 0.000000 0.000000
# 2 -0.010751 0.014412 -0.013288 0.000000 0.000000 0.000000
# 3 0.006678 -0.013288 0.026544 0.000000 0.000000 0.000000
# 4 0.000000 0.000000 0.000000 0.041421 0.000000 0.000000
# 5 0.000000 0.000000 0.000000 0.000000 0.179500 0.000000
# 6 0.000000 0.000000 0.000000 0.000000 0.000000 0.122180
#
#
# Mechanical properties :
#
#
# Convention : Reuss Voigt Hill
#
# Bulk Modulus (GPa) = 27.86041 61.70566 44.78303
# Shear Modulus (GPa) = 10.86006 18.33772 14.59889
#
# Velocity S-wave (km/s) = 2.40490 3.12503 2.78831
# Velocity P-wave (km/s) = 4.74853 6.77366 5.84940
#
# Compressibility (1/GPa) = 0.03589323
#
# Stress axis : x y z
#
# Youngs Moduli (GPa) = 33.71645 69.38488 37.67332
#
# Poissons Ratio (x) = 0.74597 -0.25159
# Poissons Ratio (y) = 0.36249 0.50061
# Poissons Ratio (z) = -0.22517 0.92200
#
# Static dielectric constant tensor:
#      x y z
#    x 1.659720 0.000000 0.000000 
#    y 0.000000 1.768350 0.000000 
#    z 0.000000 0.000000 1.630960 
# 
# From -- ./inp_files/27591.got.cif
#   From: 2010.05.17/outbox.cif.g08.bks.cpg/sg48_14_cif.got.tgz:27591.got - 2010.06.03 20:39:00.
