data_PCOD9390373
_publ_section_title
;
Structure prediction by ZEFSAII (Michael W. Deem and Ramdas Pophale) SiO2 
 PCOD9390373
Probable space group: P N N N
;
_chemical_formula_sum "Si O2"
_cell_formula_units_Z 64
_cell_length_a 13.066531
_cell_length_b 19.028028
_cell_length_c 13.022880
_cell_angle_alpha 90.000000
_cell_angle_beta 90.000000
_cell_angle_gamma 90.000000
_cell_volume 3237.882792
_symmetry_space_group_name_H-M "P N N N"
_symmetry_group_IT_number 48
_space_group.IT_coordinate_system_code '2'
_symmetry_cell_setting 'orthorhombic'
loop_
_space_group_symop_operation_xyz
x,y,z
1/2-x,1/2-y,z
x,1/2-y,1/2-z
1/2-x,y,1/2-z
-x,-y,-z
1/2+x,1/2+y,-z
-x,1/2+y,1/2+z
1/2+x,-y,1/2+z
loop_
_atom_site_type_symbol
_atom_site_label
_atom_site_fract_x
_atom_site_fract_y
_atom_site_fract_z
Si Si1 0.411016 0.767558 0.867098
Si Si2 0.744336 0.827349 0.628652
Si Si3 0.725215 0.430378 0.639041
Si Si4 0.950540 0.885703 0.549531
Si Si5 0.014162 0.028229 0.645674
Si Si6 0.103561 0.994445 0.857710
Si Si7 0.720995 0.139483 0.420995
Si Si8 0.879302 0.947143 0.928878
O O1 0.443068 0.750000 0.750000
O O2 0.494532 0.811570 0.930027
O O3 0.370641 0.696624 0.920937
O O4 0.313734 0.820495 0.865484
O O5 0.750000 0.750000 0.582643
O O6 0.750000 0.821910 0.750000
O O7 0.837730 0.875559 0.592903
O O8 0.642145 0.868297 0.603224
O O9 0.750000 0.396540 0.750000
O O10 0.607057 0.453790 0.648383
O O11 0.744764 0.383802 0.536470
O O12 0.801615 0.497109 0.624244
O O13 0.942620 0.916329 0.435599
O O14 0.014412 0.947396 0.606604
O O15 0.079019 0.029209 0.749419
O O16 0.181969 0.929607 0.862122
O O17 0.993087 0.966069 0.895030
O O18 0.136304 0.045649 0.949416
#
# Coordination Sequence:
#
# PCOD9390373 Si02
#       8
#     8   8   8   8   8   8   8   8
#     4  11  23  40  60  86 128 165 201 251 318 379
#     4  11  24  39  62  90 122 158 202 252 313 368
#     4  11  19  37  63  86 127 161 207 258 307 358
#     4  11  24  39  62  92 123 159 203 260 309 369
#     4  11  21  38  61  94 123 158 207 261 309 358
#     4  10  21  35  64  93 122 163 205 256 308 362
#     4  10  22  38  58  92 125 166 203 250 308 377
#     4  10  20  37  59  93 123 158 207 254 304 361
#
# _framework density 19.766003000000001
#
# number of rings (size 3 to 8) (size 9 to 14) (size 15 to 20)
#    0.000    1.375    3.750    2.625    3.500    0.000 
#    0.000    3.125    0.000    3.000    0.000    0.000 
#    0.000    0.000    0.000    0.000    0.000    0.000 
#
# Total GULP energy -357397.711752 kJ/mol
# GULP energy per Si atom -5584.339246 kJ/mol
# Density = 1.972101 g / cm^3
# Si number density = 19.766003 Si / 1000 Ang^3
#
#
#
# Elastic Constant Matrix: (Units=GPa)
#
#
# Indices 1 2 3 4 5 6 
#
# 1 34.9065 1.3855 17.6153 0.0000 0.0000 0.0000
# 2 1.3855 75.4136 41.0443 0.0000 0.0000 0.0000
# 3 17.6153 41.0443 136.9194 0.0000 0.0000 0.0000
# 4 0.0000 0.0000 0.0000 24.4203 0.0000 0.0000
# 5 0.0000 0.0000 0.0000 0.0000 26.4683 0.0000
# 6 0.0000 0.0000 0.0000 0.0000 0.0000 53.0658
#
#
#
# Elastic Compliance Matrix: (Units=1/GPa)
#
#
# Indices 1 2 3 4 5 6 
#
# 1 0.030864 0.001905 -0.004542 0.000000 0.000000 0.000000
# 2 0.001905 0.015963 -0.005030 0.000000 0.000000 0.000000
# 3 -0.004542 -0.005030 0.009396 0.000000 0.000000 0.000000
# 4 0.000000 0.000000 0.000000 0.040949 0.000000 0.000000
# 5 0.000000 0.000000 0.000000 0.000000 0.037781 0.000000
# 6 0.000000 0.000000 0.000000 0.000000 0.000000 0.018845
#
#
# Mechanical properties :
#
#
# Convention : Reuss Voigt Hill
#
# Bulk Modulus (GPa) = 24.45668 40.81442 32.63555
# Shear Modulus (GPa) = 27.35795 33.27052 30.31424
#
# Velocity S-wave (km/s) = 3.72437 4.10716 3.92044
# Velocity P-wave (km/s) = 5.55829 6.57155 6.08604
#
# Compressibility (1/GPa) = 0.04088863
#
# Stress axis : x y z
#
# Youngs Moduli (GPa) = 32.39986 62.64497 106.43016
#
# Poissons Ratio (x) = -0.11933 0.48339
# Poissons Ratio (y) = -0.06172 0.53538
# Poissons Ratio (z) = 0.14716 0.31512
#
# Static dielectric constant tensor:
#      x y z
#    x 1.750610 0.000000 0.000000 
#    y 0.000000 1.696520 0.000000 
#    z 0.000000 0.000000 1.642350 
# 
# From -- ./inp_files/21578.got.cif
#   From: 2010.05.17/outbox.cif.g08.bks.cpg/sg48_11_cif.got.tgz:21578.got - 2010.06.03 20:39:00.
