data_PCOD9390552
_publ_section_title
;
Structure prediction by ZEFSAII (Michael W. Deem and Ramdas Pophale) SiO2 
 PCOD9390552
Probable space group: P N N N
;
_chemical_formula_sum "Si O2"
_cell_formula_units_Z 48
_cell_length_a 9.464171
_cell_length_b 16.893875
_cell_length_c 14.157357
_cell_angle_alpha 90.000000
_cell_angle_beta 90.000000
_cell_angle_gamma 90.000000
_cell_volume 2263.570569
_symmetry_space_group_name_H-M "P N N N"
_symmetry_group_IT_number 48
_space_group.IT_coordinate_system_code '2'
_symmetry_cell_setting 'orthorhombic'
loop_
_space_group_symop_operation_xyz
x,y,z
1/2-x,1/2-y,z
x,1/2-y,1/2-z
1/2-x,y,1/2-z
-x,-y,-z
1/2+x,1/2+y,-z
-x,1/2+y,1/2+z
1/2+x,-y,1/2+z
loop_
_atom_site_type_symbol
_atom_site_label
_atom_site_fract_x
_atom_site_fract_y
_atom_site_fract_z
Si Si1 0.156410 0.621304 0.435676
Si Si2 0.250000 0.750000 0.940577
Si Si3 0.750000 0.469105 0.750000
Si Si4 0.460536 0.058150 0.130139
Si Si5 0.350051 0.179376 0.543849
Si Si6 0.548637 0.755228 0.858889
Si Si7 0.772262 0.991960 0.453471
O O1 0.270722 0.676896 0.487794
O O2 0.205544 0.586201 0.336964
O O3 0.147025 0.549297 0.511218
O O4 0.012999 0.671457 0.424221
O O5 0.384945 0.733121 0.876652
O O6 0.881633 0.525206 0.777669
O O7 0.444841 0.151787 0.116799
O O8 0.623394 0.030795 0.123254
O O9 0.371860 0.018516 0.045437
O O10 0.250000 0.250000 0.580988
O O11 0.367523 0.198993 0.431470
O O12 0.282238 0.095264 0.568316
O O13 0.588197 0.750000 0.750000
#
# Coordination Sequence:
#
# PCOD9390552 Si02
#       7
#     8   4   4   8   8   8   8
#     4  10  22  40  68  88 126 169 218 261 317 385
#     4  10  21  43  60  90 124 172 212 255 325 378
#     4  10  24  41  65  98 118 164 226 268 313 383
#     4  10  21  38  65  91 131 167 209 265 319 378
#     4  11  23  39  64  96 129 168 211 259 326 384
#     4  11  23  37  62  96 131 165 204 270 319 387
#     4  10  20  41  62  90 130 175 210 247 319 399
#
# _framework density 21.205435000000001
#
# number of rings (size 3 to 8) (size 9 to 14) (size 15 to 20)
#    0.000    1.667    3.333    0.750    4.667    0.667 
#    0.000    0.833    0.000    3.000    0.000    0.000 
#    0.000    0.000    0.000    0.000    0.000    0.000 
#
# Total GULP energy -267723.065121 kJ/mol
# GULP energy per Si atom -5577.563857 kJ/mol
# Density = 2.115717 g / cm^3
# Si number density = 21.205435 Si / 1000 Ang^3
#
#
#
# Elastic Constant Matrix: (Units=GPa)
#
#
# Indices 1 2 3 4 5 6 
#
# 1 95.2850 19.5186 13.0580 0.0000 0.0000 0.0000
# 2 19.5186 106.9669 13.9932 0.0000 0.0000 0.0000
# 3 13.0580 13.9932 51.3889 0.0000 0.0000 0.0000
# 4 0.0000 0.0000 0.0000 19.6340 0.0000 0.0000
# 5 0.0000 0.0000 0.0000 0.0000 7.3373 0.0000
# 6 0.0000 0.0000 0.0000 0.0000 0.0000 39.7305
#
#
#
# Elastic Compliance Matrix: (Units=1/GPa)
#
#
# Indices 1 2 3 4 5 6 
#
# 1 0.011174 -0.001729 -0.002368 0.000000 0.000000 0.000000
# 2 -0.001729 0.009962 -0.002273 0.000000 0.000000 0.000000
# 3 -0.002368 -0.002273 0.020680 0.000000 0.000000 0.000000
# 4 0.000000 0.000000 0.000000 0.050932 0.000000 0.000000
# 5 0.000000 0.000000 0.000000 0.000000 0.136291 0.000000
# 6 0.000000 0.000000 0.000000 0.000000 0.000000 0.025170
#
#
# Mechanical properties :
#
#
# Convention : Reuss Voigt Hill
#
# Bulk Modulus (GPa) = 34.39484 38.53115 36.46299
# Shear Modulus (GPa) = 18.07401 27.14509 22.60955
#
# Velocity S-wave (km/s) = 2.92263 3.58173 3.26884
# Velocity P-wave (km/s) = 5.25776 5.94264 5.61066
#
# Compressibility (1/GPa) = 0.02907413
#
# Stress axis : x y z
#
# Youngs Moduli (GPa) = 89.49681 100.38584 48.35532
#
# Poissons Ratio (x) = 0.17357 0.11452
# Poissons Ratio (y) = 0.15474 0.10992
# Poissons Ratio (z) = 0.21196 0.22820
#
# Static dielectric constant tensor:
#      x y z
#    x 1.827530 0.000000 0.000000 
#    y 0.000000 1.797050 0.000000 
#    z 0.000000 0.000000 1.766930 
# 
# From -- ./inp_files/26491.got.cif
#   From: 2010.05.17/outbox.cif.g08.bks.cpg/sg48_14_cif.got.tgz:26491.got - 2010.06.03 20:39:00.
