data_PCOD9390284
_publ_section_title
;
Structure prediction by ZEFSAII (Michael W. Deem and Ramdas Pophale) SiO2 
 PCOD9390284
Probable space group: P N N N
;
_chemical_formula_sum "Si O2"
_cell_formula_units_Z 50
_cell_length_a 14.060000
_cell_length_b 26.835140
_cell_length_c 6.100238
_cell_angle_alpha 90.000000
_cell_angle_beta 90.000000
_cell_angle_gamma 90.000000
_cell_volume 2301.632415
_symmetry_space_group_name_H-M "P N N N"
_symmetry_group_IT_number 48
_space_group.IT_coordinate_system_code '2'
_symmetry_cell_setting 'orthorhombic'
loop_
_space_group_symop_operation_xyz
x,y,z
1/2-x,1/2-y,z
x,1/2-y,1/2-z
1/2-x,y,1/2-z
-x,-y,-z
1/2+x,1/2+y,-z
-x,1/2+y,1/2+z
1/2+x,-y,1/2+z
loop_
_atom_site_type_symbol
_atom_site_label
_atom_site_fract_x
_atom_site_fract_y
_atom_site_fract_z
Si Si1 0.250000 0.665472 0.750000
Si Si2 0.154964 0.429955 0.387896
Si Si3 0.750000 0.996200 0.250000
Si Si4 0.750000 0.750000 0.250000
Si Si5 0.673948 0.420994 0.559025
Si Si6 0.975336 0.891078 0.543151
Si Si7 0.549800 0.197704 0.353336
Si Si8 0.606118 0.833390 0.346718
O O1 0.290431 0.628582 0.564540
O O2 0.163705 0.695975 0.644590
O O3 0.250000 0.433282 0.250000
O O4 0.177274 0.465492 0.594886
O O5 0.140145 0.375521 0.487569
O O6 0.070847 0.432348 0.205299
O O7 0.813541 0.032349 0.399056
O O8 0.678614 0.787891 0.367883
O O9 0.750000 0.429500 0.750000
O O10 0.561956 0.412996 0.602986
O O11 0.901686 0.861858 0.385886
O O12 0.018375 0.847949 0.697937
O O13 0.518102 0.250000 0.250000
O O14 0.497368 0.187064 0.582173
#
# Coordination Sequence:
#
# PCOD9390284 Si02
#       8
#     4   8   4   2   8   8   8   8
#     4   9  19  36  58  86 122 164 202 251 313 368
#     4  11  23  42  62  84 120 159 200 252 312 375
#     4  11  23  40  63  91 119 151 198 255 311 382
#     4  12  22  36  60  88 122 164 208 250 298 350
#     4  10  21  39  63  90 121 157 202 254 313 379
#     4  10  22  40  62  88 121 164 205 252 314 375
#     4  10  20  35  58  88 123 161 208 257 305 365
#     4  11  23  39  60  87 122 163 207 255 304 365
#
# _framework density 21.723713
#
# number of rings (size 3 to 8) (size 9 to 14) (size 15 to 20)
#    0.000    1.600    0.000    5.040    0.000    3.200 
#    0.000    8.800    0.000    2.880    0.000    0.000 
#    0.000    0.000    0.000    0.000    0.000    0.000 
#
# Total GULP energy -278927.560136 kJ/mol
# GULP energy per Si atom -5578.551203 kJ/mol
# Density = 2.167427 g / cm^3
# Si number density = 21.723713 Si / 1000 Ang^3
#
#
#
# Elastic Constant Matrix: (Units=GPa)
#
#
# Indices 1 2 3 4 5 6 
#
# 1 105.9742 37.4860 38.2869 0.0000 0.0000 0.0000
# 2 37.4860 75.7635 16.7786 0.0000 0.0000 0.0000
# 3 38.2869 16.7786 73.2810 0.0000 0.0000 0.0000
# 4 0.0000 0.0000 0.0000 13.1595 0.0000 0.0000
# 5 0.0000 0.0000 0.0000 0.0000 28.7552 0.0000
# 6 0.0000 0.0000 0.0000 0.0000 0.0000 1.0700
#
#
#
# Elastic Compliance Matrix: (Units=1/GPa)
#
#
# Indices 1 2 3 4 5 6 
#
# 1 0.013422 -0.005360 -0.005786 0.000000 0.000000 0.000000
# 2 -0.005360 0.016044 -0.000873 0.000000 0.000000 0.000000
# 3 -0.005786 -0.000873 0.016869 0.000000 0.000000 0.000000
# 4 0.000000 0.000000 0.000000 0.075991 0.000000 0.000000
# 5 0.000000 0.000000 0.000000 0.000000 0.034776 0.000000
# 6 0.000000 0.000000 0.000000 0.000000 0.000000 0.934586
#
#
# Mechanical properties :
#
#
# Convention : Reuss Voigt Hill
#
# Bulk Modulus (GPa) = 44.84650 48.90242 46.87446
# Shear Modulus (GPa) = 4.45173 19.42807 11.93990
#
# Velocity S-wave (km/s) = 1.43307 2.99377 2.34695
# Velocity P-wave (km/s) = 4.84016 5.87454 5.38225
#
# Compressibility (1/GPa) = 0.02229828
#
# Stress axis : x y z
#
# Youngs Moduli (GPa) = 74.50229 62.32759 59.28098
#
# Poissons Ratio (x) = 0.33406 0.34297
# Poissons Ratio (y) = 0.39932 0.05177
# Poissons Ratio (z) = 0.43104 0.05443
#
# Static dielectric constant tensor:
#      x y z
#    x 1.858610 0.000000 0.000000 
#    y 0.000000 1.763220 0.000000 
#    z 0.000000 0.000000 1.845560 
# 
# From -- ./inp_files/3613.got.cif
#   From: 2010.05.17/outbox.cif.g08.bks.cpg/sg48_2_cif.got.tgz:3613.got - 2010.06.03 20:39:00.
