data_PCOD9390183
_publ_section_title
;
Structure prediction by ZEFSAII (Michael W. Deem and Ramdas Pophale) SiO2 
 PCOD9390183
Probable space group: P N N N
;
_chemical_formula_sum "Si O2"
_cell_formula_units_Z 32
_cell_length_a 5.053923
_cell_length_b 22.896399
_cell_length_c 16.640775
_cell_angle_alpha 90.000000
_cell_angle_beta 90.000000
_cell_angle_gamma 90.000000
_cell_volume 1925.614529
_symmetry_space_group_name_H-M "P N N N"
_symmetry_group_IT_number 48
_space_group.IT_coordinate_system_code '2'
_symmetry_cell_setting 'orthorhombic'
loop_
_space_group_symop_operation_xyz
x,y,z
1/2-x,1/2-y,z
x,1/2-y,1/2-z
1/2-x,y,1/2-z
-x,-y,-z
1/2+x,1/2+y,-z
-x,1/2+y,1/2+z
1/2+x,-y,1/2+z
loop_
_atom_site_type_symbol
_atom_site_label
_atom_site_fract_x
_atom_site_fract_y
_atom_site_fract_z
Si Si1 0.382757 0.547991 0.436147
Si Si2 0.750120 0.387417 0.088343
Si Si3 0.651179 0.983520 0.341630
Si Si4 0.246276 0.319252 0.346189
O O1 0.500000 0.500000 0.500000
O O2 0.268349 0.597608 0.494026
O O3 0.648636 0.560369 0.387211
O O4 0.148329 0.527238 0.375242
O O5 0.714913 0.449775 0.132593
O O6 0.510258 0.347105 0.114275
O O7 0.010157 0.354419 0.117173
O O8 0.750000 0.978834 0.250000
O O9 0.250000 0.250000 0.360952
O O10 0.250000 0.327929 0.250000
#
# Coordination Sequence:
#
# PCOD9390183 Si02
#       4
#     8   8   8   8
#     4  10  20  33  49  73 102 133 168 206 244 298
#     4  11  20  34  51  69 100 138 166 196 247 292
#     4  11  20  32  51  76 104 134 168 202 246 304
#     4  11  22  34  49  72 100 131 171 210 238 278
#
# _framework density 16.618071
#
# number of rings (size 3 to 8) (size 9 to 14) (size 15 to 20)
#    0.000    1.250    0.000   11.250    0.000    2.000 
#    0.000    0.000    0.000    0.000    0.000    0.000 
#    0.000   70.000    0.000    0.000    0.000    0.000 
#
# Total GULP energy -178261.485735 kJ/mol
# GULP energy per Si atom -5570.671429 kJ/mol
# Density = 1.658025 g / cm^3
# Si number density = 16.618071 Si / 1000 Ang^3
#
#
#
# Elastic Constant Matrix: (Units=GPa)
#
#
# Indices 1 2 3 4 5 6 
#
# 1 156.1774 39.1538 22.1140 0.0000 0.0000 0.0000
# 2 39.1538 67.5593 21.2543 0.0000 0.0000 0.0000
# 3 22.1140 21.2543 71.8840 0.0000 0.0000 0.0000
# 4 0.0000 0.0000 0.0000 25.6168 0.0000 0.0000
# 5 0.0000 0.0000 0.0000 0.0000 24.0516 0.0000
# 6 0.0000 0.0000 0.0000 0.0000 0.0000 -44.3897
#
#
#
# Elastic Compliance Matrix: (Units=1/GPa)
#
#
# Indices 1 2 3 4 5 6 
#
# 1 0.007575 -0.004032 -0.001138 0.000000 0.000000 0.000000
# 2 -0.004032 0.018466 -0.004220 0.000000 0.000000 0.000000
# 3 -0.001138 -0.004220 0.015509 0.000000 0.000000 0.000000
# 4 0.000000 0.000000 0.000000 0.039037 0.000000 0.000000
# 5 0.000000 0.000000 0.000000 0.000000 0.041577 0.000000
# 6 0.000000 0.000000 0.000000 0.000000 0.000000 -0.022528
#
#
# Mechanical properties :
#
#
# Convention : Reuss Voigt Hill
#
# Bulk Modulus (GPa) = 43.91623 51.18500 47.55061
# Shear Modulus (GPa) = 39.68064 15.26232 27.47148
#
# Velocity S-wave (km/s) = 4.89181 3.03383 4.07025
# Velocity P-wave (km/s) = 7.64138 6.56809 7.12497
#
# Compressibility (1/GPa) = 0.02277062
#
# Stress axis : x y z
#
# Youngs Moduli (GPa) = 132.01404 54.15348 64.47840
#
# Poissons Ratio (x) = 0.21835 0.07339
# Poissons Ratio (y) = 0.53228 0.27207
# Poissons Ratio (z) = 0.15025 0.22850
#
# Static dielectric constant tensor:
#      x y z
#    x 1.585870 0.000000 0.000000 
#    y 0.000000 1.605620 0.000000 
#    z 0.000000 0.000000 1.632330 
# 
# From -- ./inp_files/3051.got.cif
#   From: 2010.05.17/outbox.cif.g08.bks.cpg/sg48_2_cif.got.tgz:3051.got - 2010.06.03 20:39:00.
