data_PCOD9390714
_publ_section_title
;
Structure prediction by ZEFSAII (Michael W. Deem and Ramdas Pophale) SiO2 
 PCOD9390714
Probable space group: P N N N
;
_chemical_formula_sum "Si O2"
_cell_formula_units_Z 56
_cell_length_a 5.350285
_cell_length_b 23.463477
_cell_length_c 21.940068
_cell_angle_alpha 90.000000
_cell_angle_beta 90.000000
_cell_angle_gamma 90.000000
_cell_volume 2754.274718
_symmetry_space_group_name_H-M "P N N N"
_symmetry_group_IT_number 48
_space_group.IT_coordinate_system_code '2'
_symmetry_cell_setting 'orthorhombic'
loop_
_space_group_symop_operation_xyz
x,y,z
1/2-x,1/2-y,z
x,1/2-y,1/2-z
1/2-x,y,1/2-z
-x,-y,-z
1/2+x,1/2+y,-z
-x,1/2+y,1/2+z
1/2+x,-y,1/2+z
loop_
_atom_site_type_symbol
_atom_site_label
_atom_site_fract_x
_atom_site_fract_y
_atom_site_fract_z
Si Si1 0.008356 0.394250 0.994129
Si Si2 0.969572 0.072486 0.928382
Si Si3 0.905051 0.592252 0.687609
Si Si4 0.379963 0.026091 0.093061
Si Si5 0.001468 0.233069 0.480808
Si Si6 0.002818 0.719366 0.655889
Si Si7 0.218126 0.475439 0.681015
O O1 0.280775 0.408634 0.964942
O O2 0.774203 0.391783 0.947952
O O3 0.955186 0.446011 0.040554
O O4 0.012641 0.334327 0.029105
O O5 0.854463 0.008243 0.934708
O O6 0.051324 0.068260 0.857838
O O7 0.750000 0.592592 0.750000
O O8 0.719736 0.578396 0.632417
O O9 0.017642 0.653762 0.674340
O O10 0.091268 0.538329 0.687044
O O11 0.536230 0.986609 0.139511
O O12 0.750000 0.250000 0.514045
O O13 0.250000 0.250000 0.515736
O O14 0.000066 0.269605 0.417736
O O15 0.750000 0.750000 0.677938
O O16 0.250000 0.750000 0.678650
O O17 0.250000 0.455738 0.750000
#
# Coordination Sequence:
#
# PCOD9390714 Si02
#       7
#     8   8   8   8   8   8   8
#     4  12  24  39  64  91 131 166 217 264 326 389
#     4  11  25  41  62  95 125 168 211 263 326 393
#     4  11  24  39  62  90 125 177 231 269 319 373
#     4  11  23  39  64  91 129 169 214 267 320 388
#     4  10  21  38  59  88 121 165 208 257 322 370
#     4  10  23  40  59  82 115 159 224 275 317 351
#     4  11  24  42  65  92 132 171 215 262 318 383
#
# _framework density 20.332032999999999
#
# number of rings (size 3 to 8) (size 9 to 14) (size 15 to 20)
#    0.000    1.143    2.857    3.429   10.000    0.286 
#    0.000    0.714    0.000    0.000    0.000    0.000 
#    0.000    8.571    0.000    0.000    0.000    0.000 
#
# Total GULP energy -312468.264430 kJ/mol
# GULP energy per Si atom -5579.790436 kJ/mol
# Density = 2.028576 g / cm^3
# Si number density = 20.332033 Si / 1000 Ang^3
#
#
#
# Elastic Constant Matrix: (Units=GPa)
#
#
# Indices 1 2 3 4 5 6 
#
# 1 145.7627 12.4968 34.8088 0.0000 0.0000 0.0000
# 2 12.4968 54.4969 23.7144 0.0000 0.0000 0.0000
# 3 34.8088 23.7144 80.9116 0.0000 0.0000 0.0000
# 4 0.0000 0.0000 0.0000 17.7224 0.0000 0.0000
# 5 0.0000 0.0000 0.0000 0.0000 27.5058 0.0000
# 6 0.0000 0.0000 0.0000 0.0000 0.0000 31.5191
#
#
#
# Elastic Compliance Matrix: (Units=1/GPa)
#
#
# Indices 1 2 3 4 5 6 
#
# 1 0.007652 -0.000369 -0.003184 0.000000 0.000000 0.000000
# 2 -0.000369 0.021050 -0.006011 0.000000 0.000000 0.000000
# 3 -0.003184 -0.006011 0.015491 0.000000 0.000000 0.000000
# 4 0.000000 0.000000 0.000000 0.056426 0.000000 0.000000
# 5 0.000000 0.000000 0.000000 0.000000 0.036356 0.000000
# 6 0.000000 0.000000 0.000000 0.000000 0.000000 0.031727
#
#
# Mechanical properties :
#
#
# Convention : Reuss Voigt Hill
#
# Bulk Modulus (GPa) = 39.89595 47.02347 43.45971
# Shear Modulus (GPa) = 25.48624 29.35954 27.42289
#
# Velocity S-wave (km/s) = 3.54432 3.80413 3.67652
# Velocity P-wave (km/s) = 6.03444 6.51714 6.28043
#
# Compressibility (1/GPa) = 0.02506520
#
# Stress axis : x y z
#
# Youngs Moduli (GPa) = 130.67692 47.50622 64.55543
#
# Poissons Ratio (x) = 0.01755 0.20554
# Poissons Ratio (y) = 0.04826 0.38802
# Poissons Ratio (z) = 0.41606 0.28554
#
# Static dielectric constant tensor:
#      x y z
#    x 1.864840 0.000000 0.000000 
#    y 0.000000 1.711410 0.000000 
#    z 0.000000 0.000000 1.748150 
# 
# From -- ./inp_files/5969.got.cif
#   From: 2010.05.17/outbox.cif.g08.bks.cpg/sg48_3_cif.got.tgz:5969.got - 2010.06.03 20:39:00.
