data_PCOD9390046
_publ_section_title
;
Structure prediction by ZEFSAII (Michael W. Deem and Ramdas Pophale) SiO2 
 PCOD9390046
Probable space group: P N N N
;
_chemical_formula_sum "Si O2"
_cell_formula_units_Z 40
_cell_length_a 13.539070
_cell_length_b 14.641277
_cell_length_c 7.396707
_cell_angle_alpha 90.000000
_cell_angle_beta 90.000000
_cell_angle_gamma 90.000000
_cell_volume 1466.243860
_symmetry_space_group_name_H-M "P N N N"
_symmetry_group_IT_number 48
_space_group.IT_coordinate_system_code '2'
_symmetry_cell_setting 'orthorhombic'
loop_
_space_group_symop_operation_xyz
x,y,z
1/2-x,1/2-y,z
x,1/2-y,1/2-z
1/2-x,y,1/2-z
-x,-y,-z
1/2+x,1/2+y,-z
-x,1/2+y,1/2+z
1/2+x,-y,1/2+z
loop_
_atom_site_type_symbol
_atom_site_label
_atom_site_fract_x
_atom_site_fract_y
_atom_site_fract_z
Si Si1 0.946048 0.191569 0.488577
Si Si2 0.421859 0.893665 0.620354
Si Si3 0.424380 0.986780 0.164083
Si Si4 0.361799 0.269480 0.963983
Si Si5 0.275156 0.041756 0.535350
O O1 0.937854 0.301227 0.494060
O O2 0.891653 0.149262 0.315583
O O3 0.064292 0.197714 0.444636
O O4 0.919298 0.124648 0.652527
O O5 0.507895 0.965527 0.681662
O O6 0.335380 0.948659 0.525721
O O7 0.500000 0.000000 0.000000
O O8 0.320019 0.029477 0.094948
O O9 0.250000 0.250000 0.014594
O O10 0.376117 0.250000 0.750000
O O11 0.353601 0.376939 0.999383
O O12 0.250000 0.054902 0.750000
#
# Coordination Sequence:
#
# PCOD9390046 Si02
#       5
#     8   8   8   8   8
#     4  10  21  38  58  90 129 172 219 279 353 419
#     4  10  22  38  61  91 131 170 220 285 347 423
#     4  10  19  36  61  89 132 167 216 285 351 409
#     4  11  21  34  60  93 124 164 223 285 346 433
#     4  12  20  36  61  93 124 169 220 277 352 429
#
# _framework density 27.280591999999999
#
# number of rings (size 3 to 8) (size 9 to 14) (size 15 to 20)
#    0.000    1.400    6.000    3.600    0.000    1.600 
#    0.000    7.000    0.000    0.000    0.000    1.400 
#    0.000    0.000    0.000    0.000    0.000    0.000 
#
# Total GULP energy -222998.881549 kJ/mol
# GULP energy per Si atom -5574.972039 kJ/mol
# Density = 2.721850 g / cm^3
# Si number density = 27.280592 Si / 1000 Ang^3
#
#
#
# Elastic Constant Matrix: (Units=GPa)
#
#
# Indices 1 2 3 4 5 6 
#
# 1 107.9601 72.8712 25.0941 0.0000 0.0000 0.0000
# 2 72.8712 214.0863 57.2066 0.0000 0.0000 0.0000
# 3 25.0941 57.2066 82.5264 0.0000 0.0000 0.0000
# 4 0.0000 0.0000 0.0000 19.4052 0.0000 0.0000
# 5 0.0000 0.0000 0.0000 0.0000 38.2255 0.0000
# 6 0.0000 0.0000 0.0000 0.0000 0.0000 2.2864
#
#
#
# Elastic Compliance Matrix: (Units=1/GPa)
#
#
# Indices 1 2 3 4 5 6 
#
# 1 0.012094 -0.003846 -0.001011 0.000000 0.000000 0.000000
# 2 -0.003846 0.006956 -0.003652 0.000000 0.000000 0.000000
# 3 -0.001011 -0.003652 0.014957 0.000000 0.000000 0.000000
# 4 0.000000 0.000000 0.000000 0.051532 0.000000 0.000000
# 5 0.000000 0.000000 0.000000 0.000000 0.026161 0.000000
# 6 0.000000 0.000000 0.000000 0.000000 0.000000 0.437360
#
#
# Mechanical properties :
#
#
# Convention : Reuss Voigt Hill
#
# Bulk Modulus (GPa) = 58.86896 79.43516 69.15206
# Shear Modulus (GPa) = 8.74520 28.61017 18.67768
#
# Velocity S-wave (km/s) = 1.79237 3.24193 2.61942
# Velocity P-wave (km/s) = 5.09013 6.57226 5.87809
#
# Compressibility (1/GPa) = 0.01698688
#
# Stress axis : x y z
#
# Youngs Moduli (GPa) = 82.68602 143.75623 66.85995
#
# Poissons Ratio (x) = 0.55294 0.06761
# Poissons Ratio (y) = 0.31804 0.24420
# Poissons Ratio (z) = 0.08361 0.52506
#
# Static dielectric constant tensor:
#      x y z
#    x 2.264850 0.000000 0.000000 
#    y 0.000000 2.995760 0.000000 
#    z 0.000000 0.000000 1.646320 
# 
# From -- ./inp_files/12338.got.cif
#   From: 2010.05.17/outbox.cif.g08.bks.cpg/sg48_7_cif.got.tgz:12338.got - 2010.06.03 20:39:00.
