data_PCOD9390550
_publ_section_title
;
Structure prediction by ZEFSAII (Michael W. Deem and Ramdas Pophale) SiO2 
 PCOD9390550
Probable space group: P N N N
;
_chemical_formula_sum "Si O2"
_cell_formula_units_Z 32
_cell_length_a 9.201268
_cell_length_b 9.411325
_cell_length_c 13.419469
_cell_angle_alpha 90.000000
_cell_angle_beta 90.000000
_cell_angle_gamma 90.000000
_cell_volume 1162.073996
_symmetry_space_group_name_H-M "P N N N"
_symmetry_group_IT_number 48
_space_group.IT_coordinate_system_code '2'
_symmetry_cell_setting 'orthorhombic'
loop_
_space_group_symop_operation_xyz
x,y,z
1/2-x,1/2-y,z
x,1/2-y,1/2-z
1/2-x,y,1/2-z
-x,-y,-z
1/2+x,1/2+y,-z
-x,1/2+y,1/2+z
1/2+x,-y,1/2+z
loop_
_atom_site_type_symbol
_atom_site_label
_atom_site_fract_x
_atom_site_fract_y
_atom_site_fract_z
Si Si1 0.159382 0.116643 0.485035
Si Si2 0.900571 0.447010 0.633259
Si Si3 0.996471 0.653203 0.168552
Si Si4 0.586635 0.215826 0.367856
O O1 0.250000 0.250000 0.525453
O O2 0.085704 0.062736 0.586786
O O3 0.044133 0.194013 0.414190
O O4 0.235625 0.012936 0.075686
O O5 0.904292 0.434886 0.754634
O O6 0.922855 0.280505 0.608840
O O7 0.037412 0.551733 0.612876
O O8 0.910454 0.750000 0.250000
O O9 0.750000 0.250000 0.401982
O O10 0.584787 0.250000 0.250000
#
# Coordination Sequence:
#
# PCOD9390550 Si02
#       4
#     8   8   8   8
#     4  10  20  40  78 111 153 221 274 323 418 490
#     4   8  20  43  74 109 159 209 276 328 402 500
#     4   8  20  44  73 118 161 209 261 349 399 474
#     4  10  22  43  69 108 153 209 269 337 402 481
#
# _framework density 27.536975000000002
#
# number of rings (size 3 to 8) (size 9 to 14) (size 15 to 20)
#    1.500    1.250    0.000    0.000    0.000    9.000 
#   18.000    1.250   16.500   12.750    0.000    0.000 
#    7.500    0.250    0.000    0.000    0.000    0.000 
#
# Total GULP energy -178879.870298 kJ/mol
# GULP energy per Si atom -5589.995947 kJ/mol
# Density = 2.747430 g / cm^3
# Si number density = 27.536975 Si / 1000 Ang^3
#
#
#
# Elastic Constant Matrix: (Units=GPa)
#
#
# Indices 1 2 3 4 5 6 
#
# 1 174.4582 58.1977 83.2455 0.0000 0.0000 0.0000
# 2 58.1977 149.2991 40.0871 0.0000 0.0000 0.0000
# 3 83.2455 40.0871 187.8550 0.0000 0.0000 0.0000
# 4 0.0000 0.0000 0.0000 34.8214 0.0000 0.0000
# 5 0.0000 0.0000 0.0000 0.0000 22.6135 0.0000
# 6 0.0000 0.0000 0.0000 0.0000 0.0000 27.8954
#
#
#
# Elastic Compliance Matrix: (Units=1/GPa)
#
#
# Indices 1 2 3 4 5 6 
#
# 1 0.007939 -0.002281 -0.003032 0.000000 0.000000 0.000000
# 2 -0.002281 0.007760 -0.000645 0.000000 0.000000 0.000000
# 3 -0.003032 -0.000645 0.006804 0.000000 0.000000 0.000000
# 4 0.000000 0.000000 0.000000 0.028718 0.000000 0.000000
# 5 0.000000 0.000000 0.000000 0.000000 0.044221 0.000000
# 6 0.000000 0.000000 0.000000 0.000000 0.000000 0.035848
#
#
# Mechanical properties :
#
#
# Convention : Reuss Voigt Hill
#
# Bulk Modulus (GPa) = 94.43984 97.18588 95.81286
# Shear Modulus (GPa) = 34.07467 39.07152 36.57310
#
# Velocity S-wave (km/s) = 3.52151 3.77088 3.64833
# Velocity P-wave (km/s) = 7.13476 7.37081 7.25375
#
# Compressibility (1/GPa) = 0.01058875
#
# Stress axis : x y z
#
# Youngs Moduli (GPa) = 125.95310 128.86065 146.96502
#
# Poissons Ratio (x) = 0.29392 0.44553
# Poissons Ratio (y) = 0.28728 0.09483
# Poissons Ratio (z) = 0.38183 0.08315
#
# Static dielectric constant tensor:
#      x y z
#    x 2.221790 0.000000 0.000000 
#    y 0.000000 2.160220 0.000000 
#    z 0.000000 0.000000 2.159880 
# 
# From -- ./inp_files/24851.got.cif
#   From: 2010.05.17/outbox.cif.g08.bks.cpg/sg48_13_cif.got.tgz:24851.got - 2010.06.03 20:39:00.
