data_PCOD9390415
_publ_section_title
;
Structure prediction by ZEFSAII (Michael W. Deem and Ramdas Pophale) SiO2 
 PCOD9390415
Probable space group: P N N N
;
_chemical_formula_sum "Si O2"
_cell_formula_units_Z 40
_cell_length_a 9.151764
_cell_length_b 11.747074
_cell_length_c 17.568325
_cell_angle_alpha 90.000000
_cell_angle_beta 90.000000
_cell_angle_gamma 90.000000
_cell_volume 1888.708235
_symmetry_space_group_name_H-M "P N N N"
_symmetry_group_IT_number 48
_space_group.IT_coordinate_system_code '2'
_symmetry_cell_setting 'orthorhombic'
loop_
_space_group_symop_operation_xyz
x,y,z
1/2-x,1/2-y,z
x,1/2-y,1/2-z
1/2-x,y,1/2-z
-x,-y,-z
1/2+x,1/2+y,-z
-x,1/2+y,1/2+z
1/2+x,-y,1/2+z
loop_
_atom_site_type_symbol
_atom_site_label
_atom_site_fract_x
_atom_site_fract_y
_atom_site_fract_z
Si Si1 0.955404 0.344927 0.562526
Si Si2 0.598540 0.375307 0.215015
Si Si3 0.616229 0.657750 0.377994
Si Si4 0.808307 0.467113 0.443441
Si Si5 0.580415 0.414134 0.762834
O O1 0.813739 0.385841 0.516752
O O2 0.947234 0.371632 0.651923
O O3 0.010310 0.216303 0.559911
O O4 0.087662 0.425751 0.534995
O O5 0.584219 0.250000 0.250000
O O6 0.750000 0.423782 0.250000
O O7 0.623091 0.390440 0.124635
O O8 0.463109 0.453246 0.237458
O O9 0.750000 0.750000 0.366433
O O10 0.671920 0.535925 0.409011
O O11 0.525540 0.639700 0.300480
O O12 0.750000 0.393298 0.750000
#
# Coordination Sequence:
#
# PCOD9390415 Si02
#       5
#     8   8   8   8   8
#     4   9  20  35  60  91 130 162 204 275 328 378
#     4  10  20  38  65  89 115 165 224 267 313 383
#     4  10  20  37  67  94 124 176 223 261 330 396
#     4   9  18  38  61  93 123 163 221 271 316 391
#     4  11  23  39  60  93 130 161 211 271 325 390
#
# _framework density 21.178495000000002
#
# number of rings (size 3 to 8) (size 9 to 14) (size 15 to 20)
#    0.000    2.200    2.000    0.600    0.000    6.000 
#    3.600    5.000    0.000    0.000    0.000    0.000 
#    0.000    0.000    0.000    0.000    0.000    0.000 
#
# Total GULP energy -222879.114180 kJ/mol
# GULP energy per Si atom -5571.977854 kJ/mol
# Density = 2.113029 g / cm^3
# Si number density = 21.178495 Si / 1000 Ang^3
#
#
#
# Elastic Constant Matrix: (Units=GPa)
#
#
# Indices 1 2 3 4 5 6 
#
# 1 95.0849 39.3540 33.7172 0.0000 0.0000 0.0000
# 2 39.3540 129.1537 58.1489 0.0000 0.0000 0.0000
# 3 33.7172 58.1489 98.1381 0.0000 0.0000 0.0000
# 4 0.0000 0.0000 0.0000 17.3242 0.0000 0.0000
# 5 0.0000 0.0000 0.0000 0.0000 3.0570 0.0000
# 6 0.0000 0.0000 0.0000 0.0000 0.0000 17.9549
#
#
#
# Elastic Compliance Matrix: (Units=1/GPa)
#
#
# Indices 1 2 3 4 5 6 
#
# 1 0.012573 -0.002572 -0.002795 0.000000 0.000000 0.000000
# 2 -0.002572 0.011086 -0.005685 0.000000 0.000000 0.000000
# 3 -0.002795 -0.005685 0.014519 0.000000 0.000000 0.000000
# 4 0.000000 0.000000 0.000000 0.057723 0.000000 0.000000
# 5 0.000000 0.000000 0.000000 0.000000 0.327117 0.000000
# 6 0.000000 0.000000 0.000000 0.000000 0.000000 0.055695
#
#
# Mechanical properties :
#
#
# Convention : Reuss Voigt Hill
#
# Bulk Modulus (GPa) = 62.22021 64.97965 63.59993
# Shear Modulus (GPa) = 9.87801 20.41100 15.14450
#
# Velocity S-wave (km/s) = 2.16201 3.10782 2.67702
# Velocity P-wave (km/s) = 5.97287 6.60504 6.29689
#
# Compressibility (1/GPa) = 0.01607195
#
# Stress axis : x y z
#
# Youngs Moduli (GPa) = 79.53631 90.20313 68.87731
#
# Poissons Ratio (x) = 0.23204 0.19254
# Poissons Ratio (y) = 0.20460 0.39156
# Poissons Ratio (z) = 0.22234 0.51280
#
# Static dielectric constant tensor:
#      x y z
#    x 1.818410 0.000000 0.000000 
#    y 0.000000 1.837950 0.000000 
#    z 0.000000 0.000000 1.786430 
# 
# From -- ./inp_files/13784.got.cif
#   From: 2010.05.17/outbox.cif.g08.bks.cpg/sg48_7_cif.got.tgz:13784.got - 2010.06.03 20:39:00.
