data_PCOD9390244
_publ_section_title
;
Structure prediction by ZEFSAII (Michael W. Deem and Ramdas Pophale) SiO2 
 PCOD9390244
Probable space group: P N N N
;
_chemical_formula_sum "Si O2"
_cell_formula_units_Z 36
_cell_length_a 22.405049
_cell_length_b 17.764071
_cell_length_c 5.600217
_cell_angle_alpha 90.000000
_cell_angle_beta 90.000000
_cell_angle_gamma 90.000000
_cell_volume 2228.913702
_symmetry_space_group_name_H-M "P N N N"
_symmetry_group_IT_number 48
_space_group.IT_coordinate_system_code '2'
_symmetry_cell_setting 'orthorhombic'
loop_
_space_group_symop_operation_xyz
x,y,z
1/2-x,1/2-y,z
x,1/2-y,1/2-z
1/2-x,y,1/2-z
-x,-y,-z
1/2+x,1/2+y,-z
-x,1/2+y,1/2+z
1/2+x,-y,1/2+z
loop_
_atom_site_type_symbol
_atom_site_label
_atom_site_fract_x
_atom_site_fract_y
_atom_site_fract_z
Si Si1 0.285234 0.114051 0.994735
Si Si2 0.591286 0.542595 0.578761
Si Si3 0.948194 0.821220 0.916877
Si Si4 0.488934 0.565760 0.189903
Si Si5 0.349815 0.250000 0.750000
O O1 0.250000 0.094341 0.750000
O O2 0.312128 0.196429 0.925542
O O3 0.250000 0.116240 0.250000
O O4 0.340255 0.056063 0.017033
O O5 0.575723 0.608966 0.763950
O O6 0.545251 0.559140 0.365927
O O7 0.571169 0.461054 0.678298
O O8 0.961731 0.750000 0.750000
O O9 0.894142 0.799479 0.090550
O O10 0.004392 0.853648 0.064526
O O11 0.500000 0.500000 0.000000
#
# Coordination Sequence:
#
# PCOD9390244 Si02
#       5
#     8   8   8   8   4
#     4  12  26  37  52  75 111 158 200 231 265 324
#     4  10  20  35  50  73 100 144 193 230 278 328
#     4  11  18  31  54  74 105 140 186 234 283 331
#     4   9  19  33  54  71  96 138 187 232 287 334
#     4  12  23  34  50  74 118 146 199 226 264 314
#
# _framework density 16.151364999999998
#
# number of rings (size 3 to 8) (size 9 to 14) (size 15 to 20)
#    0.000    1.333    4.444    1.667    3.111    2.667 
#    0.000    0.000    0.000    0.000    0.000    0.000 
#    0.000    0.000    0.000   83.000    4.444    0.000 
#
# Total GULP energy -200580.843595 kJ/mol
# GULP energy per Si atom -5571.690100 kJ/mol
# Density = 1.611460 g / cm^3
# Si number density = 16.151365 Si / 1000 Ang^3
#
#
#
# Elastic Constant Matrix: (Units=GPa)
#
#
# Indices 1 2 3 4 5 6 
#
# 1 107.0986 60.9208 62.3819 0.0000 0.0000 0.0000
# 2 60.9208 60.7292 43.0521 0.0000 0.0000 0.0000
# 3 62.3819 43.0521 115.6293 0.0000 0.0000 0.0000
# 4 0.0000 0.0000 0.0000 42.3583 0.0000 0.0000
# 5 0.0000 0.0000 0.0000 0.0000 13.4139 0.0000
# 6 0.0000 0.0000 0.0000 0.0000 0.0000 29.8335
#
#
#
# Elastic Compliance Matrix: (Units=1/GPa)
#
#
# Indices 1 2 3 4 5 6 
#
# 1 0.024006 -0.020243 -0.005414 0.000000 0.000000 0.000000
# 2 -0.020243 0.039442 -0.003764 0.000000 0.000000 0.000000
# 3 -0.005414 -0.003764 0.012971 0.000000 0.000000 0.000000
# 4 0.000000 0.000000 0.000000 0.023608 0.000000 0.000000
# 5 0.000000 0.000000 0.000000 0.000000 0.074550 0.000000
# 6 0.000000 0.000000 0.000000 0.000000 0.000000 0.033519
#
#
# Mechanical properties :
#
#
# Convention : Reuss Voigt Hill
#
# Bulk Modulus (GPa) = 56.89678 68.46298 62.67988
# Shear Modulus (GPa) = 18.32865 24.92795 21.62830
#
# Velocity S-wave (km/s) = 3.37234 3.93287 3.66334
# Velocity P-wave (km/s) = 7.10403 7.94378 7.53561
#
# Compressibility (1/GPa) = 0.01757569
#
# Stress axis : x y z
#
# Youngs Moduli (GPa) = 41.65698 25.35349 77.09749
#
# Poissons Ratio (x) = 0.51324 0.41739
# Poissons Ratio (y) = 0.84328 0.29021
# Poissons Ratio (z) = 0.22552 0.09544
#
# Static dielectric constant tensor:
#      x y z
#    x 1.570140 0.000000 0.000000 
#    y 0.000000 1.533620 0.000000 
#    z 0.000000 0.000000 1.611920 
# 
# From -- ./inp_files/4328.got.cif
#   From: 2010.05.17/outbox.cif.g08.bks.cpg/sg48_3_cif.got.tgz:4328.got - 2010.06.03 20:39:00.
