data_PCOD9390792
_publ_section_title
;
Structure prediction by ZEFSAII (Michael W. Deem and Ramdas Pophale) SiO2 
 PCOD9390792
Probable space group: P N N N
;
_chemical_formula_sum "Si O2"
_cell_formula_units_Z 44
_cell_length_a 18.271581
_cell_length_b 7.556384
_cell_length_c 13.923908
_cell_angle_alpha 90.000000
_cell_angle_beta 90.000000
_cell_angle_gamma 90.000000
_cell_volume 1922.433352
_symmetry_space_group_name_H-M "P N N N"
_symmetry_group_IT_number 48
_space_group.IT_coordinate_system_code '2'
_symmetry_cell_setting 'orthorhombic'
loop_
_space_group_symop_operation_xyz
x,y,z
1/2-x,1/2-y,z
x,1/2-y,1/2-z
1/2-x,y,1/2-z
-x,-y,-z
1/2+x,1/2+y,-z
-x,1/2+y,1/2+z
1/2+x,-y,1/2+z
loop_
_atom_site_type_symbol
_atom_site_label
_atom_site_fract_x
_atom_site_fract_y
_atom_site_fract_z
Si Si1 0.365588 0.229961 0.107214
Si Si2 0.250000 0.250000 0.750000
Si Si3 0.750000 0.250000 0.997154
Si Si4 0.021088 0.938312 0.607993
Si Si5 0.141357 0.641871 0.345325
Si Si6 0.250000 0.250000 0.250000
Si Si7 0.496686 0.750000 0.250000
Si Si8 0.827148 0.967159 0.411117
O O1 0.349028 0.435960 0.128241
O O2 0.305720 0.143611 0.179838
O O3 0.449411 0.178635 0.133936
O O4 0.349265 0.163789 0.999394
O O5 0.196549 0.137678 0.682184
O O6 0.820629 0.247738 0.929729
O O7 0.755567 0.425354 0.058242
O O8 0.106779 0.889729 0.601713
O O9 0.029562 0.092979 0.687665
O O10 0.000000 0.000000 0.500000
O O11 0.166985 0.750000 0.250000
O O12 0.054817 0.660984 0.331088
#
# Coordination Sequence:
#
# PCOD9390792 Si02
#       8
#     8   2   4   8   8   2   4   8
#     4  11  23  41  68 107 144 185 228 284 375 446
#     4  12  24  50  72 102 130 192 258 316 346 416
#     4  12  23  45  66 110 136 178 236 308 366 426
#     4  10  22  44  65  96 138 189 231 293 354 437
#     4  10  23  37  67 106 144 177 215 292 365 447
#     4  12  22  32  66 106 136 174 224 284 360 436
#     4  10  21  39  64 101 135 176 228 286 349 433
#     4  11  26  45  71  95 142 186 246 301 353 422
#
# _framework density 22.887658999999999
#
# number of rings (size 3 to 8) (size 9 to 14) (size 15 to 20)
#    0.545    0.727    0.000    6.818    5.091    0.364 
#    0.000   15.455    0.000    0.000    0.000    1.273 
#    0.000    0.000    0.000    0.000    0.000    0.000 
#
# Total GULP energy -244958.412826 kJ/mol
# GULP energy per Si atom -5567.236655 kJ/mol
# Density = 2.283557 g / cm^3
# Si number density = 22.887659 Si / 1000 Ang^3
#
#
#
# Elastic Constant Matrix: (Units=GPa)
#
#
# Indices 1 2 3 4 5 6 
#
# 1 111.5351 15.2203 46.0807 0.0000 0.0000 0.0000
# 2 15.2203 104.3103 46.4974 0.0000 0.0000 0.0000
# 3 46.0807 46.4974 134.5529 0.0000 0.0000 0.0000
# 4 0.0000 0.0000 0.0000 18.4655 0.0000 0.0000
# 5 0.0000 0.0000 0.0000 0.0000 35.7985 0.0000
# 6 0.0000 0.0000 0.0000 0.0000 0.0000 23.7201
#
#
#
# Elastic Compliance Matrix: (Units=1/GPa)
#
#
# Indices 1 2 3 4 5 6 
#
# 1 0.010444 0.000083 -0.003606 0.000000 0.000000 0.000000
# 2 0.000083 0.011333 -0.003945 0.000000 0.000000 0.000000
# 3 -0.003606 -0.003945 0.010030 0.000000 0.000000 0.000000
# 4 0.000000 0.000000 0.000000 0.054155 0.000000 0.000000
# 5 0.000000 0.000000 0.000000 0.000000 0.027934 0.000000
# 6 0.000000 0.000000 0.000000 0.000000 0.000000 0.042158
#
#
# Mechanical properties :
#
#
# Convention : Reuss Voigt Hill
#
# Bulk Modulus (GPa) = 59.26679 62.88834 61.07757
# Shear Modulus (GPa) = 28.31039 31.77014 30.04027
#
# Velocity S-wave (km/s) = 3.52081 3.72975 3.62679
# Velocity P-wave (km/s) = 6.51759 6.78857 6.65446
#
# Compressibility (1/GPa) = 0.01687286
#
# Stress axis : x y z
#
# Youngs Moduli (GPa) = 95.74807 88.23704 99.70005
#
# Poissons Ratio (x) = -0.00735 0.35948
# Poissons Ratio (y) = -0.00798 0.39331
# Poissons Ratio (z) = 0.34523 0.34809
#
# Static dielectric constant tensor:
#      x y z
#    x 1.979830 0.000000 0.000000 
#    y 0.000000 3.337050 0.000000 
#    z 0.000000 0.000000 2.002140 
# 
# From -- ./inp_files/27854.got.cif
#   From: 2010.05.17/outbox.cif.g08.bks.cpg/sg48_14_cif.got.tgz:27854.got - 2010.06.03 20:39:00.
