data_PCOD9390742
_publ_section_title
;
Structure prediction by ZEFSAII (Michael W. Deem and Ramdas Pophale) SiO2 
 PCOD9390742
Probable space group: P N N N
;
_chemical_formula_sum "Si O2"
_cell_formula_units_Z 30
_cell_length_a 8.790880
_cell_length_b 4.937008
_cell_length_c 33.702861
_cell_angle_alpha 90.000000
_cell_angle_beta 90.000000
_cell_angle_gamma 90.000000
_cell_volume 1462.725902
_symmetry_space_group_name_H-M "P N N N"
_symmetry_group_IT_number 48
_space_group.IT_coordinate_system_code '2'
_symmetry_cell_setting 'orthorhombic'
loop_
_space_group_symop_operation_xyz
x,y,z
1/2-x,1/2-y,z
x,1/2-y,1/2-z
1/2-x,y,1/2-z
-x,-y,-z
1/2+x,1/2+y,-z
-x,1/2+y,1/2+z
1/2+x,-y,1/2+z
loop_
_atom_site_type_symbol
_atom_site_label
_atom_site_fract_x
_atom_site_fract_y
_atom_site_fract_z
Si Si1 0.357904 0.991901 0.620068
Si Si2 0.855836 0.509974 0.676036
Si Si3 0.537448 0.250000 0.250000
Si Si4 0.142997 0.988625 0.971598
Si Si5 0.750000 0.750000 0.250000
O O1 0.250000 0.750000 0.635254
O O2 0.505749 0.042792 0.646168
O O3 0.250000 0.250000 0.620609
O O4 0.401513 0.933740 0.574296
O O5 0.750000 0.750000 0.659688
O O6 0.934238 0.622958 0.715809
O O7 0.750000 0.250000 0.683022
O O8 0.634383 0.513279 0.266899
O O9 0.250000 0.250000 0.972129
O O10 0.250000 0.750000 0.985926
O O11 0.000000 0.000000 0.000000
#
# Coordination Sequence:
#
# PCOD9390742 Si02
#       5
#     8   8   4   8   2
#     4  10  23  42  65  91 128 168 214 258 309 379
#     4  12  26  43  66  94 129 166 209 269 331 377
#     4  11  25  42  66  94 126 162 218 266 332 374
#     4  10  21  38  62  95 129 167 207 259 309 369
#     4  10  24  42  66  98 116 158 222 258 320 386
#
# _framework density 20.509651999999999
#
# number of rings (size 3 to 8) (size 9 to 14) (size 15 to 20)
#    0.000    1.333    0.000    4.400    5.600    3.200 
#    0.000    0.000    0.000    0.000    0.000    0.000 
#    0.000    0.000    0.000    0.000    0.000    0.000 
#
# Total GULP energy -167457.931360 kJ/mol
# GULP energy per Si atom -5581.931045 kJ/mol
# Density = 2.046297 g / cm^3
# Si number density = 20.509652 Si / 1000 Ang^3
#
#
#
# Elastic Constant Matrix: (Units=GPa)
#
#
# Indices 1 2 3 4 5 6 
#
# 1 161.3806 57.3072 86.7914 0.0000 0.0000 0.0000
# 2 57.3072 140.5834 12.1503 0.0000 0.0000 0.0000
# 3 86.7914 12.1503 88.0741 0.0000 0.0000 0.0000
# 4 0.0000 0.0000 0.0000 28.2291 0.0000 0.0000
# 5 0.0000 0.0000 0.0000 0.0000 15.9171 0.0000
# 6 0.0000 0.0000 0.0000 0.0000 0.0000 52.1194
#
#
#
# Elastic Compliance Matrix: (Units=1/GPa)
#
#
# Indices 1 2 3 4 5 6 
#
# 1 0.016378 -0.005345 -0.015402 0.000000 0.000000 0.000000
# 2 -0.005345 0.008943 0.004033 0.000000 0.000000 0.000000
# 3 -0.015402 0.004033 0.025975 0.000000 0.000000 0.000000
# 4 0.000000 0.000000 0.000000 0.035424 0.000000 0.000000
# 5 0.000000 0.000000 0.000000 0.000000 0.062825 0.000000
# 6 0.000000 0.000000 0.000000 0.000000 0.000000 0.019187
#
#
# Mechanical properties :
#
#
# Convention : Reuss Voigt Hill
#
# Bulk Modulus (GPa) = 55.96158 78.05956 67.01057
# Shear Modulus (GPa) = 24.02499 34.83908 29.43203
#
# Velocity S-wave (km/s) = 3.42628 4.12596 3.79229
# Velocity P-wave (km/s) = 6.55723 7.80004 7.20548
#
# Compressibility (1/GPa) = 0.01786940
#
# Stress axis : x y z
#
# Youngs Moduli (GPa) = 61.05810 111.81333 38.49821
#
# Poissons Ratio (x) = 0.59765 0.59295
# Poissons Ratio (y) = 0.32636 -0.15528
# Poissons Ratio (z) = 0.94041 -0.45099
#
# Static dielectric constant tensor:
#      x y z
#    x 1.718630 0.000000 0.000000 
#    y 0.000000 1.732980 0.000000 
#    z 0.000000 0.000000 1.740270 
# 
# From -- ./inp_files/38502.got.cif
#   From: 2010.05.17/outbox.cif.g08.bks.cpg/sg48_20_cif.got.tgz:38502.got - 2010.06.03 20:39:00.
