data_PCOD9390013
_publ_section_title
;
Structure prediction by ZEFSAII (Michael W. Deem and Ramdas Pophale) SiO2 
 PCOD9390013
Probable space group: P N N N
;
_chemical_formula_sum "Si O2"
_cell_formula_units_Z 64
_cell_length_a 19.016926
_cell_length_b 12.483294
_cell_length_c 14.885163
_cell_angle_alpha 90.000000
_cell_angle_beta 90.000000
_cell_angle_gamma 90.000000
_cell_volume 3533.646573
_symmetry_space_group_name_H-M "P N N N"
_symmetry_group_IT_number 48
_space_group.IT_coordinate_system_code '2'
_symmetry_cell_setting 'orthorhombic'
loop_
_space_group_symop_operation_xyz
x,y,z
1/2-x,1/2-y,z
x,1/2-y,1/2-z
1/2-x,y,1/2-z
-x,-y,-z
1/2+x,1/2+y,-z
-x,1/2+y,1/2+z
1/2+x,-y,1/2+z
loop_
_atom_site_type_symbol
_atom_site_label
_atom_site_fract_x
_atom_site_fract_y
_atom_site_fract_z
Si Si1 0.064117 0.671050 0.820807
Si Si2 0.527530 0.178131 0.486588
Si Si3 0.947074 0.985193 0.759631
Si Si4 0.102070 0.470037 0.466319
Si Si5 0.755820 0.867236 0.502524
Si Si6 0.111214 0.003349 0.548668
Si Si7 0.528864 0.125011 0.897179
Si Si8 0.184403 0.138478 0.301261
O O1 0.099735 0.750000 0.750000
O O2 0.028418 0.755023 0.601270
O O3 0.110639 0.587843 0.875444
O O4 0.009353 0.598733 0.763468
O O5 0.452373 0.121220 0.497778
O O6 0.541239 0.254523 0.571382
O O7 0.583850 0.081069 0.482667
O O8 0.963860 0.094676 0.707143
O O9 0.922814 0.989949 0.862782
O O10 0.881840 0.934364 0.707776
O O11 0.181002 0.425537 0.479262
O O12 0.750000 0.750000 0.457473
O O13 0.812890 0.943613 0.456775
O O14 0.793165 0.842675 0.597851
O O15 0.049409 0.087893 0.572553
O O16 0.082776 0.946197 0.457747
O O17 0.170421 0.250000 0.250000
O O18 0.250000 0.086642 0.250000
#
# Coordination Sequence:
#
# PCOD9390013 Si02
#       8
#     8   8   8   8   8   8   8   8
#     4  10  19  35  63  84 107 141 202 258 283 326
#     4  10  22  38  52  82 112 153 188 237 297 333
#     4  11  19  31  56  88 113 145 185 234 280 342
#     4  11  23  35  54  83 122 147 186 238 286 356
#     4  12  21  32  54  83 123 157 179 227 291 352
#     4   9  19  32  53  87 112 148 193 234 284 335
#     4   9  18  33  55  76 118 152 190 236 269 343
#     4  11  19  27  44  83 123 146 177 210 268 344
#
# _framework density 18.111602999999999
#
# number of rings (size 3 to 8) (size 9 to 14) (size 15 to 20)
#    0.000    1.625    5.000    1.875    1.750    0.500 
#    0.000    2.500    0.000    1.500    0.000    0.875 
#    0.000    0.000    0.000    0.000    0.000    0.000 
#
# Total GULP energy -356671.852714 kJ/mol
# GULP energy per Si atom -5572.997699 kJ/mol
# Density = 1.807038 g / cm^3
# Si number density = 18.111603 Si / 1000 Ang^3
#
#
#
# Elastic Constant Matrix: (Units=GPa)
#
#
# Indices 1 2 3 4 5 6 
#
# 1 86.7469 43.0446 26.8591 0.0000 0.0000 0.0000
# 2 43.0446 92.3535 25.2938 0.0000 0.0000 0.0000
# 3 26.8591 25.2938 49.9548 0.0000 0.0000 0.0000
# 4 0.0000 0.0000 0.0000 44.1495 0.0000 0.0000
# 5 0.0000 0.0000 0.0000 0.0000 4.2188 0.0000
# 6 0.0000 0.0000 0.0000 0.0000 0.0000 14.4651
#
#
#
# Elastic Compliance Matrix: (Units=1/GPa)
#
#
# Indices 1 2 3 4 5 6 
#
# 1 0.016285 -0.006028 -0.005704 0.000000 0.000000 0.000000
# 2 -0.006028 0.014803 -0.004254 0.000000 0.000000 0.000000
# 3 -0.005704 -0.004254 0.025239 0.000000 0.000000 0.000000
# 4 0.000000 0.000000 0.000000 0.022650 0.000000 0.000000
# 5 0.000000 0.000000 0.000000 0.000000 0.237034 0.000000
# 6 0.000000 0.000000 0.000000 0.000000 0.000000 0.069132
#
#
# Mechanical properties :
#
#
# Convention : Reuss Voigt Hill
#
# Bulk Modulus (GPa) = 41.05957 46.60556 43.83257
# Shear Modulus (GPa) = 11.75829 21.49053 16.62441
#
# Velocity S-wave (km/s) = 2.55073 3.44839 3.03295
# Velocity P-wave (km/s) = 5.60308 6.45317 6.04309
#
# Compressibility (1/GPa) = 0.02435486
#
# Stress axis : x y z
#
# Youngs Moduli (GPa) = 61.40630 67.55560 39.62170
#
# Poissons Ratio (x) = 0.40723 0.22599
# Poissons Ratio (y) = 0.37016 0.16855
# Poissons Ratio (z) = 0.35024 0.28738
#
# Static dielectric constant tensor:
#      x y z
#    x 1.594730 0.000000 0.000000 
#    y 0.000000 1.662170 0.000000 
#    z 0.000000 0.000000 1.747270 
# 
# From -- ./inp_files/28077.got.cif
#   From: 2010.05.17/outbox.cif.g08.bks.cpg/sg48_15_cif.got.tgz:28077.got - 2010.06.03 20:39:00.
