data_PCOD9390960
_publ_section_title
;
Structure prediction by ZEFSAII (Michael W. Deem and Ramdas Pophale) SiO2 
 PCOD9390960
Probable space group: P N N N
;
_chemical_formula_sum "Si O2"
_cell_formula_units_Z 46
_cell_length_a 7.304672
_cell_length_b 18.294829
_cell_length_c 14.515755
_cell_angle_alpha 90.000000
_cell_angle_beta 90.000000
_cell_angle_gamma 90.000000
_cell_volume 1939.852477
_symmetry_space_group_name_H-M "P N N N"
_symmetry_group_IT_number 48
_space_group.IT_coordinate_system_code '2'
_symmetry_cell_setting 'orthorhombic'
loop_
_space_group_symop_operation_xyz
x,y,z
1/2-x,1/2-y,z
x,1/2-y,1/2-z
1/2-x,y,1/2-z
-x,-y,-z
1/2+x,1/2+y,-z
-x,1/2+y,1/2+z
1/2+x,-y,1/2+z
loop_
_atom_site_type_symbol
_atom_site_label
_atom_site_fract_x
_atom_site_fract_y
_atom_site_fract_z
Si Si1 0.280991 0.377669 0.115566
Si Si2 0.985928 0.284616 0.652237
Si Si3 0.750000 0.750000 0.750000
Si Si4 0.493651 0.993743 0.889335
Si Si5 0.280421 0.865063 0.646659
Si Si6 0.821172 0.639820 0.098467
Si Si7 0.750000 0.250000 0.997479
O O1 0.188973 0.311568 0.173978
O O2 0.500189 0.372375 0.130730
O O3 0.177336 0.452650 0.143392
O O4 0.244785 0.371952 0.006310
O O5 0.939486 0.250000 0.750000
O O6 0.835060 0.305971 0.578940
O O7 0.071309 0.215694 0.597791
O O8 0.140401 0.345397 0.658739
O O9 0.324204 0.941800 0.862583
O O10 0.446174 0.075908 0.861413
O O11 0.500000 0.000000 0.000000
O O12 0.250000 0.837409 0.750000
O O13 0.189422 0.810686 0.572496
#
# Coordination Sequence:
#
# PCOD9390960 Si02
#       7
#     8   8   2   8   8   8   4
#     4  11  24  42  69 105 145 203 244 306 386 441
#     4  11  23  42  72 105 136 192 250 312 390 448
#     4  12  24  40  70 104 158 194 258 316 362 476
#     4  10  24  46  69 102 147 191 248 307 374 464
#     4  12  27  43  72 109 147 196 255 302 382 462
#     4  10  21  44  71  99 144 186 245 314 384 454
#     4  12  24  44  66 104 152 184 254 318 378 458
#
# _framework density 23.713142000000001
#
# number of rings (size 3 to 8) (size 9 to 14) (size 15 to 20)
#    0.000    1.043    1.739    5.739    4.870    4.174 
#    3.130    0.000    7.652    0.000    0.000    0.000 
#    0.000    0.000    0.000    0.000    0.000    0.000 
#
# Total GULP energy -256344.277941 kJ/mol
# GULP energy per Si atom -5572.701694 kJ/mol
# Density = 2.365917 g / cm^3
# Si number density = 23.713142 Si / 1000 Ang^3
#
#
#
# Elastic Constant Matrix: (Units=GPa)
#
#
# Indices 1 2 3 4 5 6 
#
# 1 119.7205 15.0475 41.1678 0.0000 0.0000 0.0000
# 2 15.0475 91.7315 16.9000 0.0000 0.0000 0.0000
# 3 41.1678 16.9000 176.7896 0.0000 0.0000 0.0000
# 4 0.0000 0.0000 0.0000 33.1462 0.0000 0.0000
# 5 0.0000 0.0000 0.0000 0.0000 29.5201 0.0000
# 6 0.0000 0.0000 0.0000 0.0000 0.0000 -18.9349
#
#
#
# Elastic Compliance Matrix: (Units=1/GPa)
#
#
# Indices 1 2 3 4 5 6 
#
# 1 0.009194 -0.001134 -0.002033 0.000000 0.000000 0.000000
# 2 -0.001134 0.011237 -0.000810 0.000000 0.000000 0.000000
# 3 -0.002033 -0.000810 0.006207 0.000000 0.000000 0.000000
# 4 0.000000 0.000000 0.000000 0.030169 0.000000 0.000000
# 5 0.000000 0.000000 0.000000 0.000000 0.033875 0.000000
# 6 0.000000 0.000000 0.000000 0.000000 0.000000 -0.052813
#
#
# Mechanical properties :
#
#
# Convention : Reuss Voigt Hill
#
# Bulk Modulus (GPa) = 53.51870 59.38580 56.45225
# Shear Modulus (GPa) = 96.05899 29.75471 62.90685
#
# Velocity S-wave (km/s) = 6.37155 3.54613 5.15615
# Velocity P-wave (km/s) = 8.76054 6.47028 7.70103
#
# Compressibility (1/GPa) = 0.01868506
#
# Stress axis : x y z
#
# Youngs Moduli (GPa) = 108.76376 88.99477 161.10303
#
# Poissons Ratio (x) = 0.10090 0.32746
# Poissons Ratio (y) = 0.12331 0.13052
# Poissons Ratio (z) = 0.22108 0.07210
#
# Static dielectric constant tensor:
#      x y z
#    x 2.394410 0.000000 0.000000 
#    y 0.000000 1.939720 0.000000 
#    z 0.000000 0.000000 1.946320 
# 
# From -- ./inp_files/25536.got.cif
#   From: 2010.05.17/outbox.cif.g08.bks.cpg/sg48_13_cif.got.tgz:25536.got - 2010.06.03 20:39:00.
