data_PCOD9390899
_publ_section_title
;
Structure prediction by ZEFSAII (Michael W. Deem and Ramdas Pophale) SiO2 
 PCOD9390899
Probable space group: P N N N
;
_chemical_formula_sum "Si O2"
_cell_formula_units_Z 64
_cell_length_a 10.507854
_cell_length_b 11.557068
_cell_length_c 24.965029
_cell_angle_alpha 90.000000
_cell_angle_beta 90.000000
_cell_angle_gamma 90.000000
_cell_volume 3031.752703
_symmetry_space_group_name_H-M "P N N N"
_symmetry_group_IT_number 48
_space_group.IT_coordinate_system_code '2'
_symmetry_cell_setting 'orthorhombic'
loop_
_space_group_symop_operation_xyz
x,y,z
1/2-x,1/2-y,z
x,1/2-y,1/2-z
1/2-x,y,1/2-z
-x,-y,-z
1/2+x,1/2+y,-z
-x,1/2+y,1/2+z
1/2+x,-y,1/2+z
loop_
_atom_site_type_symbol
_atom_site_label
_atom_site_fract_x
_atom_site_fract_y
_atom_site_fract_z
Si Si1 0.572140 0.279506 0.307286
Si Si2 0.105271 0.799340 0.190269
Si Si3 0.194268 0.563061 0.900141
Si Si4 0.112298 0.689333 0.004174
Si Si5 0.526782 0.082765 0.451420
Si Si6 0.336253 0.053148 0.198079
Si Si7 0.509420 0.382804 0.619054
Si Si8 0.410974 0.065549 0.346123
O O1 0.629525 0.250000 0.250000
O O2 0.655544 0.346001 0.352647
O O3 0.453704 0.363409 0.291164
O O4 0.516252 0.159274 0.329750
O O5 0.250000 0.750000 0.179427
O O6 0.077449 0.750000 0.250000
O O7 0.011630 0.739684 0.148190
O O8 0.084470 0.936751 0.180235
O O9 0.341048 0.561673 0.918557
O O10 0.127137 0.444632 0.882428
O O11 0.127287 0.599696 0.955729
O O12 0.250000 0.750000 0.014247
O O13 0.062102 0.635646 0.059165
O O14 0.028654 0.790123 0.977051
O O15 0.418619 0.055115 0.409177
O O16 0.500000 0.000000 0.500000
O O17 0.250000 0.014134 0.250000
O O18 0.225701 0.117715 0.167005
O O19 0.396964 0.958458 0.157916
#
# Coordination Sequence:
#
# PCOD9390899 Si02
#       8
#     8   8   8   8   8   8   8   8
#     4  11  23  40  69  99 139 186 221 292 363 414
#     4  11  23  38  61  96 138 183 232 284 341 423
#     4  10  24  45  67  96 138 176 231 296 345 429
#     4  10  21  41  66  95 131 170 226 280 344 420
#     4  11  25  46  69  95 134 183 235 293 353 425
#     4  11  22  37  63 101 146 176 224 287 348 421
#     4  11  22  39  68  97 135 184 222 282 357 407
#     4  12  23  39  65  99 135 178 238 281 349 421
#
# _framework density 21.109902000000002
#
# number of rings (size 3 to 8) (size 9 to 14) (size 15 to 20)
#    0.000    1.125    3.750    2.625    5.250    0.000 
#    0.000    3.750    0.000    0.750    0.000    0.000 
#    0.000    0.000    0.000    0.000    0.000    0.000 
#
# Total GULP energy -356682.101823 kJ/mol
# GULP energy per Si atom -5573.157841 kJ/mol
# Density = 2.106185 g / cm^3
# Si number density = 21.109902 Si / 1000 Ang^3
#
#
#
# Elastic Constant Matrix: (Units=GPa)
#
#
# Indices 1 2 3 4 5 6 
#
# 1 67.0951 6.6189 31.8026 0.0000 0.0000 0.0000
# 2 6.6189 67.7295 9.6923 0.0000 0.0000 0.0000
# 3 31.8026 9.6923 143.8466 0.0000 0.0000 0.0000
# 4 0.0000 0.0000 0.0000 26.3254 0.0000 0.0000
# 5 0.0000 0.0000 0.0000 0.0000 25.3278 0.0000
# 6 0.0000 0.0000 0.0000 0.0000 0.0000 31.4023
#
#
#
# Elastic Compliance Matrix: (Units=1/GPa)
#
#
# Indices 1 2 3 4 5 6 
#
# 1 0.016732 -0.001117 -0.003624 0.000000 0.000000 0.000000
# 2 -0.001117 0.014983 -0.000763 0.000000 0.000000 0.000000
# 3 -0.003624 -0.000763 0.007804 0.000000 0.000000 0.000000
# 4 0.000000 0.000000 0.000000 0.037986 0.000000 0.000000
# 5 0.000000 0.000000 0.000000 0.000000 0.039482 0.000000
# 6 0.000000 0.000000 0.000000 0.000000 0.000000 0.031845
#
#
# Mechanical properties :
#
#
# Convention : Reuss Voigt Hill
#
# Bulk Modulus (GPa) = 35.07177 41.65541 38.36359
# Shear Modulus (GPa) = 29.52577 31.98159 30.75368
#
# Velocity S-wave (km/s) = 3.74394 3.89653 3.82099
# Velocity P-wave (km/s) = 5.94469 6.32609 6.13835
#
# Compressibility (1/GPa) = 0.02851296
#
# Stress axis : x y z
#
# Youngs Moduli (GPa) = 59.76530 66.74289 128.13180
#
# Poissons Ratio (x) = 0.07452 0.46435
# Poissons Ratio (y) = 0.06673 0.09772
# Poissons Ratio (z) = 0.21659 0.05090
#
# Static dielectric constant tensor:
#      x y z
#    x 1.789890 0.000000 0.000000 
#    y 0.000000 1.836120 0.000000 
#    z 0.000000 0.000000 1.827180 
# 
# From -- ./inp_files/36393.got.cif
#   From: 2010.05.17/outbox.cif.g08.bks.cpg/sg48_19_cif.got.tgz:36393.got - 2010.06.03 20:39:00.
