data_PCOD9390632
_publ_section_title
;
Structure prediction by ZEFSAII (Michael W. Deem and Ramdas Pophale) SiO2 
 PCOD9390632
Probable space group: P N N N
;
_chemical_formula_sum "Si O2"
_cell_formula_units_Z 40
_cell_length_a 12.116287
_cell_length_b 21.222409
_cell_length_c 7.949121
_cell_angle_alpha 90.000000
_cell_angle_beta 90.000000
_cell_angle_gamma 90.000000
_cell_volume 2044.011523
_symmetry_space_group_name_H-M "P N N N"
_symmetry_group_IT_number 48
_space_group.IT_coordinate_system_code '2'
_symmetry_cell_setting 'orthorhombic'
loop_
_space_group_symop_operation_xyz
x,y,z
1/2-x,1/2-y,z
x,1/2-y,1/2-z
1/2-x,y,1/2-z
-x,-y,-z
1/2+x,1/2+y,-z
-x,1/2+y,1/2+z
1/2+x,-y,1/2+z
loop_
_atom_site_type_symbol
_atom_site_label
_atom_site_fract_x
_atom_site_fract_y
_atom_site_fract_z
Si Si1 0.867022 0.174072 0.554340
Si Si2 0.364046 0.024810 0.686322
Si Si3 0.113247 0.680912 0.461106
Si Si4 0.949424 0.917741 0.868172
Si Si5 0.956002 0.928283 0.509419
O O1 0.900018 0.244840 0.502285
O O2 0.740531 0.163892 0.498540
O O3 0.884237 0.172379 0.757560
O O4 0.942432 0.119410 0.484880
O O5 0.250000 0.995528 0.750000
O O6 0.363090 0.059467 0.507722
O O7 0.393476 0.075305 0.832163
O O8 0.458601 0.972592 0.661517
O O9 0.021252 0.639664 0.554636
O O10 0.895599 0.913004 0.683976
O O11 0.000000 0.000000 0.500000
#
# Coordination Sequence:
#
# PCOD9390632 Si02
#       5
#     8   8   8   8   8
#     4   9  18  34  55  87 121 150 188 231 292 351
#     4  10  22  39  55  80 118 150 190 239 286 341
#     4   9  18  33  58  84 118 157 183 232 294 353
#     4  10  21  36  57  85 111 151 193 230 288 343
#     4  10  21  35  54  84 114 148 190 232 280 338
#
# _framework density 19.569362000000002
#
# number of rings (size 3 to 8) (size 9 to 14) (size 15 to 20)
#    0.000    2.400    2.000    1.200    5.600    1.600 
#    0.000    2.000    0.000    2.400    0.000    2.800 
#    0.000    0.000    0.000    0.000    0.000    0.000 
#
# Total GULP energy -222765.378389 kJ/mol
# GULP energy per Si atom -5569.134460 kJ/mol
# Density = 1.952482 g / cm^3
# Si number density = 19.569362 Si / 1000 Ang^3
#
#
#
# Elastic Constant Matrix: (Units=GPa)
#
#
# Indices 1 2 3 4 5 6 
#
# 1 40.2341 12.9579 21.8815 0.0000 0.0000 0.0000
# 2 12.9579 53.1461 30.0575 0.0000 0.0000 0.0000
# 3 21.8815 30.0575 117.5682 0.0000 0.0000 0.0000
# 4 0.0000 0.0000 0.0000 28.4123 0.0000 0.0000
# 5 0.0000 0.0000 0.0000 0.0000 21.2396 0.0000
# 6 0.0000 0.0000 0.0000 0.0000 0.0000 26.1695
#
#
#
# Elastic Compliance Matrix: (Units=1/GPa)
#
#
# Indices 1 2 3 4 5 6 
#
# 1 0.028597 -0.004632 -0.004138 0.000000 0.000000 0.000000
# 2 -0.004632 0.022747 -0.004953 0.000000 0.000000 0.000000
# 3 -0.004138 -0.004953 0.010542 0.000000 0.000000 0.000000
# 4 0.000000 0.000000 0.000000 0.035196 0.000000 0.000000
# 5 0.000000 0.000000 0.000000 0.000000 0.047082 0.000000
# 6 0.000000 0.000000 0.000000 0.000000 0.000000 0.038212
#
#
# Mechanical properties :
#
#
# Convention : Reuss Voigt Hill
#
# Bulk Modulus (GPa) = 29.03690 37.86026 33.44858
# Shear Modulus (GPa) = 22.59345 24.90104 23.74725
#
# Velocity S-wave (km/s) = 3.40153 3.57101 3.48730
# Velocity P-wave (km/s) = 5.50430 6.03254 5.77446
#
# Compressibility (1/GPa) = 0.03443894
#
# Stress axis : x y z
#
# Youngs Moduli (GPa) = 34.96887 43.96214 94.85622
#
# Poissons Ratio (x) = 0.20363 0.39253
# Poissons Ratio (y) = 0.16197 0.46986
# Poissons Ratio (z) = 0.14471 0.21776
#
# Static dielectric constant tensor:
#      x y z
#    x 1.688240 0.000000 0.000000 
#    y 0.000000 1.663470 0.000000 
#    z 0.000000 0.000000 1.828470 
# 
# From -- ./inp_files/11024.got.cif
#   From: 2010.05.17/outbox.cif.g08.bks.cpg/sg48_6_cif.got.tgz:11024.got - 2010.06.03 20:39:00.
