data_PCOD9390405
_publ_section_title
;
Structure prediction by ZEFSAII (Michael W. Deem and Ramdas Pophale) SiO2 
 PCOD9390405
Probable space group: P N N N
;
_chemical_formula_sum "Si O2"
_cell_formula_units_Z 58
_cell_length_a 16.922301
_cell_length_b 16.037566
_cell_length_c 10.238294
_cell_angle_alpha 90.000000
_cell_angle_beta 90.000000
_cell_angle_gamma 90.000000
_cell_volume 2778.596401
_symmetry_space_group_name_H-M "P N N N"
_symmetry_group_IT_number 48
_space_group.IT_coordinate_system_code '2'
_symmetry_cell_setting 'orthorhombic'
loop_
_space_group_symop_operation_xyz
x,y,z
1/2-x,1/2-y,z
x,1/2-y,1/2-z
1/2-x,y,1/2-z
-x,-y,-z
1/2+x,1/2+y,-z
-x,1/2+y,1/2+z
1/2+x,-y,1/2+z
loop_
_atom_site_type_symbol
_atom_site_label
_atom_site_fract_x
_atom_site_fract_y
_atom_site_fract_z
Si Si1 0.192509 0.468774 0.018500
Si Si2 0.365496 0.815937 0.638586
Si Si3 0.887177 0.502881 0.256955
Si Si4 0.700269 0.118150 0.623607
Si Si5 0.830363 0.636264 0.452463
Si Si6 0.048685 0.313337 0.362641
Si Si7 0.929029 0.503724 0.753903
Si Si8 0.250000 0.250000 0.750000
O O1 0.164875 0.471855 0.868320
O O2 0.254657 0.393232 0.036673
O O3 0.242289 0.550121 0.057811
O O4 0.117796 0.471552 0.114615
O O5 0.339168 0.750000 0.750000
O O6 0.322913 0.821945 0.497591
O O7 0.457397 0.797169 0.607769
O O8 0.368196 0.906801 0.707698
O O9 0.868025 0.554139 0.387702
O O10 0.979397 0.519114 0.223757
O O11 0.750000 0.150626 0.750000
O O12 0.623204 0.066914 0.679255
O O13 0.892744 0.695870 0.519658
O O14 0.801153 0.689647 0.334449
O O15 0.071427 0.250000 0.250000
O O16 0.063421 0.410094 0.326049
#
# Coordination Sequence:
#
# PCOD9390405 Si02
#       8
#     8   8   8   8   8   8   8   2
#     4  11  21  37  59  91 126 162 219 269 320 389
#     4  10  21  40  66  97 127 164 223 278 334 396
#     4  11  21  39  64  88 127 172 220 265 325 399
#     4  10  20  37  64  95 129 166 219 272 332 395
#     4  12  23  40  61  88 135 172 219 265 330 395
#     4  10  22  37  60  94 129 170 213 269 330 396
#     4  10  21  37  61  92 123 172 217 264 328 392
#     4  12  28  40  54  96 126 176 210 270 332 392
#
# _framework density 20.873847999999999
#
# number of rings (size 3 to 8) (size 9 to 14) (size 15 to 20)
#    0.000    1.379    4.138    1.241    1.931    2.207 
#    0.000    1.379    0.000    5.793    0.000    0.000 
#    0.000    0.000    0.000    0.000    0.000    0.276 
#
# Total GULP energy -323758.595157 kJ/mol
# GULP energy per Si atom -5582.044744 kJ/mol
# Density = 2.082634 g / cm^3
# Si number density = 20.873848 Si / 1000 Ang^3
#
#
#
# Elastic Constant Matrix: (Units=GPa)
#
#
# Indices 1 2 3 4 5 6 
#
# 1 105.5435 27.6247 51.4515 0.0000 0.0000 0.0000
# 2 27.6247 64.0274 25.4270 0.0000 0.0000 0.0000
# 3 51.4515 25.4270 120.3466 0.0000 0.0000 0.0000
# 4 0.0000 0.0000 0.0000 40.2454 0.0000 0.0000
# 5 0.0000 0.0000 0.0000 0.0000 286.2193 0.0000
# 6 0.0000 0.0000 0.0000 0.0000 0.0000 6.6395
#
#
#
# Elastic Compliance Matrix: (Units=1/GPa)
#
#
# Indices 1 2 3 4 5 6 
#
# 1 0.012697 -0.003627 -0.004662 0.000000 0.000000 0.000000
# 2 -0.003627 0.018085 -0.002270 0.000000 0.000000 0.000000
# 3 -0.004662 -0.002270 0.010782 0.000000 0.000000 0.000000
# 4 0.000000 0.000000 0.000000 0.024848 0.000000 0.000000
# 5 0.000000 0.000000 0.000000 0.000000 0.003494 0.000000
# 6 0.000000 0.000000 0.000000 0.000000 0.000000 0.150614
#
#
# Mechanical properties :
#
#
# Convention : Reuss Voigt Hill
#
# Bulk Modulus (GPa) = 48.91069 55.43600 52.17334
# Shear Modulus (GPa) = 20.12460 78.98179 49.55319
#
# Velocity S-wave (km/s) = 3.10837 6.15791 4.87759
# Velocity P-wave (km/s) = 6.03035 8.78493 7.53459
#
# Compressibility (1/GPa) = 0.02044543
#
# Stress axis : x y z
#
# Youngs Moduli (GPa) = 78.76110 55.29543 92.74588
#
# Poissons Ratio (x) = 0.20053 0.43237
# Poissons Ratio (y) = 0.28563 0.21058
# Poissons Ratio (z) = 0.36718 0.12555
#
# Static dielectric constant tensor:
#      x y z
#    x 1.788350 0.000000 0.000000 
#    y 0.000000 1.795300 0.000000 
#    z 0.000000 0.000000 1.759920 
# 
# From -- ./inp_files/14433.got.cif
#   From: 2010.05.17/outbox.cif.g08.bks.cpg/sg48_8_cif.got.tgz:14433.got - 2010.06.03 20:39:00.
