data_PCOD9390955
_publ_section_title
;
Structure prediction by ZEFSAII (Michael W. Deem and Ramdas Pophale) SiO2 
 PCOD9390955
Probable space group: P N N N
;
_chemical_formula_sum "Si O2"
_cell_formula_units_Z 36
_cell_length_a 10.343315
_cell_length_b 12.295652
_cell_length_c 12.950474
_cell_angle_alpha 90.000000
_cell_angle_beta 90.000000
_cell_angle_gamma 90.000000
_cell_volume 1647.012815
_symmetry_space_group_name_H-M "P N N N"
_symmetry_group_IT_number 48
_space_group.IT_coordinate_system_code '2'
_symmetry_cell_setting 'orthorhombic'
loop_
_space_group_symop_operation_xyz
x,y,z
1/2-x,1/2-y,z
x,1/2-y,1/2-z
1/2-x,y,1/2-z
-x,-y,-z
1/2+x,1/2+y,-z
-x,1/2+y,1/2+z
1/2+x,-y,1/2+z
loop_
_atom_site_type_symbol
_atom_site_label
_atom_site_fract_x
_atom_site_fract_y
_atom_site_fract_z
Si Si1 0.250000 0.436470 0.750000
Si Si2 0.483729 0.282075 0.414643
Si Si3 0.118756 0.848355 0.186532
Si Si4 0.250000 0.250000 0.577264
Si Si5 0.002400 0.073967 0.232791
Si Si6 0.750000 0.250000 0.004674
O O1 0.234616 0.355584 0.651491
O O2 0.367601 0.519167 0.737047
O O3 0.378827 0.266677 0.505974
O O4 0.433797 0.373632 0.334726
O O5 0.500433 0.170060 0.350692
O O6 0.634551 0.313045 0.438432
O O7 0.045278 0.750000 0.250000
O O8 0.250000 0.855937 0.250000
O O9 0.158812 0.818573 0.071659
O O10 0.067458 0.968201 0.186934
#
# Coordination Sequence:
#
# PCOD9390955 Si02
#       6
#     4   8   8   4   8   4
#     4  11  26  45  70 100 144 181 223 286 356 394
#     4  11  26  45  68 105 138 177 233 276 351 404
#     4   9  22  40  65  94 127 174 231 272 321 401
#     4  11  28  45  68 110 142 171 230 301 340 398
#     4  11  25  44  71  94 143 182 222 282 341 412
#     4  10  21  43  70  94 134 182 228 272 330 426
#
# _framework density 21.857754
#
# number of rings (size 3 to 8) (size 9 to 14) (size 15 to 20)
#    0.000    1.778    0.000    2.667   12.444    8.889 
#    4.000    0.000    0.000    0.000    0.000    0.000 
#    0.000    0.000    0.000    0.000    0.000    0.000 
#
# Total GULP energy -200594.942700 kJ/mol
# GULP energy per Si atom -5572.081742 kJ/mol
# Density = 2.180800 g / cm^3
# Si number density = 21.857754 Si / 1000 Ang^3
#
#
#
# Elastic Constant Matrix: (Units=GPa)
#
#
# Indices 1 2 3 4 5 6 
#
# 1 73.7480 29.1690 37.0853 0.0000 0.0000 0.0000
# 2 29.1690 157.3638 59.8900 0.0000 0.0000 0.0000
# 3 37.0853 59.8900 123.6062 0.0000 0.0000 0.0000
# 4 0.0000 0.0000 0.0000 40.6936 0.0000 0.0000
# 5 0.0000 0.0000 0.0000 0.0000 4.1492 0.0000
# 6 0.0000 0.0000 0.0000 0.0000 0.0000 30.5895
#
#
#
# Elastic Compliance Matrix: (Units=1/GPa)
#
#
# Indices 1 2 3 4 5 6 
#
# 1 0.016222 -0.001416 -0.004181 0.000000 0.000000 0.000000
# 2 -0.001416 0.007915 -0.003410 0.000000 0.000000 0.000000
# 3 -0.004181 -0.003410 0.010997 0.000000 0.000000 0.000000
# 4 0.000000 0.000000 0.000000 0.024574 0.000000 0.000000
# 5 0.000000 0.000000 0.000000 0.000000 0.241009 0.000000
# 6 0.000000 0.000000 0.000000 0.000000 0.000000 0.032691
#
#
# Mechanical properties :
#
#
# Convention : Reuss Voigt Hill
#
# Bulk Modulus (GPa) = 58.41120 67.44518 62.92819
# Shear Modulus (GPa) = 14.00054 30.32471 22.16263
#
# Velocity S-wave (km/s) = 2.53361 3.72878 3.18771
# Velocity P-wave (km/s) = 5.94477 7.03291 6.51161
#
# Compressibility (1/GPa) = 0.01712000
#
# Stress axis : x y z
#
# Youngs Moduli (GPa) = 61.64393 126.34244 90.93358
#
# Poissons Ratio (x) = 0.17886 0.38021
# Poissons Ratio (y) = 0.08727 0.31011
# Poissons Ratio (z) = 0.25775 0.43086
#
# Static dielectric constant tensor:
#      x y z
#    x 2.179990 0.000000 0.000000 
#    y 0.000000 1.832680 0.000000 
#    z 0.000000 0.000000 1.933500 
# 
# From -- ./inp_files/19539.got.cif
#   From: 2010.05.17/outbox.cif.g08.bks.cpg/sg48_10_cif.got.tgz:19539.got - 2010.06.03 20:39:00.
