data_PCOD9390754
_publ_section_title
;
Structure prediction by ZEFSAII (Michael W. Deem and Ramdas Pophale) SiO2 
 PCOD9390754
Probable space group: P N N N
;
_chemical_formula_sum "Si O2"
_cell_formula_units_Z 54
_cell_length_a 28.189316
_cell_length_b 5.725035
_cell_length_c 14.820240
_cell_angle_alpha 90.000000
_cell_angle_beta 90.000000
_cell_angle_gamma 90.000000
_cell_volume 2391.761776
_symmetry_space_group_name_H-M "P N N N"
_symmetry_group_IT_number 48
_space_group.IT_coordinate_system_code '2'
_symmetry_cell_setting 'orthorhombic'
loop_
_space_group_symop_operation_xyz
x,y,z
1/2-x,1/2-y,z
x,1/2-y,1/2-z
1/2-x,y,1/2-z
-x,-y,-z
1/2+x,1/2+y,-z
-x,1/2+y,1/2+z
1/2+x,-y,1/2+z
loop_
_atom_site_type_symbol
_atom_site_label
_atom_site_fract_x
_atom_site_fract_y
_atom_site_fract_z
Si Si1 0.250000 0.250000 0.250000
Si Si2 0.452099 0.750000 0.250000
Si Si3 0.604079 0.980568 0.903256
Si Si4 0.700975 0.135913 0.848956
Si Si5 0.540697 0.900462 0.604870
Si Si6 0.946138 0.269960 0.055044
Si Si7 0.305439 0.247562 0.859755
Si Si8 0.848592 0.255440 0.356493
O O1 0.215987 0.382347 0.182554
O O2 0.419932 0.882148 0.178272
O O3 0.477556 0.561523 0.187002
O O4 0.655417 0.099216 0.910034
O O5 0.592302 0.713671 0.877575
O O6 0.574799 0.021324 0.994877
O O7 0.750000 0.250000 0.884567
O O8 0.690532 0.250000 0.750000
O O9 0.498865 0.709508 0.593923
O O10 0.548432 0.056622 0.515997
O O11 0.904856 0.228061 0.126551
O O12 0.250000 0.250000 0.883952
O O13 0.309209 0.250000 0.750000
O O14 0.327347 0.496635 0.892388
O O15 0.328622 0.998767 0.889286
O O16 0.838076 0.250000 0.250000
#
# Coordination Sequence:
#
# PCOD9390754 Si02
#       8
#     2   4   8   8   8   8   8   8
#     4   8  18  28  56  86 120 164 194 258 308 362
#     4  10  22  38  61  98 118 156 223 266 308 396
#     4  11  21  38  67  88 127 168 213 260 325 398
#     4   9  19  35  57  91 125 157 208 259 312 376
#     4  10  23  42  63  90 123 174 212 268 328 387
#     4  10  24  42  59  90 131 165 215 269 333 393
#     4   9  18  36  63  94 125 165 219 273 330 396
#     4  10  21  38  64  96 125 172 217 277 332 396
#
# _framework density 22.577499
#
# number of rings (size 3 to 8) (size 9 to 14) (size 15 to 20)
#    0.000    2.370    0.741    1.333    4.148    4.148 
#    4.000    1.481    1.630    0.000    0.000    0.000 
#    0.000    0.000    0.000    0.000    0.000    0.000 
#
# Total GULP energy -300679.796913 kJ/mol
# GULP energy per Si atom -5568.144387 kJ/mol
# Density = 2.252611 g / cm^3
# Si number density = 22.577499 Si / 1000 Ang^3
#
#
#
# Elastic Constant Matrix: (Units=GPa)
#
#
# Indices 1 2 3 4 5 6 
#
# 1 134.2076 55.0380 9.5197 0.0000 0.0000 0.0000
# 2 55.0380 104.8053 15.4365 0.0000 0.0000 0.0000
# 3 9.5197 15.4365 40.3982 0.0000 0.0000 0.0000
# 4 0.0000 0.0000 0.0000 -0.7798 0.0000 0.0000
# 5 0.0000 0.0000 0.0000 0.0000 15.5788 0.0000
# 6 0.0000 0.0000 0.0000 0.0000 0.0000 29.1455
#
#
#
# Elastic Compliance Matrix: (Units=1/GPa)
#
#
# Indices 1 2 3 4 5 6 
#
# 1 0.009501 -0.004938 -0.000352 0.000000 0.000000 0.000000
# 2 -0.004938 0.012676 -0.003680 0.000000 0.000000 0.000000
# 3 -0.000352 -0.003680 0.026243 0.000000 0.000000 0.000000
# 4 0.000000 0.000000 0.000000 -1.282434 0.000000 0.000000
# 5 0.000000 0.000000 0.000000 0.000000 0.064190 0.000000
# 6 0.000000 0.000000 0.000000 0.000000 0.000000 0.034311
#
#
# Mechanical properties :
#
#
# Convention : Reuss Voigt Hill
#
# Bulk Modulus (GPa) = 32.80808 48.82215 40.81511
# Shear Modulus (GPa) = -4.51503 22.08337 8.78417
#
# Velocity S-wave (km/s) = -1.41567 3.13087 1.97462
# Velocity P-wave (km/s) = 3.44829 5.89415 4.82865
#
# Compressibility (1/GPa) = 0.03048030
#
# Stress axis : x y z
#
# Youngs Moduli (GPa) = 105.25223 78.88630 38.10566
#
# Poissons Ratio (x) = 0.38950 0.01342
# Poissons Ratio (y) = 0.51969 0.14024
# Poissons Ratio (z) = 0.03707 0.29032
#
# Static dielectric constant tensor:
#      x y z
#    x 1.794100 0.000000 0.000000 
#    y 0.000000 2.043180 0.000000 
#    z 0.000000 0.000000 1.829570 
# 
# From -- ./inp_files/28937.got.cif
#   From: 2010.05.17/outbox.cif.g08.bks.cpg/sg48_15_cif.got.tgz:28937.got - 2010.06.03 20:39:00.
