data_PCOD9390481
_publ_section_title
;
Structure prediction by ZEFSAII (Michael W. Deem and Ramdas Pophale) SiO2 
 PCOD9390481
Probable space group: P N N N
;
_chemical_formula_sum "Si O2"
_cell_formula_units_Z 30
_cell_length_a 11.289066
_cell_length_b 15.568980
_cell_length_c 7.517525
_cell_angle_alpha 90.000000
_cell_angle_beta 90.000000
_cell_angle_gamma 90.000000
_cell_volume 1321.274502
_symmetry_space_group_name_H-M "P N N N"
_symmetry_group_IT_number 48
_space_group.IT_coordinate_system_code '2'
_symmetry_cell_setting 'orthorhombic'
loop_
_space_group_symop_operation_xyz
x,y,z
1/2-x,1/2-y,z
x,1/2-y,1/2-z
1/2-x,y,1/2-z
-x,-y,-z
1/2+x,1/2+y,-z
-x,1/2+y,1/2+z
1/2+x,-y,1/2+z
loop_
_atom_site_type_symbol
_atom_site_label
_atom_site_fract_x
_atom_site_fract_y
_atom_site_fract_z
Si Si1 0.151975 0.925437 0.389736
Si Si2 0.587256 0.488053 0.241524
Si Si3 0.250000 0.250000 0.250000
Si Si4 0.074657 0.364465 0.484316
Si Si5 0.424600 0.750000 0.250000
O O1 0.250000 0.958602 0.250000
O O2 0.164358 0.951387 0.595540
O O3 0.145156 0.823202 0.358811
O O4 0.026426 0.963709 0.328476
O O5 0.632997 0.560873 0.105557
O O6 0.527330 0.410939 0.131417
O O7 0.167963 0.312293 0.367872
O O8 0.007852 0.298657 0.611426
#
# Coordination Sequence:
#
# PCOD9390481 Si02
#       5
#     8   8   2   8   4
#     4  10  20  38  69  98 127 177 225 277 332 420
#     4   9  21  43  64  94 141 176 217 280 353 401
#     4  12  24  38  68 104 128 178 244 276 350 428
#     4  10  22  42  64  95 136 182 217 291 350 415
#     4  10  21  41  62  94 136 168 220 291 345 384
#
# _framework density 22.705348999999998
#
# number of rings (size 3 to 8) (size 9 to 14) (size 15 to 20)
#    0.000    2.133    0.000    2.000    1.867    0.533 
#    4.800   10.667    0.000    9.600    0.000    0.000 
#    0.000    0.000    0.000    0.000    0.000    0.000 
#
# Total GULP energy -167781.208583 kJ/mol
# GULP energy per Si atom -5592.706953 kJ/mol
# Density = 2.265367 g / cm^3
# Si number density = 22.705349 Si / 1000 Ang^3
#
#
#
# Elastic Constant Matrix: (Units=GPa)
#
#
# Indices 1 2 3 4 5 6 
#
# 1 66.8731 67.0276 67.1466 0.0000 0.0000 0.0000
# 2 67.0276 162.0353 111.9604 0.0000 0.0000 0.0000
# 3 67.1466 111.9604 209.0997 0.0000 0.0000 0.0000
# 4 0.0000 0.0000 0.0000 8.2799 0.0000 0.0000
# 5 0.0000 0.0000 0.0000 0.0000 35.5345 0.0000
# 6 0.0000 0.0000 0.0000 0.0000 0.0000 22.8545
#
#
#
# Elastic Compliance Matrix: (Units=1/GPa)
#
#
# Indices 1 2 3 4 5 6 
#
# 1 0.027893 -0.008490 -0.004411 0.000000 0.000000 0.000000
# 2 -0.008490 0.012380 -0.003902 0.000000 0.000000 0.000000
# 3 -0.004411 -0.003902 0.008288 0.000000 0.000000 0.000000
# 4 0.000000 0.000000 0.000000 0.120774 0.000000 0.000000
# 5 0.000000 0.000000 0.000000 0.000000 0.028142 0.000000
# 6 0.000000 0.000000 0.000000 0.000000 0.000000 0.043755
#
#
# Mechanical properties :
#
#
# Convention : Reuss Voigt Hill
#
# Bulk Modulus (GPa) = 66.87247 103.36412 85.11830
# Shear Modulus (GPa) = 17.86844 26.12535 21.99690
#
# Velocity S-wave (km/s) = 2.80834 3.39577 3.11593
# Velocity P-wave (km/s) = 6.32708 7.81012 7.10739
#
# Compressibility (1/GPa) = 0.01495384
#
# Stress axis : x y z
#
# Youngs Moduli (GPa) = 35.85193 80.77595 120.65228
#
# Poissons Ratio (x) = 0.68581 0.53218
# Poissons Ratio (y) = 0.30439 0.47082
# Poissons Ratio (z) = 0.15814 0.31521
#
# Static dielectric constant tensor:
#      x y z
#    x 1.872640 0.000000 0.000000 
#    y 0.000000 1.818920 0.000000 
#    z 0.000000 0.000000 1.866760 
# 
# From -- ./inp_files/10191.got.cif
#   From: 2010.05.17/outbox.cif.g08.bks.cpg/sg48_6_cif.got.tgz:10191.got - 2010.06.03 20:39:00.
