data_PCOD9390293
_publ_section_title
;
Structure prediction by ZEFSAII (Michael W. Deem and Ramdas Pophale) SiO2 
 PCOD9390293
Probable space group: P N N N
;
_chemical_formula_sum "Si O2"
_cell_formula_units_Z 58
_cell_length_a 16.454853
_cell_length_b 11.496469
_cell_length_c 15.711991
_cell_angle_alpha 90.000000
_cell_angle_beta 90.000000
_cell_angle_gamma 90.000000
_cell_volume 2972.279876
_symmetry_space_group_name_H-M "P N N N"
_symmetry_group_IT_number 48
_space_group.IT_coordinate_system_code '2'
_symmetry_cell_setting 'orthorhombic'
loop_
_space_group_symop_operation_xyz
x,y,z
1/2-x,1/2-y,z
x,1/2-y,1/2-z
1/2-x,y,1/2-z
-x,-y,-z
1/2+x,1/2+y,-z
-x,1/2+y,1/2+z
1/2+x,-y,1/2+z
loop_
_atom_site_type_symbol
_atom_site_label
_atom_site_fract_x
_atom_site_fract_y
_atom_site_fract_z
Si Si1 0.750000 0.750000 0.250000
Si Si2 0.577241 0.687735 0.513781
Si Si3 0.533967 0.170152 0.865401
Si Si4 0.508233 0.065448 0.693364
Si Si5 0.748180 0.569235 0.545448
Si Si6 0.851200 0.882753 0.111949
Si Si7 0.219139 0.879392 0.337048
Si Si8 0.386970 0.168123 0.333043
O O1 0.806514 0.829624 0.192143
O O2 0.501441 0.640572 0.458595
O O3 0.654285 0.608309 0.539931
O O4 0.612589 0.776375 0.443073
O O5 0.557614 0.759770 0.599197
O O6 0.485124 0.105442 0.789504
O O7 0.538895 0.310332 0.847041
O O8 0.623278 0.122049 0.846820
O O9 0.426257 0.038491 0.640991
O O10 0.569591 0.955960 0.688374
O O11 0.785605 0.567691 0.452351
O O12 0.755433 0.442535 0.583204
O O13 0.804869 0.643526 0.611190
O O14 0.250000 0.750000 0.334674
O O15 0.250000 0.938513 0.250000
O O16 0.373899 0.250000 0.250000
#
# Coordination Sequence:
#
# PCOD9390293 Si02
#       8
#     2   8   8   8   8   8   8   8
#     4  12  16  36  64  92 120 156 210 272 312 362
#     4  10  22  39  58  93 121 158 207 261 318 378
#     4  10  21  40  62  90 122 156 206 265 313 370
#     4  10  21  39  62  89 119 164 204 253 324 376
#     4  11  23  39  59  91 123 158 213 258 320 381
#     4  10  20  35  62  87 120 152 204 256 309 376
#     4  11  23  39  63  89 120 166 211 254 310 389
#     4  11  24  40  59  89 127 170 208 258 320 396
#
# _framework density 19.513639000000001
#
# number of rings (size 3 to 8) (size 9 to 14) (size 15 to 20)
#    0.000    1.517    1.379    6.207    3.862    7.172 
#    0.000    0.000    0.000    0.000    0.000    0.000 
#    0.000    0.000    0.000    0.000    0.000    0.000 
#
# Total GULP energy -323245.173618 kJ/mol
# GULP energy per Si atom -5573.192649 kJ/mol
# Density = 1.946923 g / cm^3
# Si number density = 19.513639 Si / 1000 Ang^3
#
#
#
# Elastic Constant Matrix: (Units=GPa)
#
#
# Indices 1 2 3 4 5 6 
#
# 1 82.0039 31.5604 46.9778 0.0000 0.0000 0.0000
# 2 31.5604 69.0403 49.0159 0.0000 0.0000 0.0000
# 3 46.9778 49.0159 139.2390 0.0000 0.0000 0.0000
# 4 0.0000 0.0000 0.0000 16.9867 0.0000 0.0000
# 5 0.0000 0.0000 0.0000 0.0000 28.9572 0.0000
# 6 0.0000 0.0000 0.0000 0.0000 0.0000 -53.4793
#
#
#
# Elastic Compliance Matrix: (Units=1/GPa)
#
#
# Indices 1 2 3 4 5 6 
#
# 1 0.016182 -0.004694 -0.003807 0.000000 0.000000 0.000000
# 2 -0.004694 0.020672 -0.005693 0.000000 0.000000 0.000000
# 3 -0.003807 -0.005693 0.010471 0.000000 0.000000 0.000000
# 4 0.000000 0.000000 0.000000 0.058870 0.000000 0.000000
# 5 0.000000 0.000000 0.000000 0.000000 0.034534 0.000000
# 6 0.000000 0.000000 0.000000 0.000000 0.000000 -0.018699
#
#
# Mechanical properties :
#
#
# Convention : Reuss Voigt Hill
#
# Bulk Modulus (GPa) = 52.81156 60.59906 56.70531
# Shear Modulus (GPa) = 31.90171 9.34154 20.62163
#
# Velocity S-wave (km/s) = 4.04770 2.19034 3.25434
# Velocity P-wave (km/s) = 6.99771 6.12527 6.57597
#
# Compressibility (1/GPa) = 0.01893525
#
# Stress axis : x y z
#
# Youngs Moduli (GPa) = 61.79593 48.37381 95.50546
#
# Poissons Ratio (x) = 0.22709 0.36360
# Poissons Ratio (y) = 0.29010 0.54375
# Poissons Ratio (z) = 0.23527 0.27541
#
# Static dielectric constant tensor:
#      x y z
#    x 1.790830 0.000000 0.000000 
#    y 0.000000 1.701910 0.000000 
#    z 0.000000 0.000000 1.327720 
# 
# From -- ./inp_files/28030.got.cif
#   From: 2010.05.17/outbox.cif.g08.bks.cpg/sg48_15_cif.got.tgz:28030.got - 2010.06.03 20:39:00.
