data_PCOD9390596
_publ_section_title
;
Structure prediction by ZEFSAII (Michael W. Deem and Ramdas Pophale) SiO2 
 PCOD9390596
Probable space group: P N N N
;
_chemical_formula_sum "Si O2"
_cell_formula_units_Z 38
_cell_length_a 18.952384
_cell_length_b 7.295131
_cell_length_c 13.719870
_cell_angle_alpha 90.000000
_cell_angle_beta 90.000000
_cell_angle_gamma 90.000000
_cell_volume 1896.910928
_symmetry_space_group_name_H-M "P N N N"
_symmetry_group_IT_number 48
_space_group.IT_coordinate_system_code '2'
_symmetry_cell_setting 'orthorhombic'
loop_
_space_group_symop_operation_xyz
x,y,z
1/2-x,1/2-y,z
x,1/2-y,1/2-z
1/2-x,y,1/2-z
-x,-y,-z
1/2+x,1/2+y,-z
-x,1/2+y,1/2+z
1/2+x,-y,1/2+z
loop_
_atom_site_type_symbol
_atom_site_label
_atom_site_fract_x
_atom_site_fract_y
_atom_site_fract_z
Si Si1 0.929249 0.523225 0.063026
Si Si2 0.612883 0.750000 0.750000
Si Si3 0.750000 0.250000 0.250000
Si Si4 0.363659 0.875914 0.592456
Si Si5 0.672022 0.692691 0.960017
Si Si6 0.474886 0.540286 0.767852
O O1 0.887827 0.329436 0.065327
O O2 0.950360 0.570292 0.174255
O O3 0.882034 0.677177 0.016045
O O4 0.000000 0.500000 0.000000
O O5 0.658127 0.736824 0.846976
O O6 0.558642 0.575972 0.761890
O O7 0.697643 0.137592 0.323703
O O8 0.431963 0.989640 0.633737
O O9 0.338849 0.986090 0.497442
O O10 0.750000 0.750000 0.987737
O O11 0.448888 0.750000 0.750000
#
# Coordination Sequence:
#
# PCOD9390596 Si02
#       6
#     8   4   2   8   8   8
#     4  11  20  42  67  94 131 163 220 274 321 400
#     4  10  20  44  64  86 130 170 218 272 318 386
#     4  12  18  44  66  82 154 170 202 280 342 408
#     4  11  23  40  63  96 128 171 208 273 338 387
#     4  12  26  40  65  97 130 178 221 262 336 408
#     4   8  17  38  61  87 123 160 206 269 325 365
#
# _framework density 20.032571000000001
#
# number of rings (size 3 to 8) (size 9 to 14) (size 15 to 20)
#    0.632    0.842    5.263    1.579    0.000    4.211 
#    0.000    1.053    0.000    2.526    0.000    0.000 
#    0.000    0.000    0.000    0.000    0.000    0.000 
#
# Total GULP energy -211593.834047 kJ/mol
# GULP energy per Si atom -5568.258791 kJ/mol
# Density = 1.998698 g / cm^3
# Si number density = 20.032571 Si / 1000 Ang^3
#
#
#
# Elastic Constant Matrix: (Units=GPa)
#
#
# Indices 1 2 3 4 5 6 
#
# 1 78.8028 16.4001 -4.6231 0.0000 0.0000 0.0000
# 2 16.4001 66.2244 13.8766 0.0000 0.0000 0.0000
# 3 -4.6231 13.8766 60.2734 0.0000 0.0000 0.0000
# 4 0.0000 0.0000 0.0000 21.0384 0.0000 0.0000
# 5 0.0000 0.0000 0.0000 0.0000 802.6785 0.0000
# 6 0.0000 0.0000 0.0000 0.0000 0.0000 9.2110
#
#
#
# Elastic Compliance Matrix: (Units=1/GPa)
#
#
# Indices 1 2 3 4 5 6 
#
# 1 0.013585 -0.003764 0.001909 0.000000 0.000000 0.000000
# 2 -0.003764 0.016909 -0.004182 0.000000 0.000000 0.000000
# 3 0.001909 -0.004182 0.017700 0.000000 0.000000 0.000000
# 4 0.000000 0.000000 0.000000 0.047532 0.000000 0.000000
# 5 0.000000 0.000000 0.000000 0.000000 0.001246 0.000000
# 6 0.000000 0.000000 0.000000 0.000000 0.000000 0.108565
#
#
# Mechanical properties :
#
#
# Convention : Reuss Voigt Hill
#
# Bulk Modulus (GPa) = 27.68568 28.51196 28.09882
# Shear Modulus (GPa) = 21.77212 178.56205 100.16709
#
# Velocity S-wave (km/s) = 3.30030 9.45142 7.07889
# Velocity P-wave (km/s) = 5.32663 11.54857 8.99284
#
# Compressibility (1/GPa) = 0.03611975
#
# Stress axis : x y z
#
# Youngs Moduli (GPa) = 73.60901 59.14160 56.49665
#
# Poissons Ratio (x) = 0.22262 -0.10783
# Poissons Ratio (y) = 0.27708 0.23624
# Poissons Ratio (z) = -0.14050 0.24730
#
# Static dielectric constant tensor:
#      x y z
#    x 1.676760 0.000000 0.000000 
#    y 0.000000 1.702080 0.000000 
#    z 0.000000 0.000000 1.746780 
# 
# From -- ./inp_files/21953.got.cif
#   From: 2010.05.17/outbox.cif.g08.bks.cpg/sg48_11_cif.got.tgz:21953.got - 2010.06.03 20:39:00.
