data_PCOD9390443
_publ_section_title
;
Structure prediction by ZEFSAII (Michael W. Deem and Ramdas Pophale) SiO2 
 PCOD9390443
Probable space group: P N N N
;
_chemical_formula_sum "Si O2"
_cell_formula_units_Z 64
_cell_length_a 15.733162
_cell_length_b 7.394040
_cell_length_c 24.920271
_cell_angle_alpha 90.000000
_cell_angle_beta 90.000000
_cell_angle_gamma 90.000000
_cell_volume 2899.015724
_symmetry_space_group_name_H-M "P N N N"
_symmetry_group_IT_number 48
_space_group.IT_coordinate_system_code '2'
_symmetry_cell_setting 'orthorhombic'
loop_
_space_group_symop_operation_xyz
x,y,z
1/2-x,1/2-y,z
x,1/2-y,1/2-z
1/2-x,y,1/2-z
-x,-y,-z
1/2+x,1/2+y,-z
-x,1/2+y,1/2+z
1/2+x,-y,1/2+z
loop_
_atom_site_type_symbol
_atom_site_label
_atom_site_fract_x
_atom_site_fract_y
_atom_site_fract_z
Si Si1 0.716175 0.939864 0.846332
Si Si2 0.440043 0.973947 0.890863
Si Si3 0.791546 0.565385 0.051888
Si Si4 0.616380 0.113417 0.452292
Si Si5 0.444328 0.001933 0.208580
Si Si6 0.430717 0.480293 0.062069
Si Si7 0.388987 0.045445 0.054235
Si Si8 0.610178 0.090723 0.682347
O O1 0.750000 0.750000 0.866761
O O2 0.675949 0.022723 0.900028
O O3 0.636830 0.884009 0.809527
O O4 0.789056 0.046757 0.814803
O O5 0.408474 0.784245 0.915677
O O6 0.519493 0.032737 0.928376
O O7 0.357197 0.096409 0.899471
O O8 0.477137 0.959635 0.830777
O O9 0.750000 0.750000 0.032568
O O10 0.710023 0.445723 0.065056
O O11 0.849417 0.498011 0.002666
O O12 0.532237 0.990313 0.443944
O O13 0.617034 0.101385 0.517555
O O14 0.447283 0.009079 0.272604
O O15 0.411321 0.799835 0.193064
O O16 0.405987 0.265790 0.054912
O O17 0.409965 0.533920 0.122284
#
# Coordination Sequence:
#
# PCOD9390443 Si02
#       8
#     8   8   8   8   8   8   8   8
#     4  11  20  36  60  91 128 160 205 249 307 377
#     4  10  24  42  60  87 130 169 208 257 310 375
#     4  12  22  36  64  91 125 162 211 254 314 378
#     4  10  22  38  61  93 126 159 201 253 316 383
#     4  10  25  41  56  86 123 168 213 262 300 372
#     4  10  20  38  62  90 125 160 202 253 316 383
#     4  10  20  39  57  94 132 163 198 258 308 387
#     4  11  22  39  62  84 122 166 210 255 315 369
#
# _framework density 22.076457000000001
#
# number of rings (size 3 to 8) (size 9 to 14) (size 15 to 20)
#    0.000    1.500    2.500    2.625    1.750    4.000 
#    0.000    3.750    0.000    0.750    0.000    3.500 
#    0.000    0.000    0.000    0.000    0.000    0.000 
#
# Total GULP energy -357201.572836 kJ/mol
# GULP energy per Si atom -5581.274576 kJ/mol
# Density = 2.202621 g / cm^3
# Si number density = 22.076457 Si / 1000 Ang^3
#
#
#
# Elastic Constant Matrix: (Units=GPa)
#
#
# Indices 1 2 3 4 5 6 
#
# 1 129.5173 26.1396 53.2159 0.0000 0.0000 0.0000
# 2 26.1396 47.0626 17.8622 0.0000 0.0000 0.0000
# 3 53.2159 17.8622 127.4112 0.0000 0.0000 0.0000
# 4 0.0000 0.0000 0.0000 21.6456 0.0000 0.0000
# 5 0.0000 0.0000 0.0000 0.0000 20.1042 0.0000
# 6 0.0000 0.0000 0.0000 0.0000 0.0000 29.0664
#
#
#
# Elastic Compliance Matrix: (Units=1/GPa)
#
#
# Indices 1 2 3 4 5 6 
#
# 1 0.010054 -0.004215 -0.003608 0.000000 0.000000 0.000000
# 2 -0.004215 0.024209 -0.001634 0.000000 0.000000 0.000000
# 3 -0.003608 -0.001634 0.009585 0.000000 0.000000 0.000000
# 4 0.000000 0.000000 0.000000 0.046199 0.000000 0.000000
# 5 0.000000 0.000000 0.000000 0.000000 0.049741 0.000000
# 6 0.000000 0.000000 0.000000 0.000000 0.000000 0.034404
#
#
# Mechanical properties :
#
#
# Convention : Reuss Voigt Hill
#
# Bulk Modulus (GPa) = 40.10491 55.38073 47.74282
# Shear Modulus (GPa) = 24.82410 27.94814 26.38612
#
# Velocity S-wave (km/s) = 3.35694 3.56191 3.46094
# Velocity P-wave (km/s) = 5.76465 6.48510 6.13546
#
# Compressibility (1/GPa) = 0.02493461
#
# Stress axis : x y z
#
# Youngs Moduli (GPa) = 99.46024 41.30646 104.33205
#
# Poissons Ratio (x) = 0.17410 0.37648
# Poissons Ratio (y) = 0.41920 0.17044
# Poissons Ratio (z) = 0.35890 0.06748
#
# Static dielectric constant tensor:
#      x y z
#    x 1.847770 0.000000 0.000000 
#    y 0.000000 1.959810 0.000000 
#    z 0.000000 0.000000 1.833760 
# 
# From -- ./inp_files/36562.got.cif
#   From: 2010.05.17/outbox.cif.g08.bks.cpg/sg48_19_cif.got.tgz:36562.got - 2010.06.03 20:39:00.
