data_PCOD9390762
_publ_section_title
;
Structure prediction by ZEFSAII (Michael W. Deem and Ramdas Pophale) SiO2 
 PCOD9390762
Probable space group: P N N N
;
_chemical_formula_sum "Si O2"
_cell_formula_units_Z 40
_cell_length_a 14.711944
_cell_length_b 13.723876
_cell_length_c 9.314236
_cell_angle_alpha 90.000000
_cell_angle_beta 90.000000
_cell_angle_gamma 90.000000
_cell_volume 1880.589843
_symmetry_space_group_name_H-M "P N N N"
_symmetry_group_IT_number 48
_space_group.IT_coordinate_system_code '2'
_symmetry_cell_setting 'orthorhombic'
loop_
_space_group_symop_operation_xyz
x,y,z
1/2-x,1/2-y,z
x,1/2-y,1/2-z
1/2-x,y,1/2-z
-x,-y,-z
1/2+x,1/2+y,-z
-x,1/2+y,1/2+z
1/2+x,-y,1/2+z
loop_
_atom_site_type_symbol
_atom_site_label
_atom_site_fract_x
_atom_site_fract_y
_atom_site_fract_z
Si Si1 0.013169 0.391197 0.560309
Si Si2 0.894957 0.716642 0.895536
Si Si3 0.349382 0.753198 0.419120
Si Si4 0.556194 0.416536 0.420067
Si Si5 0.151763 0.093040 0.679312
O O1 0.072895 0.317095 0.466880
O O2 0.065994 0.384102 0.714356
O O3 0.000000 0.500000 0.500000
O O4 0.912711 0.345420 0.553916
O O5 0.845765 0.750000 0.750000
O O6 0.981214 0.650374 0.842073
O O7 0.853366 0.652677 0.027845
O O8 0.250000 0.750000 0.487891
O O9 0.340058 0.750000 0.250000
O O10 0.400959 0.657426 0.468583
O O11 0.500000 0.500000 0.500000
O O12 0.635143 0.477127 0.342800
O O13 0.250000 0.112257 0.750000
#
# Coordination Sequence:
#
# PCOD9390762 Si02
#       5
#     8   8   8   8   8
#     4  11  23  40  67  97 138 184 231 287 360 424
#     4  10  21  41  67  96 131 181 230 287 351 424
#     4  10  21  38  65  98 135 177 229 290 352 420
#     4   9  19  38  65  93 132 175 227 279 348 415
#     4  11  24  42  70 100 140 185 238 296 366 433
#
# _framework density 21.269922999999999
#
# number of rings (size 3 to 8) (size 9 to 14) (size 15 to 20)
#    0.000    1.800    0.000    5.400    2.800    3.200 
#    0.000    2.000    0.000    0.000    0.000    0.000 
#    0.000    0.000    0.000    0.000    0.000    0.000 
#
# Total GULP energy -222826.556339 kJ/mol
# GULP energy per Si atom -5570.663908 kJ/mol
# Density = 2.122151 g / cm^3
# Si number density = 21.269923 Si / 1000 Ang^3
#
#
#
# Elastic Constant Matrix: (Units=GPa)
#
#
# Indices 1 2 3 4 5 6 
#
# 1 140.7255 61.3747 49.9854 0.0000 0.0000 0.0000
# 2 61.3747 162.7259 51.7719 0.0000 0.0000 0.0000
# 3 49.9854 51.7719 118.3779 0.0000 0.0000 0.0000
# 4 0.0000 0.0000 0.0000 18.8658 0.0000 0.0000
# 5 0.0000 0.0000 0.0000 0.0000 24.6305 0.0000
# 6 0.0000 0.0000 0.0000 0.0000 0.0000 8.1714
#
#
#
# Elastic Compliance Matrix: (Units=1/GPa)
#
#
# Indices 1 2 3 4 5 6 
#
# 1 0.009219 -0.002600 -0.002755 0.000000 0.000000 0.000000
# 2 -0.002600 0.007872 -0.002345 0.000000 0.000000 0.000000
# 3 -0.002755 -0.002345 0.010636 0.000000 0.000000 0.000000
# 4 0.000000 0.000000 0.000000 0.053006 0.000000 0.000000
# 5 0.000000 0.000000 0.000000 0.000000 0.040600 0.000000
# 6 0.000000 0.000000 0.000000 0.000000 0.000000 0.122379
#
#
# Mechanical properties :
#
#
# Convention : Reuss Voigt Hill
#
# Bulk Modulus (GPa) = 81.12782 83.12148 82.12465
# Shear Modulus (GPa) = 18.99535 27.58000 23.28767
#
# Velocity S-wave (km/s) = 2.99166 3.60483 3.31246
# Velocity P-wave (km/s) = 7.08224 7.51602 7.30236
#
# Compressibility (1/GPa) = 0.01232623
#
# Stress axis : x y z
#
# Youngs Moduli (GPa) = 108.47319 127.03110 94.01601
#
# Poissons Ratio (x) = 0.33033 0.25905
# Poissons Ratio (y) = 0.28207 0.22045
# Poissons Ratio (z) = 0.29889 0.29786
#
# Static dielectric constant tensor:
#      x y z
#    x 1.859190 0.000000 0.000000 
#    y 0.000000 1.745700 0.000000 
#    z 0.000000 0.000000 1.763740 
# 
# From -- ./inp_files/12351.got.cif
#   From: 2010.05.17/outbox.cif.g08.bks.cpg/sg48_7_cif.got.tgz:12351.got - 2010.06.03 20:39:00.
