data_PCOD9390835
_publ_section_title
;
Structure prediction by ZEFSAII (Michael W. Deem and Ramdas Pophale) SiO2 
 PCOD9390835
Probable space group: P N N N
;
_chemical_formula_sum "Si O2"
_cell_formula_units_Z 64
_cell_length_a 14.877304
_cell_length_b 11.093633
_cell_length_c 18.176815
_cell_angle_alpha 90.000000
_cell_angle_beta 90.000000
_cell_angle_gamma 90.000000
_cell_volume 2999.962451
_symmetry_space_group_name_H-M "P N N N"
_symmetry_group_IT_number 48
_space_group.IT_coordinate_system_code '2'
_symmetry_cell_setting 'orthorhombic'
loop_
_space_group_symop_operation_xyz
x,y,z
1/2-x,1/2-y,z
x,1/2-y,1/2-z
1/2-x,y,1/2-z
-x,-y,-z
1/2+x,1/2+y,-z
-x,1/2+y,1/2+z
1/2+x,-y,1/2+z
loop_
_atom_site_type_symbol
_atom_site_label
_atom_site_fract_x
_atom_site_fract_y
_atom_site_fract_z
Si Si1 0.082172 0.313379 0.372023
Si Si2 0.192823 0.442241 0.487987
Si Si3 0.843131 0.811595 0.143434
Si Si4 0.888023 0.336315 0.441627
Si Si5 0.466560 0.415708 0.279123
Si Si6 0.126955 0.923490 0.513594
Si Si7 0.480963 0.400489 0.613432
Si Si8 0.653172 0.439591 0.215272
O O1 0.164102 0.355428 0.422059
O O2 0.077079 0.181628 0.334486
O O3 0.075034 0.402007 0.301666
O O4 0.994012 0.322727 0.423785
O O5 0.178945 0.370199 0.563963
O O6 0.130247 0.561297 0.497490
O O7 0.293005 0.494798 0.482604
O O8 0.750000 0.750000 0.166671
O O9 0.923457 0.716948 0.132264
O O10 0.866229 0.918946 0.199524
O O11 0.845910 0.208425 0.460737
O O12 0.847348 0.380878 0.364816
O O13 0.466893 0.544788 0.317165
O O14 0.572111 0.387614 0.263813
O O15 0.051131 0.893599 0.453268
O O16 0.087360 0.997806 0.582336
O O17 0.750000 0.425539 0.250000
#
# Coordination Sequence:
#
# PCOD9390835 Si02
#       8
#     8   8   8   8   8   8   8   8
#     4  10  21  40  62  90 129 170 219 277 325 406
#     4  11  23  38  64  95 127 165 223 277 334 397
#     4  11  22  38  61  94 134 172 218 273 341 410
#     4  10  21  40  64  92 130 169 215 270 337 403
#     4  10  22  39  62  88 126 179 216 268 345 401
#     4  11  23  39  63  94 126 170 219 279 332 405
#     4  11  23  40  63  90 129 174 220 270 343 402
#     4  10  23  39  62  98 135 177 217 270 339 428
#
# _framework density 21.333600000000001
#
# number of rings (size 3 to 8) (size 9 to 14) (size 15 to 20)
#    0.000    1.500    2.500    2.250    3.500    4.750 
#    0.000    6.250    0.000    1.500    0.000    1.750 
#    0.000    0.000    0.000    0.000    0.000    0.000 
#
# Total GULP energy -357891.788920 kJ/mol
# GULP energy per Si atom -5592.059202 kJ/mol
# Density = 2.128504 g / cm^3
# Si number density = 21.333600 Si / 1000 Ang^3
#
#
#
# Elastic Constant Matrix: (Units=GPa)
#
#
# Indices 1 2 3 4 5 6 
#
# 1 58.3860 47.7913 38.9703 0.0000 0.0000 0.0000
# 2 47.7913 113.0059 29.2696 0.0000 0.0000 0.0000
# 3 38.9703 29.2696 66.7202 0.0000 0.0000 0.0000
# 4 0.0000 0.0000 0.0000 22.6557 0.0000 0.0000
# 5 0.0000 0.0000 0.0000 0.0000 14.5273 0.0000
# 6 0.0000 0.0000 0.0000 0.0000 0.0000 24.2614
#
#
#
# Elastic Compliance Matrix: (Units=1/GPa)
#
#
# Indices 1 2 3 4 5 6 
#
# 1 0.038142 -0.011689 -0.017151 0.000000 0.000000 0.000000
# 2 -0.011689 0.013565 0.000876 0.000000 0.000000 0.000000
# 3 -0.017151 0.000876 0.024621 0.000000 0.000000 0.000000
# 4 0.000000 0.000000 0.000000 0.044139 0.000000 0.000000
# 5 0.000000 0.000000 0.000000 0.000000 0.068836 0.000000
# 6 0.000000 0.000000 0.000000 0.000000 0.000000 0.041218
#
#
# Mechanical properties :
#
#
# Convention : Reuss Voigt Hill
#
# Bulk Modulus (GPa) = 49.01367 52.24163 50.62765
# Shear Modulus (GPa) = 17.05035 20.42760 18.73898
#
# Velocity S-wave (km/s) = 2.83012 3.09776 2.96696
# Velocity P-wave (km/s) = 5.80553 6.11031 5.95987
#
# Compressibility (1/GPa) = 0.02040247
#
# Stress axis : x y z
#
# Youngs Moduli (GPa) = 26.21750 73.71696 40.61552
#
# Poissons Ratio (x) = 0.86165 0.69659
# Poissons Ratio (y) = 0.30645 -0.03558
# Poissons Ratio (z) = 0.44965 -0.06459
#
# Static dielectric constant tensor:
#      x y z
#    x 1.792530 0.000000 0.000000 
#    y 0.000000 1.812960 0.000000 
#    z 0.000000 0.000000 1.765820 
# 
# From -- ./inp_files/21555.got.cif
#   From: 2010.05.17/outbox.cif.g08.bks.cpg/sg48_11_cif.got.tgz:21555.got - 2010.06.03 20:39:00.
