data_PCOD9390834
_publ_section_title
;
Structure prediction by ZEFSAII (Michael W. Deem and Ramdas Pophale) SiO2 
 PCOD9390834
Probable space group: P N N N
;
_chemical_formula_sum "Si O2"
_cell_formula_units_Z 56
_cell_length_a 14.322016
_cell_length_b 8.730740
_cell_length_c 22.800371
_cell_angle_alpha 90.000000
_cell_angle_beta 90.000000
_cell_angle_gamma 90.000000
_cell_volume 2850.999384
_symmetry_space_group_name_H-M "P N N N"
_symmetry_group_IT_number 48
_space_group.IT_coordinate_system_code '2'
_symmetry_cell_setting 'orthorhombic'
loop_
_space_group_symop_operation_xyz
x,y,z
1/2-x,1/2-y,z
x,1/2-y,1/2-z
1/2-x,y,1/2-z
-x,-y,-z
1/2+x,1/2+y,-z
-x,1/2+y,1/2+z
1/2+x,-y,1/2+z
loop_
_atom_site_type_symbol
_atom_site_label
_atom_site_fract_x
_atom_site_fract_y
_atom_site_fract_z
Si Si1 0.580884 0.123987 0.016278
Si Si2 0.507681 0.201523 0.589201
Si Si3 0.280816 0.925462 0.683345
Si Si4 0.815048 0.886098 0.420861
Si Si5 0.033220 0.863404 0.882736
Si Si6 0.654497 0.820766 0.685485
Si Si7 0.656322 0.318638 0.814212
O O1 0.565372 0.228156 0.074043
O O2 0.669596 0.019544 0.031545
O O3 0.575274 0.238719 0.962057
O O4 0.500000 0.000000 0.000000
O O5 0.414696 0.305130 0.591528
O O6 0.564971 0.216132 0.648853
O O7 0.484385 0.021772 0.582227
O O8 0.250000 0.750000 0.674141
O O9 0.250000 0.966163 0.750000
O O10 0.390567 0.914556 0.666415
O O11 0.230549 0.037837 0.637007
O O12 0.750000 0.750000 0.442869
O O13 0.938198 0.804307 0.852945
O O14 0.750000 0.750000 0.660304
O O15 0.640618 0.750000 0.750000
O O16 0.669169 0.001036 0.691294
O O17 0.750000 0.250000 0.842199
O O18 0.647045 0.250000 0.750000
#
# Coordination Sequence:
#
# PCOD9390834 Si02
#       7
#     8   8   8   8   8   8   8
#     4  10  23  41  64  90 123 170 219 272 321 392
#     4  10  23  42  65  97 124 169 219 264 336 390
#     4  11  24  41  65 102 134 180 221 262 336 408
#     4  11  22  42  65  94 136 170 218 272 326 399
#     4  11  22  42  66  89 137 168 215 280 321 393
#     4  10  22  37  62  92 120 165 211 261 323 382
#     4  10  21  40  62  89 126 159 204 265 324 387
#
# _framework density 19.642233999999998
#
# number of rings (size 3 to 8) (size 9 to 14) (size 15 to 20)
#    0.000    1.571    2.857    2.143    2.000    7.143 
#    2.571    5.714    0.000    0.857    0.000    0.000 
#    0.000    0.000    0.000    0.000    0.000    0.000 
#
# Total GULP energy -312377.322934 kJ/mol
# GULP energy per Si atom -5578.166481 kJ/mol
# Density = 1.959753 g / cm^3
# Si number density = 19.642234 Si / 1000 Ang^3
#
#
#
# Elastic Constant Matrix: (Units=GPa)
#
#
# Indices 1 2 3 4 5 6 
#
# 1 114.4959 51.7092 49.8042 0.0000 0.0000 0.0000
# 2 51.7092 95.0173 41.7322 0.0000 0.0000 0.0000
# 3 49.8042 41.7322 69.8701 0.0000 0.0000 0.0000
# 4 0.0000 0.0000 0.0000 81.4663 0.0000 0.0000
# 5 0.0000 0.0000 0.0000 0.0000 17.3943 0.0000
# 6 0.0000 0.0000 0.0000 0.0000 0.0000 37.1116
#
#
#
# Elastic Compliance Matrix: (Units=1/GPa)
#
#
# Indices 1 2 3 4 5 6 
#
# 1 0.013867 -0.004345 -0.007289 0.000000 0.000000 0.000000
# 2 -0.004345 0.015629 -0.006237 0.000000 0.000000 0.000000
# 3 -0.007289 -0.006237 0.023234 0.000000 0.000000 0.000000
# 4 0.000000 0.000000 0.000000 0.012275 0.000000 0.000000
# 5 0.000000 0.000000 0.000000 0.000000 0.057490 0.000000
# 6 0.000000 0.000000 0.000000 0.000000 0.000000 0.026946
#
#
# Mechanical properties :
#
#
# Convention : Reuss Voigt Hill
#
# Bulk Modulus (GPa) = 58.87343 62.87495 60.87419
# Shear Modulus (GPa) = 26.19917 36.27029 31.23473
#
# Velocity S-wave (km/s) = 3.65611 4.30181 3.99203
# Velocity P-wave (km/s) = 6.91815 7.53350 7.23237
#
# Compressibility (1/GPa) = 0.01698559
#
# Stress axis : x y z
#
# Youngs Moduli (GPa) = 72.11340 63.98559 43.04078
#
# Poissons Ratio (x) = 0.27802 0.31374
# Poissons Ratio (y) = 0.31333 0.26847
# Poissons Ratio (z) = 0.52566 0.39911
#
# Static dielectric constant tensor:
#      x y z
#    x 1.574930 0.000000 0.000000 
#    y 0.000000 1.685880 0.000000 
#    z 0.000000 0.000000 1.690550 
# 
# From -- ./inp_files/34474.got.cif
#   From: 2010.05.17/outbox.cif.g08.bks.cpg/sg48_18_cif.got.tgz:34474.got - 2010.06.03 20:39:00.
