data_PCOD9390986
_publ_section_title
;
Structure prediction by ZEFSAII (Michael W. Deem and Ramdas Pophale) SiO2 
 PCOD9390986
Probable space group: P N N N
;
_chemical_formula_sum "Si O2"
_cell_formula_units_Z 48
_cell_length_a 10.132439
_cell_length_b 9.424001
_cell_length_c 21.473018
_cell_angle_alpha 90.000000
_cell_angle_beta 90.000000
_cell_angle_gamma 90.000000
_cell_volume 2050.418018
_symmetry_space_group_name_H-M "P N N N"
_symmetry_group_IT_number 48
_space_group.IT_coordinate_system_code '2'
_symmetry_cell_setting 'orthorhombic'
loop_
_space_group_symop_operation_xyz
x,y,z
1/2-x,1/2-y,z
x,1/2-y,1/2-z
1/2-x,y,1/2-z
-x,-y,-z
1/2+x,1/2+y,-z
-x,1/2+y,1/2+z
1/2+x,-y,1/2+z
loop_
_atom_site_type_symbol
_atom_site_label
_atom_site_fract_x
_atom_site_fract_y
_atom_site_fract_z
Si Si1 0.904498 0.582437 0.767375
Si Si2 0.263708 0.545782 0.068443
Si Si3 0.502469 0.372144 0.626400
Si Si4 0.485676 0.433165 0.845095
Si Si5 0.418630 0.147343 0.005931
Si Si6 0.134659 0.649122 0.563835
O O1 0.908850 0.750000 0.750000
O O2 0.750000 0.540340 0.750000
O O3 0.961938 0.515378 0.833094
O O4 0.003856 0.512231 0.719160
O O5 0.143484 0.642924 0.091718
O O6 0.375404 0.541395 0.119468
O O7 0.203739 0.394409 0.048661
O O8 0.317480 0.597011 0.002902
O O9 0.474817 0.234026 0.667166
O O10 0.400121 0.339152 0.568699
O O11 0.387785 0.516644 0.890978
O O12 0.505346 0.260997 0.043682
O O13 0.500000 0.000000 0.000000
O O14 0.250000 0.750000 0.589812
#
# Coordination Sequence:
#
# PCOD9390986 Si02
#       6
#     8   8   8   8   8   8
#     4  11  26  41  65 100 137 182 228 291 354 424
#     4  11  22  40  67 101 142 176 225 288 359 421
#     4  11  22  44  64  98 143 179 235 282 356 419
#     4  12  25  40  69 100 138 191 231 291 350 430
#     4  10  22  36  66  97 134 189 212 287 351 412
#     4  12  23  42  62 102 147 177 237 288 360 423
#
# _framework density 23.409859999999998
#
# number of rings (size 3 to 8) (size 9 to 14) (size 15 to 20)
#    0.000    0.833    6.667    1.500    4.667    1.333 
#    0.000    0.000    0.000    3.500    0.000    4.667 
#    0.000    0.000    0.000    0.000    0.000    0.000 
#
# Total GULP energy -267357.200544 kJ/mol
# GULP energy per Si atom -5569.941678 kJ/mol
# Density = 2.335658 g / cm^3
# Si number density = 23.409860 Si / 1000 Ang^3
#
#
#
# Elastic Constant Matrix: (Units=GPa)
#
#
# Indices 1 2 3 4 5 6 
#
# 1 41.1991 21.0051 -2.4810 0.0000 0.0000 0.0000
# 2 21.0051 127.4556 22.8303 0.0000 0.0000 0.0000
# 3 -2.4810 22.8303 92.8932 0.0000 0.0000 0.0000
# 4 0.0000 0.0000 0.0000 16.0148 0.0000 0.0000
# 5 0.0000 0.0000 0.0000 0.0000 14.3190 0.0000
# 6 0.0000 0.0000 0.0000 0.0000 0.0000 9.1692
#
#
#
# Elastic Compliance Matrix: (Units=1/GPa)
#
#
# Indices 1 2 3 4 5 6 
#
# 1 0.026811 -0.004756 0.001885 0.000000 0.000000 0.000000
# 2 -0.004756 0.009051 -0.002351 0.000000 0.000000 0.000000
# 3 0.001885 -0.002351 0.011393 0.000000 0.000000 0.000000
# 4 0.000000 0.000000 0.000000 0.062442 0.000000 0.000000
# 5 0.000000 0.000000 0.000000 0.000000 0.069837 0.000000
# 6 0.000000 0.000000 0.000000 0.000000 0.000000 0.109061
#
#
# Mechanical properties :
#
#
# Convention : Reuss Voigt Hill
#
# Bulk Modulus (GPa) = 27.16672 38.25074 32.70873
# Shear Modulus (GPa) = 16.06112 22.58016 19.32064
#
# Velocity S-wave (km/s) = 2.62216 3.10910 2.87596
# Velocity P-wave (km/s) = 4.56044 5.40960 5.00307
#
# Compressibility (1/GPa) = 0.03680975
#
# Stress axis : x y z
#
# Youngs Moduli (GPa) = 37.29840 110.48625 87.77079
#
# Poissons Ratio (x) = 0.52549 -0.16545
# Poissons Ratio (y) = 0.17740 0.20639
# Poissons Ratio (z) = -0.07031 0.25980
#
# Static dielectric constant tensor:
#      x y z
#    x 1.974360 0.000000 0.000000 
#    y 0.000000 2.071220 0.000000 
#    z 0.000000 0.000000 2.038110 
# 
# From -- ./inp_files/36251.got.cif
#   From: 2010.05.17/outbox.cif.g08.bks.cpg/sg48_19_cif.got.tgz:36251.got - 2010.06.03 20:39:00.
