data_PCOD9390845
_publ_section_title
;
Structure prediction by ZEFSAII (Michael W. Deem and Ramdas Pophale) SiO2 
 PCOD9390845
Probable space group: P N N N
;
_chemical_formula_sum "Si O2"
_cell_formula_units_Z 60
_cell_length_a 19.427742
_cell_length_b 11.332208
_cell_length_c 15.296291
_cell_angle_alpha 90.000000
_cell_angle_beta 90.000000
_cell_angle_gamma 90.000000
_cell_volume 3367.619393
_symmetry_space_group_name_H-M "P N N N"
_symmetry_group_IT_number 48
_space_group.IT_coordinate_system_code '2'
_symmetry_cell_setting 'orthorhombic'
loop_
_space_group_symop_operation_xyz
x,y,z
1/2-x,1/2-y,z
x,1/2-y,1/2-z
1/2-x,y,1/2-z
-x,-y,-z
1/2+x,1/2+y,-z
-x,1/2+y,1/2+z
1/2+x,-y,1/2+z
loop_
_atom_site_type_symbol
_atom_site_label
_atom_site_fract_x
_atom_site_fract_y
_atom_site_fract_z
Si Si1 0.325138 0.759620 0.065034
Si Si2 0.942017 0.698362 0.847985
Si Si3 0.679627 0.679361 0.953857
Si Si4 0.811210 0.033076 0.819038
Si Si5 0.050422 0.840669 0.955129
Si Si6 0.929818 0.601586 0.406637
Si Si7 0.913135 0.436752 0.828899
Si Si8 0.483435 0.250000 0.750000
O O1 0.250000 0.750000 0.021716
O O2 0.315415 0.664257 0.142603
O O3 0.353496 0.879848 0.109676
O O4 0.383235 0.716223 0.999171
O O5 0.938314 0.750000 0.750000
O O6 0.872888 0.742383 0.896427
O O7 0.945438 0.557814 0.861860
O O8 0.008389 0.755597 0.892395
O O9 0.750000 0.750000 0.969090
O O10 0.692996 0.561289 0.896652
O O11 0.637235 0.644926 0.040523
O O12 0.750000 0.016897 0.750000
O O13 0.880308 0.021877 0.762979
O O14 0.070139 0.960100 0.904459
O O15 0.996914 0.870012 0.033570
O O16 0.940144 0.667544 0.315212
O O17 0.967565 0.334248 0.808414
#
# Coordination Sequence:
#
# PCOD9390845 Si02
#       8
#     8   8   8   8   8   8   8   4
#     4  12  23  37  58  92 126 166 204 253 317 387
#     4  11  23  37  58  89 120 162 208 252 314 374
#     4  11  24  39  59  90 127 162 205 250 316 377
#     4  12  21  35  57  89 131 164 197 246 315 390
#     4  10  21  41  61  86 125 165 202 254 319 371
#     4  10  21  40  64  86 121 165 206 257 303 372
#     4  12  22  34  55  90 125 154 209 258 298 378
#     4  12  22  38  64  90 114 160 214 254 308 364
#
# _framework density 17.816739999999999
#
# number of rings (size 3 to 8) (size 9 to 14) (size 15 to 20)
#    0.000    0.800    6.667    1.600    1.867    0.533 
#    0.000    0.333    0.000    0.400    3.467    0.000 
#    0.000    0.000    0.000    0.000    0.000    0.000 
#
# Total GULP energy -335000.251195 kJ/mol
# GULP energy per Si atom -5583.337520 kJ/mol
# Density = 1.777619 g / cm^3
# Si number density = 17.816740 Si / 1000 Ang^3
#
#
#
# Elastic Constant Matrix: (Units=GPa)
#
#
# Indices 1 2 3 4 5 6 
#
# 1 125.8369 50.2913 45.1323 0.0000 0.0000 0.0000
# 2 50.2913 129.6025 41.8608 0.0000 0.0000 0.0000
# 3 45.1323 41.8608 56.7661 0.0000 0.0000 0.0000
# 4 0.0000 0.0000 0.0000 24.8222 0.0000 0.0000
# 5 0.0000 0.0000 0.0000 0.0000 -30.2541 0.0000
# 6 0.0000 0.0000 0.0000 0.0000 0.0000 5.1962
#
#
#
# Elastic Compliance Matrix: (Units=1/GPa)
#
#
# Indices 1 2 3 4 5 6 
#
# 1 0.011491 -0.001980 -0.007676 0.000000 0.000000 0.000000
# 2 -0.001980 0.010469 -0.006146 0.000000 0.000000 0.000000
# 3 -0.007676 -0.006146 0.028252 0.000000 0.000000 0.000000
# 4 0.000000 0.000000 0.000000 0.040287 0.000000 0.000000
# 5 0.000000 0.000000 0.000000 0.000000 -0.033053 0.000000
# 6 0.000000 0.000000 0.000000 0.000000 0.000000 0.192448
#
#
# Mechanical properties :
#
#
# Convention : Reuss Voigt Hill
#
# Bulk Modulus (GPa) = 53.74169 65.19715 59.46942
# Shear Modulus (GPa) = 17.37916 11.61427 14.49671
#
# Velocity S-wave (km/s) = 3.12659 2.55595 2.85556
# Velocity P-wave (km/s) = 6.57747 6.73670 6.65756
#
# Compressibility (1/GPa) = 0.01860753
#
# Stress axis : x y z
#
# Youngs Moduli (GPa) = 87.02378 95.51683 35.39608
#
# Poissons Ratio (x) = 0.18909 0.27171
# Poissons Ratio (y) = 0.17228 0.21756
# Poissons Ratio (z) = 0.66801 0.58709
#
# Static dielectric constant tensor:
#      x y z
#    x 1.627960 0.000000 0.000000 
#    y 0.000000 1.647160 0.000000 
#    z 0.000000 0.000000 1.621960 
# 
# From -- ./inp_files/22934.got.cif
#   From: 2010.05.17/outbox.cif.g08.bks.cpg/sg48_12_cif.got.tgz:22934.got - 2010.06.03 20:39:00.
