data_PCOD9390937
_publ_section_title
;
Structure prediction by ZEFSAII (Michael W. Deem and Ramdas Pophale) SiO2 
 PCOD9390937
Probable space group: P N N N
;
_chemical_formula_sum "Si O2"
_cell_formula_units_Z 48
_cell_length_a 17.643561
_cell_length_b 7.679940
_cell_length_c 14.334762
_cell_angle_alpha 90.000000
_cell_angle_beta 90.000000
_cell_angle_gamma 90.000000
_cell_volume 1942.381608
_symmetry_space_group_name_H-M "P N N N"
_symmetry_group_IT_number 48
_space_group.IT_coordinate_system_code '2'
_symmetry_cell_setting 'orthorhombic'
loop_
_space_group_symop_operation_xyz
x,y,z
1/2-x,1/2-y,z
x,1/2-y,1/2-z
1/2-x,y,1/2-z
-x,-y,-z
1/2+x,1/2+y,-z
-x,1/2+y,1/2+z
1/2+x,-y,1/2+z
loop_
_atom_site_type_symbol
_atom_site_label
_atom_site_fract_x
_atom_site_fract_y
_atom_site_fract_z
Si Si1 0.992717 0.445451 0.292989
Si Si2 0.015652 0.270497 0.483978
Si Si3 0.818388 0.618397 0.475340
Si Si4 0.174386 0.944841 0.791370
Si Si5 0.758252 0.457919 0.855270
Si Si6 0.569870 0.440699 0.622571
O O1 0.998195 0.250000 0.250000
O O2 0.908769 0.518658 0.270468
O O3 0.999979 0.416379 0.404608
O O4 0.052496 0.555870 0.233142
O O5 0.099070 0.295939 0.526815
O O6 0.954648 0.229084 0.564503
O O7 0.019884 0.094401 0.422068
O O8 0.750000 0.750000 0.451478
O O9 0.816607 0.459212 0.402384
O O10 0.801528 0.549248 0.578319
O O11 0.172171 0.750000 0.750000
O O12 0.250000 0.030085 0.750000
O O13 0.750000 0.250000 0.855940
O O14 0.750000 0.521341 0.750000
O O15 0.843009 0.489994 0.891317
#
# Coordination Sequence:
#
# PCOD9390937 Si02
#       6
#     8   8   8   8   8   8
#     4   9  20  40  67  97 131 182 234 275 352 424
#     4  10  22  41  69 106 134 187 233 297 356 433
#     4  12  26  45  74 108 142 183 246 300 363 430
#     4  10  25  44  70 100 138 191 237 296 359 427
#     4  11  26  46  71 106 145 190 237 292 363 440
#     4  10  21  42  70  95 148 180 231 295 362 419
#
# _framework density 24.711929000000001
#
# number of rings (size 3 to 8) (size 9 to 14) (size 15 to 20)
#    0.000    1.667    1.667    1.000    7.000    2.667 
#    6.000    0.000    0.000    0.000    0.000    0.000 
#    0.000    0.000    0.000    0.000    0.000    0.000 
#
# Total GULP energy -268425.037800 kJ/mol
# GULP energy per Si atom -5592.188288 kJ/mol
# Density = 2.465568 g / cm^3
# Si number density = 24.711929 Si / 1000 Ang^3
#
#
#
# Elastic Constant Matrix: (Units=GPa)
#
#
# Indices 1 2 3 4 5 6 
#
# 1 80.0909 -9.8591 7.7901 0.0000 0.0000 0.0000
# 2 -9.8591 81.5844 26.9416 0.0000 0.0000 0.0000
# 3 7.7901 26.9416 149.2085 0.0000 0.0000 0.0000
# 4 0.0000 0.0000 0.0000 15.4875 0.0000 0.0000
# 5 0.0000 0.0000 0.0000 0.0000 36.0830 0.0000
# 6 0.0000 0.0000 0.0000 0.0000 0.0000 16.1894
#
#
#
# Elastic Compliance Matrix: (Units=1/GPa)
#
#
# Indices 1 2 3 4 5 6 
#
# 1 0.012816 0.001882 -0.001009 0.000000 0.000000 0.000000
# 2 0.001882 0.013311 -0.002502 0.000000 0.000000 0.000000
# 3 -0.001009 -0.002502 0.007206 0.000000 0.000000 0.000000
# 4 0.000000 0.000000 0.000000 0.064568 0.000000 0.000000
# 5 0.000000 0.000000 0.000000 0.000000 0.027714 0.000000
# 6 0.000000 0.000000 0.000000 0.000000 0.000000 0.061769
#
#
# Mechanical properties :
#
#
# Convention : Reuss Voigt Hill
#
# Bulk Modulus (GPa) = 33.24977 40.06987 36.65982
# Shear Modulus (GPa) = 24.91698 32.61940 28.76819
#
# Velocity S-wave (km/s) = 3.17882 3.63710 3.41565
# Velocity P-wave (km/s) = 5.19204 5.82134 5.51567
#
# Compressibility (1/GPa) = 0.03007540
#
# Stress axis : x y z
#
# Youngs Moduli (GPa) = 78.02994 75.12697 138.76518
#
# Poissons Ratio (x) = -0.14138 0.14000
# Poissons Ratio (y) = -0.14684 0.34715
# Poissons Ratio (z) = 0.07872 0.18794
#
# Static dielectric constant tensor:
#      x y z
#    x 1.920470 0.000000 0.000000 
#    y 0.000000 1.979690 0.000000 
#    z 0.000000 0.000000 1.983520 
# 
# From -- ./inp_files/27886.got.cif
#   From: 2010.05.17/outbox.cif.g08.bks.cpg/sg48_14_cif.got.tgz:27886.got - 2010.06.03 20:39:00.
