data_PCOD9390740
_publ_section_title
;
Structure prediction by ZEFSAII (Michael W. Deem and Ramdas Pophale) SiO2 
 PCOD9390740
Probable space group: P N N N
;
_chemical_formula_sum "Si O2"
_cell_formula_units_Z 44
_cell_length_a 26.731574
_cell_length_b 14.956493
_cell_length_c 5.158575
_cell_angle_alpha 90.000000
_cell_angle_beta 90.000000
_cell_angle_gamma 90.000000
_cell_volume 2062.452963
_symmetry_space_group_name_H-M "P N N N"
_symmetry_group_IT_number 48
_space_group.IT_coordinate_system_code '2'
_symmetry_cell_setting 'orthorhombic'
loop_
_space_group_symop_operation_xyz
x,y,z
1/2-x,1/2-y,z
x,1/2-y,1/2-z
1/2-x,y,1/2-z
-x,-y,-z
1/2+x,1/2+y,-z
-x,1/2+y,1/2+z
1/2+x,-y,1/2+z
loop_
_atom_site_type_symbol
_atom_site_label
_atom_site_fract_x
_atom_site_fract_y
_atom_site_fract_z
Si Si1 0.334721 0.990800 0.333324
Si Si2 0.099147 0.144791 0.222472
Si Si3 0.197160 0.896664 0.656350
Si Si4 0.562531 0.100083 0.548398
Si Si5 0.543100 0.928635 0.224183
Si Si6 0.385935 0.750000 0.750000
O O1 0.316702 0.968448 0.621326
O O2 0.388768 0.941742 0.317541
O O3 0.348015 0.092999 0.277725
O O4 0.300734 0.946074 0.116579
O O5 0.103547 0.250000 0.250000
O O6 0.065102 0.102363 0.451217
O O7 0.073377 0.122663 0.948992
O O8 0.250000 0.857201 0.750000
O O9 0.152726 0.824307 0.642879
O O10 0.514642 0.096116 0.732078
O O11 0.578759 0.197126 0.448691
O O12 0.550385 0.032919 0.305967
#
# Coordination Sequence:
#
# PCOD9390740 Si02
#       6
#     8   8   8   8   8   4
#     4  10  22  41  63  84 118 162 197 247 313 370
#     4  11  22  39  60  90 119 159 210 252 303 357
#     4  11  23  41  63  90 119 155 200 252 317 379
#     4   9  21  38  60  87 126 166 212 245 302 358
#     4  10  22  38  59  86 125 169 206 253 291 355
#     4  10  21  38  62  92 122 162 200 258 297 366
#
# _framework density 21.333821
#
# number of rings (size 3 to 8) (size 9 to 14) (size 15 to 20)
#    0.000    1.818    0.000    4.636    1.273   12.364 
#    3.273    3.636    0.000    3.273    0.000    0.000 
#    0.000    0.000    0.000    0.000    0.000    0.000 
#
# Total GULP energy -246010.431881 kJ/mol
# GULP energy per Si atom -5591.146179 kJ/mol
# Density = 2.128526 g / cm^3
# Si number density = 21.333821 Si / 1000 Ang^3
#
#
#
# Elastic Constant Matrix: (Units=GPa)
#
#
# Indices 1 2 3 4 5 6 
#
# 1 91.3396 28.7300 26.4305 0.0000 0.0000 0.0000
# 2 28.7300 107.2111 43.8019 0.0000 0.0000 0.0000
# 3 26.4305 43.8019 87.2646 0.0000 0.0000 0.0000
# 4 0.0000 0.0000 0.0000 19.5911 0.0000 0.0000
# 5 0.0000 0.0000 0.0000 0.0000 29.4718 0.0000
# 6 0.0000 0.0000 0.0000 0.0000 0.0000 12.7360
#
#
#
# Elastic Compliance Matrix: (Units=1/GPa)
#
#
# Indices 1 2 3 4 5 6 
#
# 1 0.012418 -0.002253 -0.002630 0.000000 0.000000 0.000000
# 2 -0.002253 0.012142 -0.005412 0.000000 0.000000 0.000000
# 3 -0.002630 -0.005412 0.014973 0.000000 0.000000 0.000000
# 4 0.000000 0.000000 0.000000 0.051043 0.000000 0.000000
# 5 0.000000 0.000000 0.000000 0.000000 0.033931 0.000000
# 6 0.000000 0.000000 0.000000 0.000000 0.000000 0.078518
#
#
# Mechanical properties :
#
#
# Convention : Reuss Voigt Hill
#
# Bulk Modulus (GPa) = 52.79351 53.74889 53.27120
# Shear Modulus (GPa) = 21.74572 24.81666 23.28119
#
# Velocity S-wave (km/s) = 3.19612 3.41435 3.30704
# Velocity P-wave (km/s) = 6.19842 6.38691 6.29337
#
# Compressibility (1/GPa) = 0.01894172
#
# Stress axis : x y z
#
# Youngs Moduli (GPa) = 80.52875 82.35569 66.78808
#
# Poissons Ratio (x) = 0.18556 0.17566
# Poissons Ratio (y) = 0.18144 0.36148
# Poissons Ratio (z) = 0.21180 0.44574
#
# Static dielectric constant tensor:
#      x y z
#    x 1.793910 0.000000 0.000000 
#    y 0.000000 1.797600 0.000000 
#    z 0.000000 0.000000 1.779530 
# 
# From -- ./inp_files/6420.got.cif
#   From: 2010.05.17/outbox.cif.g08.bks.cpg/sg48_4_cif.got.tgz:6420.got - 2010.06.03 20:39:00.
