data_PCOD9390691
_publ_section_title
;
Structure prediction by ZEFSAII (Michael W. Deem and Ramdas Pophale) SiO2 
 PCOD9390691
Probable space group: P N N N
;
_chemical_formula_sum "Si O2"
_cell_formula_units_Z 48
_cell_length_a 13.401808
_cell_length_b 12.244760
_cell_length_c 14.775427
_cell_angle_alpha 90.000000
_cell_angle_beta 90.000000
_cell_angle_gamma 90.000000
_cell_volume 2424.675977
_symmetry_space_group_name_H-M "P N N N"
_symmetry_group_IT_number 48
_space_group.IT_coordinate_system_code '2'
_symmetry_cell_setting 'orthorhombic'
loop_
_space_group_symop_operation_xyz
x,y,z
1/2-x,1/2-y,z
x,1/2-y,1/2-z
1/2-x,y,1/2-z
-x,-y,-z
1/2+x,1/2+y,-z
-x,1/2+y,1/2+z
1/2+x,-y,1/2+z
loop_
_atom_site_type_symbol
_atom_site_label
_atom_site_fract_x
_atom_site_fract_y
_atom_site_fract_z
Si Si1 0.996806 0.117017 0.450350
Si Si2 0.356457 0.375209 0.781733
Si Si3 0.558140 0.475299 0.704215
Si Si4 0.626611 0.023141 0.597925
Si Si5 0.444171 0.160616 0.529430
Si Si6 0.684043 0.143333 0.943057
O O1 0.881049 0.150793 0.465384
O O2 0.055736 0.213332 0.500913
O O3 0.000000 0.000000 0.500000
O O4 0.040683 0.086405 0.352686
O O5 0.363115 0.250000 0.750000
O O6 0.250000 0.419701 0.750000
O O7 0.449225 0.437574 0.737658
O O8 0.369783 0.370406 0.889619
O O9 0.624478 0.483807 0.793986
O O10 0.607905 0.384709 0.638552
O O11 0.552417 0.121187 0.566483
O O12 0.735814 0.045773 0.558868
O O13 0.580638 0.913970 0.556183
O O14 0.750000 0.250000 0.926196
#
# Coordination Sequence:
#
# PCOD9390691 Si02
#       6
#     8   8   8   8   8   8
#     4  10  21  39  61  91 128 165 204 269 326 376
#     4  10  21  37  60  86 120 164 213 255 311 374
#     4  10  23  38  60  94 130 162 210 268 325 383
#     4  10  22  38  62  93 124 170 210 259 326 392
#     4  10  21  41  61  87 129 167 209 260 320 389
#     4  11  21  38  66  96 125 163 222 277 328 377
#
# _framework density 19.79646
#
# number of rings (size 3 to 8) (size 9 to 14) (size 15 to 20)
#    0.000    1.833    1.667    2.500    4.667    1.333 
#    3.000    0.000    0.000    4.000    0.000    0.000 
#    0.000    0.000    0.000    0.000    0.000    0.000 
#
# Total GULP energy -267743.000673 kJ/mol
# GULP energy per Si atom -5577.979181 kJ/mol
# Density = 1.975140 g / cm^3
# Si number density = 19.796460 Si / 1000 Ang^3
#
#
#
# Elastic Constant Matrix: (Units=GPa)
#
#
# Indices 1 2 3 4 5 6 
#
# 1 76.6859 13.4611 4.1581 0.0000 0.0000 0.0000
# 2 13.4611 90.4399 34.2443 0.0000 0.0000 0.0000
# 3 4.1581 34.2443 51.6147 0.0000 0.0000 0.0000
# 4 0.0000 0.0000 0.0000 23.3898 0.0000 0.0000
# 5 0.0000 0.0000 0.0000 0.0000 11.5127 0.0000
# 6 0.0000 0.0000 0.0000 0.0000 0.0000 23.2489
#
#
#
# Elastic Compliance Matrix: (Units=1/GPa)
#
#
# Indices 1 2 3 4 5 6 
#
# 1 0.013394 -0.002117 0.000325 0.000000 0.000000 0.000000
# 2 -0.002117 0.015101 -0.009848 0.000000 0.000000 0.000000
# 3 0.000325 -0.009848 0.025882 0.000000 0.000000 0.000000
# 4 0.000000 0.000000 0.000000 0.042754 0.000000 0.000000
# 5 0.000000 0.000000 0.000000 0.000000 0.086861 0.000000
# 6 0.000000 0.000000 0.000000 0.000000 0.000000 0.043013
#
#
# Mechanical properties :
#
#
# Convention : Reuss Voigt Hill
#
# Bulk Modulus (GPa) = 32.15673 35.82971 33.99322
# Shear Modulus (GPa) = 19.18278 22.75541 20.96910
#
# Velocity S-wave (km/s) = 3.11625 3.39406 3.25812
# Velocity P-wave (km/s) = 5.40620 5.78773 5.60022
#
# Compressibility (1/GPa) = 0.03109769
#
# Stress axis : x y z
#
# Youngs Moduli (GPa) = 74.65954 66.21998 38.63659
#
# Poissons Ratio (x) = 0.14017 -0.01257
# Poissons Ratio (y) = 0.15804 0.38051
# Poissons Ratio (z) = -0.02429 0.65217
#
# Static dielectric constant tensor:
#      x y z
#    x 1.739210 0.000000 0.000000 
#    y 0.000000 1.693420 0.000000 
#    z 0.000000 0.000000 1.726510 
# 
# From -- ./inp_files/27256.got.cif
#   From: 2010.05.17/outbox.cif.g08.bks.cpg/sg48_14_cif.got.tgz:27256.got - 2010.06.03 20:39:00.
