data_PCOD9390172
_publ_section_title
;
Structure prediction by ZEFSAII (Michael W. Deem and Ramdas Pophale) SiO2 
 PCOD9390172
Probable space group: P N N N
;
_chemical_formula_sum "Si O2"
_cell_formula_units_Z 60
_cell_length_a 11.978861
_cell_length_b 10.991383
_cell_length_c 22.613986
_cell_angle_alpha 90.000000
_cell_angle_beta 90.000000
_cell_angle_gamma 90.000000
_cell_volume 2977.453487
_symmetry_space_group_name_H-M "P N N N"
_symmetry_group_IT_number 48
_space_group.IT_coordinate_system_code '2'
_symmetry_cell_setting 'orthorhombic'
loop_
_space_group_symop_operation_xyz
x,y,z
1/2-x,1/2-y,z
x,1/2-y,1/2-z
1/2-x,y,1/2-z
-x,-y,-z
1/2+x,1/2+y,-z
-x,1/2+y,1/2+z
1/2+x,-y,1/2+z
loop_
_atom_site_type_symbol
_atom_site_label
_atom_site_fract_x
_atom_site_fract_y
_atom_site_fract_z
Si Si1 0.666458 0.991472 0.404680
Si Si2 0.556563 0.717386 0.149450
Si Si3 0.118235 0.422376 0.761431
Si Si4 0.495270 0.301352 0.094549
Si Si5 0.819213 0.967416 0.506178
Si Si6 0.750000 0.750000 0.908065
Si Si7 0.020840 0.684949 0.035267
Si Si8 0.337167 0.645919 0.672688
O O1 0.652645 0.852078 0.386903
O O2 0.708966 0.001104 0.470919
O O3 0.552914 0.067629 0.397582
O O4 0.760495 0.053285 0.364591
O O5 0.582686 0.843332 0.182065
O O6 0.547035 0.625078 0.205526
O O7 0.469612 0.742334 0.096674
O O8 0.250000 0.396292 0.750000
O O9 0.110693 0.565233 0.775152
O O10 0.369001 0.291312 0.118464
O O11 0.570828 0.205506 0.130603
O O12 0.505991 0.264379 0.024731
O O13 0.787417 0.867969 0.554470
O O14 0.908780 0.898914 0.463690
O O15 0.879137 0.089127 0.528182
O O16 0.250000 0.750000 0.689640
#
# Coordination Sequence:
#
# PCOD9390172 Si02
#       8
#     8   8   8   8   8   4   8   8
#     4  11  20  36  60  88 129 166 203 262 321 382
#     4  11  23  34  56  89 127 173 207 256 321 383
#     4  11  23  37  56  89 133 162 212 261 320 393
#     4  10  22  40  57  91 130 165 212 260 320 390
#     4  10  20  32  53  84 120 169 211 247 304 390
#     4  10  22  36  54  84 121 165 212 256 304 392
#     4  10  21  34  54  83 126 172 208 244 315 383
#     4  10  21  37  61  90 131 168 204 262 325 382
#
# _framework density 20.151447999999998
#
# number of rings (size 3 to 8) (size 9 to 14) (size 15 to 20)
#    0.000    1.600    2.667    3.200    5.600    2.400 
#    0.000    0.000    0.000    0.000    0.000    1.867 
#   12.000    0.000    0.000    0.000    0.000    0.000 
#
# Total GULP energy -334620.471611 kJ/mol
# GULP energy per Si atom -5577.007860 kJ/mol
# Density = 2.010558 g / cm^3
# Si number density = 20.151448 Si / 1000 Ang^3
#
#
#
# Elastic Constant Matrix: (Units=GPa)
#
#
# Indices 1 2 3 4 5 6 
#
# 1 84.4088 18.3216 19.7400 0.0000 0.0000 0.0000
# 2 18.3216 87.7097 33.6544 0.0000 0.0000 0.0000
# 3 19.7400 33.6544 90.0246 0.0000 0.0000 0.0000
# 4 0.0000 0.0000 0.0000 39.6973 0.0000 0.0000
# 5 0.0000 0.0000 0.0000 0.0000 14.8414 0.0000
# 6 0.0000 0.0000 0.0000 0.0000 0.0000 21.9983
#
#
#
# Elastic Compliance Matrix: (Units=1/GPa)
#
#
# Indices 1 2 3 4 5 6 
#
# 1 0.012741 -0.001856 -0.002100 0.000000 0.000000 0.000000
# 2 -0.001856 0.013581 -0.004670 0.000000 0.000000 0.000000
# 3 -0.002100 -0.004670 0.013314 0.000000 0.000000 0.000000
# 4 0.000000 0.000000 0.000000 0.025191 0.000000 0.000000
# 5 0.000000 0.000000 0.000000 0.000000 0.067379 0.000000
# 6 0.000000 0.000000 0.000000 0.000000 0.000000 0.045458
#
#
# Mechanical properties :
#
#
# Convention : Reuss Voigt Hill
#
# Bulk Modulus (GPa) = 44.67356 45.06391 44.86874
# Shear Modulus (GPa) = 24.70632 28.00252 26.35442
#
# Velocity S-wave (km/s) = 3.50527 3.73178 3.62030
# Velocity P-wave (km/s) = 6.21286 6.40152 6.30789
#
# Compressibility (1/GPa) = 0.02238460
#
# Stress axis : x y z
#
# Youngs Moduli (GPa) = 78.48669 73.63334 75.10663
#
# Poissons Ratio (x) = 0.13664 0.15773
# Poissons Ratio (y) = 0.14565 0.35075
# Poissons Ratio (z) = 0.16483 0.34387
#
# Static dielectric constant tensor:
#      x y z
#    x 1.729570 0.000000 0.000000 
#    y 0.000000 1.742980 0.000000 
#    z 0.000000 0.000000 1.771000 
# 
# From -- ./inp_files/34196.got.cif
#   From: 2010.05.17/outbox.cif.g08.bks.cpg/sg48_18_cif.got.tgz:34196.got - 2010.06.03 20:39:00.
