data_PCOD9390945
_publ_section_title
;
Structure prediction by ZEFSAII (Michael W. Deem and Ramdas Pophale) SiO2 
 PCOD9390945
Probable space group: P N N N
;
_chemical_formula_sum "Si O2"
_cell_formula_units_Z 56
_cell_length_a 7.798753
_cell_length_b 15.016263
_cell_length_c 21.209810
_cell_angle_alpha 90.000000
_cell_angle_beta 90.000000
_cell_angle_gamma 90.000000
_cell_volume 2483.841104
_symmetry_space_group_name_H-M "P N N N"
_symmetry_group_IT_number 48
_space_group.IT_coordinate_system_code '2'
_symmetry_cell_setting 'orthorhombic'
loop_
_space_group_symop_operation_xyz
x,y,z
1/2-x,1/2-y,z
x,1/2-y,1/2-z
1/2-x,y,1/2-z
-x,-y,-z
1/2+x,1/2+y,-z
-x,1/2+y,1/2+z
1/2+x,-y,1/2+z
loop_
_atom_site_type_symbol
_atom_site_label
_atom_site_fract_x
_atom_site_fract_y
_atom_site_fract_z
Si Si1 0.551601 0.841176 0.847674
Si Si2 0.440476 0.165835 0.781697
Si Si3 0.556672 0.261054 0.590343
Si Si4 0.539027 0.851376 0.634019
Si Si5 0.952721 0.475789 0.259252
Si Si6 0.557477 0.603853 0.003614
Si Si7 0.533681 0.602053 0.514945
O O1 0.479880 0.742179 0.836906
O O2 0.755502 0.843452 0.860133
O O3 0.522692 0.902373 0.788192
O O4 0.479422 0.878743 0.913288
O O5 0.529824 0.250000 0.750000
O O6 0.250000 0.161968 0.750000
O O7 0.442869 0.191349 0.855412
O O8 0.521102 0.071773 0.762489
O O9 0.750000 0.250000 0.614433
O O10 0.495233 0.165152 0.563123
O O11 0.557661 0.329590 0.531916
O O12 0.487969 0.940316 0.670819
O O13 0.486005 0.854265 0.561291
O O14 0.750000 0.477514 0.250000
O O15 0.500000 0.500000 0.000000
O O16 0.762483 0.613495 0.996403
O O17 0.500000 0.500000 0.500000
#
# Coordination Sequence:
#
# PCOD9390945 Si02
#       7
#     8   8   8   8   8   8   8
#     4  10  21  43  64  96 135 182 225 271 348 417
#     4  10  26  48  70  95 134 189 232 281 355 420
#     4  12  26  46  73 107 141 184 238 297 359 430
#     4  10  22  42  66  95 135 182 226 275 342 419
#     4  11  24  41  66  99 133 178 227 286 346 408
#     4  11  25  42  71 104 137 186 238 294 354 424
#     4  11  23  43  70 101 142 183 233 294 358 423
#
# _framework density 22.545725999999998
#
# number of rings (size 3 to 8) (size 9 to 14) (size 15 to 20)
#    0.000    1.286    1.429    3.000    6.000    7.143 
#    2.571    0.000    0.000    0.000    0.000    0.000 
#    0.000    0.000    0.000    0.000    0.000    0.000 
#
# Total GULP energy -312830.611320 kJ/mol
# GULP energy per Si atom -5586.260916 kJ/mol
# Density = 2.249441 g / cm^3
# Si number density = 22.545726 Si / 1000 Ang^3
#
#
#
# Elastic Constant Matrix: (Units=GPa)
#
#
# Indices 1 2 3 4 5 6 
#
# 1 54.3529 -1.7406 4.2445 0.0000 0.0000 0.0000
# 2 -1.7406 158.7865 31.4072 0.0000 0.0000 0.0000
# 3 4.2445 31.4072 103.3107 0.0000 0.0000 0.0000
# 4 0.0000 0.0000 0.0000 36.0460 0.0000 0.0000
# 5 0.0000 0.0000 0.0000 0.0000 23.4288 0.0000
# 6 0.0000 0.0000 0.0000 0.0000 0.0000 19.7445
#
#
#
# Elastic Compliance Matrix: (Units=1/GPa)
#
#
# Indices 1 2 3 4 5 6 
#
# 1 0.018479 0.000375 -0.000873 0.000000 0.000000 0.000000
# 2 0.000375 0.006708 -0.002055 0.000000 0.000000 0.000000
# 3 -0.000873 -0.002055 0.010340 0.000000 0.000000 0.000000
# 4 0.000000 0.000000 0.000000 0.027742 0.000000 0.000000
# 5 0.000000 0.000000 0.000000 0.000000 0.042682 0.000000
# 6 0.000000 0.000000 0.000000 0.000000 0.000000 0.050647
#
#
# Mechanical properties :
#
#
# Convention : Reuss Voigt Hill
#
# Bulk Modulus (GPa) = 32.87166 42.69690 37.78428
# Shear Modulus (GPa) = 29.09606 34.67981 31.88794
#
# Velocity S-wave (km/s) = 3.59630 3.92624 3.76489
# Velocity P-wave (km/s) = 5.64412 6.28752 5.97449
#
# Compressibility (1/GPa) = 0.03042135
#
# Stress axis : x y z
#
# Youngs Moduli (GPa) = 54.11694 149.06891 96.71097
#
# Poissons Ratio (x) = -0.05594 0.08446
# Poissons Ratio (y) = -0.02031 0.19872
# Poissons Ratio (z) = 0.04726 0.30631
#
# Static dielectric constant tensor:
#      x y z
#    x 1.883720 0.000000 0.000000 
#    y 0.000000 1.919500 0.000000 
#    z 0.000000 0.000000 1.831630 
# 
# From -- ./inp_files/33608.got.cif
#   From: 2010.05.17/outbox.cif.g08.bks.cpg/sg48_17_cif.got.tgz:33608.got - 2010.06.03 20:39:00.
