data_PCOD9390073
_publ_section_title
;
Structure prediction by ZEFSAII (Michael W. Deem and Ramdas Pophale) SiO2 
 PCOD9390073
Probable space group: P N N N
;
_chemical_formula_sum "Si O2"
_cell_formula_units_Z 58
_cell_length_a 10.542327
_cell_length_b 33.814422
_cell_length_c 7.511861
_cell_angle_alpha 90.000000
_cell_angle_beta 90.000000
_cell_angle_gamma 90.000000
_cell_volume 2677.848447
_symmetry_space_group_name_H-M "P N N N"
_symmetry_group_IT_number 48
_space_group.IT_coordinate_system_code '2'
_symmetry_cell_setting 'orthorhombic'
loop_
_space_group_symop_operation_xyz
x,y,z
1/2-x,1/2-y,z
x,1/2-y,1/2-z
1/2-x,y,1/2-z
-x,-y,-z
1/2+x,1/2+y,-z
-x,1/2+y,1/2+z
1/2+x,-y,1/2+z
loop_
_atom_site_type_symbol
_atom_site_label
_atom_site_fract_x
_atom_site_fract_y
_atom_site_fract_z
Si Si1 0.847290 0.964801 0.893006
Si Si2 0.744061 0.882934 0.034135
Si Si3 0.523956 0.668888 0.052779
Si Si4 0.221767 0.875643 0.042058
Si Si5 0.012544 0.658529 0.021341
Si Si6 0.750000 0.250000 0.250000
Si Si7 0.555605 0.250044 0.958513
Si Si8 0.365567 0.543756 0.886432
O O1 0.750000 0.981735 0.750000
O O2 0.987595 0.952226 0.825354
O O3 0.776865 0.926586 0.970059
O O4 0.862619 0.999812 0.033706
O O5 0.750000 0.883306 0.250000
O O6 0.858365 0.854622 0.977366
O O7 0.611861 0.865402 0.963998
O O8 0.392099 0.652196 0.976113
O O9 0.505056 0.659437 0.263096
O O10 0.548878 0.715673 0.039806
O O11 0.250000 0.868807 0.250000
O O12 0.358397 0.863554 0.961202
O O13 0.169217 0.920034 0.017784
O O14 0.022406 0.705584 0.981601
O O15 0.654775 0.232862 0.398280
O O16 0.600586 0.250000 0.750000
O O17 0.250000 0.546379 0.750000
#
# Coordination Sequence:
#
# PCOD9390073 Si02
#       8
#     8   8   8   8   8   2   8   8
#     4  11  25  45  64  93 127 162 203 259 318 372
#     4  10  20  40  65  94 124 171 211 254 316 388
#     4   9  18  37  63  86 126 168 213 260 315 373
#     4  10  19  37  61  92 122 162 206 261 312 373
#     4   9  20  35  63  92 124 166 215 255 317 377
#     4  12  22  36  60  92 120 168 222 266 344 382
#     4  10  21  40  59  90 129 172 220 277 324 389
#     4  11  25  44  65  92 123 163 206 255 313 383
#
# _framework density 21.659179999999999
#
# number of rings (size 3 to 8) (size 9 to 14) (size 15 to 20)
#    0.000    1.931    1.379    1.862    1.931    3.310 
#    7.448    2.759    0.000    0.828    0.000    0.000 
#    0.000    0.000    0.000    0.000    0.000    0.000 
#
# Total GULP energy -323103.516832 kJ/mol
# GULP energy per Si atom -5570.750290 kJ/mol
# Density = 2.160988 g / cm^3
# Si number density = 21.659180 Si / 1000 Ang^3
#
#
#
# Elastic Constant Matrix: (Units=GPa)
#
#
# Indices 1 2 3 4 5 6 
#
# 1 159.5809 49.6042 8.5662 0.0000 0.0000 0.0000
# 2 49.6042 123.6978 -10.5573 0.0000 0.0000 0.0000
# 3 8.5662 -10.5573 49.7178 0.0000 0.0000 0.0000
# 4 0.0000 0.0000 0.0000 12.9213 0.0000 0.0000
# 5 0.0000 0.0000 0.0000 0.0000 16.0810 0.0000
# 6 0.0000 0.0000 0.0000 0.0000 0.0000 57.9447
#
#
#
# Elastic Compliance Matrix: (Units=1/GPa)
#
#
# Indices 1 2 3 4 5 6 
#
# 1 0.007335 -0.003106 -0.001923 0.000000 0.000000 0.000000
# 2 -0.003106 0.009548 0.002563 0.000000 0.000000 0.000000
# 3 -0.001923 0.002563 0.020989 0.000000 0.000000 0.000000
# 4 0.000000 0.000000 0.000000 0.077392 0.000000 0.000000
# 5 0.000000 0.000000 0.000000 0.000000 0.062185 0.000000
# 6 0.000000 0.000000 0.000000 0.000000 0.000000 0.017258
#
#
# Mechanical properties :
#
#
# Convention : Reuss Voigt Hill
#
# Bulk Modulus (GPa) = 30.35828 47.58030 38.96929
# Shear Modulus (GPa) = 23.73951 36.41495 30.07723
#
# Velocity S-wave (km/s) = 3.31425 4.10478 3.73052
# Velocity P-wave (km/s) = 5.35654 6.66941 6.04870
#
# Compressibility (1/GPa) = 0.03293994
#
# Stress axis : x y z
#
# Youngs Moduli (GPa) = 136.33292 104.73080 47.64391
#
# Poissons Ratio (x) = 0.32525 0.09163
# Poissons Ratio (y) = 0.42339 -0.12209
# Poissons Ratio (z) = 0.26220 -0.26838
#
# Static dielectric constant tensor:
#      x y z
#    x 1.807250 0.000000 0.000000 
#    y 0.000000 1.190440 0.000000 
#    z 0.000000 0.000000 1.845290 
# 
# From -- ./inp_files/11540.got.cif
#   From: 2010.05.17/outbox.cif.g08.bks.cpg/sg48_6_cif.got.tgz:11540.got - 2010.06.03 20:39:00.
