data_PCOD9390273
_publ_section_title
;
Structure prediction by ZEFSAII (Michael W. Deem and Ramdas Pophale) SiO2 
 PCOD9390273
Probable space group: P N N N
;
_chemical_formula_sum "Si O2"
_cell_formula_units_Z 48
_cell_length_a 12.599585
_cell_length_b 18.854537
_cell_length_c 7.783440
_cell_angle_alpha 90.000000
_cell_angle_beta 90.000000
_cell_angle_gamma 90.000000
_cell_volume 1849.028882
_symmetry_space_group_name_H-M "P N N N"
_symmetry_group_IT_number 48
_space_group.IT_coordinate_system_code '2'
_symmetry_cell_setting 'orthorhombic'
loop_
_space_group_symop_operation_xyz
x,y,z
1/2-x,1/2-y,z
x,1/2-y,1/2-z
1/2-x,y,1/2-z
-x,-y,-z
1/2+x,1/2+y,-z
-x,1/2+y,1/2+z
1/2+x,-y,1/2+z
loop_
_atom_site_type_symbol
_atom_site_label
_atom_site_fract_x
_atom_site_fract_y
_atom_site_fract_z
Si Si1 0.450915 0.620234 0.946585
Si Si2 0.473911 0.727866 0.447853
Si Si3 0.783810 0.526204 0.992575
Si Si4 0.281761 0.867925 0.063971
Si Si5 0.563704 0.980914 0.296008
Si Si6 0.705832 0.825775 0.052341
O O1 0.494787 0.699419 0.947869
O O2 0.324386 0.633187 0.950596
O O3 0.489559 0.578924 0.120711
O O4 0.483269 0.560572 0.807783
O O5 0.452336 0.750000 0.250000
O O6 0.376451 0.679349 0.509094
O O7 0.580852 0.684181 0.442164
O O8 0.885960 0.534398 0.114798
O O9 0.670744 0.513617 0.087145
O O10 0.766563 0.606922 0.935884
O O11 0.809106 0.451149 0.905813
O O12 0.250000 0.838897 0.250000
O O13 0.750000 0.750000 0.996371
O O14 0.750000 0.837914 0.250000
#
# Coordination Sequence:
#
# PCOD9390273 Si02
#       6
#     8   8   8   8   8   8
#     4  10  20  35  57  85 115 157 191 238 302 363
#     4  12  21  34  55  84 120 146 193 248 298 356
#     4  10  20  37  57  86 117 148 203 250 295 357
#     4  11  24  36  53  83 120 162 195 238 298 362
#     4   9  18  36  60  83 115 151 196 249 297 352
#     4  11  20  34  61  91 109 138 191 255 308 343
#
# _framework density 25.959572999999999
#
# number of rings (size 3 to 8) (size 9 to 14) (size 15 to 20)
#    0.000    1.500    5.000    2.500    0.000    0.667 
#    0.000    0.833    0.000    4.500    4.333    0.000 
#    0.000    0.000    0.000    0.000    0.000    0.000 
#
# Total GULP energy -268220.458288 kJ/mol
# GULP energy per Si atom -5587.926214 kJ/mol
# Density = 2.590049 g / cm^3
# Si number density = 25.959573 Si / 1000 Ang^3
#
#
#
# Elastic Constant Matrix: (Units=GPa)
#
#
# Indices 1 2 3 4 5 6 
#
# 1 103.6696 28.9860 4.2852 0.0000 0.0000 0.0000
# 2 28.9860 205.4748 20.7488 0.0000 0.0000 0.0000
# 3 4.2852 20.7488 37.7104 0.0000 0.0000 0.0000
# 4 0.0000 0.0000 0.0000 -9.2949 0.0000 0.0000
# 5 0.0000 0.0000 0.0000 0.0000 11.3769 0.0000
# 6 0.0000 0.0000 0.0000 0.0000 0.0000 35.0617
#
#
#
# Elastic Compliance Matrix: (Units=1/GPa)
#
#
# Indices 1 2 3 4 5 6 
#
# 1 0.010047 -0.001379 -0.000383 0.000000 0.000000 0.000000
# 2 -0.001379 0.005342 -0.002783 0.000000 0.000000 0.000000
# 3 -0.000383 -0.002783 0.028093 0.000000 0.000000 0.000000
# 4 0.000000 0.000000 0.000000 -0.107586 0.000000 0.000000
# 5 0.000000 0.000000 0.000000 0.000000 0.087897 0.000000
# 6 0.000000 0.000000 0.000000 0.000000 0.000000 0.028521
#
#
# Mechanical properties :
#
#
# Convention : Reuss Voigt Hill
#
# Bulk Modulus (GPa) = 29.07567 50.54387 39.80977
# Shear Modulus (GPa) = 68.61723 26.95106 47.78414
#
# Velocity S-wave (km/s) = 5.14682 3.22560 4.29501
# Velocity P-wave (km/s) = 6.82234 5.77799 6.32177
#
# Compressibility (1/GPa) = 0.03439302
#
# Stress axis : x y z
#
# Youngs Moduli (GPa) = 99.52879 187.18655 35.59663
#
# Poissons Ratio (x) = 0.25807 0.01364
# Poissons Ratio (y) = 0.13722 0.09906
# Poissons Ratio (z) = 0.03814 0.52089
#
# Static dielectric constant tensor:
#      x y z
#    x 2.023080 0.000000 0.000000 
#    y 0.000000 2.077410 0.000000 
#    z 0.000000 0.000000 2.115310 
# 
# From -- ./inp_files/20091.got.cif
#   From: 2010.05.17/outbox.cif.g08.bks.cpg/sg48_11_cif.got.tgz:20091.got - 2010.06.03 20:39:00.
