data_PCOD9390469
_publ_section_title
;
Structure prediction by ZEFSAII (Michael W. Deem and Ramdas Pophale) SiO2 
 PCOD9390469
Probable space group: P N N N
;
_chemical_formula_sum "Si O2"
_cell_formula_units_Z 56
_cell_length_a 8.354404
_cell_length_b 16.751232
_cell_length_c 20.269928
_cell_angle_alpha 90.000000
_cell_angle_beta 90.000000
_cell_angle_gamma 90.000000
_cell_volume 2836.706687
_symmetry_space_group_name_H-M "P N N N"
_symmetry_group_IT_number 48
_space_group.IT_coordinate_system_code '2'
_symmetry_cell_setting 'orthorhombic'
loop_
_space_group_symop_operation_xyz
x,y,z
1/2-x,1/2-y,z
x,1/2-y,1/2-z
1/2-x,y,1/2-z
-x,-y,-z
1/2+x,1/2+y,-z
-x,1/2+y,1/2+z
1/2+x,-y,1/2+z
loop_
_atom_site_type_symbol
_atom_site_label
_atom_site_fract_x
_atom_site_fract_y
_atom_site_fract_z
Si Si1 0.375790 0.980343 0.195075
Si Si2 0.190907 0.919438 0.680560
Si Si3 0.809609 0.160638 0.461435
Si Si4 0.061232 0.162446 0.766299
Si Si5 0.323433 0.970472 0.437314
Si Si6 0.849495 0.932599 0.118912
Si Si7 0.889416 0.919693 0.494017
O O1 0.250000 0.008597 0.250000
O O2 0.465572 0.903695 0.225707
O O3 0.277980 0.956152 0.129720
O O4 0.509290 0.047654 0.182123
O O5 0.250000 0.883270 0.750000
O O6 0.210027 0.867294 0.614518
O O7 0.298151 0.999137 0.670243
O O8 0.750000 0.250000 0.470657
O O9 0.719304 0.097651 0.509236
O O10 0.996002 0.150101 0.482273
O O11 0.999070 0.250000 0.750000
O O12 0.250000 0.160105 0.750000
O O13 0.065526 0.139673 0.843212
O O14 0.511048 0.970041 0.424831
O O15 0.259164 0.056738 0.460365
O O16 0.690811 0.910998 0.077652
O O17 0.000000 0.000000 0.500000
#
# Coordination Sequence:
#
# PCOD9390469 Si02
#       7
#     8   8   8   8   8   8   8
#     4  12  21  39  64  98 128 168 219 266 318 383
#     4  12  21  40  69  91 122 162 215 274 324 384
#     4  11  25  43  61  94 129 166 217 269 333 390
#     4  11  24  38  55  89 134 171 210 259 320 393
#     4  11  22  37  66  96 126 170 218 266 319 389
#     4  12  20  40  66  94 127 169 221 262 319 391
#     4  10  20  38  65  90 121 163 214 271 311 382
#
# _framework density 19.741202999999999
#
# number of rings (size 3 to 8) (size 9 to 14) (size 15 to 20)
#    0.000    0.714    8.571    1.286    0.000    1.714 
#    2.571    0.000    0.000    0.000    0.000    1.000 
#    0.000    0.000    0.000    0.000    0.000    0.000 
#
# Total GULP energy -312650.479387 kJ/mol
# GULP energy per Si atom -5583.044275 kJ/mol
# Density = 1.969627 g / cm^3
# Si number density = 19.741203 Si / 1000 Ang^3
#
#
#
# Elastic Constant Matrix: (Units=GPa)
#
#
# Indices 1 2 3 4 5 6 
#
# 1 95.0518 26.3669 32.7464 0.0000 0.0000 0.0000
# 2 26.3669 77.3184 25.6337 0.0000 0.0000 0.0000
# 3 32.7464 25.6337 127.8642 0.0000 0.0000 0.0000
# 4 0.0000 0.0000 0.0000 20.9789 0.0000 0.0000
# 5 0.0000 0.0000 0.0000 0.0000 52.0027 0.0000
# 6 0.0000 0.0000 0.0000 0.0000 0.0000 24.0163
#
#
#
# Elastic Compliance Matrix: (Units=1/GPa)
#
#
# Indices 1 2 3 4 5 6 
#
# 1 0.012310 -0.003377 -0.002476 0.000000 0.000000 0.000000
# 2 -0.003377 0.014781 -0.002098 0.000000 0.000000 0.000000
# 3 -0.002476 -0.002098 0.008875 0.000000 0.000000 0.000000
# 4 0.000000 0.000000 0.000000 0.047667 0.000000 0.000000
# 5 0.000000 0.000000 0.000000 0.000000 0.019230 0.000000
# 6 0.000000 0.000000 0.000000 0.000000 0.000000 0.041638
#
#
# Mechanical properties :
#
#
# Convention : Reuss Voigt Hill
#
# Bulk Modulus (GPa) = 49.83981 52.19204 51.01592
# Shear Modulus (GPa) = 29.92357 33.76540 31.84448
#
# Velocity S-wave (km/s) = 3.89754 4.14019 4.02070
# Velocity P-wave (km/s) = 6.74951 7.02498 6.88862
#
# Compressibility (1/GPa) = 0.02006428
#
# Stress axis : x y z
#
# Youngs Moduli (GPa) = 81.23280 67.65488 112.67008
#
# Poissons Ratio (x) = 0.22849 0.27893
# Poissons Ratio (y) = 0.27434 0.23641
# Poissons Ratio (z) = 0.20110 0.14196
#
# Static dielectric constant tensor:
#      x y z
#    x 1.726540 0.000000 0.000000 
#    y 0.000000 1.678760 0.000000 
#    z 0.000000 0.000000 1.813820 
# 
# From -- ./inp_files/33655.got.cif
#   From: 2010.05.17/outbox.cif.g08.bks.cpg/sg48_17_cif.got.tgz:33655.got - 2010.06.03 20:39:00.
