data_PCOD9390262
_publ_section_title
;
Structure prediction by ZEFSAII (Michael W. Deem and Ramdas Pophale) SiO2 
 PCOD9390262
Probable space group: P N N N
;
_chemical_formula_sum "Si O2"
_cell_formula_units_Z 56
_cell_length_a 19.286875
_cell_length_b 9.348547
_cell_length_c 17.960663
_cell_angle_alpha 90.000000
_cell_angle_beta 90.000000
_cell_angle_gamma 90.000000
_cell_volume 3238.384005
_symmetry_space_group_name_H-M "P N N N"
_symmetry_group_IT_number 48
_space_group.IT_coordinate_system_code '2'
_symmetry_cell_setting 'orthorhombic'
loop_
_space_group_symop_operation_xyz
x,y,z
1/2-x,1/2-y,z
x,1/2-y,1/2-z
1/2-x,y,1/2-z
-x,-y,-z
1/2+x,1/2+y,-z
-x,1/2+y,1/2+z
1/2+x,-y,1/2+z
loop_
_atom_site_type_symbol
_atom_site_label
_atom_site_fract_x
_atom_site_fract_y
_atom_site_fract_z
Si Si1 0.779755 0.911581 0.174345
Si Si2 0.902495 0.097355 0.539119
Si Si3 0.505185 0.398048 0.115055
Si Si4 0.434614 0.412413 0.762369
Si Si5 0.480654 0.567365 0.618450
Si Si6 0.102972 0.570980 0.475270
Si Si7 0.246729 0.579375 0.975910
O O1 0.750000 0.750000 0.168523
O O2 0.750000 0.979229 0.250000
O O3 0.861550 0.906554 0.193036
O O4 0.754494 0.995939 0.101917
O O5 0.938772 0.069454 0.459178
O O6 0.906960 0.267435 0.554898
O O7 0.822944 0.054061 0.523298
O O8 0.947351 0.013767 0.600326
O O9 0.514700 0.497497 0.185872
O O10 0.504660 0.232523 0.136784
O O11 0.438673 0.452038 0.069731
O O12 0.569475 0.422497 0.057962
O O13 0.456924 0.250000 0.750000
O O14 0.435830 0.490491 0.682358
O O15 0.183985 0.540531 0.479394
O O16 0.250000 0.750000 0.960455
#
# Coordination Sequence:
#
# PCOD9390262 Si02
#       7
#     8   8   8   8   8   8   8
#     4  11  22  36  47  78 115 151 183 218 273 333
#     4   9  19  35  56  79 109 146 185 234 272 330
#     4  10  20  35  56  79 109 146 188 236 273 329
#     4  12  22  36  55  76 114 151 184 227 276 332
#     4  10  21  36  55  80 108 146 194 230 275 324
#     4   9  18  35  55  80 110 142 188 228 282 328
#     4  10  20  36  57  82 111 148 185 227 278 334
#
# _framework density 17.292576
#
# number of rings (size 3 to 8) (size 9 to 14) (size 15 to 20)
#    0.000    1.857    2.857    2.143    0.000    2.571 
#    2.571    0.000    0.000    0.857    0.000    6.000 
#    0.000    0.000    0.000    0.000    0.000    0.000 
#
# Total GULP energy -312206.312342 kJ/mol
# GULP energy per Si atom -5575.112720 kJ/mol
# Density = 1.725322 g / cm^3
# Si number density = 17.292576 Si / 1000 Ang^3
#
#
#
# Elastic Constant Matrix: (Units=GPa)
#
#
# Indices 1 2 3 4 5 6 
#
# 1 99.4767 32.7706 6.9619 0.0000 0.0000 0.0000
# 2 32.7706 83.7631 25.7147 0.0000 0.0000 0.0000
# 3 6.9619 25.7147 27.8956 0.0000 0.0000 0.0000
# 4 0.0000 0.0000 0.0000 -16.7722 0.0000 0.0000
# 5 0.0000 0.0000 0.0000 0.0000 11.8118 0.0000
# 6 0.0000 0.0000 0.0000 0.0000 0.0000 17.0701
#
#
#
# Elastic Compliance Matrix: (Units=1/GPa)
#
#
# Indices 1 2 3 4 5 6 
#
# 1 0.011604 -0.005092 0.001798 0.000000 0.000000 0.000000
# 2 -0.005092 0.018885 -0.016137 0.000000 0.000000 0.000000
# 3 0.001798 -0.016137 0.050275 0.000000 0.000000 0.000000
# 4 0.000000 0.000000 0.000000 -0.059622 0.000000 0.000000
# 5 0.000000 0.000000 0.000000 0.000000 0.084661 0.000000
# 6 0.000000 0.000000 0.000000 0.000000 0.000000 0.058582
#
#
# Mechanical properties :
#
#
# Convention : Reuss Voigt Hill
#
# Bulk Modulus (GPa) = 23.86591 38.00333 30.93462
# Shear Modulus (GPa) = 23.01876 12.13449 17.57663
#
# Velocity S-wave (km/s) = 3.65243 2.65187 3.19160
# Velocity P-wave (km/s) = 5.62301 5.60365 5.61334
#
# Compressibility (1/GPa) = 0.04190077
#
# Stress axis : x y z
#
# Youngs Moduli (GPa) = 86.17582 52.95329 19.89055
#
# Poissons Ratio (x) = 0.26963 -0.03576
# Poissons Ratio (y) = 0.43879 0.32098
# Poissons Ratio (z) = -0.15491 0.85453
#
# Static dielectric constant tensor:
#      x y z
#    x 1.610220 0.000000 0.000000 
#    y 0.000000 1.586020 0.000000 
#    z 0.000000 0.000000 1.582070 
# 
# From -- ./inp_files/32187.got.cif
#   From: 2010.05.17/outbox.cif.g08.bks.cpg/sg48_17_cif.got.tgz:32187.got - 2010.06.03 20:39:00.
