data_PCOD9390688
_publ_section_title
;
Structure prediction by ZEFSAII (Michael W. Deem and Ramdas Pophale) SiO2 
 PCOD9390688
Probable space group: P N N N
;
_chemical_formula_sum "Si O2"
_cell_formula_units_Z 60
_cell_length_a 22.080398
_cell_length_b 5.155425
_cell_length_c 23.658822
_cell_angle_alpha 90.000000
_cell_angle_beta 90.000000
_cell_angle_gamma 90.000000
_cell_volume 2693.174460
_symmetry_space_group_name_H-M "P N N N"
_symmetry_group_IT_number 48
_space_group.IT_coordinate_system_code '2'
_symmetry_cell_setting 'orthorhombic'
loop_
_space_group_symop_operation_xyz
x,y,z
1/2-x,1/2-y,z
x,1/2-y,1/2-z
1/2-x,y,1/2-z
-x,-y,-z
1/2+x,1/2+y,-z
-x,1/2+y,1/2+z
1/2+x,-y,1/2+z
loop_
_atom_site_type_symbol
_atom_site_label
_atom_site_fract_x
_atom_site_fract_y
_atom_site_fract_z
Si Si1 0.971958 0.204981 0.612355
Si Si2 0.948396 0.794074 0.813715
Si Si3 0.836864 0.315585 0.923096
Si Si4 0.166436 0.895924 0.957170
Si Si5 0.250000 0.750000 0.636813
Si Si6 0.603679 0.872572 0.078392
Si Si7 0.320056 0.351194 0.689173
Si Si8 0.313783 0.182672 0.351879
O O1 0.970546 0.446394 0.655425
O O2 0.910093 0.211679 0.576642
O O3 0.033061 0.187746 0.577079
O O4 0.969663 0.945730 0.649129
O O5 0.969142 0.750000 0.750000
O O6 0.874957 0.794562 0.815924
O O7 0.820431 0.602268 0.901903
O O8 0.814077 0.104901 0.877648
O O9 0.814168 0.224110 0.983611
O O10 0.218835 0.934466 0.910300
O O11 0.121874 0.670328 0.932820
O O12 0.135739 0.174514 0.964578
O O13 0.303475 0.652308 0.677490
O O14 0.631737 0.795479 0.139965
O O15 0.250000 0.250000 0.683018
O O16 0.340432 0.250000 0.750000
O O17 0.250000 0.250000 0.323319
#
# Coordination Sequence:
#
# PCOD9390688 Si02
#       8
#     8   8   8   8   4   8   8   8
#     4  10  22  40  62  85 125 151 203 248 291 363
#     4  10  21  39  62  88 119 161 195 247 302 344
#     4  10  22  39  58  91 118 164 194 243 304 344
#     4  11  23  38  60  85 120 151 198 241 297 358
#     4  10  22  39  56  84 116 150 191 246 294 356
#     4  11  23  41  59  89 114 155 197 248 293 354
#     4  10  21  39  57  78 112 149 189 241 301 354
#     4  10  21  37  59  89 125 155 202 243 289 360
#
# _framework density 22.278542000000002
#
# number of rings (size 3 to 8) (size 9 to 14) (size 15 to 20)
#    0.000    1.733    1.333    2.400    1.867    3.467 
#    0.000    0.000    0.000    4.800    0.000    0.000 
#    0.000    0.000    0.000    0.000    0.000    0.000 
#
# Total GULP energy -334855.562613 kJ/mol
# GULP energy per Si atom -5580.926044 kJ/mol
# Density = 2.222783 g / cm^3
# Si number density = 22.278542 Si / 1000 Ang^3
#
#
#
# Elastic Constant Matrix: (Units=GPa)
#
#
# Indices 1 2 3 4 5 6 
#
# 1 72.9576 -5.0930 -21.6211 0.0000 0.0000 0.0000
# 2 -5.0930 103.3421 9.2936 0.0000 0.0000 0.0000
# 3 -21.6211 9.2936 73.2627 0.0000 0.0000 0.0000
# 4 0.0000 0.0000 0.0000 13.0531 0.0000 0.0000
# 5 0.0000 0.0000 0.0000 0.0000 -1.0114 0.0000
# 6 0.0000 0.0000 0.0000 0.0000 0.0000 29.2679
#
#
#
# Elastic Compliance Matrix: (Units=1/GPa)
#
#
# Indices 1 2 3 4 5 6 
#
# 1 0.015032 0.000346 0.004392 0.000000 0.000000 0.000000
# 2 0.000346 0.009796 -0.001141 0.000000 0.000000 0.000000
# 3 0.004392 -0.001141 0.015091 0.000000 0.000000 0.000000
# 4 0.000000 0.000000 0.000000 0.076610 0.000000 0.000000
# 5 0.000000 0.000000 0.000000 0.000000 -0.988751 0.000000
# 6 0.000000 0.000000 0.000000 0.000000 0.000000 0.034167
#
#
# Mechanical properties :
#
#
# Convention : Reuss Voigt Hill
#
# Bulk Modulus (GPa) = 21.22487 23.85792 22.54139
# Shear Modulus (GPa) = -6.02740 26.06079 10.01670
#
# Velocity S-wave (km/s) = -1.64662 3.42390 2.12271
# Velocity P-wave (km/s) = 2.43569 5.13449 4.01843
#
# Compressibility (1/GPa) = 0.04711455
#
# Stress axis : x y z
#
# Youngs Moduli (GPa) = 66.52273 102.08020 66.26682
#
# Poissons Ratio (x) = -0.03530 -0.29108
# Poissons Ratio (y) = -0.02301 0.07559
# Poissons Ratio (z) = -0.29220 0.11644
#
# Static dielectric constant tensor:
#      x y z
#    x 1.854460 0.000000 0.000000 
#    y 0.000000 1.963720 0.000000 
#    z 0.000000 0.000000 1.772040 
# 
# From -- ./inp_files/36780.got.cif
#   From: 2010.05.17/outbox.cif.g08.bks.cpg/sg48_19_cif.got.tgz:36780.got - 2010.06.03 20:39:00.
