data_PCOD9390860
_publ_section_title
;
Structure prediction by ZEFSAII (Michael W. Deem and Ramdas Pophale) SiO2 
 PCOD9390860
Probable space group: P N N N
;
_chemical_formula_sum "Si O2"
_cell_formula_units_Z 58
_cell_length_a 10.174922
_cell_length_b 10.898592
_cell_length_c 24.836057
_cell_angle_alpha 90.000000
_cell_angle_beta 90.000000
_cell_angle_gamma 90.000000
_cell_volume 2754.128068
_symmetry_space_group_name_H-M "P N N N"
_symmetry_group_IT_number 48
_space_group.IT_coordinate_system_code '2'
_symmetry_cell_setting 'orthorhombic'
loop_
_space_group_symop_operation_xyz
x,y,z
1/2-x,1/2-y,z
x,1/2-y,1/2-z
1/2-x,y,1/2-z
-x,-y,-z
1/2+x,1/2+y,-z
-x,1/2+y,1/2+z
1/2+x,-y,1/2+z
loop_
_atom_site_type_symbol
_atom_site_label
_atom_site_fract_x
_atom_site_fract_y
_atom_site_fract_z
Si Si1 0.403114 0.481872 0.951508
Si Si2 0.278362 0.608627 0.185913
Si Si3 0.865064 0.581439 0.163467
Si Si4 0.250000 0.250000 0.250000
Si Si5 0.075364 0.089916 0.326328
Si Si6 0.107150 0.757727 0.896312
Si Si7 0.114993 0.978559 0.541936
Si Si8 0.569779 0.860912 0.345117
O O1 0.413391 0.603495 0.914078
O O2 0.257016 0.473622 0.975573
O O3 0.429993 0.371316 0.910310
O O4 0.500000 0.500000 0.000000
O O5 0.250000 0.750000 0.169929
O O6 0.250000 0.599307 0.250000
O O7 0.180369 0.514929 0.155175
O O8 0.432614 0.585657 0.175523
O O9 0.898164 0.540325 0.101550
O O10 0.708609 0.577269 0.171557
O O11 0.914480 0.719373 0.172151
O O12 0.951979 0.486630 0.196723
O O13 0.157118 0.164802 0.284237
O O14 0.012027 0.192477 0.365362
O O15 0.250000 0.750000 0.867149
O O16 0.124816 0.666988 0.947213
O O17 0.000000 0.000000 0.500000
#
# Coordination Sequence:
#
# PCOD9390860 Si02
#       8
#     8   8   8   2   8   8   8   8
#     4  10  22  37  57  94 129 168 216 271 326 391
#     4  11  23  42  68  97 137 169 218 292 351 405
#     4   9  20  41  67  92 124 177 221 268 338 398
#     4  12  28  44  68  96 140 164 230 294 328 416
#     4  11  23  45  66  95 127 173 219 270 347 395
#     4   9  21  42  63  84 127 177 217 267 324 394
#     4   9  19  37  59  85 124 165 219 271 318 390
#     4  10  21  40  67  93 133 173 218 278 334 405
#
# _framework density 21.059297000000001
#
# number of rings (size 3 to 8) (size 9 to 14) (size 15 to 20)
#    0.000    2.069    2.069    0.828    3.862    2.207 
#    0.000    2.414    0.000    0.000    0.000    0.000 
#    0.000    0.000    0.000    0.000    0.000    0.000 
#
# Total GULP energy -323481.995027 kJ/mol
# GULP energy per Si atom -5577.275776 kJ/mol
# Density = 2.101137 g / cm^3
# Si number density = 21.059297 Si / 1000 Ang^3
#
#
#
# Elastic Constant Matrix: (Units=GPa)
#
#
# Indices 1 2 3 4 5 6 
#
# 1 195.9333 35.1087 57.7051 0.0000 0.0000 0.0000
# 2 35.1087 91.4195 7.8755 0.0000 0.0000 0.0000
# 3 57.7051 7.8755 33.7546 0.0000 0.0000 0.0000
# 4 0.0000 0.0000 0.0000 38.8392 0.0000 0.0000
# 5 0.0000 0.0000 0.0000 0.0000 41.5630 0.0000
# 6 0.0000 0.0000 0.0000 0.0000 0.0000 42.7242
#
#
#
# Elastic Compliance Matrix: (Units=1/GPa)
#
#
# Indices 1 2 3 4 5 6 
#
# 1 0.010863 -0.002625 -0.017959 0.000000 0.000000 0.000000
# 2 -0.002625 0.011797 0.001735 0.000000 0.000000 0.000000
# 3 -0.017959 0.001735 0.059922 0.000000 0.000000 0.000000
# 4 0.000000 0.000000 0.000000 0.025747 0.000000 0.000000
# 5 0.000000 0.000000 0.000000 0.000000 0.024060 0.000000
# 6 0.000000 0.000000 0.000000 0.000000 0.000000 0.023406
#
#
# Mechanical properties :
#
#
# Convention : Reuss Voigt Hill
#
# Bulk Modulus (GPa) = 22.27922 58.05399 40.16660
# Shear Modulus (GPa) = 23.98605 39.31982 31.65293
#
# Velocity S-wave (km/s) = 3.37853 4.32568 3.88111
# Velocity P-wave (km/s) = 5.08149 7.25089 6.26087
#
# Compressibility (1/GPa) = 0.04488488
#
# Stress axis : x y z
#
# Youngs Moduli (GPa) = 92.05394 84.76605 16.68836
#
# Poissons Ratio (x) = 0.22250 0.29970
# Poissons Ratio (y) = 0.24162 -0.02895
# Poissons Ratio (z) = 1.65317 -0.14705
#
# Static dielectric constant tensor:
#      x y z
#    x 1.793320 0.000000 0.000000 
#    y 0.000000 1.775600 0.000000 
#    z 0.000000 0.000000 1.777400 
# 
# From -- ./inp_files/37525.got.cif
#   From: 2010.05.17/outbox.cif.g08.bks.cpg/sg48_19_cif.got.tgz:37525.got - 2010.06.03 20:39:00.
