data_PCOD9390381
_publ_section_title
;
Structure prediction by ZEFSAII (Michael W. Deem and Ramdas Pophale) SiO2 
 PCOD9390381
Probable space group: P N N N
;
_chemical_formula_sum "Si O2"
_cell_formula_units_Z 52
_cell_length_a 12.848497
_cell_length_b 8.688369
_cell_length_c 19.250452
_cell_angle_alpha 90.000000
_cell_angle_beta 90.000000
_cell_angle_gamma 90.000000
_cell_volume 2148.975756
_symmetry_space_group_name_H-M "P N N N"
_symmetry_group_IT_number 48
_space_group.IT_coordinate_system_code '2'
_symmetry_cell_setting 'orthorhombic'
loop_
_space_group_symop_operation_xyz
x,y,z
1/2-x,1/2-y,z
x,1/2-y,1/2-z
1/2-x,y,1/2-z
-x,-y,-z
1/2+x,1/2+y,-z
-x,1/2+y,1/2+z
1/2+x,-y,1/2+z
loop_
_atom_site_type_symbol
_atom_site_label
_atom_site_fract_x
_atom_site_fract_y
_atom_site_fract_z
Si Si1 0.067814 0.541155 0.088586
Si Si2 0.051186 0.595844 0.643480
Si Si3 0.209177 0.980183 0.017399
Si Si4 0.909324 0.166459 0.852676
Si Si5 0.605028 0.750000 0.750000
Si Si6 0.250000 0.750000 0.607659
Si Si7 0.458867 0.241614 0.476355
Si Si8 0.250000 0.993340 0.250000
O O1 0.180729 0.507107 0.056489
O O2 0.080018 0.650990 0.154429
O O3 0.023779 0.371228 0.084523
O O4 0.995290 0.654865 0.040901
O O5 0.156329 0.689414 0.655855
O O6 0.021553 0.416214 0.654368
O O7 0.963229 0.666269 0.692867
O O8 0.032742 0.615168 0.560051
O O9 0.147242 0.144009 0.012219
O O10 0.140666 0.876264 0.071402
O O11 0.248975 0.894321 0.947052
O O12 0.822592 0.101685 0.800935
O O13 0.675051 0.880224 0.786845
#
# Coordination Sequence:
#
# PCOD9390381 Si02
#       8
#     8   8   8   8   4   4   8   4
#     4  11  20  36  55  89 121 159 201 256 300 384
#     4  10  21  37  60  85 118 163 201 258 304 366
#     4  11  20  35  56  87 120 161 200 250 304 386
#     4  10  20  37  61  86 120 158 206 253 307 366
#     4   9  20  39  60  90 122 153 214 251 308 368
#     4  12  20  35  62  89 124 158 210 254 312 364
#     4  10  22  35  58  83 124 164 199 249 322 362
#     4   9  20  38  65  86 119 169 198 253 309 370
#
# _framework density 24.197573999999999
#
# number of rings (size 3 to 8) (size 9 to 14) (size 15 to 20)
#    0.000    1.692    3.077    1.385    2.154    2.769 
#    0.000    1.538    3.385    0.923    0.000    0.000 
#    0.000    2.769    0.000    0.000    0.000    0.000 
#
# Total GULP energy -289518.772784 kJ/mol
# GULP energy per Si atom -5567.668707 kJ/mol
# Density = 2.414250 g / cm^3
# Si number density = 24.197574 Si / 1000 Ang^3
#
#
#
# Elastic Constant Matrix: (Units=GPa)
#
#
# Indices 1 2 3 4 5 6 
#
# 1 116.2601 60.9494 5.1573 0.0000 0.0000 0.0000
# 2 60.9494 181.0380 33.2334 0.0000 0.0000 0.0000
# 3 5.1573 33.2334 63.5074 0.0000 0.0000 0.0000
# 4 0.0000 0.0000 0.0000 31.7144 0.0000 0.0000
# 5 0.0000 0.0000 0.0000 0.0000 31.3734 0.0000
# 6 0.0000 0.0000 0.0000 0.0000 0.0000 51.4263
#
#
#
# Elastic Compliance Matrix: (Units=1/GPa)
#
#
# Indices 1 2 3 4 5 6 
#
# 1 0.010514 -0.003743 0.001105 0.000000 0.000000 0.000000
# 2 -0.003743 0.007443 -0.003591 0.000000 0.000000 0.000000
# 3 0.001105 -0.003591 0.017536 0.000000 0.000000 0.000000
# 4 0.000000 0.000000 0.000000 0.031531 0.000000 0.000000
# 5 0.000000 0.000000 0.000000 0.000000 0.031874 0.000000
# 6 0.000000 0.000000 0.000000 0.000000 0.000000 0.019445
#
#
# Mechanical properties :
#
#
# Convention : Reuss Voigt Hill
#
# Bulk Modulus (GPa) = 43.41185 62.16508 52.78847
# Shear Modulus (GPa) = 36.10624 40.33383 38.22003
#
# Velocity S-wave (km/s) = 3.86702 4.08714 3.97860
# Velocity P-wave (km/s) = 6.15776 6.92960 6.55505
#
# Compressibility (1/GPa) = 0.02303518
#
# Stress axis : x y z
#
# Youngs Moduli (GPa) = 95.10683 134.35578 57.02673
#
# Poissons Ratio (x) = 0.50285 -0.06300
# Poissons Ratio (y) = 0.35595 0.20478
# Poissons Ratio (z) = -0.10506 0.48246
#
# Static dielectric constant tensor:
#      x y z
#    x 2.109720 0.000000 0.000000 
#    y 0.000000 2.091760 0.000000 
#    z 0.000000 0.000000 2.051910 
# 
# From -- ./inp_files/34455.got.cif
#   From: 2010.05.17/outbox.cif.g08.bks.cpg/sg48_18_cif.got.tgz:34455.got - 2010.06.03 20:39:00.
