data_PCOD9390059
_publ_section_title
;
Structure prediction by ZEFSAII (Michael W. Deem and Ramdas Pophale) SiO2 
 PCOD9390059
Probable space group: P N N N
;
_chemical_formula_sum "Si O2"
_cell_formula_units_Z 64
_cell_length_a 20.258943
_cell_length_b 9.018265
_cell_length_c 18.827693
_cell_angle_alpha 90.000000
_cell_angle_beta 90.000000
_cell_angle_gamma 90.000000
_cell_volume 3439.829237
_symmetry_space_group_name_H-M "P N N N"
_symmetry_group_IT_number 48
_space_group.IT_coordinate_system_code '2'
_symmetry_cell_setting 'orthorhombic'
loop_
_space_group_symop_operation_xyz
x,y,z
1/2-x,1/2-y,z
x,1/2-y,1/2-z
1/2-x,y,1/2-z
-x,-y,-z
1/2+x,1/2+y,-z
-x,1/2+y,1/2+z
1/2+x,-y,1/2+z
loop_
_atom_site_type_symbol
_atom_site_label
_atom_site_fract_x
_atom_site_fract_y
_atom_site_fract_z
Si Si1 0.638857 0.355685 0.311147
Si Si2 0.394727 0.087290 0.980534
Si Si3 0.777466 0.914305 0.367403
Si Si4 0.488604 0.088308 0.232221
Si Si5 0.461992 0.902893 0.097756
Si Si6 0.402733 0.077276 0.499985
Si Si7 0.991597 0.068156 0.883383
Si Si8 0.688489 0.153904 0.435989
O O1 0.665479 0.250000 0.250000
O O2 0.678465 0.509489 0.307144
O O3 0.562460 0.382611 0.296476
O O4 0.647606 0.267188 0.385778
O O5 0.385226 0.251845 0.012822
O O6 0.410031 0.963918 0.039945
O O7 0.329631 0.074969 0.932742
O O8 0.462889 0.080793 0.934068
O O9 0.750000 0.750000 0.357027
O O10 0.719197 0.027963 0.384857
O O11 0.459255 0.250000 0.250000
O O12 0.454629 0.998009 0.169173
O O13 0.493806 0.996154 0.304840
O O14 0.458112 0.729213 0.114135
O O15 0.437486 0.079032 0.577895
O O16 0.452441 0.037247 0.437209
O O17 0.350818 0.943257 0.506792
O O18 0.750000 0.250000 0.464626
#
# Coordination Sequence:
#
# PCOD9390059 Si02
#       8
#     8   8   8   8   8   8   8   8
#     4  10  22  38  56  76 116 156 200 238 293 342
#     4  10  20  35  57  82 112 148 189 251 297 347
#     4  11  21  38  58  83 113 153 202 248 285 341
#     4  11  20  36  56  81 113 154 187 239 296 361
#     4  10  21  35  57  82 112 145 194 243 308 349
#     4  10  19  37  53  83 115 148 192 242 292 357
#     4  10  22  33  58  82 115 149 192 239 304 351
#     4  10  22  34  57  78 115 151 199 240 286 342
#
# _framework density 18.605575000000002
#
# number of rings (size 3 to 8) (size 9 to 14) (size 15 to 20)
#    0.000    1.750    2.500    2.625    3.500    4.250 
#    0.000    1.250    0.000    0.000    0.000    0.875 
#    0.000    0.000    0.000    0.000    0.000    0.000 
#
# Total GULP energy -356861.764802 kJ/mol
# GULP energy per Si atom -5575.965075 kJ/mol
# Density = 1.856323 g / cm^3
# Si number density = 18.605575 Si / 1000 Ang^3
#
#
#
# Elastic Constant Matrix: (Units=GPa)
#
#
# Indices 1 2 3 4 5 6 
#
# 1 31.2437 19.1274 15.8781 0.0000 0.0000 0.0000
# 2 19.1274 139.7899 24.6807 0.0000 0.0000 0.0000
# 3 15.8781 24.6807 53.1603 0.0000 0.0000 0.0000
# 4 0.0000 0.0000 0.0000 28.2059 0.0000 0.0000
# 5 0.0000 0.0000 0.0000 0.0000 12.3394 0.0000
# 6 0.0000 0.0000 0.0000 0.0000 0.0000 31.2746
#
#
#
# Elastic Compliance Matrix: (Units=1/GPa)
#
#
# Indices 1 2 3 4 5 6 
#
# 1 0.039333 -0.003603 -0.010075 0.000000 0.000000 0.000000
# 2 -0.003603 0.008122 -0.002695 0.000000 0.000000 0.000000
# 3 -0.010075 -0.002695 0.023071 0.000000 0.000000 0.000000
# 4 0.000000 0.000000 0.000000 0.035454 0.000000 0.000000
# 5 0.000000 0.000000 0.000000 0.000000 0.081041 0.000000
# 6 0.000000 0.000000 0.000000 0.000000 0.000000 0.031975
#
#
# Mechanical properties :
#
#
# Convention : Reuss Voigt Hill
#
# Bulk Modulus (GPa) = 26.46886 38.17405 32.32145
# Shear Modulus (GPa) = 18.91535 25.33117 22.12326
#
# Velocity S-wave (km/s) = 3.19195 3.69383 3.45202
# Velocity P-wave (km/s) = 5.27655 6.22532 5.77046
#
# Compressibility (1/GPa) = 0.03778025
#
# Stress axis : x y z
#
# Youngs Moduli (GPa) = 25.42425 123.11672 43.34360
#
# Poissons Ratio (x) = 0.44359 0.43670
# Poissons Ratio (y) = 0.09160 0.11680
# Poissons Ratio (z) = 0.25616 0.33178
#
# Static dielectric constant tensor:
#      x y z
#    x 1.664340 0.000000 0.000000 
#    y 0.000000 1.695770 0.000000 
#    z 0.000000 0.000000 1.648020 
# 
# From -- ./inp_files/32242.got.cif
#   From: 2010.05.17/outbox.cif.g08.bks.cpg/sg48_17_cif.got.tgz:32242.got - 2010.06.03 20:39:00.
