data_PCOD9390582
_publ_section_title
;
Structure prediction by ZEFSAII (Michael W. Deem and Ramdas Pophale) SiO2 
 PCOD9390582
Probable space group: P N N N
;
_chemical_formula_sum "Si O2"
_cell_formula_units_Z 56
_cell_length_a 8.559932
_cell_length_b 14.715747
_cell_length_c 22.322438
_cell_angle_alpha 90.000000
_cell_angle_beta 90.000000
_cell_angle_gamma 90.000000
_cell_volume 2811.863619
_symmetry_space_group_name_H-M "P N N N"
_symmetry_group_IT_number 48
_space_group.IT_coordinate_system_code '2'
_symmetry_cell_setting 'orthorhombic'
loop_
_space_group_symop_operation_xyz
x,y,z
1/2-x,1/2-y,z
x,1/2-y,1/2-z
1/2-x,y,1/2-z
-x,-y,-z
1/2+x,1/2+y,-z
-x,1/2+y,1/2+z
1/2+x,-y,1/2+z
loop_
_atom_site_type_symbol
_atom_site_label
_atom_site_fract_x
_atom_site_fract_y
_atom_site_fract_z
Si Si1 0.546457 0.825313 0.357949
Si Si2 0.413073 0.659194 0.783590
Si Si3 0.092330 0.127178 0.666475
Si Si4 0.632791 0.984295 0.048723
Si Si5 0.075947 0.530791 0.274075
Si Si6 0.367749 0.166831 0.506059
Si Si7 0.337001 0.839281 0.577507
O O1 0.722781 0.851306 0.337239
O O2 0.509234 0.725457 0.333028
O O3 0.442612 0.907015 0.333118
O O4 0.552579 0.814654 0.429421
O O5 0.472696 0.750000 0.750000
O O6 0.250000 0.636236 0.750000
O O7 0.526120 0.573135 0.782366
O O8 0.375012 0.676521 0.852839
O O9 0.064037 0.068659 0.606461
O O10 0.039580 0.072831 0.724291
O O11 0.761569 0.920494 0.017842
O O12 0.722210 0.074955 0.069908
O O13 0.500000 0.000000 0.000000
O O14 0.250000 0.536975 0.250000
O O15 0.250000 0.250000 0.491639
O O16 0.500992 0.149836 0.457703
O O17 0.250000 0.750000 0.553474
#
# Coordination Sequence:
#
# PCOD9390582 Si02
#       7
#     8   8   8   8   8   8   8
#     4  10  20  42  68  92 127 176 221 261 326 411
#     4  11  23  48  70  90 125 178 234 269 315 403
#     4  10  21  40  68  90 126 177 225 259 319 416
#     4  11  23  41  67 101 137 177 224 279 343 411
#     4  12  26  40  62 100 137 169 216 282 344 383
#     4  11  22  45  66  99 133 173 221 279 341 408
#     4  12  25  41  70 100 129 175 231 283 334 399
#
# _framework density 19.915617999999998
#
# number of rings (size 3 to 8) (size 9 to 14) (size 15 to 20)
#    0.000    1.000    4.286    5.571    0.000    4.857 
#    2.571    0.000    0.000    0.000    0.000    0.000 
#    0.000    0.000    0.000    0.000    0.000    0.000 
#
# Total GULP energy -313042.536682 kJ/mol
# GULP energy per Si atom -5590.045298 kJ/mol
# Density = 1.987029 g / cm^3
# Si number density = 19.915618 Si / 1000 Ang^3
#
#
#
# Elastic Constant Matrix: (Units=GPa)
#
#
# Indices 1 2 3 4 5 6 
#
# 1 19.0057 12.4672 24.4403 0.0000 0.0000 0.0000
# 2 12.4672 140.1442 21.3784 0.0000 0.0000 0.0000
# 3 24.4403 21.3784 90.7957 0.0000 0.0000 0.0000
# 4 0.0000 0.0000 0.0000 -59.3625 0.0000 0.0000
# 5 0.0000 0.0000 0.0000 0.0000 45.7999 0.0000
# 6 0.0000 0.0000 0.0000 0.0000 0.0000 8.5168
#
#
#
# Elastic Compliance Matrix: (Units=1/GPa)
#
#
# Indices 1 2 3 4 5 6 
#
# 1 0.082690 -0.004108 -0.021291 0.000000 0.000000 0.000000
# 2 -0.004108 0.007605 -0.000685 0.000000 0.000000 0.000000
# 3 -0.021291 -0.000685 0.016906 0.000000 0.000000 0.000000
# 4 0.000000 0.000000 0.000000 -0.016846 0.000000 0.000000
# 5 0.000000 0.000000 0.000000 0.000000 0.021834 0.000000
# 6 0.000000 0.000000 0.000000 0.000000 0.000000 0.117415
#
#
# Mechanical properties :
#
#
# Convention : Reuss Voigt Hill
#
# Bulk Modulus (GPa) = 18.17091 40.72415 29.44753
# Shear Modulus (GPa) = 16.66012 11.76814 14.21413
#
# Velocity S-wave (km/s) = 2.89543 2.43348 2.67445
# Velocity P-wave (km/s) = 4.50797 5.32809 4.93509
#
# Compressibility (1/GPa) = 0.05503302
#
# Stress axis : x y z
#
# Youngs Moduli (GPa) = 12.09339 131.48453 59.15024
#
# Poissons Ratio (x) = 0.54017 1.25937
# Poissons Ratio (y) = 0.04968 0.04051
# Poissons Ratio (z) = 0.25748 0.09005
#
# Static dielectric constant tensor:
#      x y z
#    x 1.720700 0.000000 0.000000 
#    y 0.000000 1.746130 0.000000 
#    z 0.000000 0.000000 1.707620 
# 
# From -- ./inp_files/33596.got.cif
#   From: 2010.05.17/outbox.cif.g08.bks.cpg/sg48_17_cif.got.tgz:33596.got - 2010.06.03 20:39:00.
