data_PCOD9390451
_publ_section_title
;
Structure prediction by ZEFSAII (Michael W. Deem and Ramdas Pophale) SiO2 
 PCOD9390451
Probable space group: P N N N
;
_chemical_formula_sum "Si O2"
_cell_formula_units_Z 64
_cell_length_a 30.195016
_cell_length_b 7.383425
_cell_length_c 12.434076
_cell_angle_alpha 90.000000
_cell_angle_beta 90.000000
_cell_angle_gamma 90.000000
_cell_volume 2772.085680
_symmetry_space_group_name_H-M "P N N N"
_symmetry_group_IT_number 48
_space_group.IT_coordinate_system_code '2'
_symmetry_cell_setting 'orthorhombic'
loop_
_space_group_symop_operation_xyz
x,y,z
1/2-x,1/2-y,z
x,1/2-y,1/2-z
1/2-x,y,1/2-z
-x,-y,-z
1/2+x,1/2+y,-z
-x,1/2+y,1/2+z
1/2+x,-y,1/2+z
loop_
_atom_site_type_symbol
_atom_site_label
_atom_site_fract_x
_atom_site_fract_y
_atom_site_fract_z
Si Si1 0.868448 0.014856 0.864033
Si Si2 0.466603 0.966188 0.402585
Si Si3 0.366634 0.548430 0.380386
Si Si4 0.140241 0.029622 0.765879
Si Si5 0.701187 0.952583 0.454308
Si Si6 0.951519 0.078963 0.498646
Si Si7 0.543722 0.528765 0.255157
Si Si8 0.300840 0.473714 0.563546
O O1 0.917404 0.950219 0.902763
O O2 0.864916 0.969179 0.738540
O O3 0.868594 0.233765 0.871312
O O4 0.826473 0.957945 0.935107
O O5 0.456943 0.754872 0.425276
O O6 0.496638 0.019256 0.299275
O O7 0.500000 0.000000 0.500000
O O8 0.409587 0.482614 0.447211
O O9 0.324114 0.506785 0.450632
O O10 0.138393 0.250000 0.750000
O O11 0.170299 0.964890 0.863306
O O12 0.090145 0.979721 0.801271
O O13 0.165377 0.963741 0.657590
O O14 0.703629 0.741988 0.422583
O O15 0.749973 0.036332 0.445149
O O16 0.946047 0.067116 0.369509
O O17 0.000000 0.000000 0.500000
O O18 0.541943 0.750000 0.250000
#
# Coordination Sequence:
#
# PCOD9390451 Si02
#       8
#     8   8   8   8   8   8   8   8
#     4  10  23  41  59  82 122 165 199 252 304 370
#     4  11  24  39  57  89 128 159 201 259 314 372
#     4  10  22  40  60  85 117 161 209 248 302 368
#     4   9  18  34  59  92 122 150 194 250 311 367
#     4  10  21  37  61  90 121 155 194 260 318 356
#     4  11  21  37  62  87 118 161 210 254 304 369
#     4  11  20  35  63  91 116 161 210 251 301 373
#     4  10  20  38  63  90 117 152 206 254 305 373
#
# _framework density 23.087308
#
# number of rings (size 3 to 8) (size 9 to 14) (size 15 to 20)
#    0.000    1.750    2.500    1.875    1.750    4.500 
#    0.000    4.375    0.000    1.500    0.000    0.000 
#    0.000    0.000    0.000    0.000    0.000    0.000 
#
# Total GULP energy -356638.837900 kJ/mol
# GULP energy per Si atom -5572.481842 kJ/mol
# Density = 2.303476 g / cm^3
# Si number density = 23.087308 Si / 1000 Ang^3
#
#
#
# Elastic Constant Matrix: (Units=GPa)
#
#
# Indices 1 2 3 4 5 6 
#
# 1 115.8126 6.4132 5.0102 0.0000 0.0000 0.0000
# 2 6.4132 55.7024 -4.8494 0.0000 0.0000 0.0000
# 3 5.0102 -4.8494 84.3344 0.0000 0.0000 0.0000
# 4 0.0000 0.0000 0.0000 13.6989 0.0000 0.0000
# 5 0.0000 0.0000 0.0000 0.0000 30.6233 0.0000
# 6 0.0000 0.0000 0.0000 0.0000 0.0000 15.8734
#
#
#
# Elastic Compliance Matrix: (Units=1/GPa)
#
#
# Indices 1 2 3 4 5 6 
#
# 1 0.008718 -0.001054 -0.000579 0.000000 0.000000 0.000000
# 2 -0.001054 0.018170 0.001107 0.000000 0.000000 0.000000
# 3 -0.000579 0.001107 0.011956 0.000000 0.000000 0.000000
# 4 0.000000 0.000000 0.000000 0.072999 0.000000 0.000000
# 5 0.000000 0.000000 0.000000 0.000000 0.032655 0.000000
# 6 0.000000 0.000000 0.000000 0.000000 0.000000 0.062998
#
#
# Mechanical properties :
#
#
# Convention : Reuss Voigt Hill
#
# Bulk Modulus (GPa) = 26.45950 29.88860 28.17405
# Shear Modulus (GPa) = 22.60970 28.65749 25.63359
#
# Velocity S-wave (km/s) = 3.13279 3.52698 3.33572
# Velocity P-wave (km/s) = 4.95695 5.43692 5.20248
#
# Compressibility (1/GPa) = 0.03779360
#
# Stress axis : x y z
#
# Youngs Moduli (GPa) = 114.70469 55.03475 83.64278
#
# Poissons Ratio (x) = 0.05801 0.04839
# Poissons Ratio (y) = 0.12091 -0.09263
# Poissons Ratio (z) = 0.06636 -0.06095
#
# Static dielectric constant tensor:
#      x y z
#    x 1.924540 0.000000 0.000000 
#    y 0.000000 1.965520 0.000000 
#    z 0.000000 0.000000 1.821230 
# 
# From -- ./inp_files/19042.got.cif
#   From: 2010.05.17/outbox.cif.g08.bks.cpg/sg48_10_cif.got.tgz:19042.got - 2010.06.03 20:39:00.
