data_PCOD9390099
_publ_section_title
;
Structure prediction by ZEFSAII (Michael W. Deem and Ramdas Pophale) SiO2 
 PCOD9390099
Probable space group: P N N N
;
_chemical_formula_sum "Si O2"
_cell_formula_units_Z 52
_cell_length_a 15.931697
_cell_length_b 10.081729
_cell_length_c 16.627308
_cell_angle_alpha 90.000000
_cell_angle_beta 90.000000
_cell_angle_gamma 90.000000
_cell_volume 2670.662443
_symmetry_space_group_name_H-M "P N N N"
_symmetry_group_IT_number 48
_space_group.IT_coordinate_system_code '2'
_symmetry_cell_setting 'orthorhombic'
loop_
_space_group_symop_operation_xyz
x,y,z
1/2-x,1/2-y,z
x,1/2-y,1/2-z
1/2-x,y,1/2-z
-x,-y,-z
1/2+x,1/2+y,-z
-x,1/2+y,1/2+z
1/2+x,-y,1/2+z
loop_
_atom_site_type_symbol
_atom_site_label
_atom_site_fract_x
_atom_site_fract_y
_atom_site_fract_z
Si Si1 0.938987 0.435724 0.067198
Si Si2 0.585387 0.370275 0.070276
Si Si3 0.530577 0.405779 0.889900
Si Si4 0.252522 0.521874 0.986575
Si Si5 0.750000 0.750000 0.094293
Si Si6 0.574451 0.678624 0.333724
Si Si7 0.212420 0.898808 0.167761
O O1 0.947606 0.278707 0.081578
O O2 0.946668 0.526558 0.147328
O O3 0.844009 0.453549 0.035240
O O4 0.000000 0.500000 0.000000
O O5 0.535034 0.475225 0.125076
O O6 0.567600 0.418709 0.979144
O O7 0.686279 0.385114 0.067607
O O8 0.480897 0.268144 0.892854
O O9 0.610960 0.398925 0.831651
O O10 0.261851 0.538731 0.082362
O O11 0.276587 0.373326 0.960484
O O12 0.671926 0.797626 0.147116
O O13 0.555512 0.750000 0.250000
O O14 0.250000 0.750000 0.163714
O O15 0.250000 0.958653 0.250000
#
# Coordination Sequence:
#
# PCOD9390099 Si02
#       7
#     8   8   8   8   4   8   8
#     4  11  22  35  60  95 123 161 217 263 298 378
#     4  10  19  38  61  91 120 157 216 256 311 361
#     4  10  20  35  63  86 120 162 197 257 305 372
#     4  10  20  36  63  85 123 160 208 261 308 375
#     4  10  21  40  61  90 110 162 212 256 313 380
#     4  11  23  38  60  90 125 159 204 263 321 366
#     4  10  22  36  58  91 122 157 198 246 311 378
#
# _framework density 19.470824
#
# number of rings (size 3 to 8) (size 9 to 14) (size 15 to 20)
#    0.000    1.692    3.077    2.538    2.154    0.000 
#    0.000    1.154    0.000    3.692    0.000    0.000 
#    0.000    0.000    0.000    0.000    0.000    0.000 
#
# Total GULP energy -289747.694564 kJ/mol
# GULP energy per Si atom -5572.071049 kJ/mol
# Density = 1.942651 g / cm^3
# Si number density = 19.470824 Si / 1000 Ang^3
#
#
#
# Elastic Constant Matrix: (Units=GPa)
#
#
# Indices 1 2 3 4 5 6 
#
# 1 115.7445 24.9746 9.9841 0.0000 0.0000 0.0000
# 2 24.9746 126.3966 20.4093 0.0000 0.0000 0.0000
# 3 9.9841 20.4093 54.8986 0.0000 0.0000 0.0000
# 4 0.0000 0.0000 0.0000 15.4118 0.0000 0.0000
# 5 0.0000 0.0000 0.0000 0.0000 10.1089 0.0000
# 6 0.0000 0.0000 0.0000 0.0000 0.0000 25.1733
#
#
#
# Elastic Compliance Matrix: (Units=1/GPa)
#
#
# Indices 1 2 3 4 5 6 
#
# 1 0.009081 -0.001625 -0.001047 0.000000 0.000000 0.000000
# 2 -0.001625 0.008708 -0.002942 0.000000 0.000000 0.000000
# 3 -0.001047 -0.002942 0.019499 0.000000 0.000000 0.000000
# 4 0.000000 0.000000 0.000000 0.064885 0.000000 0.000000
# 5 0.000000 0.000000 0.000000 0.000000 0.098922 0.000000
# 6 0.000000 0.000000 0.000000 0.000000 0.000000 0.039725
#
#
# Mechanical properties :
#
#
# Convention : Reuss Voigt Hill
#
# Bulk Modulus (GPa) = 38.37340 45.30842 41.84091
# Shear Modulus (GPa) = 19.17655 26.25025 22.71340
#
# Velocity S-wave (km/s) = 3.14169 3.67575 3.41916
# Velocity P-wave (km/s) = 5.73683 6.42925 6.09289
#
# Compressibility (1/GPa) = 0.02605972
#
# Stress axis : x y z
#
# Youngs Moduli (GPa) = 110.12343 114.84086 51.28346
#
# Poissons Ratio (x) = 0.18663 0.05371
# Poissons Ratio (y) = 0.17897 0.15086
# Poissons Ratio (z) = 0.11533 0.33782
#
# Static dielectric constant tensor:
#      x y z
#    x 1.752110 0.000000 0.000000 
#    y 0.000000 1.690570 0.000000 
#    z 0.000000 0.000000 1.765610 
# 
# From -- ./inp_files/31961.got.cif
#   From: 2010.05.17/outbox.cif.g08.bks.cpg/sg48_16_cif.got.tgz:31961.got - 2010.06.03 20:39:00.
