data_PCOD9390798
_publ_section_title
;
Structure prediction by ZEFSAII (Michael W. Deem and Ramdas Pophale) SiO2 
 PCOD9390798
Probable space group: P N N N
;
_chemical_formula_sum "Si O2"
_cell_formula_units_Z 40
_cell_length_a 8.434338
_cell_length_b 10.726901
_cell_length_c 21.909807
_cell_angle_alpha 90.000000
_cell_angle_beta 90.000000
_cell_angle_gamma 90.000000
_cell_volume 1982.274643
_symmetry_space_group_name_H-M "P N N N"
_symmetry_group_IT_number 48
_space_group.IT_coordinate_system_code '2'
_symmetry_cell_setting 'orthorhombic'
loop_
_space_group_symop_operation_xyz
x,y,z
1/2-x,1/2-y,z
x,1/2-y,1/2-z
1/2-x,y,1/2-z
-x,-y,-z
1/2+x,1/2+y,-z
-x,1/2+y,1/2+z
1/2+x,-y,1/2+z
loop_
_atom_site_type_symbol
_atom_site_label
_atom_site_fract_x
_atom_site_fract_y
_atom_site_fract_z
Si Si1 0.076762 0.369400 0.219422
Si Si2 0.100240 0.049980 0.412970
Si Si3 0.912813 0.818498 0.457076
Si Si4 0.432672 0.382577 0.770936
Si Si5 0.371038 0.855045 0.388538
O O1 0.994448 0.250000 0.250000
O O2 0.250000 0.374013 0.250000
O O3 0.082439 0.365248 0.146610
O O4 0.002460 0.500171 0.236514
O O5 0.264453 0.973095 0.406235
O O6 0.965631 0.941057 0.418388
O O7 0.096820 0.131435 0.474054
O O8 0.750000 0.750000 0.439512
O O9 0.048548 0.715769 0.445365
O O10 0.499845 0.250000 0.750000
O O11 0.250000 0.381181 0.750000
O O12 0.490272 0.390558 0.841057
O O13 0.250000 0.750000 0.361990
#
# Coordination Sequence:
#
# PCOD9390798 Si02
#       5
#     8   8   8   8   8
#     4  11  24  42  69  98 132 182 225 276 348 420
#     4  10  22  43  64  95 131 174 232 276 343 418
#     4  10  23  38  67  93 129 172 225 294 334 396
#     4  11  24  38  67 102 133 171 221 283 345 410
#     4  10  21  39  64  94 130 172 224 279 341 403
#
# _framework density 20.178837999999999
#
# number of rings (size 3 to 8) (size 9 to 14) (size 15 to 20)
#    0.000    1.600    2.000    2.400    8.400    1.200 
#    0.000    0.000   13.200    0.000    0.000    0.000 
#    0.000    0.000    0.000    0.000    0.000    0.000 
#
# Total GULP energy -223137.260389 kJ/mol
# GULP energy per Si atom -5578.431510 kJ/mol
# Density = 2.013291 g / cm^3
# Si number density = 20.178838 Si / 1000 Ang^3
#
#
#
# Elastic Constant Matrix: (Units=GPa)
#
#
# Indices 1 2 3 4 5 6 
#
# 1 98.2372 39.0465 43.9342 0.0000 0.0000 0.0000
# 2 39.0465 74.0881 34.8797 0.0000 0.0000 0.0000
# 3 43.9342 34.8797 133.7260 0.0000 0.0000 0.0000
# 4 0.0000 0.0000 0.0000 34.9059 0.0000 0.0000
# 5 0.0000 0.0000 0.0000 0.0000 24.0700 0.0000
# 6 0.0000 0.0000 0.0000 0.0000 0.0000 16.4255
#
#
#
# Elastic Compliance Matrix: (Units=1/GPa)
#
#
# Indices 1 2 3 4 5 6 
#
# 1 0.013871 -0.005888 -0.003021 0.000000 0.000000 0.000000
# 2 -0.005888 0.017886 -0.002731 0.000000 0.000000 0.000000
# 3 -0.003021 -0.002731 0.009183 0.000000 0.000000 0.000000
# 4 0.000000 0.000000 0.000000 0.028648 0.000000 0.000000
# 5 0.000000 0.000000 0.000000 0.000000 0.041546 0.000000
# 6 0.000000 0.000000 0.000000 0.000000 0.000000 0.060881
#
#
# Mechanical properties :
#
#
# Convention : Reuss Voigt Hill
#
# Bulk Modulus (GPa) = 56.62606 60.19689 58.41148
# Shear Modulus (GPa) = 24.85313 27.62635 26.23974
#
# Velocity S-wave (km/s) = 3.51328 3.70412 3.60996
# Velocity P-wave (km/s) = 6.67687 6.94193 6.81069
#
# Compressibility (1/GPa) = 0.01765971
#
# Stress axis : x y z
#
# Youngs Moduli (GPa) = 72.09290 55.90909 108.89806
#
# Poissons Ratio (x) = 0.32919 0.32903
# Poissons Ratio (y) = 0.42448 0.29738
# Poissons Ratio (z) = 0.21782 0.15268
#
# Static dielectric constant tensor:
#      x y z
#    x 1.716700 0.000000 0.000000 
#    y 0.000000 1.742410 0.000000 
#    z 0.000000 0.000000 1.729440 
# 
# From -- ./inp_files/30025.got.cif
#   From: 2010.05.17/outbox.cif.g08.bks.cpg/sg48_16_cif.got.tgz:30025.got - 2010.06.03 20:39:00.
