data_PCOD9390912
_publ_section_title
;
Structure prediction by ZEFSAII (Michael W. Deem and Ramdas Pophale) SiO2 
 PCOD9390912
Probable space group: P N N N
;
_chemical_formula_sum "Si O2"
_cell_formula_units_Z 34
_cell_length_a 12.592795
_cell_length_b 17.037345
_cell_length_c 7.041497
_cell_angle_alpha 90.000000
_cell_angle_beta 90.000000
_cell_angle_gamma 90.000000
_cell_volume 1510.737640
_symmetry_space_group_name_H-M "P N N N"
_symmetry_group_IT_number 48
_space_group.IT_coordinate_system_code '2'
_symmetry_cell_setting 'orthorhombic'
loop_
_space_group_symop_operation_xyz
x,y,z
1/2-x,1/2-y,z
x,1/2-y,1/2-z
1/2-x,y,1/2-z
-x,-y,-z
1/2+x,1/2+y,-z
-x,1/2+y,1/2+z
1/2+x,-y,1/2+z
loop_
_atom_site_type_symbol
_atom_site_label
_atom_site_fract_x
_atom_site_fract_y
_atom_site_fract_z
Si Si1 0.589308 0.334033 0.279569
Si Si2 0.214441 0.520477 0.958609
Si Si3 0.250000 0.250000 0.750000
Si Si4 0.062862 0.928750 0.092158
Si Si5 0.085165 0.370730 0.939704
O O1 0.639536 0.250000 0.250000
O O2 0.657147 0.398703 0.395653
O O3 0.481856 0.328515 0.398246
O O4 0.565319 0.363305 0.069127
O O5 0.250000 0.488456 0.750000
O O6 0.136402 0.451192 0.023801
O O7 0.315043 0.540867 0.089768
O O8 0.172901 0.309609 0.864805
O O9 0.998416 0.898272 0.274782
O O10 0.000000 0.000000 0.000000
#
# Coordination Sequence:
#
# PCOD9390912 Si02
#       5
#     8   8   2   8   8
#     4  11  25  43  67 102 139 182 236 292 344 421
#     4  10  21  41  69 100 136 184 228 290 348 416
#     4  12  24  44  74  94 142 174 224 288 358 402
#     4  11  22  42  69 102 138 182 230 284 355 419
#     4  12  23  46  68 101 141 184 228 293 352 418
#
# _framework density 22.505562999999999
#
# number of rings (size 3 to 8) (size 9 to 14) (size 15 to 20)
#    0.000    0.941    5.882    2.118    0.000    5.176 
#    0.000   10.000    0.000    9.882    0.000    0.000 
#    0.000    0.000    0.000    0.000    0.000    0.000 
#
# Total GULP energy -189948.970085 kJ/mol
# GULP energy per Si atom -5586.734414 kJ/mol
# Density = 2.245434 g / cm^3
# Si number density = 22.505563 Si / 1000 Ang^3
#
#
#
# Elastic Constant Matrix: (Units=GPa)
#
#
# Indices 1 2 3 4 5 6 
#
# 1 151.8057 62.3540 77.3895 0.0000 0.0000 0.0000
# 2 62.3540 174.0575 37.8397 0.0000 0.0000 0.0000
# 3 77.3895 37.8397 97.6958 0.0000 0.0000 0.0000
# 4 0.0000 0.0000 0.0000 25.8042 0.0000 0.0000
# 5 0.0000 0.0000 0.0000 0.0000 30.5415 0.0000
# 6 0.0000 0.0000 0.0000 0.0000 0.0000 23.2711
#
#
#
# Elastic Compliance Matrix: (Units=1/GPa)
#
#
# Indices 1 2 3 4 5 6 
#
# 1 0.011915 -0.002420 -0.008501 0.000000 0.000000 0.000000
# 2 -0.002420 0.006765 -0.000703 0.000000 0.000000 0.000000
# 3 -0.008501 -0.000703 0.017242 0.000000 0.000000 0.000000
# 4 0.000000 0.000000 0.000000 0.038753 0.000000 0.000000
# 5 0.000000 0.000000 0.000000 0.000000 0.032742 0.000000
# 6 0.000000 0.000000 0.000000 0.000000 0.000000 0.042972
#
#
# Mechanical properties :
#
#
# Convention : Reuss Voigt Hill
#
# Bulk Modulus (GPa) = 78.90398 86.52506 82.71452
# Shear Modulus (GPa) = 28.11129 32.32175 30.21652
#
# Velocity S-wave (km/s) = 3.53807 3.79379 3.66816
# Velocity P-wave (km/s) = 7.19906 7.59737 7.40089
#
# Compressibility (1/GPa) = 0.01267363
#
# Stress axis : x y z
#
# Youngs Moduli (GPa) = 83.92444 147.81677 57.99641
#
# Poissons Ratio (x) = 0.35778 0.49305
# Poissons Ratio (y) = 0.20313 0.04077
# Poissons Ratio (z) = 0.71347 0.10391
#
# Static dielectric constant tensor:
#      x y z
#    x 1.920400 0.000000 0.000000 
#    y 0.000000 1.761060 0.000000 
#    z 0.000000 0.000000 1.763370 
# 
# From -- ./inp_files/10343.got.cif
#   From: 2010.05.17/outbox.cif.g08.bks.cpg/sg48_6_cif.got.tgz:10343.got - 2010.06.03 20:39:00.
