data_PCOD9390629
_publ_section_title
;
Structure prediction by ZEFSAII (Michael W. Deem and Ramdas Pophale) SiO2 
 PCOD9390629
Probable space group: P N N N
;
_chemical_formula_sum "Si O2"
_cell_formula_units_Z 64
_cell_length_a 12.959925
_cell_length_b 10.213940
_cell_length_c 26.199934
_cell_angle_alpha 90.000000
_cell_angle_beta 90.000000
_cell_angle_gamma 90.000000
_cell_volume 3468.134948
_symmetry_space_group_name_H-M "P N N N"
_symmetry_group_IT_number 48
_space_group.IT_coordinate_system_code '2'
_symmetry_cell_setting 'orthorhombic'
loop_
_space_group_symop_operation_xyz
x,y,z
1/2-x,1/2-y,z
x,1/2-y,1/2-z
1/2-x,y,1/2-z
-x,-y,-z
1/2+x,1/2+y,-z
-x,1/2+y,1/2+z
1/2+x,-y,1/2+z
loop_
_atom_site_type_symbol
_atom_site_label
_atom_site_fract_x
_atom_site_fract_y
_atom_site_fract_z
Si Si1 0.026664 0.040876 0.694661
Si Si2 0.369418 0.224415 0.633657
Si Si3 0.495032 0.220515 0.063434
Si Si4 0.473886 0.506525 0.810824
Si Si5 0.371209 0.519849 0.395070
Si Si6 0.451124 0.727345 0.052712
Si Si7 0.628710 0.228340 0.162504
Si Si8 0.132543 0.032114 0.099750
O O1 0.094476 0.911412 0.684278
O O2 0.086896 0.165439 0.672151
O O3 0.006648 0.048201 0.754643
O O4 0.923346 0.026453 0.660785
O O5 0.250000 0.250000 0.623355
O O6 0.391003 0.084912 0.660107
O O7 0.439844 0.231396 0.583052
O O8 0.587838 0.233083 0.104144
O O9 0.412491 0.332436 0.078349
O O10 0.441498 0.080714 0.072639
O O11 0.532470 0.241487 0.006230
O O12 0.430370 0.653601 0.809234
O O13 0.574944 0.505788 0.846472
O O14 0.381078 0.662046 0.420653
O O15 0.254699 0.470606 0.393993
O O16 0.402394 0.585421 0.062559
O O17 0.750000 0.250000 0.166026
#
# Coordination Sequence:
#
# PCOD9390629 Si02
#       8
#     8   8   8   8   8   8   8   8
#     4  10  21  36  54  78 108 140 177 220 264 314
#     4  10  21  35  53  79 108 139 178 220 263 316
#     4  10  21  38  56  80 110 140 177 220 264 314
#     4  10  21  36  54  78 108 140 177 220 264 314
#     4  10  21  37  57  81 108 139 178 220 263 314
#     4  10  21  38  56  80 110 140 177 220 264 314
#     4  10  21  35  53  79 108 139 178 220 263 316
#     4  10  21  37  57  81 108 139 178 220 263 314
#
# _framework density 18.453724000000001
#
# number of rings (size 3 to 8) (size 9 to 14) (size 15 to 20)
#    0.000    2.000    0.000    3.000    0.000    5.500 
#    0.000    0.000    0.000    9.000    0.000    0.000 
#    0.000    0.000    0.000    0.000    0.000    0.000 
#
# Total GULP energy -357513.304466 kJ/mol
# GULP energy per Si atom -5586.145382 kJ/mol
# Density = 1.841172 g / cm^3
# Si number density = 18.453724 Si / 1000 Ang^3
#
#
#
# Elastic Constant Matrix: (Units=GPa)
#
#
# Indices 1 2 3 4 5 6 
#
# 1 63.5313 -29.7680 -3.5913 0.0000 0.0000 0.0000
# 2 -29.7680 50.1133 -25.8359 0.0000 0.0000 0.0000
# 3 -3.5913 -25.8359 85.3823 0.0000 0.0000 0.0000
# 4 0.0000 0.0000 0.0000 16.0059 0.0000 0.0000
# 5 0.0000 0.0000 0.0000 0.0000 2.6580 0.0000
# 6 0.0000 0.0000 0.0000 0.0000 0.0000 16.4907
#
#
#
# Elastic Compliance Matrix: (Units=1/GPa)
#
#
# Indices 1 2 3 4 5 6 
#
# 1 0.024467 0.017849 0.006430 0.000000 0.000000 0.000000
# 2 0.017849 0.036664 0.011845 0.000000 0.000000 0.000000
# 3 0.006430 0.011845 0.015567 0.000000 0.000000 0.000000
# 4 0.000000 0.000000 0.000000 0.062477 0.000000 0.000000
# 5 0.000000 0.000000 0.000000 0.000000 0.376216 0.000000
# 6 0.000000 0.000000 0.000000 0.000000 0.000000 0.060640
#
#
# Mechanical properties :
#
#
# Convention : Reuss Voigt Hill
#
# Bulk Modulus (GPa) = 6.71395 8.95961 7.83678
# Shear Modulus (GPa) = 9.03455 24.24575 16.64015
#
# Velocity S-wave (km/s) = 2.21504 3.62866 3.00613
# Velocity P-wave (km/s) = 3.19187 4.73519 4.03795
#
# Compressibility (1/GPa) = 0.14894364
#
# Stress axis : x y z
#
# Youngs Moduli (GPa) = 40.87170 27.27498 64.24009
#
# Poissons Ratio (x) = -0.48682 -0.41306
# Poissons Ratio (y) = -0.72950 -0.76091
# Poissons Ratio (z) = -0.26280 -0.32307
#
# Static dielectric constant tensor:
#      x y z
#    x 1.595760 0.000000 0.000000 
#    y 0.000000 1.631970 0.000000 
#    z 0.000000 0.000000 1.612080 
# 
# From -- ./inp_files/36379.got.cif
#   From: 2010.05.17/outbox.cif.g08.bks.cpg/sg48_19_cif.got.tgz:36379.got - 2010.06.03 20:39:00.
