data_PCOD9390946
_publ_section_title
;
Structure prediction by ZEFSAII (Michael W. Deem and Ramdas Pophale) SiO2 
 PCOD9390946
Probable space group: P N N N
;
_chemical_formula_sum "Si O2"
_cell_formula_units_Z 64
_cell_length_a 14.899984
_cell_length_b 8.782692
_cell_length_c 22.727775
_cell_angle_alpha 90.000000
_cell_angle_beta 90.000000
_cell_angle_gamma 90.000000
_cell_volume 2974.201417
_symmetry_space_group_name_H-M "P N N N"
_symmetry_group_IT_number 48
_space_group.IT_coordinate_system_code '2'
_symmetry_cell_setting 'orthorhombic'
loop_
_space_group_symop_operation_xyz
x,y,z
1/2-x,1/2-y,z
x,1/2-y,1/2-z
1/2-x,y,1/2-z
-x,-y,-z
1/2+x,1/2+y,-z
-x,1/2+y,1/2+z
1/2+x,-y,1/2+z
loop_
_atom_site_type_symbol
_atom_site_label
_atom_site_fract_x
_atom_site_fract_y
_atom_site_fract_z
Si Si1 0.390808 0.335435 0.187666
Si Si2 0.838492 0.649390 0.315048
Si Si3 0.600932 0.556385 0.002005
Si Si4 0.492833 0.582945 0.252710
Si Si5 0.767741 0.072301 0.096775
Si Si6 0.063426 0.459150 0.120294
Si Si7 0.761527 0.923275 0.903632
Si Si8 0.402250 0.146131 0.923947
O O1 0.377445 0.250000 0.250000
O O2 0.457734 0.471189 0.202491
O O3 0.428571 0.221358 0.136953
O O4 0.299293 0.405213 0.162352
O O5 0.750000 0.750000 0.307093
O O6 0.901813 0.604180 0.260749
O O7 0.801614 0.492441 0.341484
O O8 0.894389 0.743396 0.365670
O O9 0.653218 0.465916 0.052173
O O10 0.600766 0.734930 0.021920
O O11 0.500000 0.500000 0.000000
O O12 0.658389 0.516622 0.943873
O O13 0.451213 0.750000 0.250000
O O14 0.466109 0.520186 0.315755
O O15 0.750000 0.250000 0.097834
O O16 0.683462 0.966158 0.077701
O O17 0.164042 0.499679 0.098718
O O18 0.989235 0.536901 0.078876
O O19 0.750000 0.750000 0.925882
#
# Coordination Sequence:
#
# PCOD9390946 Si02
#       8
#     8   8   8   8   8   8   8   8
#     4   9  22  40  65  93 132 176 231 280 334 413
#     4   9  20  39  61  88 130 180 220 277 340 420
#     4  11  25  43  68  98 132 181 230 287 354 430
#     4  11  21  37  63  93 134 173 232 267 346 404
#     4  10  23  41  66  96 132 171 231 290 350 411
#     4  10  22  40  64  98 128 179 222 288 344 416
#     4  10  22  42  68  93 133 181 228 275 353 411
#     4  10  21  43  65  91 135 172 225 280 356 411
#
# _framework density 21.518381000000002
#
# number of rings (size 3 to 8) (size 9 to 14) (size 15 to 20)
#    0.000    2.000    1.250    1.875    5.250    8.000 
#    0.000    6.250    0.000    0.750    0.000    0.000 
#    0.000    0.000    0.000    0.000    0.000    0.000 
#
# Total GULP energy -357042.434691 kJ/mol
# GULP energy per Si atom -5578.788042 kJ/mol
# Density = 2.146940 g / cm^3
# Si number density = 21.518381 Si / 1000 Ang^3
#
#
#
# Elastic Constant Matrix: (Units=GPa)
#
#
# Indices 1 2 3 4 5 6 
#
# 1 177.8394 50.8001 51.8693 0.0000 0.0000 0.0000
# 2 50.8001 115.0482 26.0818 0.0000 0.0000 0.0000
# 3 51.8693 26.0818 69.2595 0.0000 0.0000 0.0000
# 4 0.0000 0.0000 0.0000 16.9257 0.0000 0.0000
# 5 0.0000 0.0000 0.0000 0.0000 41.2497 0.0000
# 6 0.0000 0.0000 0.0000 0.0000 0.0000 32.3136
#
#
#
# Elastic Compliance Matrix: (Units=1/GPa)
#
#
# Indices 1 2 3 4 5 6 
#
# 1 0.007710 -0.002291 -0.004911 0.000000 0.000000 0.000000
# 2 -0.002291 0.010184 -0.002119 0.000000 0.000000 0.000000
# 3 -0.004911 -0.002119 0.018915 0.000000 0.000000 0.000000
# 4 0.000000 0.000000 0.000000 0.059082 0.000000 0.000000
# 5 0.000000 0.000000 0.000000 0.000000 0.024243 0.000000
# 6 0.000000 0.000000 0.000000 0.000000 0.000000 0.030947
#
#
# Mechanical properties :
#
#
# Convention : Reuss Voigt Hill
#
# Bulk Modulus (GPa) = 55.04981 68.84994 61.94987
# Shear Modulus (GPa) = 28.44492 33.65752 31.05122
#
# Velocity S-wave (km/s) = 3.63972 3.95920 3.80282
# Velocity P-wave (km/s) = 6.58040 7.27775 6.93784
#
# Compressibility (1/GPa) = 0.01816537
#
# Stress axis : x y z
#
# Youngs Moduli (GPa) = 129.70305 98.19266 52.86881
#
# Poissons Ratio (x) = 0.22495 0.25966
# Poissons Ratio (y) = 0.29714 0.11205
# Poissons Ratio (z) = 0.63701 0.20811
#
# Static dielectric constant tensor:
#      x y z
#    x 1.801010 0.000000 0.000000 
#    y 0.000000 1.830040 0.000000 
#    z 0.000000 0.000000 1.917380 
# 
# From -- ./inp_files/36571.got.cif
#   From: 2010.05.17/outbox.cif.g08.bks.cpg/sg48_19_cif.got.tgz:36571.got - 2010.06.03 20:39:00.
