data_PCOD9390612
_publ_section_title
;
Structure prediction by ZEFSAII (Michael W. Deem and Ramdas Pophale) SiO2 
 PCOD9390612
Probable space group: P N N N
;
_chemical_formula_sum "Si O2"
_cell_formula_units_Z 64
_cell_length_a 11.345707
_cell_length_b 8.882202
_cell_length_c 29.049331
_cell_angle_alpha 90.000000
_cell_angle_beta 90.000000
_cell_angle_gamma 90.000000
_cell_volume 2927.442305
_symmetry_space_group_name_H-M "P N N N"
_symmetry_group_IT_number 48
_space_group.IT_coordinate_system_code '2'
_symmetry_cell_setting 'orthorhombic'
loop_
_space_group_symop_operation_xyz
x,y,z
1/2-x,1/2-y,z
x,1/2-y,1/2-z
1/2-x,y,1/2-z
-x,-y,-z
1/2+x,1/2+y,-z
-x,1/2+y,1/2+z
1/2+x,-y,1/2+z
loop_
_atom_site_type_symbol
_atom_site_label
_atom_site_fract_x
_atom_site_fract_y
_atom_site_fract_z
Si Si1 0.935669 0.860023 0.976005
Si Si2 0.336790 0.462560 0.808958
Si Si3 0.136364 0.657357 0.932137
Si Si4 0.629788 0.806318 0.065705
Si Si5 0.069082 0.733385 0.830087
Si Si6 0.966519 0.311148 0.640137
Si Si7 0.568625 0.580745 0.290416
Si Si8 0.344269 0.388929 0.124117
O O1 0.861151 0.904012 0.931014
O O2 0.027336 0.740409 0.955175
O O3 0.872375 0.781264 0.018005
O O4 0.000000 0.000000 0.000000
O O5 0.347709 0.642307 0.806856
O O6 0.416943 0.413234 0.851149
O O7 0.404944 0.400992 0.763747
O O8 0.202557 0.408888 0.810387
O O9 0.250000 0.750000 0.947160
O O10 0.140098 0.482881 0.943001
O O11 0.126248 0.670170 0.876883
O O12 0.750000 0.750000 0.089929
O O13 0.507775 0.772192 0.093346
O O14 0.035242 0.593017 0.798592
O O15 0.953108 0.818207 0.847851
O O16 0.978380 0.185278 0.680758
O O17 0.857034 0.430208 0.639194
O O18 0.250000 0.250000 0.130182
#
# Coordination Sequence:
#
# PCOD9390612 Si02
#       8
#     8   8   8   8   8   8   8   8
#     4  11  22  41  63  89 122 160 215 270 329 386
#     4  10  21  33  56  93 131 172 199 244 321 389
#     4  11  23  37  59  90 127 165 209 257 311 388
#     4  12  23  37  62  88 124 170 208 258 323 390
#     4  10  21  35  59  86 125 168 215 257 309 389
#     4  11  22  36  59  88 122 163 209 257 319 389
#     4  11  19  35  57  91 134 163 204 255 312 391
#     4  10  23  43  62  83 118 165 218 274 331 388
#
# _framework density 21.862086999999999
#
# number of rings (size 3 to 8) (size 9 to 14) (size 15 to 20)
#    0.000    1.250    2.500    4.500    3.500    2.000 
#    0.000    0.625    0.000    6.000    0.000    3.500 
#    0.000    0.000    0.000    0.000    0.000    0.000 
#
# Total GULP energy -356732.398067 kJ/mol
# GULP energy per Si atom -5573.943720 kJ/mol
# Density = 2.181233 g / cm^3
# Si number density = 21.862087 Si / 1000 Ang^3
#
#
#
# Elastic Constant Matrix: (Units=GPa)
#
#
# Indices 1 2 3 4 5 6 
#
# 1 37.5221 26.0288 17.1685 0.0000 0.0000 0.0000
# 2 26.0288 171.2696 29.4819 0.0000 0.0000 0.0000
# 3 17.1685 29.4819 69.9440 0.0000 0.0000 0.0000
# 4 0.0000 0.0000 0.0000 31.2360 0.0000 0.0000
# 5 0.0000 0.0000 0.0000 0.0000 19.6567 0.0000
# 6 0.0000 0.0000 0.0000 0.0000 0.0000 39.5636
#
#
#
# Elastic Compliance Matrix: (Units=1/GPa)
#
#
# Indices 1 2 3 4 5 6 
#
# 1 0.032170 -0.003806 -0.006292 0.000000 0.000000 0.000000
# 2 -0.003806 0.006746 -0.001909 0.000000 0.000000 0.000000
# 3 -0.006292 -0.001909 0.016646 0.000000 0.000000 0.000000
# 4 0.000000 0.000000 0.000000 0.032014 0.000000 0.000000
# 5 0.000000 0.000000 0.000000 0.000000 0.050873 0.000000
# 6 0.000000 0.000000 0.000000 0.000000 0.000000 0.025276
#
#
# Mechanical properties :
#
#
# Convention : Reuss Voigt Hill
#
# Bulk Modulus (GPa) = 31.69817 47.12158 39.40987
# Shear Modulus (GPa) = 25.21988 31.82839 28.52413
#
# Velocity S-wave (km/s) = 3.40014 3.81973 3.61602
# Velocity P-wave (km/s) = 5.47222 6.40738 5.95818
#
# Compressibility (1/GPa) = 0.03154757
#
# Stress axis : x y z
#
# Youngs Moduli (GPa) = 31.08462 148.24032 60.07311
#
# Poissons Ratio (x) = 0.56420 0.37800
# Poissons Ratio (y) = 0.11831 0.11469
# Poissons Ratio (z) = 0.19559 0.28302
#
# Static dielectric constant tensor:
#      x y z
#    x 1.831050 0.000000 0.000000 
#    y 0.000000 1.896460 0.000000 
#    z 0.000000 0.000000 1.819840 
# 
# From -- ./inp_files/38983.got.cif
#   From: 2010.05.17/outbox.cif.g08.bks.cpg/sg48_20_cif.got.tgz:38983.got - 2010.06.03 20:39:00.
