data_PCOD9390055
_publ_section_title
;
Structure prediction by ZEFSAII (Michael W. Deem and Ramdas Pophale) SiO2 
 PCOD9390055
Probable space group: P N N N
;
_chemical_formula_sum "Si O2"
_cell_formula_units_Z 46
_cell_length_a 11.246477
_cell_length_b 19.378163
_cell_length_c 10.765250
_cell_angle_alpha 90.000000
_cell_angle_beta 90.000000
_cell_angle_gamma 90.000000
_cell_volume 2346.136218
_symmetry_space_group_name_H-M "P N N N"
_symmetry_group_IT_number 48
_space_group.IT_coordinate_system_code '2'
_symmetry_cell_setting 'orthorhombic'
loop_
_space_group_symop_operation_xyz
x,y,z
1/2-x,1/2-y,z
x,1/2-y,1/2-z
1/2-x,y,1/2-z
-x,-y,-z
1/2+x,1/2+y,-z
-x,1/2+y,1/2+z
1/2+x,-y,1/2+z
loop_
_atom_site_type_symbol
_atom_site_label
_atom_site_fract_x
_atom_site_fract_y
_atom_site_fract_z
Si Si1 0.775849 0.519364 0.469563
Si Si2 0.402946 0.149796 0.926587
Si Si3 0.464161 0.678171 0.687275
Si Si4 0.250000 0.579722 0.750000
Si Si5 0.250000 0.250000 0.750000
Si Si6 0.429016 0.536783 0.386975
Si Si7 0.882287 0.572619 0.690160
O O1 0.691027 0.586229 0.445332
O O2 0.802211 0.472968 0.351833
O O3 0.705577 0.468746 0.565471
O O4 0.881299 0.551341 0.548040
O O5 0.335017 0.204365 0.840323
O O6 0.515333 0.111015 0.864333
O O7 0.460442 0.177218 0.057316
O O8 0.428664 0.750000 0.750000
O O9 0.349420 0.627697 0.684774
O O10 0.552373 0.643245 0.785673
O O11 0.500000 0.500000 0.500000
O O12 0.442180 0.487157 0.270794
O O13 0.750000 0.579752 0.750000
#
# Coordination Sequence:
#
# PCOD9390055 Si02
#       7
#     8   8   8   4   2   8   8
#     4  10  20  38  68  95 128 155 215 283 324 376
#     4  11  22  45  62  92 135 171 205 275 334 387
#     4  12  25  41  66  89 137 182 217 260 323 408
#     4  12  24  44  64  96 128 178 224 270 326 388
#     4  12  30  40  62  98 134 176 230 254 336 428
#     4   9  15  36  65  85 122 165 200 261 333 370
#     4  10  19  36  66 102 119 164 218 267 336 384
#
# _framework density 19.606704000000001
#
# number of rings (size 3 to 8) (size 9 to 14) (size 15 to 20)
#    0.000    1.391    6.957    1.826    2.435    1.043 
#    3.130    0.000    0.000    0.000    0.000    0.000 
#    0.000    0.000    0.000    0.000    0.000    0.000 
#
# Total GULP energy -256268.271816 kJ/mol
# GULP energy per Si atom -5571.049387 kJ/mol
# Density = 1.956208 g / cm^3
# Si number density = 19.606704 Si / 1000 Ang^3
#
#
#
# Elastic Constant Matrix: (Units=GPa)
#
#
# Indices 1 2 3 4 5 6 
#
# 1 52.3528 23.8455 23.9740 0.0000 0.0000 0.0000
# 2 23.8455 84.9965 40.1933 0.0000 0.0000 0.0000
# 3 23.9740 40.1933 83.6811 0.0000 0.0000 0.0000
# 4 0.0000 0.0000 0.0000 23.6836 0.0000 0.0000
# 5 0.0000 0.0000 0.0000 0.0000 25.2280 0.0000
# 6 0.0000 0.0000 0.0000 0.0000 0.0000 32.2661
#
#
#
# Elastic Compliance Matrix: (Units=1/GPa)
#
#
# Indices 1 2 3 4 5 6 
#
# 1 0.023164 -0.004348 -0.004548 0.000000 0.000000 0.000000
# 2 -0.004348 0.016039 -0.006458 0.000000 0.000000 0.000000
# 3 -0.004548 -0.006458 0.016355 0.000000 0.000000 0.000000
# 4 0.000000 0.000000 0.000000 0.042223 0.000000 0.000000
# 5 0.000000 0.000000 0.000000 0.000000 0.039639 0.000000
# 6 0.000000 0.000000 0.000000 0.000000 0.000000 0.030992
#
#
# Mechanical properties :
#
#
# Convention : Reuss Voigt Hill
#
# Bulk Modulus (GPa) = 40.24132 44.11734 42.17933
# Shear Modulus (GPa) = 24.10757 25.10337 24.60547
#
# Velocity S-wave (km/s) = 3.51031 3.58207 3.54637
# Velocity P-wave (km/s) = 6.08264 6.29749 6.19100
#
# Compressibility (1/GPa) = 0.02485008
#
# Stress axis : x y z
#
# Youngs Moduli (GPa) = 43.16999 62.34836 61.14341
#
# Poissons Ratio (x) = 0.27109 0.27808
# Poissons Ratio (y) = 0.18770 0.39487
# Poissons Ratio (z) = 0.19633 0.40265
#
# Static dielectric constant tensor:
#      x y z
#    x 1.801840 0.000000 0.000000 
#    y 0.000000 1.690640 0.000000 
#    z 0.000000 0.000000 1.729340 
# 
# From -- ./inp_files/20098.got.cif
#   From: 2010.05.17/outbox.cif.g08.bks.cpg/sg48_11_cif.got.tgz:20098.got - 2010.06.03 20:39:00.
