data_PCOD9390587
_publ_section_title
;
Structure prediction by ZEFSAII (Michael W. Deem and Ramdas Pophale) SiO2 
 PCOD9390587
Probable space group: P N N N
;
_chemical_formula_sum "Si O2"
_cell_formula_units_Z 48
_cell_length_a 17.731557
_cell_length_b 9.038834
_cell_length_c 13.606037
_cell_angle_alpha 90.000000
_cell_angle_beta 90.000000
_cell_angle_gamma 90.000000
_cell_volume 2180.674930
_symmetry_space_group_name_H-M "P N N N"
_symmetry_group_IT_number 48
_space_group.IT_coordinate_system_code '2'
_symmetry_cell_setting 'orthorhombic'
loop_
_space_group_symop_operation_xyz
x,y,z
1/2-x,1/2-y,z
x,1/2-y,1/2-z
1/2-x,y,1/2-z
-x,-y,-z
1/2+x,1/2+y,-z
-x,1/2+y,1/2+z
1/2+x,-y,1/2+z
loop_
_atom_site_type_symbol
_atom_site_label
_atom_site_fract_x
_atom_site_fract_y
_atom_site_fract_z
Si Si1 0.508710 0.578980 0.721168
Si Si2 0.569797 0.394731 0.475055
Si Si3 0.993129 0.877614 0.085316
Si Si4 0.674134 0.825734 0.458053
Si Si5 0.333786 0.359791 0.340385
Si Si6 0.761265 0.078705 0.542181
O O1 0.518447 0.750000 0.750000
O O2 0.440865 0.596817 0.643763
O O3 0.504796 0.464296 0.811570
O O4 0.589246 0.548431 0.670660
O O5 0.500000 0.500000 0.500000
O O6 0.548490 0.249936 0.541872
O O7 0.656266 0.435841 0.492994
O O8 0.907257 0.816408 0.091538
O O9 0.000000 0.000000 0.000000
O O10 0.750000 0.750000 0.414048
O O11 0.662713 0.743042 0.562635
O O12 0.697574 0.996316 0.478130
O O13 0.325676 0.250000 0.250000
O O14 0.268766 0.478583 0.360878
O O15 0.750000 0.250000 0.559898
#
# Coordination Sequence:
#
# PCOD9390587 Si02
#       6
#     8   8   8   8   8   8
#     4  11  22  40  72 102 124 179 238 282 343 402
#     4  12  23  45  66  99 139 176 228 295 329 401
#     4  12  22  41  73 101 134 179 241 287 340 423
#     4  10  21  42  65  94 135 195 221 266 357 429
#     4  10  20  43  66  94 131 179 231 270 331 424
#     4  11  24  39  65 100 140 173 212 286 362 389
#
# _framework density 22.011533
#
# number of rings (size 3 to 8) (size 9 to 14) (size 15 to 20)
#    0.000    1.000    5.000    3.000    0.000    3.667 
#    0.000    5.833    0.000    3.000    0.000    0.000 
#    0.000    0.000    0.000    0.000    0.000    0.000 
#
# Total GULP energy -267462.315691 kJ/mol
# GULP energy per Si atom -5572.131577 kJ/mol
# Density = 2.196143 g / cm^3
# Si number density = 22.011533 Si / 1000 Ang^3
#
#
#
# Elastic Constant Matrix: (Units=GPa)
#
#
# Indices 1 2 3 4 5 6 
#
# 1 101.6351 3.4088 27.1126 0.0000 0.0000 0.0000
# 2 3.4088 121.8119 26.7364 0.0000 0.0000 0.0000
# 3 27.1126 26.7364 79.9690 0.0000 0.0000 0.0000
# 4 0.0000 0.0000 0.0000 31.0518 0.0000 0.0000
# 5 0.0000 0.0000 0.0000 0.0000 8.8977 0.0000
# 6 0.0000 0.0000 0.0000 0.0000 0.0000 28.6423
#
#
#
# Elastic Compliance Matrix: (Units=1/GPa)
#
#
# Indices 1 2 3 4 5 6 
#
# 1 0.010851 0.000544 -0.003861 0.000000 0.000000 0.000000
# 2 0.000544 0.008887 -0.003155 0.000000 0.000000 0.000000
# 3 -0.003861 -0.003155 0.014869 0.000000 0.000000 0.000000
# 4 0.000000 0.000000 0.000000 0.032204 0.000000 0.000000
# 5 0.000000 0.000000 0.000000 0.000000 0.112389 0.000000
# 6 0.000000 0.000000 0.000000 0.000000 0.000000 0.034913
#
#
# Mechanical properties :
#
#
# Convention : Reuss Voigt Hill
#
# Bulk Modulus (GPa) = 46.16492 46.43685 46.30088
# Shear Modulus (GPa) = 21.34218 30.12891 25.73554
#
# Velocity S-wave (km/s) = 3.11720 3.70371 3.42304
# Velocity P-wave (km/s) = 5.82877 6.27952 6.05834
#
# Compressibility (1/GPa) = 0.02166147
#
# Stress axis : x y z
#
# Youngs Moduli (GPa) = 92.15949 112.52704 67.25530
#
# Poissons Ratio (x) = -0.06118 0.25965
# Poissons Ratio (y) = -0.05011 0.21222
# Poissons Ratio (z) = 0.35579 0.35508
#
# Static dielectric constant tensor:
#      x y z
#    x 1.914790 0.000000 0.000000 
#    y 0.000000 1.840220 0.000000 
#    z 0.000000 0.000000 1.790240 
# 
# From -- ./inp_files/27878.got.cif
#   From: 2010.05.17/outbox.cif.g08.bks.cpg/sg48_14_cif.got.tgz:27878.got - 2010.06.03 20:39:00.
