data_PCOD9390603
_publ_section_title
;
Structure prediction by ZEFSAII (Michael W. Deem and Ramdas Pophale) SiO2 
 PCOD9390603
Probable space group: P N N N
;
_chemical_formula_sum "Si O2"
_cell_formula_units_Z 40
_cell_length_a 12.863749
_cell_length_b 18.473846
_cell_length_c 7.155425
_cell_angle_alpha 90.000000
_cell_angle_beta 90.000000
_cell_angle_gamma 90.000000
_cell_volume 1700.436077
_symmetry_space_group_name_H-M "P N N N"
_symmetry_group_IT_number 48
_space_group.IT_coordinate_system_code '2'
_symmetry_cell_setting 'orthorhombic'
loop_
_space_group_symop_operation_xyz
x,y,z
1/2-x,1/2-y,z
x,1/2-y,1/2-z
1/2-x,y,1/2-z
-x,-y,-z
1/2+x,1/2+y,-z
-x,1/2+y,1/2+z
1/2+x,-y,1/2+z
loop_
_atom_site_type_symbol
_atom_site_label
_atom_site_fract_x
_atom_site_fract_y
_atom_site_fract_z
Si Si1 0.388690 0.576901 0.847846
Si Si2 0.850096 0.790406 0.948474
Si Si3 0.932980 0.180745 0.849891
Si Si4 0.094187 0.949042 0.438546
Si Si5 0.139270 0.451507 0.377969
O O1 0.369507 0.646392 0.977683
O O2 0.140090 0.581609 0.868828
O O3 0.346754 0.505060 0.947801
O O4 0.514483 0.566751 0.863529
O O5 0.750000 0.750000 0.030586
O O6 0.873030 0.750000 0.750000
O O7 0.815373 0.872874 0.912758
O O8 0.954430 0.794136 0.071098
O O9 0.884754 0.250000 0.750000
O O10 0.940608 0.115551 0.699014
O O11 0.159053 0.005077 0.313846
O O12 0.000000 0.000000 0.500000
#
# Coordination Sequence:
#
# PCOD9390603 Si02
#       5
#     8   8   8   8   8
#     4   8  15  29  48  68  85 111 158 218 267 304
#     4  10  21  34  45  61  96 143 180 212 244 284
#     4  10  21  29  46  71  95 126 170 215 256 310
#     4   9  16  28  50  68  83 118 164 217 267 305
#     4   8  15  29  46  65  83 114 173 215 245 302
#
# _framework density 23.523377
#
# number of rings (size 3 to 8) (size 9 to 14) (size 15 to 20)
#    0.000    3.000    0.000    3.600    8.400    0.400 
#    0.000    0.000    0.000    0.000    0.000    0.000 
#    0.000    0.000    0.000   57.600    0.000  160.000 
#
# Total GULP energy -223429.865146 kJ/mol
# GULP energy per Si atom -5585.746629 kJ/mol
# Density = 2.346984 g / cm^3
# Si number density = 23.523377 Si / 1000 Ang^3
#
#
#
# Elastic Constant Matrix: (Units=GPa)
#
#
# Indices 1 2 3 4 5 6 
#
# 1 70.2383 37.3479 29.9897 0.0000 0.0000 0.0000
# 2 37.3479 187.2543 84.5280 0.0000 0.0000 0.0000
# 3 29.9897 84.5280 185.7199 0.0000 0.0000 0.0000
# 4 0.0000 0.0000 0.0000 18.8515 0.0000 0.0000
# 5 0.0000 0.0000 0.0000 0.0000 24.5963 0.0000
# 6 0.0000 0.0000 0.0000 0.0000 0.0000 15.6797
#
#
#
# Elastic Compliance Matrix: (Units=1/GPa)
#
#
# Indices 1 2 3 4 5 6 
#
# 1 0.016228 -0.002585 -0.001444 0.000000 0.000000 0.000000
# 2 -0.002585 0.007133 -0.002829 0.000000 0.000000 0.000000
# 3 -0.001444 -0.002829 0.006905 0.000000 0.000000 0.000000
# 4 0.000000 0.000000 0.000000 0.053046 0.000000 0.000000
# 5 0.000000 0.000000 0.000000 0.000000 0.040656 0.000000
# 6 0.000000 0.000000 0.000000 0.000000 0.000000 0.063777
#
#
# Mechanical properties :
#
#
# Convention : Reuss Voigt Hill
#
# Bulk Modulus (GPa) = 60.42113 82.99373 71.70743
# Shear Modulus (GPa) = 24.15706 31.24862 27.70284
#
# Velocity S-wave (km/s) = 3.20806 3.64869 3.43545
# Velocity P-wave (km/s) = 6.28200 7.28756 6.80338
#
# Compressibility (1/GPa) = 0.01655050
#
# Stress axis : x y z
#
# Youngs Moduli (GPa) = 61.62082 140.19448 144.81741
#
# Poissons Ratio (x) = 0.36239 0.20912
# Poissons Ratio (y) = 0.15928 0.40970
# Poissons Ratio (z) = 0.08898 0.39662
#
# Static dielectric constant tensor:
#      x y z
#    x 2.033460 0.000000 0.000000 
#    y 0.000000 1.852380 0.000000 
#    z 0.000000 0.000000 1.857210 
# 
# From -- ./inp_files/10715.got.cif
#   From: 2010.05.17/outbox.cif.g08.bks.cpg/sg48_6_cif.got.tgz:10715.got - 2010.06.03 20:39:00.
