data_PCOD9390174
_publ_section_title
;
Structure prediction by ZEFSAII (Michael W. Deem and Ramdas Pophale) SiO2 
 PCOD9390174
Probable space group: P N N N
;
_chemical_formula_sum "Si O2"
_cell_formula_units_Z 48
_cell_length_a 18.110831
_cell_length_b 24.968002
_cell_length_c 5.283556
_cell_angle_alpha 90.000000
_cell_angle_beta 90.000000
_cell_angle_gamma 90.000000
_cell_volume 2389.177869
_symmetry_space_group_name_H-M "P N N N"
_symmetry_group_IT_number 48
_space_group.IT_coordinate_system_code '2'
_symmetry_cell_setting 'orthorhombic'
loop_
_space_group_symop_operation_xyz
x,y,z
1/2-x,1/2-y,z
x,1/2-y,1/2-z
1/2-x,y,1/2-z
-x,-y,-z
1/2+x,1/2+y,-z
-x,1/2+y,1/2+z
1/2+x,-y,1/2+z
loop_
_atom_site_type_symbol
_atom_site_label
_atom_site_fract_x
_atom_site_fract_y
_atom_site_fract_z
Si Si1 0.750000 0.064722 0.750000
Si Si2 0.647550 0.147941 0.474224
Si Si3 0.867999 0.449717 0.137591
Si Si4 0.575700 0.533290 0.010101
Si Si5 0.965807 0.304837 0.860782
Si Si6 0.970677 0.586483 0.991621
Si Si7 0.148504 0.750000 0.750000
O O1 0.692101 0.106927 0.639509
O O2 0.800905 0.034717 0.545238
O O3 0.639958 0.111703 0.225265
O O4 0.573564 0.164166 0.625541
O O5 0.686694 0.203865 0.412262
O O6 0.868208 0.488338 0.383789
O O7 0.950478 0.446398 0.017351
O O8 0.567963 0.573551 0.244174
O O9 0.500000 0.500000 0.000000
O O10 0.577206 0.564588 0.744879
O O11 0.001696 0.250000 0.750000
O O12 0.012579 0.350042 0.005846
O O13 0.903737 0.282112 0.052956
#
# Coordination Sequence:
#
# PCOD9390174 Si02
#       7
#     4   8   8   8   8   8   4
#     4  12  24  34  55  68 104 142 186 249 282 362
#     4  11  21  38  49  73  98 144 188 239 290 337
#     4  11  22  36  52  75 102 135 186 235 296 337
#     4  10  22  33  58  78 102 133 176 239 280 336
#     4  10  20  32  55  74 106 137 183 236 285 352
#     4  11  20  37  56  80 102 135 180 234 283 340
#     4  10  20  36  53  68 100 144 184 247 284 342
#
# _framework density 20.090595
#
# number of rings (size 3 to 8) (size 9 to 14) (size 15 to 20)
#    0.000    1.333    3.333    4.500    4.667    0.000 
#    0.000   17.083    0.000    0.000    0.000    0.000 
#    0.000    0.000    0.000    0.000    0.000   12.500 
#
# Total GULP energy -267634.219869 kJ/mol
# GULP energy per Si atom -5575.712914 kJ/mol
# Density = 2.004487 g / cm^3
# Si number density = 20.090595 Si / 1000 Ang^3
#
#
#
# Elastic Constant Matrix: (Units=GPa)
#
#
# Indices 1 2 3 4 5 6 
#
# 1 34.5727 36.9602 26.3351 0.0000 0.0000 0.0000
# 2 36.9602 115.3393 41.8640 0.0000 0.0000 0.0000
# 3 26.3351 41.8640 115.3790 0.0000 0.0000 0.0000
# 4 0.0000 0.0000 0.0000 36.2257 0.0000 0.0000
# 5 0.0000 0.0000 0.0000 0.0000 33.4725 0.0000
# 6 0.0000 0.0000 0.0000 0.0000 0.0000 7.5571
#
#
#
# Elastic Compliance Matrix: (Units=1/GPa)
#
#
# Indices 1 2 3 4 5 6 
#
# 1 0.047477 -0.012992 -0.006123 0.000000 0.000000 0.000000
# 2 -0.012992 0.013540 -0.001948 0.000000 0.000000 0.000000
# 3 -0.006123 -0.001948 0.010771 0.000000 0.000000 0.000000
# 4 0.000000 0.000000 0.000000 0.027605 0.000000 0.000000
# 5 0.000000 0.000000 0.000000 0.000000 0.029875 0.000000
# 6 0.000000 0.000000 0.000000 0.000000 0.000000 0.132326
#
#
# Mechanical properties :
#
#
# Convention : Reuss Voigt Hill
#
# Bulk Modulus (GPa) = 33.71011 52.84553 43.27782
# Shear Modulus (GPa) = 15.94354 26.12650 21.03502
#
# Velocity S-wave (km/s) = 2.82011 3.61007 3.23926
# Velocity P-wave (km/s) = 5.23637 6.61343 5.96477
#
# Compressibility (1/GPa) = 0.02966470
#
# Stress axis : x y z
#
# Youngs Moduli (GPa) = 21.06276 73.85479 92.83972
#
# Poissons Ratio (x) = 0.95949 0.56843
# Poissons Ratio (y) = 0.27364 0.18081
# Poissons Ratio (z) = 0.12896 0.14384
#
# Static dielectric constant tensor:
#      x y z
#    x 1.790480 0.000000 0.000000 
#    y 0.000000 1.748080 0.000000 
#    z 0.000000 0.000000 1.877340 
# 
# From -- ./inp_files/5950.got.cif
#   From: 2010.05.17/outbox.cif.g08.bks.cpg/sg48_3_cif.got.tgz:5950.got - 2010.06.03 20:39:00.
