data_PCOD9390168
_publ_section_title
;
Structure prediction by ZEFSAII (Michael W. Deem and Ramdas Pophale) SiO2 
 PCOD9390168
Probable space group: P N N N
;
_chemical_formula_sum "Si O2"
_cell_formula_units_Z 32
_cell_length_a 10.820429
_cell_length_b 12.181042
_cell_length_c 10.081821
_cell_angle_alpha 90.000000
_cell_angle_beta 90.000000
_cell_angle_gamma 90.000000
_cell_volume 1328.825344
_symmetry_space_group_name_H-M "P N N N"
_symmetry_group_IT_number 48
_space_group.IT_coordinate_system_code '2'
_symmetry_cell_setting 'orthorhombic'
loop_
_space_group_symop_operation_xyz
x,y,z
1/2-x,1/2-y,z
x,1/2-y,1/2-z
1/2-x,y,1/2-z
-x,-y,-z
1/2+x,1/2+y,-z
-x,1/2+y,1/2+z
1/2+x,-y,1/2+z
loop_
_atom_site_type_symbol
_atom_site_label
_atom_site_fract_x
_atom_site_fract_y
_atom_site_fract_z
Si Si1 0.160616 0.652095 0.599168
Si Si2 0.567403 0.879310 0.476356
Si Si3 0.042832 0.474498 0.790101
Si Si4 0.690337 0.529836 0.554771
O O1 0.250000 0.750000 0.625132
O O2 0.383410 0.576891 0.776771
O O3 0.234845 0.578853 0.490939
O O4 0.032883 0.699655 0.539074
O O5 0.567392 0.879374 0.317788
O O6 0.698563 0.881737 0.548737
O O7 0.500000 0.000000 0.500000
O O8 0.900326 0.507530 0.821410
O O9 0.103387 0.443977 0.929160
#
# Coordination Sequence:
#
# PCOD9390168 Si02
#       4
#     8   8   8   8
#     4  10  20  32  51  83 119 150 190 248 297 332
#     4   8  16  29  48  76 111 150 190 231 275 343
#     4   9  17  31  54  80 110 152 196 236 282 353
#     4   9  17  31  54  83 109 150 201 229 277 357
#
# _framework density 24.081420000000001
#
# number of rings (size 3 to 8) (size 9 to 14) (size 15 to 20)
#    0.000    3.500    0.000    3.000    0.000   11.000 
#    0.000    2.500    0.000    7.500    0.000   56.000 
#    0.000    0.000    0.000    0.000    0.000    0.000 
#
# Total GULP energy -178330.822946 kJ/mol
# GULP energy per Si atom -5572.838217 kJ/mol
# Density = 2.402661 g / cm^3
# Si number density = 24.081420 Si / 1000 Ang^3
#
#
#
# Elastic Constant Matrix: (Units=GPa)
#
#
# Indices 1 2 3 4 5 6 
#
# 1 225.1242 38.2074 44.2821 0.0000 0.0000 0.0000
# 2 38.2074 49.0070 15.0803 0.0000 0.0000 0.0000
# 3 44.2821 15.0803 78.8876 0.0000 0.0000 0.0000
# 4 0.0000 0.0000 0.0000 8.7467 0.0000 0.0000
# 5 0.0000 0.0000 0.0000 0.0000 54.2817 0.0000
# 6 0.0000 0.0000 0.0000 0.0000 0.0000 34.0292
#
#
#
# Elastic Compliance Matrix: (Units=1/GPa)
#
#
# Indices 1 2 3 4 5 6 
#
# 1 0.005522 -0.003561 -0.002419 0.000000 0.000000 0.000000
# 2 -0.003561 0.023977 -0.002585 0.000000 0.000000 0.000000
# 3 -0.002419 -0.002585 0.014528 0.000000 0.000000 0.000000
# 4 0.000000 0.000000 0.000000 0.114328 0.000000 0.000000
# 5 0.000000 0.000000 0.000000 0.000000 0.018422 0.000000
# 6 0.000000 0.000000 0.000000 0.000000 0.000000 0.029386
#
#
# Mechanical properties :
#
#
# Convention : Reuss Voigt Hill
#
# Bulk Modulus (GPa) = 37.17737 60.90647 49.04192
# Shear Modulus (GPa) = 21.52765 36.44146 28.98456
#
# Velocity S-wave (km/s) = 2.99315 3.89429 3.47307
# Velocity P-wave (km/s) = 5.23612 6.75036 6.04088
#
# Compressibility (1/GPa) = 0.02689809
#
# Stress axis : x y z
#
# Youngs Moduli (GPa) = 181.08845 41.70707 68.83145
#
# Poissons Ratio (x) = 0.14851 0.16651
# Poissons Ratio (y) = 0.64483 0.17790
# Poissons Ratio (z) = 0.43806 0.10780
#
# Static dielectric constant tensor:
#      x y z
#    x 2.078380 0.000000 0.000000 
#    y 0.000000 2.075050 0.000000 
#    z 0.000000 0.000000 2.145310 
# 
# From -- ./inp_files/19441.got.cif
#   From: 2010.05.17/outbox.cif.g08.bks.cpg/sg48_10_cif.got.tgz:19441.got - 2010.06.03 20:39:00.
