data_PCOD9390902
_publ_section_title
;
Structure prediction by ZEFSAII (Michael W. Deem and Ramdas Pophale) SiO2 
 PCOD9390902
Probable space group: P N N N
;
_chemical_formula_sum "Si O2"
_cell_formula_units_Z 52
_cell_length_a 9.666249
_cell_length_b 25.460252
_cell_length_c 8.870094
_cell_angle_alpha 90.000000
_cell_angle_beta 90.000000
_cell_angle_gamma 90.000000
_cell_volume 2182.975685
_symmetry_space_group_name_H-M "P N N N"
_symmetry_group_IT_number 48
_space_group.IT_coordinate_system_code '2'
_symmetry_cell_setting 'orthorhombic'
loop_
_space_group_symop_operation_xyz
x,y,z
1/2-x,1/2-y,z
x,1/2-y,1/2-z
1/2-x,y,1/2-z
-x,-y,-z
1/2+x,1/2+y,-z
-x,1/2+y,1/2+z
1/2+x,-y,1/2+z
loop_
_atom_site_type_symbol
_atom_site_label
_atom_site_fract_x
_atom_site_fract_y
_atom_site_fract_z
Si Si1 0.348618 0.599541 0.597290
Si Si2 0.122768 0.823448 0.987155
Si Si3 0.090172 0.173781 0.501217
Si Si4 0.444738 0.079750 0.553870
Si Si5 0.250000 0.123623 0.750000
Si Si6 0.946890 0.250000 0.750000
Si Si7 0.720145 0.010463 0.574629
Si Si8 0.510891 0.750000 0.750000
O O1 0.250000 0.596268 0.750000
O O2 0.261989 0.643758 0.510210
O O3 0.501253 0.625362 0.574859
O O4 0.334310 0.542316 0.521429
O O5 0.090973 0.787635 0.844369
O O6 0.126240 0.787570 0.132582
O O7 0.999406 0.865825 0.988159
O O8 0.223881 0.153686 0.593119
O O9 0.099935 0.215280 0.365367
O O10 0.024760 0.208877 0.638291
O O11 0.388204 0.090533 0.721217
O O12 0.580485 0.044106 0.550737
O O13 0.321176 0.047889 0.475435
O O14 0.750000 0.011342 0.750000
#
# Coordination Sequence:
#
# PCOD9390902 Si02
#       8
#     8   8   8   8   4   4   8   4
#     4  11  23  41  68 100 140 177 219 299 362 420
#     4  10  21  41  66  96 142 171 232 283 347 416
#     4  11  24  42  67  98 141 183 233 287 346 416
#     4  10  23  44  66  94 135 173 224 292 340 410
#     4  12  24  45  66  96 134 182 234 281 332 426
#     4  10  22  40  64 100 132 193 229 274 342 412
#     4  10  23  44  71  97 131 174 234 287 360 421
#     4  10  22  41  65 106 134 184 227 281 358 410
#
# _framework density 23.820695000000001
#
# number of rings (size 3 to 8) (size 9 to 14) (size 15 to 20)
#    0.000    1.538    3.077    0.923    3.231    5.231 
#    2.769    2.308    0.000    0.000    0.000    0.000 
#    0.000    0.000    0.000    0.000    0.000    0.000 
#
# Total GULP energy -290061.550802 kJ/mol
# GULP energy per Si atom -5578.106746 kJ/mol
# Density = 2.376648 g / cm^3
# Si number density = 23.820695 Si / 1000 Ang^3
#
#
#
# Elastic Constant Matrix: (Units=GPa)
#
#
# Indices 1 2 3 4 5 6 
#
# 1 60.0971 31.7418 14.3151 0.0000 0.0000 0.0000
# 2 31.7418 126.8409 44.9764 0.0000 0.0000 0.0000
# 3 14.3151 44.9764 108.4489 0.0000 0.0000 0.0000
# 4 0.0000 0.0000 0.0000 27.1242 0.0000 0.0000
# 5 0.0000 0.0000 0.0000 0.0000 42.9630 0.0000
# 6 0.0000 0.0000 0.0000 0.0000 0.0000 9.0524
#
#
#
# Elastic Compliance Matrix: (Units=1/GPa)
#
#
# Indices 1 2 3 4 5 6 
#
# 1 0.019211 -0.004582 -0.000635 0.000000 0.000000 0.000000
# 2 -0.004582 0.010336 -0.003682 0.000000 0.000000 0.000000
# 3 -0.000635 -0.003682 0.010832 0.000000 0.000000 0.000000
# 4 0.000000 0.000000 0.000000 0.036867 0.000000 0.000000
# 5 0.000000 0.000000 0.000000 0.000000 0.023276 0.000000
# 6 0.000000 0.000000 0.000000 0.000000 0.000000 0.110467
#
#
# Mechanical properties :
#
#
# Convention : Reuss Voigt Hill
#
# Bulk Modulus (GPa) = 44.28676 53.05039 48.66858
# Shear Modulus (GPa) = 21.15813 29.45149 25.30481
#
# Velocity S-wave (km/s) = 2.98354 3.52004 3.26284
# Velocity P-wave (km/s) = 5.52275 6.23217 5.88815
#
# Compressibility (1/GPa) = 0.02258011
#
# Stress axis : x y z
#
# Youngs Moduli (GPa) = 52.05247 96.74800 92.32127
#
# Poissons Ratio (x) = 0.44333 0.05867
# Poissons Ratio (y) = 0.23852 0.33991
# Poissons Ratio (z) = 0.03308 0.35621
#
# Static dielectric constant tensor:
#      x y z
#    x 2.013800 0.000000 0.000000 
#    y 0.000000 1.942020 0.000000 
#    z 0.000000 0.000000 3.176560 
# 
# From -- ./inp_files/11430.got.cif
#   From: 2010.05.17/outbox.cif.g08.bks.cpg/sg48_6_cif.got.tgz:11430.got - 2010.06.03 20:39:00.
