data_PCOD9390454
_publ_section_title
;
Structure prediction by ZEFSAII (Michael W. Deem and Ramdas Pophale) SiO2 
 PCOD9390454
Probable space group: P N N N
;
_chemical_formula_sum "Si O2"
_cell_formula_units_Z 34
_cell_length_a 23.526956
_cell_length_b 5.678873
_cell_length_c 11.279571
_cell_angle_alpha 90.000000
_cell_angle_beta 90.000000
_cell_angle_gamma 90.000000
_cell_volume 1507.025077
_symmetry_space_group_name_H-M "P N N N"
_symmetry_group_IT_number 48
_space_group.IT_coordinate_system_code '2'
_symmetry_cell_setting 'orthorhombic'
loop_
_space_group_symop_operation_xyz
x,y,z
1/2-x,1/2-y,z
x,1/2-y,1/2-z
1/2-x,y,1/2-z
-x,-y,-z
1/2+x,1/2+y,-z
-x,1/2+y,1/2+z
1/2+x,-y,1/2+z
loop_
_atom_site_type_symbol
_atom_site_label
_atom_site_fract_x
_atom_site_fract_y
_atom_site_fract_z
Si Si1 0.931710 0.296351 0.613034
Si Si2 0.853500 0.505761 0.317886
Si Si3 0.695003 0.088032 0.567083
Si Si4 0.474806 0.658770 0.882443
Si Si5 0.250000 0.250000 0.250000
O O1 0.947697 0.250000 0.750000
O O2 0.864122 0.290161 0.603391
O O3 0.954399 0.173370 0.491416
O O4 0.964391 0.542753 0.589760
O O5 0.845892 0.250000 0.250000
O O6 0.815081 0.503844 0.434895
O O7 0.919281 0.505930 0.360423
O O8 0.842546 0.750000 0.250000
O O9 0.750000 0.250000 0.567785
O O10 0.709008 0.894734 0.664339
O O11 0.483115 0.750000 0.750000
#
# Coordination Sequence:
#
# PCOD9390454 Si02
#       5
#     8   8   8   8   2
#     4  10  20  38  63  92 134 182 235 283 360 430
#     4  10  23  46  75 107 142 182 234 299 364 430
#     4  11  26  46  65  98 140 184 246 295 354 420
#     4   9  20  38  62 101 140 173 225 295 357 431
#     4  12  26  44  66  90 140 184 238 306 336 424
#
# _framework density 22.561002999999999
#
# number of rings (size 3 to 8) (size 9 to 14) (size 15 to 20)
#    0.000    1.882    0.000    2.471    4.941    1.412 
#    4.235    0.000    0.000    0.000    0.000    0.000 
#    0.000    0.000    0.000    0.000    0.000    0.000 
#
# Total GULP energy -189289.337655 kJ/mol
# GULP energy per Si atom -5567.333460 kJ/mol
# Density = 2.250965 g / cm^3
# Si number density = 22.561003 Si / 1000 Ang^3
#
#
#
# Elastic Constant Matrix: (Units=GPa)
#
#
# Indices 1 2 3 4 5 6 
#
# 1 129.7955 47.2771 44.1291 0.0000 0.0000 0.0000
# 2 47.2771 91.8117 69.7033 0.0000 0.0000 0.0000
# 3 44.1291 69.7033 210.4144 0.0000 0.0000 0.0000
# 4 0.0000 0.0000 0.0000 191.7945 0.0000 0.0000
# 5 0.0000 0.0000 0.0000 0.0000 56.1227 0.0000
# 6 0.0000 0.0000 0.0000 0.0000 0.0000 57.6837
#
#
#
# Elastic Compliance Matrix: (Units=1/GPa)
#
#
# Indices 1 2 3 4 5 6 
#
# 1 0.009522 -0.004525 -0.000498 0.000000 0.000000 0.000000
# 2 -0.004525 0.016702 -0.004584 0.000000 0.000000 0.000000
# 3 -0.000498 -0.004584 0.006375 0.000000 0.000000 0.000000
# 4 0.000000 0.000000 0.000000 0.005214 0.000000 0.000000
# 5 0.000000 0.000000 0.000000 0.000000 0.017818 0.000000
# 6 0.000000 0.000000 0.000000 0.000000 0.000000 0.017336
#
#
# Mechanical properties :
#
#
# Convention : Reuss Voigt Hill
#
# Bulk Modulus (GPa) = 74.70705 83.80449 79.25577
# Shear Modulus (GPa) = 51.73678 79.18096 65.45887
#
# Velocity S-wave (km/s) = 4.79393 5.93065 5.39232
# Velocity P-wave (km/s) = 7.98921 9.17187 8.60089
#
# Compressibility (1/GPa) = 0.01338562
#
# Stress axis : x y z
#
# Youngs Moduli (GPa) = 105.02014 59.87302 156.85245
#
# Poissons Ratio (x) = 0.27093 0.07811
# Poissons Ratio (y) = 0.47523 0.71898
# Poissons Ratio (z) = 0.05230 0.27445
#
# Static dielectric constant tensor:
#      x y z
#    x 1.828760 0.000000 0.000000 
#    y 0.000000 1.910100 0.000000 
#    z 0.000000 0.000000 1.985790 
# 
# From -- ./inp_files/2157.got.cif
#   From: 2010.05.17/outbox.cif.g08.bks.cpg/sg48_2_cif.got.tgz:2157.got - 2010.06.03 20:39:00.
