data_PCOD9390466
_publ_section_title
;
Structure prediction by ZEFSAII (Michael W. Deem and Ramdas Pophale) SiO2 
 PCOD9390466
Probable space group: P N N N
;
_chemical_formula_sum "Si O2"
_cell_formula_units_Z 64
_cell_length_a 32.001849
_cell_length_b 11.914021
_cell_length_c 8.243286
_cell_angle_alpha 90.000000
_cell_angle_beta 90.000000
_cell_angle_gamma 90.000000
_cell_volume 3142.923432
_symmetry_space_group_name_H-M "P N N N"
_symmetry_group_IT_number 48
_space_group.IT_coordinate_system_code '2'
_symmetry_cell_setting 'orthorhombic'
loop_
_space_group_symop_operation_xyz
x,y,z
1/2-x,1/2-y,z
x,1/2-y,1/2-z
1/2-x,y,1/2-z
-x,-y,-z
1/2+x,1/2+y,-z
-x,1/2+y,1/2+z
1/2+x,-y,1/2+z
loop_
_atom_site_type_symbol
_atom_site_label
_atom_site_fract_x
_atom_site_fract_y
_atom_site_fract_z
Si Si1 0.346609 0.331788 0.472861
Si Si2 0.433216 0.437449 0.576481
Si Si3 0.080337 0.827544 0.444106
Si Si4 0.611028 0.097701 0.587550
Si Si5 0.757925 0.884125 0.426852
Si Si6 0.541571 0.563986 0.057658
Si Si7 0.006688 0.282330 0.070815
Si Si8 0.175544 0.410165 0.392402
O O1 0.390716 0.370727 0.541262
O O2 0.307117 0.395176 0.548660
O O3 0.340686 0.197402 0.496754
O O4 0.339254 0.368322 0.285335
O O5 0.421700 0.567699 0.563500
O O6 0.453513 0.417660 0.751033
O O7 0.467757 0.398058 0.444258
O O8 0.108948 0.721614 0.489115
O O9 0.095271 0.877179 0.271622
O O10 0.032650 0.782349 0.450104
O O11 0.578921 0.013125 0.503799
O O12 0.653878 0.029521 0.581719
O O13 0.750000 0.750000 0.422651
O O14 0.750000 0.933707 0.250000
O O15 0.724731 0.921085 0.564402
O O16 0.500000 0.500000 0.000000
O O17 0.539278 0.685846 0.977090
O O18 0.991439 0.250000 0.250000
#
# Coordination Sequence:
#
# PCOD9390466 Si02
#       8
#     8   8   8   8   8   8   8   8
#     4  10  21  38  61  95 130 159 204 254 324 392
#     4  12  25  39  63  93 123 163 217 276 321 380
#     4  11  24  43  61  84 124 170 222 267 319 381
#     4  11  23  40  64  85 123 166 217 264 315 381
#     4   9  19  36  61  94 132 162 193 249 324 397
#     4  12  24  41  62  88 124 165 216 269 329 381
#     4  12  25  42  63  87 125 169 216 271 331 388
#     4  10  20  38  64  93 127 166 202 251 323 395
#
# _framework density 20.363206999999999
#
# number of rings (size 3 to 8) (size 9 to 14) (size 15 to 20)
#    0.000    1.125    2.500    4.125    5.250    1.500 
#    2.250    0.000    0.000    0.750    0.000    0.875 
#    0.000    0.000    0.000    0.000    0.000    0.000 
#
# Total GULP energy -357214.042736 kJ/mol
# GULP energy per Si atom -5581.469418 kJ/mol
# Density = 2.031686 g / cm^3
# Si number density = 20.363207 Si / 1000 Ang^3
#
#
#
# Elastic Constant Matrix: (Units=GPa)
#
#
# Indices 1 2 3 4 5 6 
#
# 1 102.5910 22.6179 35.1160 0.0000 0.0000 0.0000
# 2 22.6179 102.5149 12.9524 0.0000 0.0000 0.0000
# 3 35.1160 12.9524 62.9435 0.0000 0.0000 0.0000
# 4 0.0000 0.0000 0.0000 19.1724 0.0000 0.0000
# 5 0.0000 0.0000 0.0000 0.0000 15.7063 0.0000
# 6 0.0000 0.0000 0.0000 0.0000 0.0000 9.3505
#
#
#
# Elastic Compliance Matrix: (Units=1/GPa)
#
#
# Indices 1 2 3 4 5 6 
#
# 1 0.012403 -0.001912 -0.006526 0.000000 0.000000 0.000000
# 2 -0.001912 0.010310 -0.001055 0.000000 0.000000 0.000000
# 3 -0.006526 -0.001055 0.019745 0.000000 0.000000 0.000000
# 4 0.000000 0.000000 0.000000 0.052158 0.000000 0.000000
# 5 0.000000 0.000000 0.000000 0.000000 0.063669 0.000000
# 6 0.000000 0.000000 0.000000 0.000000 0.000000 0.106947
#
#
# Mechanical properties :
#
#
# Convention : Reuss Voigt Hill
#
# Bulk Modulus (GPa) = 42.60377 45.49133 44.04755
# Shear Modulus (GPa) = 17.12088 22.00337 19.56212
#
# Velocity S-wave (km/s) = 2.90276 3.29073 3.10281
# Velocity P-wave (km/s) = 5.67468 6.06853 5.87491
#
# Compressibility (1/GPa) = 0.02347210
#
# Stress axis : x y z
#
# Youngs Moduli (GPa) = 80.62722 96.99526 50.64521
#
# Poissons Ratio (x) = 0.18544 0.33051
# Poissons Ratio (y) = 0.15415 0.05343
# Poissons Ratio (z) = 0.52618 0.10232
#
# Static dielectric constant tensor:
#      x y z
#    x 1.726950 0.000000 0.000000 
#    y 0.000000 1.755810 0.000000 
#    z 0.000000 0.000000 1.726510 
# 
# From -- ./inp_files/16944.got.cif
#   From: 2010.05.17/outbox.cif.g08.bks.cpg/sg48_9_cif.got.tgz:16944.got - 2010.06.03 20:39:00.
