data_PCOD9390560
_publ_section_title
;
Structure prediction by ZEFSAII (Michael W. Deem and Ramdas Pophale) SiO2 
 PCOD9390560
Probable space group: P N N N
;
_chemical_formula_sum "Si O2"
_cell_formula_units_Z 64
_cell_length_a 13.248132
_cell_length_b 19.377095
_cell_length_c 11.644647
_cell_angle_alpha 90.000000
_cell_angle_beta 90.000000
_cell_angle_gamma 90.000000
_cell_volume 2989.300968
_symmetry_space_group_name_H-M "P N N N"
_symmetry_group_IT_number 48
_space_group.IT_coordinate_system_code '2'
_symmetry_cell_setting 'orthorhombic'
loop_
_space_group_symop_operation_xyz
x,y,z
1/2-x,1/2-y,z
x,1/2-y,1/2-z
1/2-x,y,1/2-z
-x,-y,-z
1/2+x,1/2+y,-z
-x,1/2+y,1/2+z
1/2+x,-y,1/2+z
loop_
_atom_site_type_symbol
_atom_site_label
_atom_site_fract_x
_atom_site_fract_y
_atom_site_fract_z
Si Si1 0.070892 0.121242 0.812279
Si Si2 0.912392 0.948114 0.610400
Si Si3 0.391660 0.527005 0.739441
Si Si4 0.435828 0.928742 0.514803
Si Si5 0.007486 0.845678 0.434538
Si Si6 0.700034 0.428259 0.495309
Si Si7 0.133805 0.175482 0.219540
Si Si8 0.639507 0.718841 0.023414
O O1 0.146830 0.178819 0.857354
O O2 0.011747 0.145184 0.699927
O O3 0.127977 0.048578 0.792215
O O4 0.992735 0.116157 0.918658
O O5 0.890916 0.890988 0.706243
O O6 0.008447 0.985720 0.663622
O O7 0.943251 0.903487 0.501056
O O8 0.834900 0.005463 0.569769
O O9 0.422896 0.576934 0.845696
O O10 0.316210 0.555901 0.641769
O O11 0.318152 0.922759 0.480374
O O12 0.500000 0.000000 0.500000
O O13 0.122961 0.865430 0.471279
O O14 0.951446 0.774586 0.471215
O O15 0.083906 0.250000 0.250000
O O16 0.250000 0.183471 0.250000
O O17 0.121353 0.167622 0.084092
O O18 0.750000 0.750000 0.998974
#
# Coordination Sequence:
#
# PCOD9390560 Si02
#       8
#     8   8   8   8   8   8   8   8
#     4  11  23  42  60  95 141 170 229 280 335 418
#     4  11  20  38  71  95 131 174 223 275 342 402
#     4  10  20  41  64  99 135 172 220 286 340 407
#     4  10  24  41  60  97 137 172 220 287 350 403
#     4  11  22  41  64  95 130 176 229 274 327 419
#     4  11  22  42  70  96 131 184 231 278 346 425
#     4  11  21  39  60  95 138 170 225 279 330 404
#     4  12  25  44  66  98 136 182 226 279 355 409
#
# _framework density 21.409686000000001
#
# number of rings (size 3 to 8) (size 9 to 14) (size 15 to 20)
#    0.000    1.125    5.000    2.250    0.000    7.500 
#    4.500    0.625    0.000    1.500    0.000    1.750 
#    0.000    0.000    0.000    0.000    0.000    0.000 
#
# Total GULP energy -356605.339913 kJ/mol
# GULP energy per Si atom -5571.958436 kJ/mol
# Density = 2.136096 g / cm^3
# Si number density = 21.409686 Si / 1000 Ang^3
#
#
#
# Elastic Constant Matrix: (Units=GPa)
#
#
# Indices 1 2 3 4 5 6 
#
# 1 77.0042 15.2008 46.1265 0.0000 0.0000 0.0000
# 2 15.2008 67.1216 43.6835 0.0000 0.0000 0.0000
# 3 46.1265 43.6835 156.1186 0.0000 0.0000 0.0000
# 4 0.0000 0.0000 0.0000 43.9366 0.0000 0.0000
# 5 0.0000 0.0000 0.0000 0.0000 20.3291 0.0000
# 6 0.0000 0.0000 0.0000 0.0000 0.0000 16.3626
#
#
#
# Elastic Compliance Matrix: (Units=1/GPa)
#
#
# Indices 1 2 3 4 5 6 
#
# 1 0.015803 -0.000660 -0.004484 0.000000 0.000000 0.000000
# 2 -0.000660 0.018243 -0.004909 0.000000 0.000000 0.000000
# 3 -0.004484 -0.004909 0.009104 0.000000 0.000000 0.000000
# 4 0.000000 0.000000 0.000000 0.022760 0.000000 0.000000
# 5 0.000000 0.000000 0.000000 0.000000 0.049190 0.000000
# 6 0.000000 0.000000 0.000000 0.000000 0.000000 0.061115
#
#
# Mechanical properties :
#
#
# Convention : Reuss Voigt Hill
#
# Bulk Modulus (GPa) = 43.39976 56.69622 50.04799
# Shear Modulus (GPa) = 24.50928 29.14123 26.82526
#
# Velocity S-wave (km/s) = 3.38712 3.69334 3.54354
# Velocity P-wave (km/s) = 5.96757 6.68781 6.33793
#
# Compressibility (1/GPa) = 0.02304160
#
# Stress axis : x y z
#
# Youngs Moduli (GPa) = 63.27989 54.81549 109.84151
#
# Poissons Ratio (x) = 0.03620 0.49256
# Poissons Ratio (y) = 0.04179 0.53926
# Poissons Ratio (z) = 0.28377 0.26911
#
# Static dielectric constant tensor:
#      x y z
#    x 1.803950 0.000000 0.000000 
#    y 0.000000 1.920390 0.000000 
#    z 0.000000 0.000000 1.880170 
# 
# From -- ./inp_files/21569.got.cif
#   From: 2010.05.17/outbox.cif.g08.bks.cpg/sg48_11_cif.got.tgz:21569.got - 2010.06.03 20:39:00.
