data_PCOD9390383
_publ_section_title
;
Structure prediction by ZEFSAII (Michael W. Deem and Ramdas Pophale) SiO2 
 PCOD9390383
Probable space group: P N N N
;
_chemical_formula_sum "Si O2"
_cell_formula_units_Z 64
_cell_length_a 19.223780
_cell_length_b 12.242393
_cell_length_c 14.604947
_cell_angle_alpha 90.000000
_cell_angle_beta 90.000000
_cell_angle_gamma 90.000000
_cell_volume 3437.202270
_symmetry_space_group_name_H-M "P N N N"
_symmetry_group_IT_number 48
_space_group.IT_coordinate_system_code '2'
_symmetry_cell_setting 'orthorhombic'
loop_
_space_group_symop_operation_xyz
x,y,z
1/2-x,1/2-y,z
x,1/2-y,1/2-z
1/2-x,y,1/2-z
-x,-y,-z
1/2+x,1/2+y,-z
-x,1/2+y,1/2+z
1/2+x,-y,1/2+z
loop_
_atom_site_type_symbol
_atom_site_label
_atom_site_fract_x
_atom_site_fract_y
_atom_site_fract_z
Si Si1 0.409939 0.620440 0.858334
Si Si2 0.956290 0.476710 0.859809
Si Si3 0.020792 0.250000 0.643641
Si Si4 0.828992 0.986972 0.990957
Si Si5 0.543710 0.476710 0.859809
Si Si6 0.673968 0.750000 0.078827
Si Si7 0.090061 0.879560 0.641666
Si Si8 0.328992 0.013028 0.009042
O O1 0.485869 0.569205 0.878208
O O2 0.395985 0.600678 0.750000
O O3 0.408773 0.750000 0.874438
O O4 0.355691 0.557266 0.922348
O O5 0.946841 0.473091 0.750000
O O6 0.989028 0.361888 0.894225
O O7 0.014131 0.569204 0.878208
O O8 0.884368 0.495949 0.910783
O O9 0.001919 0.250000 0.750000
O O10 0.103929 0.250000 0.637281
O O11 0.989028 0.361888 0.605775
O O12 0.884368 0.004051 0.910783
O O13 0.829316 0.859952 0.019415
O O14 0.750000 0.017740 0.966815
O O15 0.750000 0.750000 0.126280
O O16 0.670684 0.859952 0.019415
O O17 0.144309 0.942734 0.577652
#
# Coordination Sequence:
#
# PCOD9390383 Si02
#       8
#     8   8   8   8   8   8   8   8
#     4  10  22  39  62  90 115 148 194 238 287 347
#     4  10  22  39  61  87 115 151 198 244 283 337
#     4  10  20  37  61  87 111 147 197 242 288 338
#     4  11  24  39  59  85 118 157 192 235 293 344
#     4  10  22  39  61  87 115 151 198 244 283 337
#     4  10  22  37  57  89 117 146 192 239 290 352
#     4  10  22  39  62  90 115 148 194 238 287 347
#     4  11  24  39  59  85 118 157 192 235 293 344
#
# _framework density 18.619795
#
# number of rings (size 3 to 8) (size 9 to 14) (size 15 to 20)
#    0.000    1.750    2.500    0.750    3.500    1.750 
#    0.000    3.750    0.000    4.500    0.000    0.000 
#    0.000    0.000    0.000    0.000    0.000    0.000 
#
# Total GULP energy -357307.982033 kJ/mol
# GULP energy per Si atom -5582.937219 kJ/mol
# Density = 1.857742 g / cm^3
# Si number density = 18.619795 Si / 1000 Ang^3
#
#
#
# Elastic Constant Matrix: (Units=GPa)
#
#
# Indices 1 2 3 4 5 6 
#
# 1 128.9367 59.8667 31.4932 0.0000 0.0000 0.0000
# 2 59.8667 127.2770 41.8474 0.0000 0.0000 0.0000
# 3 31.4932 41.8474 49.5726 0.0000 0.0000 0.0000
# 4 0.0000 0.0000 0.0000 0.5747 0.0000 0.0000
# 5 0.0000 0.0000 0.0000 0.0000 -6.2772 0.0000
# 6 0.0000 0.0000 0.0000 0.0000 0.0000 26.4086
#
#
#
# Elastic Compliance Matrix: (Units=1/GPa)
#
#
# Indices 1 2 3 4 5 6 
#
# 1 0.010322 -0.003736 -0.003404 0.000000 0.000000 0.000000
# 2 -0.003736 0.012228 -0.007949 0.000000 0.000000 0.000000
# 3 -0.003404 -0.007949 0.029045 0.000000 0.000000 0.000000
# 4 0.000000 0.000000 0.000000 1.739953 0.000000 0.000000
# 5 0.000000 0.000000 0.000000 0.000000 -0.159306 0.000000
# 6 0.000000 0.000000 0.000000 0.000000 0.000000 0.037866
#
#
# Mechanical properties :
#
#
# Convention : Reuss Voigt Hill
#
# Bulk Modulus (GPa) = 46.69052 63.57787 55.13420
# Shear Modulus (GPa) = 2.92839 15.64650 9.28745
#
# Velocity S-wave (km/s) = 1.25545 2.90196 2.23579
# Velocity P-wave (km/s) = 5.21840 6.74151 6.02825
#
# Compressibility (1/GPa) = 0.02141762
#
# Stress axis : x y z
#
# Youngs Moduli (GPa) = 96.88325 81.78254 34.42966
#
# Poissons Ratio (x) = 0.30553 0.11719
# Poissons Ratio (y) = 0.36195 0.27367
# Poissons Ratio (z) = 0.32975 0.65006
#
# Static dielectric constant tensor:
#      x y z
#    x 1.620860 0.000000 0.000000 
#    y 0.000000 1.649610 0.000000 
#    z 0.000000 0.000000 1.646490 
# 
# From -- ./inp_files/26739.got.cif
#   From: 2010.05.17/outbox.cif.g08.bks.cpg/sg48_14_cif.got.tgz:26739.got - 2010.06.03 20:39:00.
