data_PCOD9390894
_publ_section_title
;
Structure prediction by ZEFSAII (Michael W. Deem and Ramdas Pophale) SiO2 
 PCOD9390894
Probable space group: P N N N
;
_chemical_formula_sum "Si O2"
_cell_formula_units_Z 64
_cell_length_a 34.459030
_cell_length_b 10.735730
_cell_length_c 8.417403
_cell_angle_alpha 90.000000
_cell_angle_beta 90.000000
_cell_angle_gamma 90.000000
_cell_volume 3113.957989
_symmetry_space_group_name_H-M "P N N N"
_symmetry_group_IT_number 48
_space_group.IT_coordinate_system_code '2'
_symmetry_cell_setting 'orthorhombic'
loop_
_space_group_symop_operation_xyz
x,y,z
1/2-x,1/2-y,z
x,1/2-y,1/2-z
1/2-x,y,1/2-z
-x,-y,-z
1/2+x,1/2+y,-z
-x,1/2+y,1/2+z
1/2+x,-y,1/2+z
loop_
_atom_site_type_symbol
_atom_site_label
_atom_site_fract_x
_atom_site_fract_y
_atom_site_fract_z
Si Si1 0.056414 0.491219 0.602154
Si Si2 0.478648 0.401686 0.233765
Si Si3 0.885272 0.704908 0.400631
Si Si4 0.589504 0.540391 0.554867
Si Si5 0.791333 0.106898 0.310185
Si Si6 0.653503 0.895460 0.697829
Si Si7 0.123719 0.895743 0.746173
Si Si8 0.794067 0.383486 0.807173
O O1 0.041666 0.449439 0.429507
O O2 0.077929 0.369535 0.667930
O O3 0.092930 0.582874 0.612283
O O4 0.022098 0.547083 0.708684
O O5 0.477798 0.250000 0.250000
O O6 0.454230 0.462042 0.378115
O O7 0.861310 0.750000 0.250000
O O8 0.901930 0.820303 0.495624
O O9 0.860812 0.621893 0.519295
O O10 0.618379 0.539514 0.704931
O O11 0.603185 0.447010 0.415950
O O12 0.790200 0.250000 0.250000
O O13 0.750000 0.051593 0.250000
O O14 0.832368 0.050651 0.249022
O O15 0.794626 0.107294 0.501564
O O16 0.661076 0.750000 0.750000
O O17 0.687339 0.993444 0.729623
O O18 0.129278 0.750000 0.750000
O O19 0.811831 0.250000 0.750000
O O20 0.750000 0.380534 0.750000
#
# Coordination Sequence:
#
# PCOD9390894 Si02
#       8
#     8   8   8   8   8   8   8   8
#     4  11  23  39  66  99 130 171 221 274 335 395
#     4  11  22  42  67  95 135 171 221 279 336 400
#     4  11  21  40  66  95 125 167 228 265 329 407
#     4  11  20  42  66  89 128 176 217 273 332 393
#     4  10  21  41  65  97 135 180 217 278 346 403
#     4  10  22  41  64  93 128 175 223 276 338 400
#     4  11  24  41  63  98 137 168 225 281 337 400
#     4  11  23  41  65 101 136 177 227 275 344 417
#
# _framework density 20.552620000000001
#
# number of rings (size 3 to 8) (size 9 to 14) (size 15 to 20)
#    0.000    1.250    5.000    2.250    0.000    3.750 
#    0.000    0.625    0.000    0.000    0.000    1.750 
#    0.000    0.000    0.000    0.000    0.000    0.000 
#
# Total GULP energy -356453.305721 kJ/mol
# GULP energy per Si atom -5569.582902 kJ/mol
# Density = 2.050584 g / cm^3
# Si number density = 20.552620 Si / 1000 Ang^3
#
#
#
# Elastic Constant Matrix: (Units=GPa)
#
#
# Indices 1 2 3 4 5 6 
#
# 1 143.4166 57.1599 56.2968 0.0000 0.0000 0.0000
# 2 57.1599 99.0315 41.4078 0.0000 0.0000 0.0000
# 3 56.2968 41.4078 114.2022 0.0000 0.0000 0.0000
# 4 0.0000 0.0000 0.0000 30.0864 0.0000 0.0000
# 5 0.0000 0.0000 0.0000 0.0000 77.1880 0.0000
# 6 0.0000 0.0000 0.0000 0.0000 0.0000 37.3155
#
#
#
# Elastic Compliance Matrix: (Units=1/GPa)
#
#
# Indices 1 2 3 4 5 6 
#
# 1 0.010041 -0.004392 -0.003357 0.000000 0.000000 0.000000
# 2 -0.004392 0.013823 -0.002847 0.000000 0.000000 0.000000
# 3 -0.003357 -0.002847 0.011444 0.000000 0.000000 0.000000
# 4 0.000000 0.000000 0.000000 0.033238 0.000000 0.000000
# 5 0.000000 0.000000 0.000000 0.000000 0.012955 0.000000
# 6 0.000000 0.000000 0.000000 0.000000 0.000000 0.026799
#
#
# Mechanical properties :
#
#
# Convention : Reuss Voigt Hill
#
# Bulk Modulus (GPa) = 70.84462 74.04216 72.44339
# Shear Modulus (GPa) = 37.25869 42.37038 39.81453
#
# Velocity S-wave (km/s) = 4.26237 4.54536 4.40614
# Velocity P-wave (km/s) = 7.66606 7.97815 7.82366
#
# Compressibility (1/GPa) = 0.01411540
#
# Stress axis : x y z
#
# Youngs Moduli (GPa) = 99.59203 72.34271 87.38385
#
# Poissons Ratio (x) = 0.31771 0.29338
# Poissons Ratio (y) = 0.43738 0.24879
# Poissons Ratio (z) = 0.33437 0.20597
#
# Static dielectric constant tensor:
#      x y z
#    x 1.770190 0.000000 0.000000 
#    y 0.000000 1.846350 0.000000 
#    z 0.000000 0.000000 1.817330 
# 
# From -- ./inp_files/16947.got.cif
#   From: 2010.05.17/outbox.cif.g08.bks.cpg/sg48_9_cif.got.tgz:16947.got - 2010.06.03 20:39:00.
