data_PCOD9390958
_publ_section_title
;
Structure prediction by ZEFSAII (Michael W. Deem and Ramdas Pophale) SiO2 
 PCOD9390958
Probable space group: P N N N
;
_chemical_formula_sum "Si O2"
_cell_formula_units_Z 38
_cell_length_a 12.155193
_cell_length_b 25.850050
_cell_length_c 5.743570
_cell_angle_alpha 90.000000
_cell_angle_beta 90.000000
_cell_angle_gamma 90.000000
_cell_volume 1804.700609
_symmetry_space_group_name_H-M "P N N N"
_symmetry_group_IT_number 48
_space_group.IT_coordinate_system_code '2'
_symmetry_cell_setting 'orthorhombic'
loop_
_space_group_symop_operation_xyz
x,y,z
1/2-x,1/2-y,z
x,1/2-y,1/2-z
1/2-x,y,1/2-z
-x,-y,-z
1/2+x,1/2+y,-z
-x,1/2+y,1/2+z
1/2+x,-y,1/2+z
loop_
_atom_site_type_symbol
_atom_site_label
_atom_site_fract_x
_atom_site_fract_y
_atom_site_fract_z
Si Si1 0.250000 0.055449 0.750000
Si Si2 0.750000 0.426302 0.750000
Si Si3 0.250000 0.386189 0.250000
Si Si4 0.868586 0.366777 0.379662
Si Si5 0.583198 0.802278 0.604214
Si Si6 0.097752 0.527321 0.869599
Si Si7 0.750000 0.750000 0.250000
O O1 0.239036 0.084971 0.501620
O O2 0.354027 0.017642 0.708628
O O3 0.837906 0.389320 0.630165
O O4 0.691956 0.460302 0.557254
O O5 0.145047 0.348796 0.267898
O O6 0.750000 0.354608 0.250000
O O7 0.920032 0.417053 0.248440
O O8 0.957610 0.321961 0.417995
O O9 0.581602 0.750000 0.750000
O O10 0.665201 0.786894 0.392026
O O11 0.000000 0.500000 0.000000
#
# Coordination Sequence:
#
# PCOD9390958 Si02
#       7
#     4   4   4   8   8   8   2
#     4  12  25  42  71 112 149 196 250 297 374 458
#     4  10  21  44  64  98 147 190 249 295 374 448
#     4  12  26  44  72 115 149 196 251 311 388 454
#     4  10  24  45  71 101 145 194 250 308 378 455
#     4  12  26  49  75 104 148 188 249 327 380 459
#     4  11  23  41  66 101 146 195 243 301 359 449
#     4  12  24  48  76 112 144 186 256 310 420 438
#
# _framework density 21.056122999999999
#
# number of rings (size 3 to 8) (size 9 to 14) (size 15 to 20)
#    0.000    0.842    5.263    2.526    2.947    4.632 
#    0.000    0.000    0.000    0.000    0.000    0.000 
#    0.000    0.000    0.000    0.000    0.000    0.000 
#
# Total GULP energy -211845.416541 kJ/mol
# GULP energy per Si atom -5574.879383 kJ/mol
# Density = 2.100820 g / cm^3
# Si number density = 21.056123 Si / 1000 Ang^3
#
#
#
# Elastic Constant Matrix: (Units=GPa)
#
#
# Indices 1 2 3 4 5 6 
#
# 1 125.4033 68.8815 38.7411 0.0000 0.0000 0.0000
# 2 68.8815 104.9350 65.8514 0.0000 0.0000 0.0000
# 3 38.7411 65.8514 110.9164 0.0000 0.0000 0.0000
# 4 0.0000 0.0000 0.0000 33.5848 0.0000 0.0000
# 5 0.0000 0.0000 0.0000 0.0000 28.5365 0.0000
# 6 0.0000 0.0000 0.0000 0.0000 0.0000 51.6354
#
#
#
# Elastic Compliance Matrix: (Units=1/GPa)
#
#
# Indices 1 2 3 4 5 6 
#
# 1 0.012516 -0.008722 0.000807 0.000000 0.000000 0.000000
# 2 -0.008722 0.021267 -0.009580 0.000000 0.000000 0.000000
# 3 0.000807 -0.009580 0.014422 0.000000 0.000000 0.000000
# 4 0.000000 0.000000 0.000000 0.029775 0.000000 0.000000
# 5 0.000000 0.000000 0.000000 0.000000 0.035043 0.000000
# 6 0.000000 0.000000 0.000000 0.000000 0.000000 0.019367
#
#
# Mechanical properties :
#
#
# Convention : Reuss Voigt Hill
#
# Bulk Modulus (GPa) = 75.67613 76.46694 76.07154
# Shear Modulus (GPa) = 29.10648 33.93672 31.52160
#
# Velocity S-wave (km/s) = 3.72200 4.01899 3.87334
# Velocity P-wave (km/s) = 7.38169 7.61124 7.49734
#
# Compressibility (1/GPa) = 0.01321421
#
# Stress axis : x y z
#
# Youngs Moduli (GPa) = 79.89897 47.02224 69.34087
#
# Poissons Ratio (x) = 0.41012 -0.05593
# Poissons Ratio (y) = 0.69687 0.66426
# Poissons Ratio (z) = -0.06445 0.45046
#
# Static dielectric constant tensor:
#      x y z
#    x 1.877680 0.000000 0.000000 
#    y 0.000000 2.030820 0.000000 
#    z 0.000000 0.000000 1.814530 
# 
# From -- ./inp_files/2471.got.cif
#   From: 2010.05.17/outbox.cif.g08.bks.cpg/sg48_2_cif.got.tgz:2471.got - 2010.06.03 20:39:00.
