data_PCOD9390512
_publ_section_title
;
Structure prediction by ZEFSAII (Michael W. Deem and Ramdas Pophale) SiO2 
 PCOD9390512
Probable space group: P N N N
;
_chemical_formula_sum "Si O2"
_cell_formula_units_Z 40
_cell_length_a 13.290480
_cell_length_b 7.958811
_cell_length_c 16.653361
_cell_angle_alpha 90.000000
_cell_angle_beta 90.000000
_cell_angle_gamma 90.000000
_cell_volume 1761.532881
_symmetry_space_group_name_H-M "P N N N"
_symmetry_group_IT_number 48
_space_group.IT_coordinate_system_code '2'
_symmetry_cell_setting 'orthorhombic'
loop_
_space_group_symop_operation_xyz
x,y,z
1/2-x,1/2-y,z
x,1/2-y,1/2-z
1/2-x,y,1/2-z
-x,-y,-z
1/2+x,1/2+y,-z
-x,1/2+y,1/2+z
1/2+x,-y,1/2+z
loop_
_atom_site_type_symbol
_atom_site_label
_atom_site_fract_x
_atom_site_fract_y
_atom_site_fract_z
Si Si1 0.363869 0.006447 0.764062
Si Si2 0.915424 0.092708 0.700286
Si Si3 0.569149 0.284238 0.123683
Si Si4 0.359366 0.798397 0.448494
Si Si5 0.149432 0.139857 0.157745
O O1 0.250000 0.067493 0.750000
O O2 0.363961 0.856822 0.830876
O O3 0.400949 0.945657 0.676272
O O4 0.462928 0.101281 0.795247
O O5 0.873802 0.250000 0.750000
O O6 0.888379 0.143791 0.610013
O O7 0.868424 0.940941 0.753329
O O8 0.451333 0.253540 0.139556
O O9 0.577806 0.307518 0.029542
O O10 0.250000 0.750000 0.478991
O O11 0.355622 0.975420 0.400710
O O12 0.250000 0.250000 0.145792
#
# Coordination Sequence:
#
# PCOD9390512 Si02
#       5
#     8   8   8   8   8
#     4  10  20  39  65  96 125 180 225 271 329 403
#     4   9  22  42  62  98 136 173 222 281 337 400
#     4  10  21  41  66  92 133 171 228 277 336 407
#     4  11  23  42  65  97 139 175 212 292 352 394
#     4  10  23  44  68  95 132 179 230 275 338 414
#
# _framework density 22.707495999999999
#
# number of rings (size 3 to 8) (size 9 to 14) (size 15 to 20)
#    0.000    2.000    0.000    3.000    2.800    4.800 
#   14.400    0.000    0.000    0.000    5.200    0.000 
#    0.000    0.000    0.000    0.000    0.000    0.000 
#
# Total GULP energy -222990.649559 kJ/mol
# GULP energy per Si atom -5574.766239 kJ/mol
# Density = 2.265581 g / cm^3
# Si number density = 22.707496 Si / 1000 Ang^3
#
#
#
# Elastic Constant Matrix: (Units=GPa)
#
#
# Indices 1 2 3 4 5 6 
#
# 1 178.8410 39.3619 40.9208 0.0000 0.0000 0.0000
# 2 39.3619 76.3472 47.5218 0.0000 0.0000 0.0000
# 3 40.9208 47.5218 181.8021 0.0000 0.0000 0.0000
# 4 0.0000 0.0000 0.0000 0.9628 0.0000 0.0000
# 5 0.0000 0.0000 0.0000 0.0000 26.3376 0.0000
# 6 0.0000 0.0000 0.0000 0.0000 0.0000 8.8679
#
#
#
# Elastic Compliance Matrix: (Units=1/GPa)
#
#
# Indices 1 2 3 4 5 6 
#
# 1 0.006379 -0.002860 -0.000688 0.000000 0.000000 0.000000
# 2 -0.002860 0.016926 -0.003780 0.000000 0.000000 0.000000
# 3 -0.000688 -0.003780 0.006644 0.000000 0.000000 0.000000
# 4 0.000000 0.000000 0.000000 1.038601 0.000000 0.000000
# 5 0.000000 0.000000 0.000000 0.000000 0.037969 0.000000
# 6 0.000000 0.000000 0.000000 0.000000 0.000000 0.112766
#
#
# Mechanical properties :
#
#
# Convention : Reuss Voigt Hill
#
# Bulk Modulus (GPa) = 65.40094 76.95548 71.17821
# Shear Modulus (GPa) = 4.03539 27.84605 15.94072
#
# Velocity S-wave (km/s) = 1.33453 3.50565 2.65241
# Velocity P-wave (km/s) = 5.58915 7.09574 6.38703
#
# Compressibility (1/GPa) = 0.01529030
#
# Stress axis : x y z
#
# Youngs Moduli (GPa) = 156.77611 59.08119 150.52191
#
# Poissons Ratio (x) = 0.16899 0.10357
# Poissons Ratio (y) = 0.44842 0.56905
# Poissons Ratio (z) = 0.10787 0.22336
#
# Static dielectric constant tensor:
#      x y z
#    x 1.873930 0.000000 0.000000 
#    y 0.000000 2.028360 0.000000 
#    z 0.000000 0.000000 1.792940 
# 
# From -- ./inp_files/30837.got.cif
#   From: 2010.05.17/outbox.cif.g08.bks.cpg/sg48_16_cif.got.tgz:30837.got - 2010.06.03 20:39:00.
