data_PCOD9390524
_publ_section_title
;
Structure prediction by ZEFSAII (Michael W. Deem and Ramdas Pophale) SiO2 
 PCOD9390524
Probable space group: P N N N
;
_chemical_formula_sum "Si O2"
_cell_formula_units_Z 38
_cell_length_a 28.873779
_cell_length_b 16.757109
_cell_length_c 4.944658
_cell_angle_alpha 90.000000
_cell_angle_beta 90.000000
_cell_angle_gamma 90.000000
_cell_volume 2392.428578
_symmetry_space_group_name_H-M "P N N N"
_symmetry_group_IT_number 48
_space_group.IT_coordinate_system_code '2'
_symmetry_cell_setting 'orthorhombic'
loop_
_space_group_symop_operation_xyz
x,y,z
1/2-x,1/2-y,z
x,1/2-y,1/2-z
1/2-x,y,1/2-z
-x,-y,-z
1/2+x,1/2+y,-z
-x,1/2+y,1/2+z
1/2+x,-y,1/2+z
loop_
_atom_site_type_symbol
_atom_site_label
_atom_site_fract_x
_atom_site_fract_y
_atom_site_fract_z
Si Si1 0.750000 0.750000 0.750000
Si Si2 0.313048 0.250000 0.750000
Si Si3 0.038613 0.750000 0.750000
Si Si4 0.058807 0.469599 0.304886
Si Si5 0.106312 0.327111 0.050056
Si Si6 0.470970 0.250000 0.750000
Si Si7 0.453748 0.575430 0.706232
O O1 0.715157 0.784241 0.513232
O O2 0.346543 0.316092 0.616281
O O3 0.004788 0.738622 0.497376
O O4 0.064277 0.834297 0.723144
O O5 0.097543 0.406808 0.216126
O O6 0.067599 0.511034 0.590082
O O7 0.008586 0.426065 0.285772
O O8 0.052955 0.541429 0.091809
O O9 0.102502 0.250000 0.250000
O O10 0.064093 0.320066 0.835407
#
# Coordination Sequence:
#
# PCOD9390524 Si02
#       7
#     2   4   4   8   8   4   8
#     4  10  20  40  48  74 100 114 160 188 228 298
#     4  10  22  33  56  70  94 128 150 198 232 288
#     4  12  20  33  44  58  82 127 170 195 270 286
#     4  10  21  31  43  64  91 110 163 208 256 271
#     4  11  21  32  49  72  90 122 161 198 244 281
#     4  11  20  27  46  61  82 118 152 218 228 287
#     4  10  21  31  43  60  85 126 152 217 253 285
#
# _framework density 15.883443
#
# number of rings (size 3 to 8) (size 9 to 14) (size 15 to 20)
#    0.000    1.474    4.211    1.263   11.789    0.000 
#    0.000    0.000    0.000    0.000    0.000    0.000 
#    0.000    0.000    0.000    0.000    0.000   29.474 
#
# Total GULP energy -211624.743033 kJ/mol
# GULP energy per Si atom -5569.072185 kJ/mol
# Density = 1.584729 g / cm^3
# Si number density = 15.883443 Si / 1000 Ang^3
#
#
#
# Elastic Constant Matrix: (Units=GPa)
#
#
# Indices 1 2 3 4 5 6 
#
# 1 38.0777 10.9375 11.9330 0.0000 0.0000 0.0000
# 2 10.9375 86.9093 4.9078 0.0000 0.0000 0.0000
# 3 11.9330 4.9078 84.4841 0.0000 0.0000 0.0000
# 4 0.0000 0.0000 0.0000 13.5590 0.0000 0.0000
# 5 0.0000 0.0000 0.0000 0.0000 17.0470 0.0000
# 6 0.0000 0.0000 0.0000 0.0000 0.0000 0.1273
#
#
#
# Elastic Compliance Matrix: (Units=1/GPa)
#
#
# Indices 1 2 3 4 5 6 
#
# 1 0.028425 -0.003362 -0.003820 0.000000 0.000000 0.000000
# 2 -0.003362 0.011942 -0.000219 0.000000 0.000000 0.000000
# 3 -0.003820 -0.000219 0.012389 0.000000 0.000000 0.000000
# 4 0.000000 0.000000 0.000000 0.073752 0.000000 0.000000
# 5 0.000000 0.000000 0.000000 0.000000 0.058661 0.000000
# 6 0.000000 0.000000 0.000000 0.000000 0.000000 7.857841
#
#
# Mechanical properties :
#
#
# Convention : Reuss Voigt Hill
#
# Bulk Modulus (GPa) = 26.34698 29.44753 27.89725
# Shear Modulus (GPa) = 0.61954 18.25952 9.43953
#
# Velocity S-wave (km/s) = 0.62522 3.39425 2.44047
# Velocity P-wave (km/s) = 4.14064 5.82591 5.05401
#
# Compressibility (1/GPa) = 0.03795502
#
# Stress axis : x y z
#
# Youngs Moduli (GPa) = 35.18074 83.74048 80.71829
#
# Poissons Ratio (x) = 0.28150 0.30831
# Poissons Ratio (y) = 0.11826 0.01767
# Poissons Ratio (z) = 0.13438 0.01833
#
# Static dielectric constant tensor:
#      x y z
#    x 1.547580 0.000000 0.000000 
#    y 0.000000 1.570910 0.000000 
#    z 0.000000 0.000000 1.601870 
# 
# From -- ./inp_files/5805.got.cif
#   From: 2010.05.17/outbox.cif.g08.bks.cpg/sg48_3_cif.got.tgz:5805.got - 2010.06.03 20:39:00.
