data_PCOD9390996
_publ_section_title
;
Structure prediction by ZEFSAII (Michael W. Deem and Ramdas Pophale) SiO2 
 PCOD9390996
Probable space group: P N N N
;
_chemical_formula_sum "Si O2"
_cell_formula_units_Z 64
_cell_length_a 15.184034
_cell_length_b 16.141459
_cell_length_c 11.973596
_cell_angle_alpha 90.000000
_cell_angle_beta 90.000000
_cell_angle_gamma 90.000000
_cell_volume 2934.638126
_symmetry_space_group_name_H-M "P N N N"
_symmetry_group_IT_number 48
_space_group.IT_coordinate_system_code '2'
_symmetry_cell_setting 'orthorhombic'
loop_
_space_group_symop_operation_xyz
x,y,z
1/2-x,1/2-y,z
x,1/2-y,1/2-z
1/2-x,y,1/2-z
-x,-y,-z
1/2+x,1/2+y,-z
-x,1/2+y,1/2+z
1/2+x,-y,1/2+z
loop_
_atom_site_type_symbol
_atom_site_label
_atom_site_fract_x
_atom_site_fract_y
_atom_site_fract_z
Si Si1 0.113886 0.944655 0.410996
Si Si2 0.615002 0.860860 0.852709
Si Si3 0.972087 0.345437 0.724761
Si Si4 0.582613 0.350066 0.367355
Si Si5 0.286313 0.844543 0.408162
Si Si6 0.391042 0.663649 0.885453
Si Si7 0.703467 0.884534 0.641539
Si Si8 0.450678 0.086472 0.512809
O O1 0.040908 0.896928 0.337757
O O2 0.104061 0.918160 0.540081
O O3 0.208030 0.905891 0.376091
O O4 0.106298 0.041297 0.384335
O O5 0.520417 0.827545 0.881884
O O6 0.631896 0.841174 0.721353
O O7 0.710296 0.837574 0.903713
O O8 0.990822 0.250000 0.750000
O O9 0.876468 0.349397 0.662512
O O10 0.042988 0.384439 0.640508
O O11 0.602206 0.372602 0.238877
O O12 0.628929 0.261813 0.384361
O O13 0.250000 0.750000 0.399938
O O14 0.316008 0.870089 0.533046
O O15 0.484302 0.647694 0.945455
O O16 0.750000 0.931698 0.750000
O O17 0.645106 0.921157 0.543750
O O18 0.500000 0.000000 0.500000
#
# Coordination Sequence:
#
# PCOD9390996 Si02
#       8
#     8   8   8   8   8   8   8   8
#     4  12  22  34  57  88 123 166 200 251 306 394
#     4   9  21  36  60  85 115 152 206 260 313 363
#     4  11  23  35  57  90 128 166 204 253 320 396
#     4  11  21  40  57  81 127 158 207 249 310 386
#     4  11  21  37  56  88 125 160 210 247 315 385
#     4  10  22  37  59  85 118 165 198 260 314 369
#     4   8  19  37  61  88 117 150 212 269 318 357
#     4  11  21  38  63  94 125 159 211 268 323 385
#
# _framework density 21.808481
#
# number of rings (size 3 to 8) (size 9 to 14) (size 15 to 20)
#    0.750    0.750    3.750    2.250    7.000    0.500 
#    0.000    0.625    2.750    0.750    0.000    2.625 
#    0.000    0.000    0.000    0.000    0.000    0.000 
#
# Total GULP energy -356503.482763 kJ/mol
# GULP energy per Si atom -5570.366918 kJ/mol
# Density = 2.175884 g / cm^3
# Si number density = 21.808481 Si / 1000 Ang^3
#
#
#
# Elastic Constant Matrix: (Units=GPa)
#
#
# Indices 1 2 3 4 5 6 
#
# 1 85.7912 0.6951 18.9365 0.0000 0.0000 0.0000
# 2 0.6951 83.6703 24.0486 0.0000 0.0000 0.0000
# 3 18.9365 24.0486 115.4253 0.0000 0.0000 0.0000
# 4 0.0000 0.0000 0.0000 12.6410 0.0000 0.0000
# 5 0.0000 0.0000 0.0000 0.0000 56.3917 0.0000
# 6 0.0000 0.0000 0.0000 0.0000 0.0000 7.6266
#
#
#
# Elastic Compliance Matrix: (Units=1/GPa)
#
#
# Indices 1 2 3 4 5 6 
#
# 1 0.012114 0.000501 -0.002092 0.000000 0.000000 0.000000
# 2 0.000501 0.012734 -0.002735 0.000000 0.000000 0.000000
# 3 -0.002092 -0.002735 0.009577 0.000000 0.000000 0.000000
# 4 0.000000 0.000000 0.000000 0.079108 0.000000 0.000000
# 5 0.000000 0.000000 0.000000 0.000000 0.017733 0.000000
# 6 0.000000 0.000000 0.000000 0.000000 0.000000 0.131119
#
#
# Mechanical properties :
#
#
# Convention : Reuss Voigt Hill
#
# Bulk Modulus (GPa) = 38.80242 41.36081 40.08162
# Shear Modulus (GPa) = 17.88093 31.41230 24.64661
#
# Velocity S-wave (km/s) = 2.86651 3.79934 3.36540
# Velocity P-wave (km/s) = 5.36533 6.18492 5.78965
#
# Compressibility (1/GPa) = 0.02577159
#
# Stress axis : x y z
#
# Youngs Moduli (GPa) = 82.55019 78.53209 104.42089
#
# Poissons Ratio (x) = -0.03931 0.21841
# Poissons Ratio (y) = -0.04132 0.28561
# Poissons Ratio (z) = 0.17267 0.21480
#
# Static dielectric constant tensor:
#      x y z
#    x 1.865740 0.000000 0.000000 
#    y 0.000000 1.816360 0.000000 
#    z 0.000000 0.000000 1.836420 
# 
# From -- ./inp_files/21577.got.cif
#   From: 2010.05.17/outbox.cif.g08.bks.cpg/sg48_11_cif.got.tgz:21577.got - 2010.06.03 20:39:00.
