data_PCOD9390134
_publ_section_title
;
Structure prediction by ZEFSAII (Michael W. Deem and Ramdas Pophale) SiO2 
 PCOD9390134
Probable space group: P N N N
;
_chemical_formula_sum "Si O2"
_cell_formula_units_Z 36
_cell_length_a 14.531059
_cell_length_b 14.526454
_cell_length_c 8.460913
_cell_angle_alpha 90.000000
_cell_angle_beta 90.000000
_cell_angle_gamma 90.000000
_cell_volume 1785.969791
_symmetry_space_group_name_H-M "P N N N"
_symmetry_group_IT_number 48
_space_group.IT_coordinate_system_code '2'
_symmetry_cell_setting 'orthorhombic'
loop_
_space_group_symop_operation_xyz
x,y,z
1/2-x,1/2-y,z
x,1/2-y,1/2-z
1/2-x,y,1/2-z
-x,-y,-z
1/2+x,1/2+y,-z
-x,1/2+y,1/2+z
1/2+x,-y,1/2+z
loop_
_atom_site_type_symbol
_atom_site_label
_atom_site_fract_x
_atom_site_fract_y
_atom_site_fract_z
Si Si1 0.504611 0.103381 0.936072
Si Si2 0.250000 0.021100 0.250000
Si Si3 0.933590 0.430990 0.594119
Si Si4 0.165741 0.193365 0.413918
Si Si5 0.145822 0.752725 0.444131
O O1 0.508879 0.096197 0.748423
O O2 0.597755 0.153035 0.991610
O O3 0.424349 0.172597 0.987872
O O4 0.500000 0.000000 0.000000
O O5 0.202147 0.091683 0.370836
O O6 0.333893 0.967943 0.338095
O O7 0.908969 0.337672 0.501795
O O8 0.000000 0.500000 0.500000
O O9 0.250000 0.250000 0.490138
O O10 0.146377 0.250000 0.250000
O O11 0.250000 0.750000 0.497286
O O12 0.145546 0.750000 0.250000
#
# Coordination Sequence:
#
# PCOD9390134 Si02
#       5
#     8   4   8   8   8
#     4  11  21  38  65  94 124 169 219 271 323 398
#     4  10  19  40  65  90 120 166 220 263 335 406
#     4  11  23  38  67  94 128 168 221 271 337 408
#     4   9  21  37  66  89 124 171 217 266 332 396
#     4   9  20  37  60  87 121 161 207 264 324 385
#
# _framework density 20.157115999999998
#
# number of rings (size 3 to 8) (size 9 to 14) (size 15 to 20)
#    0.000    2.222    2.222    2.667    6.222    0.000 
#    0.000    1.111    0.000    4.667    0.000    0.000 
#    0.000    0.000    0.000    0.000    0.000    0.000 
#
# Total GULP energy -200656.849510 kJ/mol
# GULP energy per Si atom -5573.801375 kJ/mol
# Density = 2.011124 g / cm^3
# Si number density = 20.157116 Si / 1000 Ang^3
#
#
#
# Elastic Constant Matrix: (Units=GPa)
#
#
# Indices 1 2 3 4 5 6 
#
# 1 148.4102 75.7965 48.6535 0.0000 0.0000 0.0000
# 2 75.7965 154.9668 24.3310 0.0000 0.0000 0.0000
# 3 48.6535 24.3310 33.8020 0.0000 0.0000 0.0000
# 4 0.0000 0.0000 0.0000 21.7384 0.0000 0.0000
# 5 0.0000 0.0000 0.0000 0.0000 19.6697 0.0000
# 6 0.0000 0.0000 0.0000 0.0000 0.0000 40.2235
#
#
#
# Elastic Compliance Matrix: (Units=1/GPa)
#
#
# Indices 1 2 3 4 5 6 
#
# 1 0.015087 -0.004475 -0.018494 0.000000 0.000000 0.000000
# 2 -0.004475 0.008603 0.000249 0.000000 0.000000 0.000000
# 3 -0.018494 0.000249 0.056024 0.000000 0.000000 0.000000
# 4 0.000000 0.000000 0.000000 0.046002 0.000000 0.000000
# 5 0.000000 0.000000 0.000000 0.000000 0.050840 0.000000
# 6 0.000000 0.000000 0.000000 0.000000 0.000000 0.024861
#
#
# Mechanical properties :
#
#
# Convention : Reuss Voigt Hill
#
# Bulk Modulus (GPa) = 29.17690 70.52678 49.85184
# Shear Modulus (GPa) = 19.35887 28.88619 24.12253
#
# Velocity S-wave (km/s) = 3.10239 3.78967 3.46312
# Velocity P-wave (km/s) = 5.22870 7.36297 6.38563
#
# Compressibility (1/GPa) = 0.03427369
#
# Stress axis : x y z
#
# Youngs Moduli (GPa) = 66.28401 116.24085 17.84957
#
# Poissons Ratio (x) = 0.52023 0.33010
# Poissons Ratio (y) = 0.29665 -0.00445
# Poissons Ratio (z) = 1.22584 -0.02899
#
# Static dielectric constant tensor:
#      x y z
#    x 1.787470 0.000000 0.000000 
#    y 0.000000 1.746760 0.000000 
#    z 0.000000 0.000000 1.550450 
# 
# From -- ./inp_files/12201.got.cif
#   From: 2010.05.17/outbox.cif.g08.bks.cpg/sg48_7_cif.got.tgz:12201.got - 2010.06.03 20:39:00.
