data_PCOD9390768
_publ_section_title
;
Structure prediction by ZEFSAII (Michael W. Deem and Ramdas Pophale) SiO2 
 PCOD9390768
Probable space group: P N N N
;
_chemical_formula_sum "Si O2"
_cell_formula_units_Z 40
_cell_length_a 7.322052
_cell_length_b 10.618515
_cell_length_c 18.748619
_cell_angle_alpha 90.000000
_cell_angle_beta 90.000000
_cell_angle_gamma 90.000000
_cell_volume 1457.692359
_symmetry_space_group_name_H-M "P N N N"
_symmetry_group_IT_number 48
_space_group.IT_coordinate_system_code '2'
_symmetry_cell_setting 'orthorhombic'
loop_
_space_group_symop_operation_xyz
x,y,z
1/2-x,1/2-y,z
x,1/2-y,1/2-z
1/2-x,y,1/2-z
-x,-y,-z
1/2+x,1/2+y,-z
-x,1/2+y,1/2+z
1/2+x,-y,1/2+z
loop_
_atom_site_type_symbol
_atom_site_label
_atom_site_fract_x
_atom_site_fract_y
_atom_site_fract_z
Si Si1 0.915783 0.847930 0.470479
Si Si2 0.860840 0.993138 0.934066
Si Si3 0.949782 0.977598 0.331294
Si Si4 0.954445 0.255453 0.109272
Si Si5 0.968208 0.625022 0.305953
O O1 0.750000 0.750000 0.456364
O O2 0.817868 0.958844 0.517076
O O3 0.999962 0.884393 0.395272
O O4 0.052193 0.783716 0.524899
O O5 0.920335 0.867274 0.889137
O O6 0.909369 0.105122 0.877124
O O7 0.000000 0.000000 0.000000
O O8 0.732347 0.936517 0.325516
O O9 0.040101 0.964469 0.255484
O O10 0.011272 0.114747 0.355463
O O11 0.750000 0.250000 0.138034
O O12 0.954709 0.750000 0.250000
#
# Coordination Sequence:
#
# PCOD9390768 Si02
#       5
#     8   8   8   8   8
#     4  10  21  38  67  96 142 185 237 299 370 444
#     4  11  22  42  65 102 137 185 239 296 370 453
#     4  11  21  39  63 103 135 177 240 300 371 438
#     4  11  22  39  65  99 133 181 237 306 351 441
#     4  11  23  39  68  99 139 182 235 305 371 443
#
# _framework density 27.440632000000001
#
# number of rings (size 3 to 8) (size 9 to 14) (size 15 to 20)
#    0.000    1.200    4.000    3.000    2.800    0.800 
#    0.000    1.000    0.000    6.000    0.000    0.000 
#    0.000    0.000    0.000    0.000    0.000    0.000 
#
# Total GULP energy -222712.610218 kJ/mol
# GULP energy per Si atom -5567.815255 kJ/mol
# Density = 2.737818 g / cm^3
# Si number density = 27.440632 Si / 1000 Ang^3
#
#
#
# Elastic Constant Matrix: (Units=GPa)
#
#
# Indices 1 2 3 4 5 6 
#
# 1 136.3461 12.0858 25.0608 0.0000 0.0000 0.0000
# 2 12.0858 150.6957 49.6203 0.0000 0.0000 0.0000
# 3 25.0608 49.6203 185.1539 0.0000 0.0000 0.0000
# 4 0.0000 0.0000 0.0000 36.3841 0.0000 0.0000
# 5 0.0000 0.0000 0.0000 0.0000 28.6771 0.0000
# 6 0.0000 0.0000 0.0000 0.0000 0.0000 23.4884
#
#
#
# Elastic Compliance Matrix: (Units=1/GPa)
#
#
# Indices 1 2 3 4 5 6 
#
# 1 0.007533 -0.000294 -0.000941 0.000000 0.000000 0.000000
# 2 -0.000294 0.007290 -0.001914 0.000000 0.000000 0.000000
# 3 -0.000941 -0.001914 0.006041 0.000000 0.000000 0.000000
# 4 0.000000 0.000000 0.000000 0.027485 0.000000 0.000000
# 5 0.000000 0.000000 0.000000 0.000000 0.034871 0.000000
# 6 0.000000 0.000000 0.000000 0.000000 0.000000 0.042574
#
#
# Mechanical properties :
#
#
# Convention : Reuss Voigt Hill
#
# Bulk Modulus (GPa) = 68.65175 71.74773 70.19974
# Shear Modulus (GPa) = 36.51050 43.40519 39.95785
#
# Velocity S-wave (km/s) = 3.65160 3.98148 3.82010
# Velocity P-wave (km/s) = 6.54610 6.88037 6.71532
#
# Compressibility (1/GPa) = 0.01456627
#
# Stress axis : x y z
#
# Youngs Moduli (GPa) = 132.74424 137.18089 165.53240
#
# Poissons Ratio (x) = 0.04039 0.15572
# Poissons Ratio (y) = 0.03908 0.31679
# Poissons Ratio (z) = 0.12488 0.26253
#
# Static dielectric constant tensor:
#      x y z
#    x 2.427090 0.000000 0.000000 
#    y 0.000000 2.470640 0.000000 
#    z 0.000000 0.000000 2.131440 
# 
# From -- ./inp_files/30031.got.cif
#   From: 2010.05.17/outbox.cif.g08.bks.cpg/sg48_16_cif.got.tgz:30031.got - 2010.06.03 20:39:00.
