data_PCOD9390808
_publ_section_title
;
Structure prediction by ZEFSAII (Michael W. Deem and Ramdas Pophale) SiO2 
 PCOD9390808
Probable space group: P N N N
;
_chemical_formula_sum "Si O2"
_cell_formula_units_Z 40
_cell_length_a 16.628969
_cell_length_b 4.831792
_cell_length_c 20.702054
_cell_angle_alpha 90.000000
_cell_angle_beta 90.000000
_cell_angle_gamma 90.000000
_cell_volume 1663.362825
_symmetry_space_group_name_H-M "P N N N"
_symmetry_group_IT_number 48
_space_group.IT_coordinate_system_code '2'
_symmetry_cell_setting 'orthorhombic'
loop_
_space_group_symop_operation_xyz
x,y,z
1/2-x,1/2-y,z
x,1/2-y,1/2-z
1/2-x,y,1/2-z
-x,-y,-z
1/2+x,1/2+y,-z
-x,1/2+y,1/2+z
1/2+x,-y,1/2+z
loop_
_atom_site_type_symbol
_atom_site_label
_atom_site_fract_x
_atom_site_fract_y
_atom_site_fract_z
Si Si1 0.152157 0.249820 0.002353
Si Si2 0.082922 0.346932 0.360796
Si Si3 0.567677 0.028153 0.204339
Si Si4 0.344672 0.764210 0.918530
Si Si5 0.168016 0.849445 0.323268
O O1 0.250000 0.250000 0.015451
O O2 0.136870 0.562131 0.982300
O O3 0.132699 0.044415 0.942202
O O4 0.095520 0.191454 0.063293
O O5 0.092894 0.672705 0.349962
O O6 0.011272 0.199028 0.321667
O O7 0.157070 0.173465 0.330818
O O8 0.610955 0.250000 0.250000
O O9 0.618494 0.050375 0.138781
O O10 0.557544 0.750000 0.250000
O O11 0.250000 0.750000 0.906273
O O12 0.250000 0.750000 0.356582
O O13 0.170293 0.750000 0.250000
#
# Coordination Sequence:
#
# PCOD9390808 Si02
#       5
#     8   8   8   8   8
#     4  10  21  39  65  95 128 167 215 272 329 391
#     4  12  23  38  62  93 132 170 214 265 329 398
#     4  12  26  44  66  95 134 177 220 273 336 397
#     4  10  23  44  67  94 126 165 222 283 336 396
#     4  11  22  36  56  85 126 176 225 267 310 374
#
# _framework density 24.04767
#
# number of rings (size 3 to 8) (size 9 to 14) (size 15 to 20)
#    0.000    1.000    0.000    7.800    0.000    5.200 
#    0.000    1.000    0.000    0.000    0.000    0.000 
#    0.000    0.000    0.000    0.000    0.000    0.000 
#
# Total GULP energy -222728.152572 kJ/mol
# GULP energy per Si atom -5568.203814 kJ/mol
# Density = 2.399294 g / cm^3
# Si number density = 24.047670 Si / 1000 Ang^3
#
#
#
# Elastic Constant Matrix: (Units=GPa)
#
#
# Indices 1 2 3 4 5 6 
#
# 1 29.1220 12.7477 27.8095 0.0000 0.0000 0.0000
# 2 12.7477 122.5676 26.5713 0.0000 0.0000 0.0000
# 3 27.8095 26.5713 118.0571 0.0000 0.0000 0.0000
# 4 0.0000 0.0000 0.0000 34.8012 0.0000 0.0000
# 5 0.0000 0.0000 0.0000 0.0000 14.2022 0.0000
# 6 0.0000 0.0000 0.0000 0.0000 0.0000 14.3228
#
#
#
# Elastic Compliance Matrix: (Units=1/GPa)
#
#
# Indices 1 2 3 4 5 6 
#
# 1 0.045024 -0.002506 -0.010042 0.000000 0.000000 0.000000
# 2 -0.002506 0.008717 -0.001372 0.000000 0.000000 0.000000
# 3 -0.010042 -0.001372 0.011145 0.000000 0.000000 0.000000
# 4 0.000000 0.000000 0.000000 0.028735 0.000000 0.000000
# 5 0.000000 0.000000 0.000000 0.000000 0.070412 0.000000
# 6 0.000000 0.000000 0.000000 0.000000 0.000000 0.069819
#
#
# Mechanical properties :
#
#
# Convention : Reuss Voigt Hill
#
# Bulk Modulus (GPa) = 26.99267 44.88930 35.94098
# Shear Modulus (GPa) = 18.24559 26.17312 22.20936
#
# Velocity S-wave (km/s) = 2.75749 3.30265 3.04230
# Velocity P-wave (km/s) = 4.62464 5.76634 5.22676
#
# Compressibility (1/GPa) = 0.03704710
#
# Stress axis : x y z
#
# Youngs Moduli (GPa) = 22.21014 114.72186 89.72904
#
# Poissons Ratio (x) = 0.28747 0.90105
# Poissons Ratio (y) = 0.05565 0.12307
# Poissons Ratio (z) = 0.22303 0.15735
#
# Static dielectric constant tensor:
#      x y z
#    x 2.031340 0.000000 0.000000 
#    y 0.000000 1.860290 0.000000 
#    z 0.000000 0.000000 1.937850 
# 
# From -- ./inp_files/31814.got.cif
#   From: 2010.05.17/outbox.cif.g08.bks.cpg/sg48_16_cif.got.tgz:31814.got - 2010.06.03 20:39:00.
