data_PCOD9390927
_publ_section_title
;
Structure prediction by ZEFSAII (Michael W. Deem and Ramdas Pophale) SiO2 
 PCOD9390927
Probable space group: P N N N
;
_chemical_formula_sum "Si O2"
_cell_formula_units_Z 46
_cell_length_a 11.294449
_cell_length_b 9.004809
_cell_length_c 24.985807
_cell_angle_alpha 90.000000
_cell_angle_beta 90.000000
_cell_angle_gamma 90.000000
_cell_volume 2541.165410
_symmetry_space_group_name_H-M "P N N N"
_symmetry_group_IT_number 48
_space_group.IT_coordinate_system_code '2'
_symmetry_cell_setting 'orthorhombic'
loop_
_space_group_symop_operation_xyz
x,y,z
1/2-x,1/2-y,z
x,1/2-y,1/2-z
1/2-x,y,1/2-z
-x,-y,-z
1/2+x,1/2+y,-z
-x,1/2+y,1/2+z
1/2+x,-y,1/2+z
loop_
_atom_site_type_symbol
_atom_site_label
_atom_site_fract_x
_atom_site_fract_y
_atom_site_fract_z
Si Si1 0.458232 0.956812 0.941346
Si Si2 0.250000 0.750000 0.750000
Si Si3 0.250000 0.750000 0.905039
Si Si4 0.937778 0.033613 0.149816
Si Si5 0.886599 0.791129 0.361145
Si Si6 0.886088 0.793669 0.643326
Si Si7 0.550801 0.037142 0.222288
O O1 0.352850 0.835075 0.937945
O O2 0.568267 0.896110 0.905601
O O3 0.407161 0.100014 0.910596
O O4 0.500000 0.000000 0.000000
O O5 0.337092 0.852593 0.784931
O O6 0.177439 0.878338 0.872460
O O7 0.944581 0.017144 0.214255
O O8 0.045100 0.139909 0.135548
O O9 0.947117 0.866896 0.128923
O O10 0.750000 0.750000 0.352137
O O11 0.931041 0.885187 0.309866
O O12 0.750000 0.750000 0.646798
O O13 0.939719 0.875979 0.696267
#
# Coordination Sequence:
#
# PCOD9390927 Si02
#       7
#     8   2   4   8   8   8   8
#     4  10  23  44  65  90 119 159 213 273 325 369
#     4  12  18  32  56  92 120 166 200 246 298 354
#     4  10  21  42  65  92 124 158 209 258 313 380
#     4  11  20  37  59  91 125 161 199 249 307 370
#     4  11  22  36  58  94 131 150 202 264 313 369
#     4  10  23  42  60  86 125 172 218 249 299 393
#     4  11  22  32  59  90 128 166 199 244 306 373
#
# _framework density 18.101929999999999
#
# number of rings (size 3 to 8) (size 9 to 14) (size 15 to 20)
#    0.000    1.391    3.478    2.087    2.435    2.783 
#    3.130    4.348    0.000    4.174    0.000    0.000 
#    0.000    0.000    0.000    0.000    0.000    0.000 
#
# Total GULP energy -256554.257084 kJ/mol
# GULP energy per Si atom -5577.266458 kJ/mol
# Density = 1.806073 g / cm^3
# Si number density = 18.101930 Si / 1000 Ang^3
#
#
#
# Elastic Constant Matrix: (Units=GPa)
#
#
# Indices 1 2 3 4 5 6 
#
# 1 130.8116 39.6928 36.4195 0.0000 0.0000 0.0000
# 2 39.6928 143.2063 37.4740 0.0000 0.0000 0.0000
# 3 36.4195 37.4740 102.8261 0.0000 0.0000 0.0000
# 4 0.0000 0.0000 0.0000 11.2640 0.0000 0.0000
# 5 0.0000 0.0000 0.0000 0.0000 15.5480 0.0000
# 6 0.0000 0.0000 0.0000 0.0000 0.0000 17.4144
#
#
#
# Elastic Compliance Matrix: (Units=1/GPa)
#
#
# Indices 1 2 3 4 5 6 
#
# 1 0.008887 -0.001812 -0.002487 0.000000 0.000000 0.000000
# 2 -0.001812 0.008089 -0.002306 0.000000 0.000000 0.000000
# 3 -0.002487 -0.002306 0.011446 0.000000 0.000000 0.000000
# 4 0.000000 0.000000 0.000000 0.088779 0.000000 0.000000
# 5 0.000000 0.000000 0.000000 0.000000 0.064317 0.000000
# 6 0.000000 0.000000 0.000000 0.000000 0.000000 0.057424
#
#
# Mechanical properties :
#
#
# Convention : Reuss Voigt Hill
#
# Bulk Modulus (GPa) = 65.74098 67.11294 66.42696
# Shear Modulus (GPa) = 19.43840 26.39579 22.91709
#
# Velocity S-wave (km/s) = 3.28049 3.82275 3.56195
# Velocity P-wave (km/s) = 7.12354 7.52596 7.32751
#
# Compressibility (1/GPa) = 0.01521121
#
# Stress axis : x y z
#
# Youngs Moduli (GPa) = 112.52434 123.62941 87.36350
#
# Poissons Ratio (x) = 0.22406 0.21728
# Poissons Ratio (y) = 0.20394 0.20145
# Poissons Ratio (z) = 0.27986 0.28508
#
# Static dielectric constant tensor:
#      x y z
#    x 1.636220 0.000000 0.000000 
#    y 0.000000 1.648480 0.000000 
#    z 0.000000 0.000000 1.657340 
# 
# From -- ./inp_files/36282.got.cif
#   From: 2010.05.17/outbox.cif.g08.bks.cpg/sg48_19_cif.got.tgz:36282.got - 2010.06.03 20:39:00.
