data_PCOD9390563
_publ_section_title
;
Structure prediction by ZEFSAII (Michael W. Deem and Ramdas Pophale) SiO2 
 PCOD9390563
Probable space group: P N N N
;
_chemical_formula_sum "Si O2"
_cell_formula_units_Z 58
_cell_length_a 19.195078
_cell_length_b 17.884843
_cell_length_c 8.084423
_cell_angle_alpha 90.000000
_cell_angle_beta 90.000000
_cell_angle_gamma 90.000000
_cell_volume 2775.390148
_symmetry_space_group_name_H-M "P N N N"
_symmetry_group_IT_number 48
_space_group.IT_coordinate_system_code '2'
_symmetry_cell_setting 'orthorhombic'
loop_
_space_group_symop_operation_xyz
x,y,z
1/2-x,1/2-y,z
x,1/2-y,1/2-z
1/2-x,y,1/2-z
-x,-y,-z
1/2+x,1/2+y,-z
-x,1/2+y,1/2+z
1/2+x,-y,1/2+z
loop_
_atom_site_type_symbol
_atom_site_label
_atom_site_fract_x
_atom_site_fract_y
_atom_site_fract_z
Si Si1 0.734108 0.507492 0.444827
Si Si2 0.643233 0.369096 0.380150
Si Si3 0.476484 0.805042 0.114702
Si Si4 0.015358 0.084092 0.882074
Si Si5 0.250000 0.750000 0.750000
Si Si6 0.733935 0.831927 0.554896
Si Si7 0.117248 0.545290 0.547199
Si Si8 0.423113 0.199663 0.413550
O O1 0.750000 0.506654 0.250000
O O2 0.675103 0.444270 0.465433
O O3 0.726027 0.594535 0.491614
O O4 0.807511 0.479314 0.519422
O O5 0.577508 0.337630 0.481698
O O6 0.701499 0.304494 0.360526
O O7 0.626570 0.392333 0.189511
O O8 0.440387 0.750000 0.250000
O O9 0.516907 0.866345 0.220397
O O10 0.536933 0.756927 0.030832
O O11 0.073446 0.021178 0.866693
O O12 0.028897 0.126637 0.058057
O O13 0.934570 0.062947 0.897960
O O14 0.750000 0.750000 0.481920
O O15 0.750000 0.829524 0.750000
O O16 0.650929 0.834144 0.534057
O O17 0.413865 0.250000 0.250000
#
# Coordination Sequence:
#
# PCOD9390563 Si02
#       8
#     8   8   8   8   2   8   8   8
#     4  10  22  43  64  96 131 172 219 267 326 398
#     4  11  24  43  67  95 129 175 223 269 331 404
#     4  10  25  41  63 102 128 165 222 278 324 391
#     4  10  22  39  63  93 129 167 212 269 328 383
#     4  12  24  40  70  92 122 180 216 268 332 408
#     4  11  23  42  62  96 130 171 221 266 324 390
#     4  10  20  41  65  89 129 171 215 259 329 397
#     4  11  21  40  63  89 131 168 210 264 327 389
#
# _framework density 20.897963000000001
#
# number of rings (size 3 to 8) (size 9 to 14) (size 15 to 20)
#    0.000    1.517    4.828    0.828    4.828    4.138 
#    2.483    1.724    0.000    0.000    0.000    0.000 
#    0.000    0.000    0.000    0.000    0.000    0.000 
#
# Total GULP energy -322960.642492 kJ/mol
# GULP energy per Si atom -5568.286940 kJ/mol
# Density = 2.085040 g / cm^3
# Si number density = 20.897963 Si / 1000 Ang^3
#
#
#
# Elastic Constant Matrix: (Units=GPa)
#
#
# Indices 1 2 3 4 5 6 
#
# 1 64.7076 18.9139 2.8461 0.0000 0.0000 0.0000
# 2 18.9139 102.1740 22.3841 0.0000 0.0000 0.0000
# 3 2.8461 22.3841 19.5465 0.0000 0.0000 0.0000
# 4 0.0000 0.0000 0.0000 7.2399 0.0000 0.0000
# 5 0.0000 0.0000 0.0000 0.0000 -68.3447 0.0000
# 6 0.0000 0.0000 0.0000 0.0000 0.0000 38.3755
#
#
#
# Elastic Compliance Matrix: (Units=1/GPa)
#
#
# Indices 1 2 3 4 5 6 
#
# 1 0.016369 -0.003348 0.001450 0.000000 0.000000 0.000000
# 2 -0.003348 0.013750 -0.015258 0.000000 0.000000 0.000000
# 3 0.001450 -0.015258 0.068422 0.000000 0.000000 0.000000
# 4 0.000000 0.000000 0.000000 0.138123 0.000000 0.000000
# 5 0.000000 0.000000 0.000000 0.000000 -0.014632 0.000000
# 6 0.000000 0.000000 0.000000 0.000000 0.000000 0.026058
#
#
# Mechanical properties :
#
#
# Convention : Reuss Voigt Hill
#
# Bulk Modulus (GPa) = 15.56922 30.52406 23.04664
# Shear Modulus (GPa) = 16.45758 4.93975 10.69866
#
# Velocity S-wave (km/s) = 2.80932 1.53912 2.26508
# Velocity P-wave (km/s) = 4.24139 4.21858 4.23000
#
# Compressibility (1/GPa) = 0.06422931
#
# Stress axis : x y z
#
# Youngs Moduli (GPa) = 61.09135 72.72871 14.61515
#
# Poissons Ratio (x) = 0.24349 -0.02120
# Poissons Ratio (y) = 0.20453 0.22300
# Poissons Ratio (z) = -0.08861 1.10972
#
# Static dielectric constant tensor:
#      x y z
#    x 1.778320 0.000000 0.000000 
#    y 0.000000 1.850640 0.000000 
#    z 0.000000 0.000000 1.767760 
# 
# From -- ./inp_files/14445.got.cif
#   From: 2010.05.17/outbox.cif.g08.bks.cpg/sg48_8_cif.got.tgz:14445.got - 2010.06.03 20:39:00.
