data_PCOD9390474
_publ_section_title
;
Structure prediction by ZEFSAII (Michael W. Deem and Ramdas Pophale) SiO2 
 PCOD9390474
Probable space group: P N N N
;
_chemical_formula_sum "Si O2"
_cell_formula_units_Z 58
_cell_length_a 8.500418
_cell_length_b 11.477812
_cell_length_c 29.250739
_cell_angle_alpha 90.000000
_cell_angle_beta 90.000000
_cell_angle_gamma 90.000000
_cell_volume 2853.883443
_symmetry_space_group_name_H-M "P N N N"
_symmetry_group_IT_number 48
_space_group.IT_coordinate_system_code '2'
_symmetry_cell_setting 'orthorhombic'
loop_
_space_group_symop_operation_xyz
x,y,z
1/2-x,1/2-y,z
x,1/2-y,1/2-z
1/2-x,y,1/2-z
-x,-y,-z
1/2+x,1/2+y,-z
-x,1/2+y,1/2+z
1/2+x,-y,1/2+z
loop_
_atom_site_type_symbol
_atom_site_label
_atom_site_fract_x
_atom_site_fract_y
_atom_site_fract_z
Si Si1 0.550959 0.533345 0.550915
Si Si2 0.588263 0.187614 0.622491
Si Si3 0.428391 0.703043 0.796934
Si Si4 0.837831 0.861390 0.389117
Si Si5 0.409916 0.063707 0.685914
Si Si6 0.250000 0.250000 0.750000
Si Si7 0.428600 0.496913 0.050866
Si Si8 0.060472 0.766294 0.900812
O O1 0.500000 0.500000 0.500000
O O2 0.439694 0.448295 0.580845
O O3 0.739175 0.515803 0.553131
O O4 0.513108 0.662982 0.568811
O O5 0.750000 0.250000 0.614503
O O6 0.467633 0.287514 0.638225
O O7 0.576772 0.093540 0.662584
O O8 0.539849 0.118339 0.576907
O O9 0.250000 0.750000 0.797601
O O10 0.504643 0.750000 0.750000
O O11 0.416236 0.564039 0.794204
O O12 0.492629 0.736949 0.847382
O O13 0.750000 0.750000 0.412851
O O14 0.718710 0.927850 0.355558
O O15 0.356600 0.162046 0.720866
O O16 0.509339 0.389872 0.077748
O O17 0.500000 0.500000 0.000000
O O18 0.250000 0.750000 0.902156
#
# Coordination Sequence:
#
# PCOD9390474 Si02
#       8
#     8   8   8   8   8   2   8   8
#     4  12  27  42  65 100 134 179 230 280 342 416
#     4  11  22  44  66  94 132 181 224 274 350 404
#     4  10  20  38  66 103 133 174 226 280 340 400
#     4  10  22  40  66  93 130 177 221 281 337 401
#     4  11  22  40  68  99 138 174 225 292 337 411
#     4  12  20  36  64 108 124 168 234 282 344 400
#     4  12  27  43  68  96 138 181 226 286 341 415
#     4  11  24  44  68  97 138 177 229 284 339 405
#
# _framework density 20.323184999999999
#
# number of rings (size 3 to 8) (size 9 to 14) (size 15 to 20)
#    0.000    0.966    4.828    3.724    7.724    0.552 
#    0.000    0.345    0.000    1.655    0.000    0.966 
#    0.000    0.000    0.000    0.000    0.000    0.000 
#
# Total GULP energy -323485.472629 kJ/mol
# GULP energy per Si atom -5577.335735 kJ/mol
# Density = 2.027693 g / cm^3
# Si number density = 20.323185 Si / 1000 Ang^3
#
#
#
# Elastic Constant Matrix: (Units=GPa)
#
#
# Indices 1 2 3 4 5 6 
#
# 1 82.9698 46.2655 39.7757 0.0000 0.0000 0.0000
# 2 46.2655 152.3162 69.4995 0.0000 0.0000 0.0000
# 3 39.7757 69.4995 151.8191 0.0000 0.0000 0.0000
# 4 0.0000 0.0000 0.0000 26.3615 0.0000 0.0000
# 5 0.0000 0.0000 0.0000 0.0000 10.0652 0.0000
# 6 0.0000 0.0000 0.0000 0.0000 0.0000 42.4899
#
#
#
# Elastic Compliance Matrix: (Units=1/GPa)
#
#
# Indices 1 2 3 4 5 6 
#
# 1 0.015148 -0.003527 -0.002354 0.000000 0.000000 0.000000
# 2 -0.003527 0.009120 -0.003251 0.000000 0.000000 0.000000
# 3 -0.002354 -0.003251 0.008692 0.000000 0.000000 0.000000
# 4 0.000000 0.000000 0.000000 0.037934 0.000000 0.000000
# 5 0.000000 0.000000 0.000000 0.000000 0.099352 0.000000
# 6 0.000000 0.000000 0.000000 0.000000 0.000000 0.023535
#
#
# Mechanical properties :
#
#
# Convention : Reuss Voigt Hill
#
# Bulk Modulus (GPa) = 68.04734 77.57628 72.81181
# Shear Modulus (GPa) = 23.04754 31.22095 27.13424
#
# Velocity S-wave (km/s) = 3.37122 3.92372 3.65792
# Velocity P-wave (km/s) = 6.97917 7.66692 7.33111
#
# Compressibility (1/GPa) = 0.01469565
#
# Stress axis : x y z
#
# Youngs Moduli (GPa) = 66.01613 109.65024 115.05217
#
# Poissons Ratio (x) = 0.38673 0.27084
# Poissons Ratio (y) = 0.23284 0.37402
# Poissons Ratio (z) = 0.15541 0.35646
#
# Static dielectric constant tensor:
#      x y z
#    x 1.319540 0.000000 0.000000 
#    y 0.000000 1.739040 0.000000 
#    z 0.000000 0.000000 1.770400 
# 
# From -- ./inp_files/37533.got.cif
#   From: 2010.05.17/outbox.cif.g08.bks.cpg/sg48_19_cif.got.tgz:37533.got - 2010.06.03 20:39:00.
