data_PCOD9390592
_publ_section_title
;
Structure prediction by ZEFSAII (Michael W. Deem and Ramdas Pophale) SiO2 
 PCOD9390592
Probable space group: P N N N
;
_chemical_formula_sum "Si O2"
_cell_formula_units_Z 48
_cell_length_a 9.137611
_cell_length_b 12.615072
_cell_length_c 18.312424
_cell_angle_alpha 90.000000
_cell_angle_beta 90.000000
_cell_angle_gamma 90.000000
_cell_volume 2110.902793
_symmetry_space_group_name_H-M "P N N N"
_symmetry_group_IT_number 48
_space_group.IT_coordinate_system_code '2'
_symmetry_cell_setting 'orthorhombic'
loop_
_space_group_symop_operation_xyz
x,y,z
1/2-x,1/2-y,z
x,1/2-y,1/2-z
1/2-x,y,1/2-z
-x,-y,-z
1/2+x,1/2+y,-z
-x,1/2+y,1/2+z
1/2+x,-y,1/2+z
loop_
_atom_site_type_symbol
_atom_site_label
_atom_site_fract_x
_atom_site_fract_y
_atom_site_fract_z
Si Si1 0.267143 0.003894 0.461321
Si Si2 0.100942 0.702121 0.022894
Si Si3 0.589781 0.500263 0.218193
Si Si4 0.584896 0.222006 0.357327
Si Si5 0.865440 0.904651 0.686249
Si Si6 0.063111 0.127388 0.918977
O O1 0.139873 0.920832 0.484439
O O2 0.413703 0.936924 0.441337
O O3 0.211355 0.065014 0.389591
O O4 0.313451 0.080431 0.527368
O O5 0.250000 0.750000 0.056699
O O6 0.967359 0.748546 0.068347
O O7 0.081806 0.757461 0.943955
O O8 0.750000 0.485312 0.250000
O O9 0.556495 0.397561 0.166911
O O10 0.470869 0.497277 0.282543
O O11 0.588559 0.599363 0.164704
O O12 0.750000 0.250000 0.334111
O O13 0.469421 0.303891 0.325136
O O14 0.750000 0.884895 0.750000
#
# Coordination Sequence:
#
# PCOD9390592 Si02
#       6
#     8   8   8   8   8   8
#     4  10  21  42  68 100 135 183 235 292 348 427
#     4   9  20  39  71  95 125 182 236 278 347 421
#     4  12  24  42  68  98 140 188 222 286 372 433
#     4  11  22  41  65 100 135 177 227 284 360 445
#     4  12  26  42  65 103 141 175 233 295 358 428
#     4  10  20  43  68  97 141 182 235 287 350 434
#
# _framework density 22.739087000000001
#
# number of rings (size 3 to 8) (size 9 to 14) (size 15 to 20)
#    0.000    1.333    3.333    4.500    0.000    2.000 
#    0.000    0.833    0.000    1.000    0.000    0.000 
#    0.000    0.000    0.000    0.000    0.000    0.000 
#
# Total GULP energy -268526.105055 kJ/mol
# GULP energy per Si atom -5594.293855 kJ/mol
# Density = 2.268733 g / cm^3
# Si number density = 22.739087 Si / 1000 Ang^3
#
#
#
# Elastic Constant Matrix: (Units=GPa)
#
#
# Indices 1 2 3 4 5 6 
#
# 1 104.6608 53.7172 41.4064 0.0000 0.0000 0.0000
# 2 53.7172 73.1462 30.7739 0.0000 0.0000 0.0000
# 3 41.4064 30.7739 94.1149 0.0000 0.0000 0.0000
# 4 0.0000 0.0000 0.0000 23.2944 0.0000 0.0000
# 5 0.0000 0.0000 0.0000 0.0000 27.0467 0.0000
# 6 0.0000 0.0000 0.0000 0.0000 0.0000 32.9553
#
#
#
# Elastic Compliance Matrix: (Units=1/GPa)
#
#
# Indices 1 2 3 4 5 6 
#
# 1 0.016433 -0.010466 -0.003807 0.000000 0.000000 0.000000
# 2 -0.010466 0.022518 -0.002758 0.000000 0.000000 0.000000
# 3 -0.003807 -0.002758 0.013202 0.000000 0.000000 0.000000
# 4 0.000000 0.000000 0.000000 0.042929 0.000000 0.000000
# 5 0.000000 0.000000 0.000000 0.000000 0.036973 0.000000
# 6 0.000000 0.000000 0.000000 0.000000 0.000000 0.030344
#
#
# Mechanical properties :
#
#
# Convention : Reuss Voigt Hill
#
# Bulk Modulus (GPa) = 55.28152 58.19076 56.73614
# Shear Modulus (GPa) = 24.69233 26.39424 25.54328
#
# Velocity S-wave (km/s) = 3.29887 3.41066 3.35523
# Velocity P-wave (km/s) = 6.23491 6.41532 6.32576
#
# Compressibility (1/GPa) = 0.01808923
#
# Stress axis : x y z
#
# Youngs Moduli (GPa) = 60.85433 44.40941 75.74409
#
# Poissons Ratio (x) = 0.46479 0.28839
# Poissons Ratio (y) = 0.63690 0.20893
# Poissons Ratio (z) = 0.23170 0.12250
#
# Static dielectric constant tensor:
#      x y z
#    x 1.868150 0.000000 0.000000 
#    y 0.000000 1.876810 0.000000 
#    z 0.000000 0.000000 1.853050 
# 
# From -- ./inp_files/30276.got.cif
#   From: 2010.05.17/outbox.cif.g08.bks.cpg/sg48_16_cif.got.tgz:30276.got - 2010.06.03 20:39:00.
