data_PCOD9390416
_publ_section_title
;
Structure prediction by ZEFSAII (Michael W. Deem and Ramdas Pophale) SiO2 
 PCOD9390416
Probable space group: P N N N
;
_chemical_formula_sum "Si O2"
_cell_formula_units_Z 48
_cell_length_a 17.004903
_cell_length_b 27.034268
_cell_length_c 4.929549
_cell_angle_alpha 90.000000
_cell_angle_beta 90.000000
_cell_angle_gamma 90.000000
_cell_volume 2266.188136
_symmetry_space_group_name_H-M "P N N N"
_symmetry_group_IT_number 48
_space_group.IT_coordinate_system_code '2'
_symmetry_cell_setting 'orthorhombic'
loop_
_space_group_symop_operation_xyz
x,y,z
1/2-x,1/2-y,z
x,1/2-y,1/2-z
1/2-x,y,1/2-z
-x,-y,-z
1/2+x,1/2+y,-z
-x,1/2+y,1/2+z
1/2+x,-y,1/2+z
loop_
_atom_site_type_symbol
_atom_site_label
_atom_site_fract_x
_atom_site_fract_y
_atom_site_fract_z
Si Si1 0.839921 0.051159 0.756161
Si Si2 0.445064 0.465313 0.311432
Si Si3 0.197176 0.100453 0.522841
Si Si4 0.884105 0.806038 0.203522
Si Si5 0.492117 0.194483 0.196090
Si Si6 0.586944 0.099037 0.281231
O O1 0.750000 0.036273 0.750000
O O2 0.873011 0.072056 0.473974
O O3 0.891030 0.003837 0.848567
O O4 0.854169 0.093710 0.972615
O O5 0.500000 0.500000 0.500000
O O6 0.382042 0.430203 0.461691
O O7 0.504961 0.429937 0.154841
O O8 0.250000 0.073402 0.750000
O O9 0.170445 0.151257 0.672944
O O10 0.250000 0.107416 0.250000
O O11 0.852444 0.750000 0.250000
O O12 0.961262 0.808760 0.390894
O O13 0.916180 0.813600 0.897667
O O14 0.518930 0.250000 0.250000
O O15 0.558567 0.154219 0.234686
#
# Coordination Sequence:
#
# PCOD9390416 Si02
#       6
#     8   8   8   8   8   8
#     4  11  24  41  61  93 128 162 201 255 318 378
#     4  10  24  41  65  91 121 165 220 261 305 367
#     4  12  26  41  63  92 132 172 207 264 326 379
#     4  10  21  40  62  90 124 166 208 256 307 369
#     4  10  20  37  67  95 120 155 211 263 305 362
#     4  11  22  40  68  90 122 161 208 258 309 367
#
# _framework density 21.180942000000002
#
# number of rings (size 3 to 8) (size 9 to 14) (size 15 to 20)
#    0.000    1.333    1.667    3.500    2.333    5.667 
#    0.000    0.833    0.000    3.000    0.000    0.000 
#    0.000    0.000    0.000    0.000    0.000    0.000 
#
# Total GULP energy -268178.554986 kJ/mol
# GULP energy per Si atom -5587.053229 kJ/mol
# Density = 2.113273 g / cm^3
# Si number density = 21.180942 Si / 1000 Ang^3
#
#
#
# Elastic Constant Matrix: (Units=GPa)
#
#
# Indices 1 2 3 4 5 6 
#
# 1 158.3673 38.4923 -2.6099 0.0000 0.0000 0.0000
# 2 38.4923 95.1774 -1.1798 0.0000 0.0000 0.0000
# 3 -2.6099 -1.1798 76.3809 0.0000 0.0000 0.0000
# 4 0.0000 0.0000 0.0000 16.8869 0.0000 0.0000
# 5 0.0000 0.0000 0.0000 0.0000 25.2141 0.0000
# 6 0.0000 0.0000 0.0000 0.0000 0.0000 76.5931
#
#
#
# Elastic Compliance Matrix: (Units=1/GPa)
#
#
# Indices 1 2 3 4 5 6 
#
# 1 0.007006 -0.002831 0.000196 0.000000 0.000000 0.000000
# 2 -0.002831 0.011653 0.000083 0.000000 0.000000 0.000000
# 3 0.000196 0.000083 0.013100 0.000000 0.000000 0.000000
# 4 0.000000 0.000000 0.000000 0.059218 0.000000 0.000000
# 5 0.000000 0.000000 0.000000 0.000000 0.039660 0.000000
# 6 0.000000 0.000000 0.000000 0.000000 0.000000 0.013056
#
#
# Mechanical properties :
#
#
# Convention : Reuss Voigt Hill
#
# Bulk Modulus (GPa) = 37.51689 44.37009 40.94349
# Shear Modulus (GPa) = 31.70953 43.42035 37.56494
#
# Velocity S-wave (km/s) = 3.87341 4.53257 4.21589
# Velocity P-wave (km/s) = 6.14454 6.95600 6.56282
#
# Compressibility (1/GPa) = 0.02665466
#
# Stress axis : x y z
#
# Youngs Moduli (GPa) = 142.74047 85.81766 76.33439
#
# Poissons Ratio (x) = 0.24294 -0.01494
# Poissons Ratio (y) = 0.40408 -0.00636
# Poissons Ratio (z) = -0.02793 -0.00714
#
# Static dielectric constant tensor:
#      x y z
#    x 2.036440 0.000000 0.000000 
#    y 0.000000 1.772830 0.000000 
#    z 0.000000 0.000000 1.784510 
# 
# From -- ./inp_files/3526.got.cif
#   From: 2010.05.17/outbox.cif.g08.bks.cpg/sg48_2_cif.got.tgz:3526.got - 2010.06.03 20:39:00.
