data_PCOD9390386
_publ_section_title
;
Structure prediction by ZEFSAII (Michael W. Deem and Ramdas Pophale) SiO2 
 PCOD9390386
Probable space group: P N N N
;
_chemical_formula_sum "Si O2"
_cell_formula_units_Z 64
_cell_length_a 15.390696
_cell_length_b 13.116914
_cell_length_c 14.008362
_cell_angle_alpha 90.000000
_cell_angle_beta 90.000000
_cell_angle_gamma 90.000000
_cell_volume 2827.986209
_symmetry_space_group_name_H-M "P N N N"
_symmetry_group_IT_number 48
_space_group.IT_coordinate_system_code '2'
_symmetry_cell_setting 'orthorhombic'
loop_
_space_group_symop_operation_xyz
x,y,z
1/2-x,1/2-y,z
x,1/2-y,1/2-z
1/2-x,y,1/2-z
-x,-y,-z
1/2+x,1/2+y,-z
-x,1/2+y,1/2+z
1/2+x,-y,1/2+z
loop_
_atom_site_type_symbol
_atom_site_label
_atom_site_fract_x
_atom_site_fract_y
_atom_site_fract_z
Si Si1 0.080095 0.134464 0.527089
Si Si2 0.494770 0.196802 0.650123
Si Si3 0.128055 0.706229 0.646865
Si Si4 0.680501 0.163145 0.547973
Si Si5 0.913240 0.427444 0.068453
Si Si6 0.515821 0.477936 0.222620
Si Si7 0.324301 0.026027 0.325340
Si Si8 0.352737 0.236284 0.358447
O O1 0.102138 0.185579 0.426903
O O2 0.074673 0.225442 0.603009
O O3 0.981655 0.094256 0.516147
O O4 0.136638 0.031860 0.540310
O O5 0.521261 0.250000 0.750000
O O6 0.580797 0.185099 0.583093
O O7 0.456629 0.083546 0.670848
O O8 0.156905 0.750000 0.750000
O O9 0.183248 0.646269 0.566750
O O10 0.116879 0.813013 0.590669
O O11 0.049787 0.625901 0.669865
O O12 0.750000 0.250000 0.572063
O O13 0.705954 0.065100 0.609340
O O14 0.949525 0.464081 0.171002
O O15 0.412635 0.496328 0.231088
O O16 0.250000 0.055305 0.250000
O O17 0.358816 0.119447 0.389241
O O18 0.250000 0.250000 0.359765
O O19 0.384616 0.250000 0.250000
#
# Coordination Sequence:
#
# PCOD9390386 Si02
#       8
#     8   8   8   8   8   8   8   8
#     4  11  22  36  66  93 127 166 217 271 325 399
#     4  11  23  41  62  97 133 168 220 281 343 405
#     4  10  22  44  66  95 129 171 230 279 330 392
#     4  11  27  41  63  93 133 181 225 272 341 410
#     4  10  20  37  61  95 120 167 214 272 321 387
#     4  10  22  38  68  91 134 171 218 280 338 400
#     4  11  24  39  63  95 135 177 214 272 347 421
#     4  11  23  43  61  94 132 172 212 264 337 407
#
# _framework density 22.630944
#
# number of rings (size 3 to 8) (size 9 to 14) (size 15 to 20)
#    0.000    1.375    3.750    1.500    5.250    3.250 
#    0.000    0.000    0.000    0.375    0.000    0.000 
#    0.000    0.000    0.000    0.000    0.000    0.000 
#
# Total GULP energy -356493.608248 kJ/mol
# GULP energy per Si atom -5570.212629 kJ/mol
# Density = 2.257943 g / cm^3
# Si number density = 22.630944 Si / 1000 Ang^3
#
#
#
# Elastic Constant Matrix: (Units=GPa)
#
#
# Indices 1 2 3 4 5 6 
#
# 1 42.0441 28.7691 11.1884 0.0000 0.0000 0.0000
# 2 28.7691 164.4609 36.3612 0.0000 0.0000 0.0000
# 3 11.1884 36.3612 86.2655 0.0000 0.0000 0.0000
# 4 0.0000 0.0000 0.0000 35.5180 0.0000 0.0000
# 5 0.0000 0.0000 0.0000 0.0000 1.4405 0.0000
# 6 0.0000 0.0000 0.0000 0.0000 0.0000 17.3422
#
#
#
# Elastic Compliance Matrix: (Units=1/GPa)
#
#
# Indices 1 2 3 4 5 6 
#
# 1 0.027238 -0.004393 -0.001681 0.000000 0.000000 0.000000
# 2 -0.004393 0.007414 -0.002555 0.000000 0.000000 0.000000
# 3 -0.001681 -0.002555 0.012887 0.000000 0.000000 0.000000
# 4 0.000000 0.000000 0.000000 0.028155 0.000000 0.000000
# 5 0.000000 0.000000 0.000000 0.000000 0.694217 0.000000
# 6 0.000000 0.000000 0.000000 0.000000 0.000000 0.057663
#
#
# Mechanical properties :
#
#
# Convention : Reuss Voigt Hill
#
# Bulk Modulus (GPa) = 33.02465 49.48977 41.25721
# Shear Modulus (GPa) = 5.84847 25.29024 15.56935
#
# Velocity S-wave (km/s) = 1.60931 3.34654 2.62576
# Velocity P-wave (km/s) = 4.25177 6.07026 5.24050
#
# Compressibility (1/GPa) = 0.03028041
#
# Stress axis : x y z
#
# Youngs Moduli (GPa) = 36.71357 134.88199 77.59648
#
# Poissons Ratio (x) = 0.59254 0.13044
# Poissons Ratio (y) = 0.16128 0.19828
# Poissons Ratio (z) = 0.06172 0.34465
#
# Static dielectric constant tensor:
#      x y z
#    x 1.923250 0.000000 0.000000 
#    y 0.000000 2.031770 0.000000 
#    z 0.000000 0.000000 1.843860 
# 
# From -- ./inp_files/28056.got.cif
#   From: 2010.05.17/outbox.cif.g08.bks.cpg/sg48_15_cif.got.tgz:28056.got - 2010.06.03 20:39:00.
