data_PCOD9390165
_publ_section_title
;
Structure prediction by ZEFSAII (Michael W. Deem and Ramdas Pophale) SiO2 
 PCOD9390165
Probable space group: P N N N
;
_chemical_formula_sum "Si O2"
_cell_formula_units_Z 24
_cell_length_a 11.343550
_cell_length_b 12.471271
_cell_length_c 7.133658
_cell_angle_alpha 90.000000
_cell_angle_beta 90.000000
_cell_angle_gamma 90.000000
_cell_volume 1009.187798
_symmetry_space_group_name_H-M "P N N N"
_symmetry_group_IT_number 48
_space_group.IT_coordinate_system_code '2'
_symmetry_cell_setting 'orthorhombic'
loop_
_space_group_symop_operation_xyz
x,y,z
1/2-x,1/2-y,z
x,1/2-y,1/2-z
1/2-x,y,1/2-z
-x,-y,-z
1/2+x,1/2+y,-z
-x,1/2+y,1/2+z
1/2+x,-y,1/2+z
loop_
_atom_site_type_symbol
_atom_site_label
_atom_site_fract_x
_atom_site_fract_y
_atom_site_fract_z
Si Si1 0.940992 0.745691 0.476639
Si Si2 0.235820 0.083759 0.522811
Si Si3 0.808981 0.351420 0.455826
O O1 0.954453 0.750000 0.250000
O O2 0.056134 0.686535 0.555124
O O3 0.892500 0.865714 0.524784
O O4 0.835027 0.667904 0.536037
O O5 0.250000 0.084699 0.750000
O O6 0.274938 0.965968 0.458865
O O7 0.750000 0.250000 0.553025
O O8 0.750000 0.357787 0.250000
#
# Coordination Sequence:
#
# PCOD9390165 Si02
#       3
#     8   8   8
#     4   9  17  32  56  80 104 135 179 225 265 319
#     4   8  16  32  54  80 104 135 175 220 275 326
#     4  10  20  32  49  75 111 145 172 211 270 327
#
# _framework density 23.781497999999999
#
# number of rings (size 3 to 8) (size 9 to 14) (size 15 to 20)
#    0.000    3.000    0.000    3.000    0.000    2.000 
#    0.000    0.000    0.000   24.000    0.000    0.000 
#    0.000    0.000    0.000    0.000    0.000    0.000 
#
# Total GULP energy -133682.304748 kJ/mol
# GULP energy per Si atom -5570.096031 kJ/mol
# Density = 2.372737 g / cm^3
# Si number density = 23.781498 Si / 1000 Ang^3
#
#
#
# Elastic Constant Matrix: (Units=GPa)
#
#
# Indices 1 2 3 4 5 6 
#
# 1 185.8000 100.9275 25.0614 0.0000 0.0000 0.0000
# 2 100.9275 241.6674 6.8652 0.0000 0.0000 0.0000
# 3 25.0614 6.8652 115.4580 0.0000 0.0000 0.0000
# 4 0.0000 0.0000 0.0000 -28.2303 0.0000 0.0000
# 5 0.0000 0.0000 0.0000 0.0000 18.3592 0.0000
# 6 0.0000 0.0000 0.0000 0.0000 0.0000 58.4439
#
#
#
# Elastic Compliance Matrix: (Units=1/GPa)
#
#
# Indices 1 2 3 4 5 6 
#
# 1 0.007175 -0.002957 -0.001382 0.000000 0.000000 0.000000
# 2 -0.002957 0.005364 0.000323 0.000000 0.000000 0.000000
# 3 -0.001382 0.000323 0.008942 0.000000 0.000000 0.000000
# 4 0.000000 0.000000 0.000000 -0.035423 0.000000 0.000000
# 5 0.000000 0.000000 0.000000 0.000000 0.054468 0.000000
# 6 0.000000 0.000000 0.000000 0.000000 0.000000 0.017110
#
#
# Mechanical properties :
#
#
# Convention : Reuss Voigt Hill
#
# Bulk Modulus (GPa) = 74.35556 89.84817 82.10187
# Shear Modulus (GPa) = 71.27499 37.05267 54.16383
#
# Velocity S-wave (km/s) = 5.48050 3.95149 4.77756
# Velocity P-wave (km/s) = 8.44878 7.66040 8.06423
#
# Compressibility (1/GPa) = 0.01344889
#
# Stress axis : x y z
#
# Youngs Moduli (GPa) = 139.37607 186.43680 111.83391
#
# Poissons Ratio (x) = 0.55133 0.15450
# Poissons Ratio (y) = 0.41216 -0.03612
# Poissons Ratio (z) = 0.19255 -0.06021
#
# Static dielectric constant tensor:
#      x y z
#    x 2.002010 0.000000 0.000000 
#    y 0.000000 2.003510 0.000000 
#    z 0.000000 0.000000 2.043030 
# 
# From -- ./inp_files/9774.got.cif
#   From: 2010.05.17/outbox.cif.g08.bks.cpg/sg48_5_cif.got.tgz:9774.got - 2010.06.03 20:39:00.
