data_PCOD9390630
_publ_section_title
;
Structure prediction by ZEFSAII (Michael W. Deem and Ramdas Pophale) SiO2 
 PCOD9390630
Probable space group: P N N N
;
_chemical_formula_sum "Si O2"
_cell_formula_units_Z 42
_cell_length_a 17.963360
_cell_length_b 20.196929
_cell_length_c 6.372695
_cell_angle_alpha 90.000000
_cell_angle_beta 90.000000
_cell_angle_gamma 90.000000
_cell_volume 2312.043739
_symmetry_space_group_name_H-M "P N N N"
_symmetry_group_IT_number 48
_space_group.IT_coordinate_system_code '2'
_symmetry_cell_setting 'orthorhombic'
loop_
_space_group_symop_operation_xyz
x,y,z
1/2-x,1/2-y,z
x,1/2-y,1/2-z
1/2-x,y,1/2-z
-x,-y,-z
1/2+x,1/2+y,-z
-x,1/2+y,1/2+z
1/2+x,-y,1/2+z
loop_
_atom_site_type_symbol
_atom_site_label
_atom_site_fract_x
_atom_site_fract_y
_atom_site_fract_z
Si Si1 0.992106 0.818508 0.309129
Si Si2 0.078818 0.615620 0.573479
Si Si3 0.661816 0.032422 0.764049
Si Si4 0.750000 0.250000 0.750000
Si Si5 0.541945 0.563495 0.594648
Si Si6 0.360531 0.835415 0.968868
O O1 0.952370 0.750000 0.250000
O O2 0.060323 0.803910 0.467651
O O3 0.949324 0.878379 0.422702
O O4 0.034843 0.845000 0.104739
O O5 0.125931 0.560145 0.451183
O O6 0.136098 0.657500 0.718031
O O7 0.014160 0.588169 0.724582
O O8 0.750000 0.025420 0.750000
O O9 0.619416 0.965215 0.822314
O O10 0.643851 0.089900 0.936087
O O11 0.700873 0.295171 0.595574
O O12 0.500000 0.500000 0.500000
#
# Coordination Sequence:
#
# PCOD9390630 Si02
#       6
#     8   8   8   2   8   8
#     4  10  21  38  55  84 116 146 206 246 280 353
#     4  10  21  38  61  80 115 162 192 240 293 340
#     4  11  22  38  53  88 121 145 198 252 290 352
#     4  12  20  40  46  76 130 168 196 238 276 364
#     4  11  20  37  62  85 115 154 198 244 294 348
#     4  10  21  35  54  77 116 162 199 231 280 344
#
# _framework density 18.165745999999999
#
# number of rings (size 3 to 8) (size 9 to 14) (size 15 to 20)
#    0.000    1.524    7.619    0.571    0.000    3.810 
#    0.000    5.714    0.000    0.000    0.000    4.000 
#    0.000    0.000    0.000    0.000    0.000    0.000 
#
# Total GULP energy -234293.116116 kJ/mol
# GULP energy per Si atom -5578.407527 kJ/mol
# Density = 1.812440 g / cm^3
# Si number density = 18.165746 Si / 1000 Ang^3
#
#
#
# Elastic Constant Matrix: (Units=GPa)
#
#
# Indices 1 2 3 4 5 6 
#
# 1 70.9985 44.9902 29.4596 0.0000 0.0000 0.0000
# 2 44.9902 120.4570 56.1174 0.0000 0.0000 0.0000
# 3 29.4596 56.1174 115.0909 0.0000 0.0000 0.0000
# 4 0.0000 0.0000 0.0000 19.9776 0.0000 0.0000
# 5 0.0000 0.0000 0.0000 0.0000 18.6820 0.0000
# 6 0.0000 0.0000 0.0000 0.0000 0.0000 21.9640
#
#
#
# Elastic Compliance Matrix: (Units=1/GPa)
#
#
# Indices 1 2 3 4 5 6 
#
# 1 0.018733 -0.006163 -0.001790 0.000000 0.000000 0.000000
# 2 -0.006163 0.012769 -0.004649 0.000000 0.000000 0.000000
# 3 -0.001790 -0.004649 0.011414 0.000000 0.000000 0.000000
# 4 0.000000 0.000000 0.000000 0.050056 0.000000 0.000000
# 5 0.000000 0.000000 0.000000 0.000000 0.053528 0.000000
# 6 0.000000 0.000000 0.000000 0.000000 0.000000 0.045529
#
#
# Mechanical properties :
#
#
# Convention : Reuss Voigt Hill
#
# Bulk Modulus (GPa) = 56.45694 63.07564 59.76629
# Shear Modulus (GPa) = 22.40794 23.85666 23.13230
#
# Velocity S-wave (km/s) = 3.51597 3.62785 3.57235
# Velocity P-wave (km/s) = 6.90138 7.23506 7.07019
#
# Compressibility (1/GPa) = 0.01771262
#
# Stress axis : x y z
#
# Youngs Moduli (GPa) = 53.38255 78.31405 87.61430
#
# Poissons Ratio (x) = 0.48262 0.15684
# Poissons Ratio (y) = 0.32898 0.40729
# Poissons Ratio (z) = 0.09556 0.36406
#
# Static dielectric constant tensor:
#      x y z
#    x 1.619680 0.000000 0.000000 
#    y 0.000000 1.681610 0.000000 
#    z 0.000000 0.000000 1.728850 
# 
# From -- ./inp_files/4419.got.cif
#   From: 2010.05.17/outbox.cif.g08.bks.cpg/sg48_3_cif.got.tgz:4419.got - 2010.06.03 20:39:00.
