data_PCOD9390743
_publ_section_title
;
Structure prediction by ZEFSAII (Michael W. Deem and Ramdas Pophale) SiO2 
 PCOD9390743
Probable space group: P N N N
;
_chemical_formula_sum "Si O2"
_cell_formula_units_Z 36
_cell_length_a 23.350819
_cell_length_b 13.766721
_cell_length_c 4.794746
_cell_angle_alpha 90.000000
_cell_angle_beta 90.000000
_cell_angle_gamma 90.000000
_cell_volume 1541.339236
_symmetry_space_group_name_H-M "P N N N"
_symmetry_group_IT_number 48
_space_group.IT_coordinate_system_code '2'
_symmetry_cell_setting 'orthorhombic'
loop_
_space_group_symop_operation_xyz
x,y,z
1/2-x,1/2-y,z
x,1/2-y,1/2-z
1/2-x,y,1/2-z
-x,-y,-z
1/2+x,1/2+y,-z
-x,1/2+y,1/2+z
1/2+x,-y,1/2+z
loop_
_atom_site_type_symbol
_atom_site_label
_atom_site_fract_x
_atom_site_fract_y
_atom_site_fract_z
Si Si1 0.368466 0.490739 0.772172
Si Si2 0.094509 0.250000 0.250000
Si Si3 0.815869 0.899570 0.763467
Si Si4 0.978474 0.600391 0.132822
Si Si5 0.593722 0.186868 0.978915
O O1 0.338065 0.423008 0.543519
O O2 0.430940 0.443196 0.841150
O O3 0.377810 0.592612 0.617720
O O4 0.328868 0.492357 0.042218
O O5 0.141761 0.180694 0.104419
O O6 0.054683 0.180406 0.440645
O O7 0.750000 0.872723 0.750000
O O8 0.038571 0.650079 0.200848
O O9 0.000000 0.500000 0.000000
O O10 0.627702 0.250000 0.750000
O O11 0.576919 0.250000 0.250000
#
# Coordination Sequence:
#
# PCOD9390743 Si02
#       5
#     8   4   8   8   8
#     4  10  23  40  61  92 130 170 221 280 334 396
#     4  10  21  38  62  96 134 174 227 274 332 412
#     4  11  23  41  65  90 126 173 227 283 342 394
#     4   9  20  36  59  94 136 181 217 267 332 407
#     4  11  22  37  63  93 131 174 220 265 334 410
#
# _framework density 23.356311999999999
#
# number of rings (size 3 to 8) (size 9 to 14) (size 15 to 20)
#    0.000    1.778    1.111    2.333    3.111    2.667 
#    0.000   13.333    0.000   10.000    0.000    0.000 
#    0.000    0.000    0.000    0.000    0.000    0.000 
#
# Total GULP energy -200673.732823 kJ/mol
# GULP energy per Si atom -5574.270356 kJ/mol
# Density = 2.330315 g / cm^3
# Si number density = 23.356312 Si / 1000 Ang^3
#
#
#
# Elastic Constant Matrix: (Units=GPa)
#
#
# Indices 1 2 3 4 5 6 
#
# 1 91.9058 30.3501 14.5714 0.0000 0.0000 0.0000
# 2 30.3501 97.3452 12.6881 0.0000 0.0000 0.0000
# 3 14.5714 12.6881 91.4798 0.0000 0.0000 0.0000
# 4 0.0000 0.0000 0.0000 34.6635 0.0000 0.0000
# 5 0.0000 0.0000 0.0000 0.0000 24.8683 0.0000
# 6 0.0000 0.0000 0.0000 0.0000 0.0000 14.8203
#
#
#
# Elastic Compliance Matrix: (Units=1/GPa)
#
#
# Indices 1 2 3 4 5 6 
#
# 1 0.012317 -0.003650 -0.001456 0.000000 0.000000 0.000000
# 2 -0.003650 0.011544 -0.001020 0.000000 0.000000 0.000000
# 3 -0.001456 -0.001020 0.011305 0.000000 0.000000 0.000000
# 4 0.000000 0.000000 0.000000 0.028849 0.000000 0.000000
# 5 0.000000 0.000000 0.000000 0.000000 0.040212 0.000000
# 6 0.000000 0.000000 0.000000 0.000000 0.000000 0.067475
#
#
# Mechanical properties :
#
#
# Convention : Reuss Voigt Hill
#
# Bulk Modulus (GPa) = 43.64140 43.99443 43.81792
# Shear Modulus (GPa) = 26.09734 29.74517 27.92125
#
# Velocity S-wave (km/s) = 3.34632 3.57254 3.46128
# Velocity P-wave (km/s) = 5.80138 5.99120 5.89706
#
# Compressibility (1/GPa) = 0.02291402
#
# Stress axis : x y z
#
# Youngs Moduli (GPa) = 81.18875 86.62700 88.45916
#
# Poissons Ratio (x) = 0.31623 0.12876
# Poissons Ratio (y) = 0.29637 0.09020
# Poissons Ratio (z) = 0.11818 0.08833
#
# Static dielectric constant tensor:
#      x y z
#    x 1.884820 0.000000 0.000000 
#    y 0.000000 2.031470 0.000000 
#    z 0.000000 0.000000 1.999130 
# 
# From -- ./inp_files/2246.got.cif
#   From: 2010.05.17/outbox.cif.g08.bks.cpg/sg48_2_cif.got.tgz:2246.got - 2010.06.03 20:39:00.
