data_PCOD9390379
_publ_section_title
;
Structure prediction by ZEFSAII (Michael W. Deem and Ramdas Pophale) SiO2 
 PCOD9390379
Probable space group: P N N N
;
_chemical_formula_sum "Si O2"
_cell_formula_units_Z 64
_cell_length_a 15.459441
_cell_length_b 8.515699
_cell_length_c 24.057277
_cell_angle_alpha 90.000000
_cell_angle_beta 90.000000
_cell_angle_gamma 90.000000
_cell_volume 3167.091110
_symmetry_space_group_name_H-M "P N N N"
_symmetry_group_IT_number 48
_space_group.IT_coordinate_system_code '2'
_symmetry_cell_setting 'orthorhombic'
loop_
_space_group_symop_operation_xyz
x,y,z
1/2-x,1/2-y,z
x,1/2-y,1/2-z
1/2-x,y,1/2-z
-x,-y,-z
1/2+x,1/2+y,-z
-x,1/2+y,1/2+z
1/2+x,-y,1/2+z
loop_
_atom_site_type_symbol
_atom_site_label
_atom_site_fract_x
_atom_site_fract_y
_atom_site_fract_z
Si Si1 0.654933 0.933051 0.241783
Si Si2 0.695022 0.523433 0.585225
Si Si3 0.751469 0.431475 0.469565
Si Si4 0.527750 0.147413 0.305499
Si Si5 0.515049 0.413956 0.559280
Si Si6 0.383198 0.588061 0.629766
Si Si7 0.577383 0.612348 0.016027
Si Si8 0.129719 0.354524 0.389410
O O1 0.660264 0.750000 0.250000
O O2 0.750000 0.007478 0.250000
O O3 0.581123 0.002510 0.281180
O O4 0.633532 0.968046 0.178613
O O5 0.712468 0.539866 0.518586
O O6 0.614394 0.401880 0.580606
O O7 0.793483 0.513716 0.609197
O O8 0.663496 0.676460 0.619109
O O9 0.750000 0.250000 0.490941
O O10 0.691955 0.421616 0.415523
O O11 0.844852 0.508540 0.458366
O O12 0.503444 0.250000 0.250000
O O13 0.597111 0.246369 0.341734
O O14 0.446756 0.111871 0.345847
O O15 0.500000 0.500000 0.500000
O O16 0.470428 0.533814 0.600787
O O17 0.461532 0.252175 0.553368
O O18 0.500000 0.500000 0.000000
O O19 0.603816 0.665099 0.954132
#
# Coordination Sequence:
#
# PCOD9390379 Si02
#       8
#     8   8   8   8   8   8   8   8
#     4  10  25  45  64  92 129 166 216 273 329 398
#     4  10  20  37  60  88 133 166 214 268 322 395
#     4  11  24  37  57  93 134 168 219 268 332 414
#     4  10  22  41  68  95 126 167 229 278 337 398
#     4  12  20  38  62  89 129 170 211 265 332 404
#     4  11  23  38  65  91 123 169 209 270 335 397
#     4  11  24  35  56  92 129 175 218 259 325 413
#     4  10  20  38  62  89 127 174 215 277 327 383
#
# _framework density 20.207816999999999
#
# number of rings (size 3 to 8) (size 9 to 14) (size 15 to 20)
#    0.000    1.375    3.750    0.750    3.500    5.250 
#    0.000    1.250    0.000    0.000    0.000    0.875 
#    0.000    0.000    0.000    0.000    0.000    0.000 
#
# Total GULP energy -356464.014250 kJ/mol
# GULP energy per Si atom -5569.750223 kJ/mol
# Density = 2.016182 g / cm^3
# Si number density = 20.207817 Si / 1000 Ang^3
#
#
#
# Elastic Constant Matrix: (Units=GPa)
#
#
# Indices 1 2 3 4 5 6 
#
# 1 146.4099 39.1106 49.8332 0.0000 0.0000 0.0000
# 2 39.1106 63.0181 15.1202 0.0000 0.0000 0.0000
# 3 49.8332 15.1202 93.7560 0.0000 0.0000 0.0000
# 4 0.0000 0.0000 0.0000 12.7404 0.0000 0.0000
# 5 0.0000 0.0000 0.0000 0.0000 -756.8052 0.0000
# 6 0.0000 0.0000 0.0000 0.0000 0.0000 28.7325
#
#
#
# Elastic Compliance Matrix: (Units=1/GPa)
#
#
# Indices 1 2 3 4 5 6 
#
# 1 0.009617 -0.004933 -0.004316 0.000000 0.000000 0.000000
# 2 -0.004933 0.019037 -0.000448 0.000000 0.000000 0.000000
# 3 -0.004316 -0.000448 0.013032 0.000000 0.000000 0.000000
# 4 0.000000 0.000000 0.000000 0.078490 0.000000 0.000000
# 5 0.000000 0.000000 0.000000 0.000000 -0.001321 0.000000
# 6 0.000000 0.000000 0.000000 0.000000 0.000000 0.034804
#
#
# Mechanical properties :
#
#
# Convention : Reuss Voigt Hill
#
# Bulk Modulus (GPa) = 44.85856 56.81243 50.83550
# Shear Modulus (GPa) = 27.70316 -129.79180 -51.04432
#
# Velocity S-wave (km/s) = 3.70660 -8.02296 -5.03135
# Velocity P-wave (km/s) = 6.36909 7.59268 2.92263
#
# Compressibility (1/GPa) = 0.02229229
#
# Stress axis : x y z
#
# Youngs Moduli (GPa) = 103.98343 52.52793 76.73216
#
# Poissons Ratio (x) = 0.25912 0.33118
# Poissons Ratio (y) = 0.51294 0.03440
# Poissons Ratio (z) = 0.44880 0.02355
#
# Static dielectric constant tensor:
#      x y z
#    x 1.802580 0.000000 0.000000 
#    y 0.000000 2.381320 0.000000 
#    z 0.000000 0.000000 1.757830 
# 
# From -- ./inp_files/36568.got.cif
#   From: 2010.05.17/outbox.cif.g08.bks.cpg/sg48_19_cif.got.tgz:36568.got - 2010.06.03 20:39:00.
