data_PCOD9390470
_publ_section_title
;
Structure prediction by ZEFSAII (Michael W. Deem and Ramdas Pophale) SiO2 
 PCOD9390470
Probable space group: P N N N
;
_chemical_formula_sum "Si O2"
_cell_formula_units_Z 58
_cell_length_a 8.396050
_cell_length_b 12.860426
_cell_length_c 26.224611
_cell_angle_alpha 90.000000
_cell_angle_beta 90.000000
_cell_angle_gamma 90.000000
_cell_volume 2831.649045
_symmetry_space_group_name_H-M "P N N N"
_symmetry_group_IT_number 48
_space_group.IT_coordinate_system_code '2'
_symmetry_cell_setting 'orthorhombic'
loop_
_space_group_symop_operation_xyz
x,y,z
1/2-x,1/2-y,z
x,1/2-y,1/2-z
1/2-x,y,1/2-z
-x,-y,-z
1/2+x,1/2+y,-z
-x,1/2+y,1/2+z
1/2+x,-y,1/2+z
loop_
_atom_site_type_symbol
_atom_site_label
_atom_site_fract_x
_atom_site_fract_y
_atom_site_fract_z
Si Si1 0.274157 0.631575 0.874270
Si Si2 0.826620 0.860125 0.399542
Si Si3 0.979630 0.564036 0.711706
Si Si4 0.565500 0.990176 0.181413
Si Si5 0.750000 0.750000 0.750000
Si Si6 0.667772 0.023869 0.473900
Si Si7 0.270111 0.625779 0.173693
Si Si8 0.690128 0.359865 0.562234
O O1 0.250000 0.750000 0.862427
O O2 0.402360 0.586240 0.834735
O O3 0.105126 0.574821 0.862434
O O4 0.334209 0.614849 0.931637
O O5 0.750000 0.750000 0.401121
O O6 0.009813 0.856078 0.417833
O O7 0.819895 0.900741 0.340935
O O8 0.731159 0.930846 0.439103
O O9 0.862176 0.665215 0.719590
O O10 0.893161 0.452583 0.700809
O O11 0.074182 0.546219 0.764563
O O12 0.395024 0.935249 0.181480
O O13 0.785088 0.053868 0.519707
O O14 0.500000 0.000000 0.500000
O O15 0.250000 0.750000 0.187503
O O16 0.298274 0.623631 0.112738
O O17 0.750000 0.250000 0.540527
#
# Coordination Sequence:
#
# PCOD9390470 Si02
#       8
#     8   8   8   8   2   8   8   8
#     4  11  25  41  63  92 134 174 217 273 332 402
#     4  10  22  39  63  93 128 170 215 275 335 402
#     4  12  23  42  65  94 126 174 221 267 334 391
#     4  10  22  41  61  91 130 167 219 267 331 392
#     4  12  24  40  72  88 128 168 222 278 316 408
#     4  11  22  40  64  92 127 167 221 280 331 406
#     4  10  22  41  66  97 132 171 219 277 326 394
#     4  10  20  38  65  90 126 170 214 267 336 390
#
# _framework density 20.482762999999998
#
# number of rings (size 3 to 8) (size 9 to 14) (size 15 to 20)
#    0.000    1.379    1.379    3.724    0.000    7.172 
#    0.000    1.379    6.069    0.000    0.000    0.000 
#    0.000    0.000    0.000    0.000    0.000    0.000 
#
# Total GULP energy -323223.598803 kJ/mol
# GULP energy per Si atom -5572.820669 kJ/mol
# Density = 2.043614 g / cm^3
# Si number density = 20.482763 Si / 1000 Ang^3
#
#
#
# Elastic Constant Matrix: (Units=GPa)
#
#
# Indices 1 2 3 4 5 6 
#
# 1 87.3620 39.4958 35.4035 0.0000 0.0000 0.0000
# 2 39.4958 111.9617 25.0325 0.0000 0.0000 0.0000
# 3 35.4035 25.0325 122.6161 0.0000 0.0000 0.0000
# 4 0.0000 0.0000 0.0000 64.6781 0.0000 0.0000
# 5 0.0000 0.0000 0.0000 0.0000 40.8975 0.0000
# 6 0.0000 0.0000 0.0000 0.0000 0.0000 26.8716
#
#
#
# Elastic Compliance Matrix: (Units=1/GPa)
#
#
# Indices 1 2 3 4 5 6 
#
# 1 0.014838 -0.004481 -0.003369 0.000000 0.000000 0.000000
# 2 -0.004481 0.010712 -0.000893 0.000000 0.000000 0.000000
# 3 -0.003369 -0.000893 0.009311 0.000000 0.000000 0.000000
# 4 0.000000 0.000000 0.000000 0.015461 0.000000 0.000000
# 5 0.000000 0.000000 0.000000 0.000000 0.024451 0.000000
# 6 0.000000 0.000000 0.000000 0.000000 0.000000 0.037214
#
#
# Mechanical properties :
#
#
# Convention : Reuss Voigt Hill
#
# Bulk Modulus (GPa) = 57.55802 57.97815 57.76808
# Shear Modulus (GPa) = 36.96441 41.28998 39.12720
#
# Velocity S-wave (km/s) = 4.25274 4.49468 4.37538
# Velocity P-wave (km/s) = 7.23022 7.43663 7.33415
#
# Compressibility (1/GPa) = 0.01737377
#
# Stress axis : x y z
#
# Youngs Moduli (GPa) = 67.39518 93.35330 107.40301
#
# Poissons Ratio (x) = 0.41831 0.36188
# Poissons Ratio (y) = 0.30199 0.09592
# Poissons Ratio (z) = 0.22708 0.08337
#
# Static dielectric constant tensor:
#      x y z
#    x 1.801520 0.000000 0.000000 
#    y 0.000000 1.769690 0.000000 
#    z 0.000000 0.000000 1.742660 
# 
# From -- ./inp_files/37548.got.cif
#   From: 2010.05.17/outbox.cif.g08.bks.cpg/sg48_19_cif.got.tgz:37548.got - 2010.06.03 20:39:00.
