data_PCOD9390553
_publ_section_title
;
Structure prediction by ZEFSAII (Michael W. Deem and Ramdas Pophale) SiO2 
 PCOD9390553
Probable space group: P N N N
;
_chemical_formula_sum "Si O2"
_cell_formula_units_Z 54
_cell_length_a 12.830156
_cell_length_b 15.210527
_cell_length_c 12.939276
_cell_angle_alpha 90.000000
_cell_angle_beta 90.000000
_cell_angle_gamma 90.000000
_cell_volume 2525.144148
_symmetry_space_group_name_H-M "P N N N"
_symmetry_group_IT_number 48
_space_group.IT_coordinate_system_code '2'
_symmetry_cell_setting 'orthorhombic'
loop_
_space_group_symop_operation_xyz
x,y,z
1/2-x,1/2-y,z
x,1/2-y,1/2-z
1/2-x,y,1/2-z
-x,-y,-z
1/2+x,1/2+y,-z
-x,1/2+y,1/2+z
1/2+x,-y,1/2+z
loop_
_atom_site_type_symbol
_atom_site_label
_atom_site_fract_x
_atom_site_fract_y
_atom_site_fract_z
Si Si1 0.104880 0.548783 0.460917
Si Si2 0.774977 0.886809 0.017232
Si Si3 0.980022 0.750000 0.750000
Si Si4 0.405104 0.910345 0.223564
Si Si5 0.750000 0.250000 0.750000
Si Si6 0.006745 0.282461 0.484283
Si Si7 0.104372 0.175445 0.665751
Si Si8 0.347526 0.409014 0.322732
O O1 0.195722 0.489807 0.510286
O O2 0.118822 0.551825 0.337892
O O3 0.000000 0.500000 0.500000
O O4 0.085343 0.650322 0.486630
O O5 0.882087 0.834971 0.994037
O O6 0.711800 0.860356 0.119032
O O7 0.694849 0.863819 0.925701
O O8 0.021919 0.746265 0.632121
O O9 0.919403 0.842400 0.740036
O O10 0.332987 0.823634 0.204224
O O11 0.527779 0.890935 0.223656
O O12 0.389205 0.994413 0.150614
O O13 0.029421 0.209494 0.571524
O O14 0.123147 0.250000 0.750000
O O15 0.250000 0.422039 0.250000
#
# Coordination Sequence:
#
# PCOD9390553 Si02
#       8
#     8   8   4   8   2   8   8   8
#     4  10  20  41  62  91 130 183 234 278 352 432
#     4  11  23  38  64  97 133 177 226 294 355 417
#     4  12  23  38  68  98 131 170 228 299 346 397
#     4  12  23  41  67  99 135 185 232 292 350 430
#     4  12  20  40  68  94 138 186 236 276 352 430
#     4  11  22  39  65  94 133 181 229 282 358 418
#     4  12  25  42  63 101 145 179 230 290 361 431
#     4  12  21  37  66  99 126 163 231 291 341 402
#
# _framework density 21.384917999999999
#
# number of rings (size 3 to 8) (size 9 to 14) (size 15 to 20)
#    0.000    0.593    7.407    1.556    0.000    1.778 
#    0.000    0.000    0.000    0.000    0.000    0.000 
#    0.000    0.000    0.000    0.000    0.000    0.000 
#
# Total GULP energy -300840.278793 kJ/mol
# GULP energy per Si atom -5571.116274 kJ/mol
# Density = 2.133624 g / cm^3
# Si number density = 21.384918 Si / 1000 Ang^3
#
#
#
# Elastic Constant Matrix: (Units=GPa)
#
#
# Indices 1 2 3 4 5 6 
#
# 1 43.0683 14.9895 20.1320 0.0000 0.0000 0.0000
# 2 14.9895 86.8285 4.9589 0.0000 0.0000 0.0000
# 3 20.1320 4.9589 86.0684 0.0000 0.0000 0.0000
# 4 0.0000 0.0000 0.0000 27.4348 0.0000 0.0000
# 5 0.0000 0.0000 0.0000 0.0000 19.9929 0.0000
# 6 0.0000 0.0000 0.0000 0.0000 0.0000 16.7539
#
#
#
# Elastic Compliance Matrix: (Units=1/GPa)
#
#
# Indices 1 2 3 4 5 6 
#
# 1 0.027663 -0.004421 -0.006216 0.000000 0.000000 0.000000
# 2 -0.004421 0.012261 0.000328 0.000000 0.000000 0.000000
# 3 -0.006216 0.000328 0.013054 0.000000 0.000000 0.000000
# 4 0.000000 0.000000 0.000000 0.036450 0.000000 0.000000
# 5 0.000000 0.000000 0.000000 0.000000 0.050018 0.000000
# 6 0.000000 0.000000 0.000000 0.000000 0.000000 0.059688
#
#
# Mechanical properties :
#
#
# Convention : Reuss Voigt Hill
#
# Bulk Modulus (GPa) = 30.90200 32.90288 31.90244
# Shear Modulus (GPa) = 21.68840 24.56198 23.12519
#
# Velocity S-wave (km/s) = 3.18809 3.39273 3.29200
# Velocity P-wave (km/s) = 5.29468 5.54679 5.42220
#
# Compressibility (1/GPa) = 0.03236036
#
# Stress axis : x y z
#
# Youngs Moduli (GPa) = 36.14937 81.55692 76.60646
#
# Poissons Ratio (x) = 0.36053 0.47618
# Poissons Ratio (y) = 0.15980 -0.02509
# Poissons Ratio (z) = 0.22470 -0.02671
#
# Static dielectric constant tensor:
#      x y z
#    x 1.787510 0.000000 0.000000 
#    y 0.000000 1.807960 0.000000 
#    z 0.000000 0.000000 1.834050 
# 
# From -- ./inp_files/21378.got.cif
#   From: 2010.05.17/outbox.cif.g08.bks.cpg/sg48_11_cif.got.tgz:21378.got - 2010.06.03 20:39:00.
