data_PCOD9390801
_publ_section_title
;
Structure prediction by ZEFSAII (Michael W. Deem and Ramdas Pophale) SiO2 
 PCOD9390801
Probable space group: P N N N
;
_chemical_formula_sum "Si O2"
_cell_formula_units_Z 34
_cell_length_a 4.895217
_cell_length_b 21.347838
_cell_length_c 14.602440
_cell_angle_alpha 90.000000
_cell_angle_beta 90.000000
_cell_angle_gamma 90.000000
_cell_volume 1525.988558
_symmetry_space_group_name_H-M "P N N N"
_symmetry_group_IT_number 48
_space_group.IT_coordinate_system_code '2'
_symmetry_cell_setting 'orthorhombic'
loop_
_space_group_symop_operation_xyz
x,y,z
1/2-x,1/2-y,z
x,1/2-y,1/2-z
1/2-x,y,1/2-z
-x,-y,-z
1/2+x,1/2+y,-z
-x,1/2+y,1/2+z
1/2+x,-y,1/2+z
loop_
_atom_site_type_symbol
_atom_site_label
_atom_site_fract_x
_atom_site_fract_y
_atom_site_fract_z
Si Si1 0.811842 0.683786 0.534243
Si Si2 0.792426 0.335084 0.913014
Si Si3 0.250000 0.750000 0.250000
Si Si4 0.003866 0.447047 0.684236
Si Si5 0.990730 0.412834 0.316316
O O1 0.750000 0.750000 0.582758
O O2 0.546545 0.657163 0.481215
O O3 0.939726 0.632967 0.601272
O O4 0.045094 0.701951 0.461236
O O5 0.888267 0.299080 0.820692
O O6 0.624426 0.398238 0.886889
O O7 0.250000 0.423666 0.750000
O O8 0.750000 0.457664 0.750000
O O9 0.082464 0.516550 0.649385
O O10 0.250000 0.414732 0.250000
O O11 0.750000 0.390415 0.250000
#
# Coordination Sequence:
#
# PCOD9390801 Si02
#       5
#     8   8   2   8   8
#     4  12  25  43  61  98 132 168 223 281 325 395
#     4  12  25  39  66  93 135 174 218 269 326 401
#     4  12  24  42  64  98 130 190 206 250 344 402
#     4  10  21  39  64  96 127 172 222 269 322 398
#     4  10  23  44  69  92 127 170 220 277 340 393
#
# _framework density 22.280639999999998
#
# number of rings (size 3 to 8) (size 9 to 14) (size 15 to 20)
#    0.000    0.941    3.529    2.824    0.000    3.294 
#    0.000    1.176    0.000    0.000    0.000    0.000 
#    0.000    0.000    0.000    0.000    0.000    0.000 
#
# Total GULP energy -189679.230301 kJ/mol
# GULP energy per Si atom -5578.800891 kJ/mol
# Density = 2.222993 g / cm^3
# Si number density = 22.280640 Si / 1000 Ang^3
#
#
#
# Elastic Constant Matrix: (Units=GPa)
#
#
# Indices 1 2 3 4 5 6 
#
# 1 152.8472 28.3957 42.3838 0.0000 0.0000 0.0000
# 2 28.3957 135.4952 65.0211 0.0000 0.0000 0.0000
# 3 42.3838 65.0211 86.4163 0.0000 0.0000 0.0000
# 4 0.0000 0.0000 0.0000 41.7499 0.0000 0.0000
# 5 0.0000 0.0000 0.0000 0.0000 40.7815 0.0000
# 6 0.0000 0.0000 0.0000 0.0000 0.0000 29.5526
#
#
#
# Elastic Compliance Matrix: (Units=1/GPa)
#
#
# Indices 1 2 3 4 5 6 
#
# 1 0.007580 0.000306 -0.003948 0.000000 0.000000 0.000000
# 2 0.000306 0.011563 -0.008851 0.000000 0.000000 0.000000
# 3 -0.003948 -0.008851 0.020168 0.000000 0.000000 0.000000
# 4 0.000000 0.000000 0.000000 0.023952 0.000000 0.000000
# 5 0.000000 0.000000 0.000000 0.000000 0.024521 0.000000
# 6 0.000000 0.000000 0.000000 0.000000 0.000000 0.033838
#
#
# Mechanical properties :
#
#
# Convention : Reuss Voigt Hill
#
# Bulk Modulus (GPa) = 69.80309 71.81775 70.81042
# Shear Modulus (GPa) = 33.02875 38.34734 35.68804
#
# Velocity S-wave (km/s) = 3.85437 4.15312 4.00653
# Velocity P-wave (km/s) = 7.15578 7.43647 7.29748
#
# Compressibility (1/GPa) = 0.01432601
#
# Stress axis : x y z
#
# Youngs Moduli (GPa) = 131.91862 86.47976 49.58446
#
# Poissons Ratio (x) = -0.02646 0.19577
# Poissons Ratio (y) = -0.04037 0.43885
# Poissons Ratio (z) = 0.52083 0.76540
#
# Static dielectric constant tensor:
#      x y z
#    x 1.765690 0.000000 0.000000 
#    y 0.000000 1.970550 0.000000 
#    z 0.000000 0.000000 1.804790 
# 
# From -- ./inp_files/24228.got.cif
#   From: 2010.05.17/outbox.cif.g08.bks.cpg/sg48_13_cif.got.tgz:24228.got - 2010.06.03 20:39:00.
