data_PCOD9390074
_publ_section_title
;
Structure prediction by ZEFSAII (Michael W. Deem and Ramdas Pophale) SiO2 
 PCOD9390074
Probable space group: P N N N
;
_chemical_formula_sum "Si O2"
_cell_formula_units_Z 40
_cell_length_a 13.867360
_cell_length_b 13.699004
_cell_length_c 10.248712
_cell_angle_alpha 90.000000
_cell_angle_beta 90.000000
_cell_angle_gamma 90.000000
_cell_volume 1946.937776
_symmetry_space_group_name_H-M "P N N N"
_symmetry_group_IT_number 48
_space_group.IT_coordinate_system_code '2'
_symmetry_cell_setting 'orthorhombic'
loop_
_space_group_symop_operation_xyz
x,y,z
1/2-x,1/2-y,z
x,1/2-y,1/2-z
1/2-x,y,1/2-z
-x,-y,-z
1/2+x,1/2+y,-z
-x,1/2+y,1/2+z
1/2+x,-y,1/2+z
loop_
_atom_site_type_symbol
_atom_site_label
_atom_site_fract_x
_atom_site_fract_y
_atom_site_fract_z
Si Si1 0.018357 0.606879 0.947291
Si Si2 0.359965 0.250722 0.406513
Si Si3 0.468128 0.094097 0.581971
Si Si4 0.642297 0.072948 0.303824
Si Si5 0.859500 0.281493 0.556589
O O1 0.065787 0.609052 0.803622
O O2 0.087084 0.679546 0.028050
O O3 0.912975 0.652192 0.947598
O O4 0.000000 0.500000 0.000000
O O5 0.250000 0.250000 0.446371
O O6 0.365550 0.250000 0.250000
O O7 0.416680 0.165272 0.479528
O O8 0.562143 0.152031 0.638222
O O9 0.500000 0.000000 0.500000
O O10 0.390667 0.039822 0.672940
O O11 0.750000 0.074076 0.250000
O O12 0.645017 0.148929 0.426358
O O13 0.750000 0.250000 0.595922
#
# Coordination Sequence:
#
# PCOD9390074 Si02
#       5
#     8   8   8   8   8
#     4  11  23  36  57  90 124 156 208 259 306 373
#     4  10  21  38  60  82 119 163 199 243 306 377
#     4   9  20  35  58  89 126 148 201 262 316 364
#     4  11  21  36  66  94 120 160 214 270 317 365
#     4  10  19  37  62  91 118 158 209 263 310 369
#
# _framework density 20.545083999999999
#
# number of rings (size 3 to 8) (size 9 to 14) (size 15 to 20)
#    0.000    1.800    2.000    4.200    2.800    0.000 
#    0.000    4.000    0.000    1.200    0.000    0.000 
#    0.000    0.000    0.000    0.000    0.000    0.000 
#
# Total GULP energy -222815.705633 kJ/mol
# GULP energy per Si atom -5570.392641 kJ/mol
# Density = 2.049832 g / cm^3
# Si number density = 20.545084 Si / 1000 Ang^3
#
#
#
# Elastic Constant Matrix: (Units=GPa)
#
#
# Indices 1 2 3 4 5 6 
#
# 1 177.2248 70.7867 22.5229 0.0000 0.0000 0.0000
# 2 70.7867 155.7296 22.9889 0.0000 0.0000 0.0000
# 3 22.5229 22.9889 38.5862 0.0000 0.0000 0.0000
# 4 0.0000 0.0000 0.0000 26.1941 0.0000 0.0000
# 5 0.0000 0.0000 0.0000 0.0000 14.6979 0.0000
# 6 0.0000 0.0000 0.0000 0.0000 0.0000 32.1422
#
#
#
# Elastic Compliance Matrix: (Units=1/GPa)
#
#
# Indices 1 2 3 4 5 6 
#
# 1 0.007097 -0.002866 -0.002435 0.000000 0.000000 0.000000
# 2 -0.002866 0.008198 -0.003211 0.000000 0.000000 0.000000
# 3 -0.002435 -0.003211 0.029250 0.000000 0.000000 0.000000
# 4 0.000000 0.000000 0.000000 0.038177 0.000000 0.000000
# 5 0.000000 0.000000 0.000000 0.000000 0.068037 0.000000
# 6 0.000000 0.000000 0.000000 0.000000 0.000000 0.031112
#
#
# Mechanical properties :
#
#
# Convention : Reuss Voigt Hill
#
# Bulk Modulus (GPa) = 36.33616 67.12639 51.73127
# Shear Modulus (GPa) = 24.03047 31.62299 27.82673
#
# Velocity S-wave (km/s) = 3.42372 3.92752 3.68424
# Velocity P-wave (km/s) = 5.77526 7.30143 6.58272
#
# Compressibility (1/GPa) = 0.02752080
#
# Stress axis : x y z
#
# Youngs Moduli (GPa) = 140.90686 121.97520 34.18760
#
# Poissons Ratio (x) = 0.34964 0.08324
# Poissons Ratio (y) = 0.40391 0.10979
# Poissons Ratio (z) = 0.34306 0.39169
#
# Static dielectric constant tensor:
#      x y z
#    x 1.783850 0.000000 0.000000 
#    y 0.000000 1.697960 0.000000 
#    z 0.000000 0.000000 1.090080 
# 
# From -- ./inp_files/19761.got.cif
#   From: 2010.05.17/outbox.cif.g08.bks.cpg/sg48_10_cif.got.tgz:19761.got - 2010.06.03 20:39:00.
