data_PCOD9390195
_publ_section_title
;
Structure prediction by ZEFSAII (Michael W. Deem and Ramdas Pophale) SiO2 
 PCOD9390195
Probable space group: P N N N
;
_chemical_formula_sum "Si O2"
_cell_formula_units_Z 56
_cell_length_a 21.470784
_cell_length_b 8.650389
_cell_length_c 14.124061
_cell_angle_alpha 90.000000
_cell_angle_beta 90.000000
_cell_angle_gamma 90.000000
_cell_volume 2623.270800
_symmetry_space_group_name_H-M "P N N N"
_symmetry_group_IT_number 48
_space_group.IT_coordinate_system_code '2'
_symmetry_cell_setting 'orthorhombic'
loop_
_space_group_symop_operation_xyz
x,y,z
1/2-x,1/2-y,z
x,1/2-y,1/2-z
1/2-x,y,1/2-z
-x,-y,-z
1/2+x,1/2+y,-z
-x,1/2+y,1/2+z
1/2+x,-y,1/2+z
loop_
_atom_site_type_symbol
_atom_site_label
_atom_site_fract_x
_atom_site_fract_y
_atom_site_fract_z
Si Si1 0.116413 0.223261 0.442347
Si Si2 0.486933 0.387150 0.171362
Si Si3 0.598872 0.318667 0.845182
Si Si4 0.692535 0.019254 0.511440
Si Si5 0.122165 0.818014 0.851203
Si Si6 0.281420 0.081271 0.155576
Si Si7 0.432492 0.925320 0.996468
O O1 0.052201 0.308486 0.414953
O O2 0.162831 0.347863 0.487047
O O3 0.146886 0.135310 0.349923
O O4 0.108532 0.078787 0.509148
O O5 0.484617 0.250000 0.250000
O O6 0.450351 0.548336 0.184529
O O7 0.560096 0.425054 0.158410
O O8 0.626704 0.250000 0.750000
O O9 0.650770 0.395349 0.910165
O O10 0.572494 0.180781 0.909818
O O11 0.676733 0.102866 0.412895
O O12 0.760143 0.010039 0.561186
O O13 0.141594 0.750000 0.750000
O O14 0.090129 0.681487 0.911735
O O15 0.250000 0.250000 0.150320
O O16 0.250000 0.011732 0.250000
O O17 0.500000 0.000000 0.000000
#
# Coordination Sequence:
#
# PCOD9390195 Si02
#       7
#     8   8   8   8   8   8   8
#     4  10  20  34  61  85 121 159 197 247 305 364
#     4  10  20  33  57  83 116 167 205 245 302 365
#     4  10  22  33  54  83 123 156 197 244 299 365
#     4   9  21  38  59  84 123 158 206 250 298 361
#     4  10  22  40  58  82 121 165 209 253 308 360
#     4   9  19  34  60  92 120 159 200 240 302 372
#     4  11  22  36  55  86 120 153 199 251 304 362
#
# _framework density 21.347394999999999
#
# number of rings (size 3 to 8) (size 9 to 14) (size 15 to 20)
#    0.000    2.143    1.429    0.857   12.000    1.714 
#    0.000    3.571    0.000    1.714    0.000    3.000 
#    0.000    0.000    0.000    0.000    0.000    0.000 
#
# Total GULP energy -311900.900384 kJ/mol
# GULP energy per Si atom -5569.658935 kJ/mol
# Density = 2.129881 g / cm^3
# Si number density = 21.347395 Si / 1000 Ang^3
#
#
#
# Elastic Constant Matrix: (Units=GPa)
#
#
# Indices 1 2 3 4 5 6 
#
# 1 49.1462 14.7293 17.4539 0.0000 0.0000 0.0000
# 2 14.7293 96.6896 32.2079 0.0000 0.0000 0.0000
# 3 17.4539 32.2079 118.7830 0.0000 0.0000 0.0000
# 4 0.0000 0.0000 0.0000 19.2395 0.0000 0.0000
# 5 0.0000 0.0000 0.0000 0.0000 15.1792 0.0000
# 6 0.0000 0.0000 0.0000 0.0000 0.0000 6.4765
#
#
#
# Elastic Compliance Matrix: (Units=1/GPa)
#
#
# Indices 1 2 3 4 5 6 
#
# 1 0.022004 -0.002501 -0.002555 0.000000 0.000000 0.000000
# 2 -0.002501 0.011654 -0.002792 0.000000 0.000000 0.000000
# 3 -0.002555 -0.002792 0.009551 0.000000 0.000000 0.000000
# 4 0.000000 0.000000 0.000000 0.051976 0.000000 0.000000
# 5 0.000000 0.000000 0.000000 0.000000 0.065880 0.000000
# 6 0.000000 0.000000 0.000000 0.000000 0.000000 0.154404
#
#
# Mechanical properties :
#
#
# Convention : Reuss Voigt Hill
#
# Bulk Modulus (GPa) = 36.34732 43.71121 40.02926
# Shear Modulus (GPa) = 14.69132 21.52757 18.10945
#
# Velocity S-wave (km/s) = 2.62621 3.17904 2.91575
# Velocity P-wave (km/s) = 5.12440 5.83058 5.48886
#
# Compressibility (1/GPa) = 0.02751235
#
# Stress axis : x y z
#
# Youngs Moduli (GPa) = 45.44533 85.81111 104.69769
#
# Poissons Ratio (x) = 0.21461 0.26752
# Poissons Ratio (y) = 0.11366 0.29235
# Poissons Ratio (z) = 0.11612 0.23961
#
# Static dielectric constant tensor:
#      x y z
#    x 1.875310 0.000000 0.000000 
#    y 0.000000 1.706820 0.000000 
#    z 0.000000 0.000000 1.849020 
# 
# From -- ./inp_files/28366.got.cif
#   From: 2010.05.17/outbox.cif.g08.bks.cpg/sg48_15_cif.got.tgz:28366.got - 2010.06.03 20:39:00.
