data_PCOD9390306
_publ_section_title
;
Structure prediction by ZEFSAII (Michael W. Deem and Ramdas Pophale) SiO2 
 PCOD9390306
Probable space group: P N N N
;
_chemical_formula_sum "Si O2"
_cell_formula_units_Z 64
_cell_length_a 5.118120
_cell_length_b 25.569134
_cell_length_c 25.969510
_cell_angle_alpha 90.000000
_cell_angle_beta 90.000000
_cell_angle_gamma 90.000000
_cell_volume 3398.523198
_symmetry_space_group_name_H-M "P N N N"
_symmetry_group_IT_number 48
_space_group.IT_coordinate_system_code '2'
_symmetry_cell_setting 'orthorhombic'
loop_
_space_group_symop_operation_xyz
x,y,z
1/2-x,1/2-y,z
x,1/2-y,1/2-z
1/2-x,y,1/2-z
-x,-y,-z
1/2+x,1/2+y,-z
-x,1/2+y,1/2+z
1/2+x,-y,1/2+z
loop_
_atom_site_type_symbol
_atom_site_label
_atom_site_fract_x
_atom_site_fract_y
_atom_site_fract_z
Si Si1 0.588533 0.366947 0.105617
Si Si2 0.651820 0.566231 0.103461
Si Si3 0.510485 0.917300 0.716053
Si Si4 0.097414 0.202863 0.405980
Si Si5 0.128810 0.601558 0.049400
Si Si6 0.995753 0.279991 0.978169
Si Si7 0.010034 0.540279 0.283920
Si Si8 0.703586 0.032510 0.464385
O O1 0.524291 0.389649 0.161706
O O2 0.331734 0.337610 0.085803
O O3 0.631808 0.413543 0.064774
O O4 0.840710 0.328796 0.112101
O O5 0.426922 0.592688 0.067826
O O6 0.542147 0.565239 0.160782
O O7 0.726375 0.507959 0.083053
O O8 0.928115 0.594087 0.096077
O O9 0.750000 0.896240 0.750000
O O10 0.250000 0.913299 0.750000
O O11 0.563796 0.978704 0.705903
O O12 0.250000 0.250000 0.375998
O O13 0.009134 0.226670 0.460269
O O14 0.056195 0.658562 0.028804
O O15 0.086170 0.556190 0.005624
O O16 0.250000 0.250000 0.957466
O O17 0.750000 0.250000 0.955989
O O18 0.750000 0.543763 0.250000
O O19 0.250000 0.561063 0.250000
O O20 0.500000 0.000000 0.500000
#
# Coordination Sequence:
#
# PCOD9390306 Si02
#       8
#     8   8   8   8   8   8   8   8
#     4  12  22  39  62  83 113 155 196 239 294 353
#     4  11  22  38  54  85 120 160 192 226 283 342
#     4  10  21  38  57  84 110 145 194 245 289 343
#     4  11  24  37  59  84 111 144 199 249 294 342
#     4  11  23  36  57  81 123 157 192 228 280 347
#     4  11  22  38  58  82 115 152 194 240 281 327
#     4  10  20  36  57  81 115 152 195 240 279 327
#     4  10  23  36  54  83 124 162 193 225 272 349
#
# _framework density 18.831707999999999
#
# number of rings (size 3 to 8) (size 9 to 14) (size 15 to 20)
#    0.000    1.250    2.500    4.500    3.500    2.000 
#    0.000    0.000    0.000    5.625    0.000    0.000 
#    0.000   35.000    0.000    0.000    0.000    0.000 
#
# Total GULP energy -356561.263669 kJ/mol
# GULP energy per Si atom -5571.269745 kJ/mol
# Density = 1.878885 g / cm^3
# Si number density = 18.831708 Si / 1000 Ang^3
#
#
#
# Elastic Constant Matrix: (Units=GPa)
#
#
# Indices 1 2 3 4 5 6 
#
# 1 116.3223 36.6618 20.1427 0.0000 0.0000 0.0000
# 2 36.6618 65.2969 17.4083 0.0000 0.0000 0.0000
# 3 20.1427 17.4083 81.9733 0.0000 0.0000 0.0000
# 4 0.0000 0.0000 0.0000 10.8051 0.0000 0.0000
# 5 0.0000 0.0000 0.0000 0.0000 20.7911 0.0000
# 6 0.0000 0.0000 0.0000 0.0000 0.0000 18.3402
#
#
#
# Elastic Compliance Matrix: (Units=1/GPa)
#
#
# Indices 1 2 3 4 5 6 
#
# 1 0.010599 -0.005572 -0.001421 0.000000 0.000000 0.000000
# 2 -0.005572 0.019163 -0.002700 0.000000 0.000000 0.000000
# 3 -0.001421 -0.002700 0.013122 0.000000 0.000000 0.000000
# 4 0.000000 0.000000 0.000000 0.092549 0.000000 0.000000
# 5 0.000000 0.000000 0.000000 0.000000 0.048097 0.000000
# 6 0.000000 0.000000 0.000000 0.000000 0.000000 0.054525
#
#
# Mechanical properties :
#
#
# Convention : Reuss Voigt Hill
#
# Bulk Modulus (GPa) = 42.55909 45.77977 44.16943
# Shear Modulus (GPa) = 18.84836 22.61260 20.73048
#
# Velocity S-wave (km/s) = 3.16711 3.46898 3.32147
# Velocity P-wave (km/s) = 6.00190 6.35671 6.18185
#
# Compressibility (1/GPa) = 0.02349674
#
# Stress axis : x y z
#
# Youngs Moduli (GPa) = 94.34787 52.18358 76.20926
#
# Poissons Ratio (x) = 0.29077 0.10830
# Poissons Ratio (y) = 0.52572 0.20579
# Poissons Ratio (z) = 0.13408 0.14092
#
# Static dielectric constant tensor:
#      x y z
#    x 1.710490 0.000000 0.000000 
#    y 0.000000 1.714590 0.000000 
#    z 0.000000 0.000000 1.635980 
# 
# From -- ./inp_files/35531.got.cif
#   From: 2010.05.17/outbox.cif.g08.bks.cpg/sg48_18_cif.got.tgz:35531.got - 2010.06.03 20:39:00.
