data_PCOD9390633
_publ_section_title
;
Structure prediction by ZEFSAII (Michael W. Deem and Ramdas Pophale) SiO2 
 PCOD9390633
Probable space group: P N N N
;
_chemical_formula_sum "Si O2"
_cell_formula_units_Z 48
_cell_length_a 28.905865
_cell_length_b 16.772746
_cell_length_c 4.883890
_cell_angle_alpha 90.000000
_cell_angle_beta 90.000000
_cell_angle_gamma 90.000000
_cell_volume 2367.859962
_symmetry_space_group_name_H-M "P N N N"
_symmetry_group_IT_number 48
_space_group.IT_coordinate_system_code '2'
_symmetry_cell_setting 'orthorhombic'
loop_
_space_group_symop_operation_xyz
x,y,z
1/2-x,1/2-y,z
x,1/2-y,1/2-z
1/2-x,y,1/2-z
-x,-y,-z
1/2+x,1/2+y,-z
-x,1/2+y,1/2+z
1/2+x,-y,1/2+z
loop_
_atom_site_type_symbol
_atom_site_label
_atom_site_fract_x
_atom_site_fract_y
_atom_site_fract_z
Si Si1 0.196457 0.496292 0.709737
Si Si2 0.592936 0.382682 0.809113
Si Si3 0.650335 0.337288 0.312493
Si Si4 0.639272 0.549381 0.711728
Si Si5 0.439739 0.337951 0.113433
Si Si6 0.006625 0.093768 0.590821
O O1 0.250000 0.479236 0.750000
O O2 0.185439 0.589805 0.765248
O O3 0.181812 0.472388 0.406728
O O4 0.160725 0.450564 0.910226
O O5 0.629446 0.338525 0.614618
O O6 0.604311 0.475369 0.753777
O O7 0.540668 0.372330 0.717336
O O8 0.606799 0.357971 0.113946
O O9 0.669160 0.250000 0.250000
O O10 0.609538 0.623474 0.809059
O O11 0.436590 0.250000 0.250000
O O12 0.480886 0.371859 0.298085
O O13 0.454194 0.371468 0.807138
O O14 0.000000 0.000000 0.500000
#
# Coordination Sequence:
#
# PCOD9390633 Si02
#       6
#     8   8   8   8   8   8
#     4  10  21  38  63  89 111 150 203 248 304 380
#     4  10  21  35  57  80 114 164 205 236 284 356
#     4  10  21  35  54  84 121 157 194 244 303 351
#     4  10  21  39  61  84 117 155 195 248 306 366
#     4  12  26  41  62  93 124 162 207 260 313 363
#     4  12  24  39  63  89 126 168 215 253 297 361
#
# _framework density 20.271467999999999
#
# number of rings (size 3 to 8) (size 9 to 14) (size 15 to 20)
#    0.000    1.333    1.667    4.000    4.667    4.333 
#    0.000    0.000    0.000    9.000    0.000    0.000 
#    0.000    0.000    0.000    0.000    0.000    0.000 
#
# Total GULP energy -267434.358943 kJ/mol
# GULP energy per Si atom -5571.549145 kJ/mol
# Density = 2.022533 g / cm^3
# Si number density = 20.271468 Si / 1000 Ang^3
#
#
#
# Elastic Constant Matrix: (Units=GPa)
#
#
# Indices 1 2 3 4 5 6 
#
# 1 56.5031 -0.2671 -16.6984 0.0000 0.0000 0.0000
# 2 -0.2671 85.0170 2.0647 0.0000 0.0000 0.0000
# 3 -16.6984 2.0647 65.9155 0.0000 0.0000 0.0000
# 4 0.0000 0.0000 0.0000 13.1863 0.0000 0.0000
# 5 0.0000 0.0000 0.0000 0.0000 4.9161 0.0000
# 6 0.0000 0.0000 0.0000 0.0000 0.0000 5.6255
#
#
#
# Elastic Compliance Matrix: (Units=1/GPa)
#
#
# Indices 1 2 3 4 5 6 
#
# 1 0.019131 -0.000058 0.004848 0.000000 0.000000 0.000000
# 2 -0.000058 0.011771 -0.000383 0.000000 0.000000 0.000000
# 3 0.004848 -0.000383 0.016411 0.000000 0.000000 0.000000
# 4 0.000000 0.000000 0.000000 0.075836 0.000000 0.000000
# 5 0.000000 0.000000 0.000000 0.000000 0.203415 0.000000
# 6 0.000000 0.000000 0.000000 0.000000 0.000000 0.177762
#
#
# Mechanical properties :
#
#
# Convention : Reuss Voigt Hill
#
# Bulk Modulus (GPa) = 17.81652 19.73712 18.77682
# Shear Modulus (GPa) = 9.72345 19.56800 14.64572
#
# Velocity S-wave (km/s) = 2.19249 3.11029 2.69081
# Velocity P-wave (km/s) = 3.90095 4.75984 4.35164
#
# Compressibility (1/GPa) = 0.05612769
#
# Stress axis : x y z
#
# Youngs Moduli (GPa) = 52.27214 84.95106 60.93421
#
# Poissons Ratio (x) = 0.00490 -0.29542
# Poissons Ratio (y) = 0.00301 0.02336
# Poissons Ratio (z) = -0.25342 0.03256
#
# Static dielectric constant tensor:
#      x y z
#    x 1.696370 0.000000 0.000000 
#    y 0.000000 1.802990 0.000000 
#    z 0.000000 0.000000 1.682710 
# 
# From -- ./inp_files/6465.got.cif
#   From: 2010.05.17/outbox.cif.g08.bks.cpg/sg48_4_cif.got.tgz:6465.got - 2010.06.03 20:39:00.
