data_PCOD9390068
_publ_section_title
;
Structure prediction by ZEFSAII (Michael W. Deem and Ramdas Pophale) SiO2 
 PCOD9390068
Probable space group: P N N N
;
_chemical_formula_sum "Si O2"
_cell_formula_units_Z 60
_cell_length_a 22.312691
_cell_length_b 11.483784
_cell_length_c 12.121429
_cell_angle_alpha 90.000000
_cell_angle_beta 90.000000
_cell_angle_gamma 90.000000
_cell_volume 3105.923740
_symmetry_space_group_name_H-M "P N N N"
_symmetry_group_IT_number 48
_space_group.IT_coordinate_system_code '2'
_symmetry_cell_setting 'orthorhombic'
loop_
_space_group_symop_operation_xyz
x,y,z
1/2-x,1/2-y,z
x,1/2-y,1/2-z
1/2-x,y,1/2-z
-x,-y,-z
1/2+x,1/2+y,-z
-x,1/2+y,1/2+z
1/2+x,-y,1/2+z
loop_
_atom_site_type_symbol
_atom_site_label
_atom_site_fract_x
_atom_site_fract_y
_atom_site_fract_z
Si Si1 0.647487 0.529239 0.927330
Si Si2 0.220558 0.449376 0.983782
Si Si3 0.473022 0.627578 0.710595
Si Si4 0.848867 0.784804 0.630367
Si Si5 0.861744 0.376053 0.373366
Si Si6 0.113635 0.639181 0.992669
Si Si7 0.250000 0.982052 0.750000
Si Si8 0.415729 0.517071 0.292940
O O1 0.627089 0.662837 0.914064
O O2 0.623176 0.466371 0.817608
O O3 0.719492 0.518642 0.946778
O O4 0.623695 0.476846 0.040001
O O5 0.233638 0.439041 0.854582
O O6 0.196524 0.334490 0.041467
O O7 0.168284 0.546981 0.984678
O O8 0.503800 0.750000 0.750000
O O9 0.415494 0.627916 0.788498
O O10 0.444172 0.621320 0.587830
O O11 0.516108 0.518470 0.731268
O O12 0.822544 0.750000 0.750000
O O13 0.892110 0.894767 0.652411
O O14 0.859370 0.260465 0.448344
O O15 0.802658 0.402233 0.301487
O O16 0.092045 0.619764 0.118419
#
# Coordination Sequence:
#
# PCOD9390068 Si02
#       8
#     8   8   8   8   8   8   4   8
#     4  10  21  35  54  86 115 157 188 241 301 360
#     4  10  20  34  58  85 113 151 200 242 298 349
#     4  10  19  37  60  87 110 153 201 248 290 350
#     4   9  19  36  57  82 110 149 195 237 284 348
#     4  10  22  37  59  87 120 153 198 233 308 354
#     4  10  21  36  58  89 112 154 194 247 286 357
#     4  10  20  37  57  86 122 152 193 251 294 362
#     4  10  21  37  61  82 117 149 200 245 293 347
#
# _framework density 19.317924000000001
#
# number of rings (size 3 to 8) (size 9 to 14) (size 15 to 20)
#    0.000    2.133    1.333    2.000    0.000   10.133 
#    0.000    5.333    0.000   12.800    0.000    0.000 
#    0.000    0.000    0.000    0.000    0.000    0.000 
#
# Total GULP energy -334115.913507 kJ/mol
# GULP energy per Si atom -5568.598558 kJ/mol
# Density = 1.927396 g / cm^3
# Si number density = 19.317924 Si / 1000 Ang^3
#
#
#
# Elastic Constant Matrix: (Units=GPa)
#
#
# Indices 1 2 3 4 5 6 
#
# 1 39.9818 11.8175 41.0592 0.0000 0.0000 0.0000
# 2 11.8175 52.9971 52.4721 0.0000 0.0000 0.0000
# 3 41.0592 52.4721 146.7005 0.0000 0.0000 0.0000
# 4 0.0000 0.0000 0.0000 38.2840 0.0000 0.0000
# 5 0.0000 0.0000 0.0000 0.0000 49.5473 0.0000
# 6 0.0000 0.0000 0.0000 0.0000 0.0000 18.0847
#
#
#
# Elastic Compliance Matrix: (Units=1/GPa)
#
#
# Indices 1 2 3 4 5 6 
#
# 1 0.035399 0.002967 -0.010969 0.000000 0.000000 0.000000
# 2 0.002967 0.029464 -0.011369 0.000000 0.000000 0.000000
# 3 -0.010969 -0.011369 0.013953 0.000000 0.000000 0.000000
# 4 0.000000 0.000000 0.000000 0.026121 0.000000 0.000000
# 5 0.000000 0.000000 0.000000 0.000000 0.020183 0.000000
# 6 0.000000 0.000000 0.000000 0.000000 0.000000 0.055295
#
#
# Mechanical properties :
#
#
# Convention : Reuss Voigt Hill
#
# Bulk Modulus (GPa) = 24.95407 50.04187 37.49797
# Shear Modulus (GPa) = 21.50406 30.13858 25.82132
#
# Velocity S-wave (km/s) = 3.34003 3.95414 3.65999
# Velocity P-wave (km/s) = 5.27447 6.84161 6.10850
#
# Compressibility (1/GPa) = 0.04007363
#
# Stress axis : x y z
#
# Youngs Moduli (GPa) = 28.24952 33.93994 71.66890
#
# Poissons Ratio (x) = -0.10069 0.78611
# Poissons Ratio (y) = -0.08381 0.81480
# Poissons Ratio (z) = 0.30986 0.38586
#
# Static dielectric constant tensor:
#      x y z
#    x 1.735410 0.000000 0.000000 
#    y 0.000000 1.737050 0.000000 
#    z 0.000000 0.000000 1.680500 
# 
# From -- ./inp_files/22946.got.cif
#   From: 2010.05.17/outbox.cif.g08.bks.cpg/sg48_12_cif.got.tgz:22946.got - 2010.06.03 20:39:00.
