data_PCOD9390528
_publ_section_title
;
Structure prediction by ZEFSAII (Michael W. Deem and Ramdas Pophale) SiO2 
 PCOD9390528
Probable space group: P N N N
;
_chemical_formula_sum "Si O2"
_cell_formula_units_Z 48
_cell_length_a 27.674064
_cell_length_b 9.846790
_cell_length_c 9.386190
_cell_angle_alpha 90.000000
_cell_angle_beta 90.000000
_cell_angle_gamma 90.000000
_cell_volume 2557.743314
_symmetry_space_group_name_H-M "P N N N"
_symmetry_group_IT_number 48
_space_group.IT_coordinate_system_code '2'
_symmetry_cell_setting 'orthorhombic'
loop_
_space_group_symop_operation_xyz
x,y,z
1/2-x,1/2-y,z
x,1/2-y,1/2-z
1/2-x,y,1/2-z
-x,-y,-z
1/2+x,1/2+y,-z
-x,1/2+y,1/2+z
1/2+x,-y,1/2+z
loop_
_atom_site_type_symbol
_atom_site_label
_atom_site_fract_x
_atom_site_fract_y
_atom_site_fract_z
Si Si1 0.541748 0.339453 0.609537
Si Si2 0.201914 0.522306 0.924675
Si Si3 0.454982 0.159935 0.111757
Si Si4 0.844224 0.782851 0.584463
Si Si5 0.812828 0.972292 0.098826
Si Si6 0.628830 0.236217 0.414191
O O1 0.537276 0.250000 0.750000
O O2 0.494873 0.322246 0.509905
O O3 0.546898 0.499109 0.645845
O O4 0.587970 0.288950 0.519820
O O5 0.259459 0.528329 0.936707
O O6 0.188306 0.457845 0.770310
O O7 0.175636 0.666802 0.927424
O O8 0.180411 0.424201 0.043540
O O9 0.467163 0.250000 0.250000
O O10 0.401727 0.204353 0.061458
O O11 0.836272 0.750000 0.750000
O O12 0.822494 0.665739 0.484700
O O13 0.853421 0.083188 0.060456
O O14 0.611867 0.250000 0.250000
#
# Coordination Sequence:
#
# PCOD9390528 Si02
#       6
#     8   8   8   8   8   8
#     4  11  24  42  67  92 120 157 199 247 301 359
#     4  10  20  40  59  88 122 158 206 252 290 352
#     4  10  24  45  62  90 125 157 198 247 298 359
#     4  11  23  39  59  88 123 161 195 249 302 354
#     4  10  22  36  63  88 119 162 206 245 297 351
#     4  10  21  39  62  90 121 159 199 250 301 351
#
# _framework density 18.766542999999999
#
# number of rings (size 3 to 8) (size 9 to 14) (size 15 to 20)
#    0.000    1.667    1.667    2.000    4.667    6.667 
#    3.000    0.000    0.000    3.000    0.000    0.000 
#    0.000    0.000    0.000    0.000    0.000    0.000 
#
# Total GULP energy -268199.006221 kJ/mol
# GULP energy per Si atom -5587.479296 kJ/mol
# Density = 1.872383 g / cm^3
# Si number density = 18.766543 Si / 1000 Ang^3
#
#
#
# Elastic Constant Matrix: (Units=GPa)
#
#
# Indices 1 2 3 4 5 6 
#
# 1 68.7194 18.5796 49.5742 0.0000 0.0000 0.0000
# 2 18.5796 75.7523 46.5409 0.0000 0.0000 0.0000
# 3 49.5742 46.5409 66.1982 0.0000 0.0000 0.0000
# 4 0.0000 0.0000 0.0000 30.8124 0.0000 0.0000
# 5 0.0000 0.0000 0.0000 0.0000 20.6442 0.0000
# 6 0.0000 0.0000 0.0000 0.0000 0.0000 34.7918
#
#
#
# Elastic Compliance Matrix: (Units=1/GPa)
#
#
# Indices 1 2 3 4 5 6 
#
# 1 0.039308 0.014866 -0.039888 0.000000 0.000000 0.000000
# 2 0.014866 0.028861 -0.031423 0.000000 0.000000 0.000000
# 3 -0.039888 -0.031423 0.067070 0.000000 0.000000 0.000000
# 4 0.000000 0.000000 0.000000 0.032455 0.000000 0.000000
# 5 0.000000 0.000000 0.000000 0.000000 0.048440 0.000000
# 6 0.000000 0.000000 0.000000 0.000000 0.000000 0.028742
#
#
# Mechanical properties :
#
#
# Convention : Reuss Voigt Hill
#
# Bulk Modulus (GPa) = 44.74878 48.89547 46.82212
# Shear Modulus (GPa) = 13.69053 23.64803 18.66928
#
# Velocity S-wave (km/s) = 2.70389 3.55366 3.15749
# Velocity P-wave (km/s) = 5.80041 6.55356 6.18846
#
# Compressibility (1/GPa) = 0.02234698
#
# Stress axis : x y z
#
# Youngs Moduli (GPa) = 25.43997 34.64923 14.90985
#
# Poissons Ratio (x) = -0.51508 0.59473
# Poissons Ratio (y) = -0.37818 0.46851
# Poissons Ratio (z) = 1.01476 1.08879
#
# Static dielectric constant tensor:
#      x y z
#    x 1.634200 0.000000 0.000000 
#    y 0.000000 1.624500 0.000000 
#    z 0.000000 0.000000 1.624530 
# 
# From -- ./inp_files/9458.got.cif
#   From: 2010.05.17/outbox.cif.g08.bks.cpg/sg48_5_cif.got.tgz:9458.got - 2010.06.03 20:39:00.
