data_PCOD9390661
_publ_section_title
;
Structure prediction by ZEFSAII (Michael W. Deem and Ramdas Pophale) SiO2 
 PCOD9390661
Probable space group: P N N N
;
_chemical_formula_sum "Si O2"
_cell_formula_units_Z 44
_cell_length_a 11.837890
_cell_length_b 9.078484
_cell_length_c 18.887029
_cell_angle_alpha 90.000000
_cell_angle_beta 90.000000
_cell_angle_gamma 90.000000
_cell_volume 2029.790800
_symmetry_space_group_name_H-M "P N N N"
_symmetry_group_IT_number 48
_space_group.IT_coordinate_system_code '2'
_symmetry_cell_setting 'orthorhombic'
loop_
_space_group_symop_operation_xyz
x,y,z
1/2-x,1/2-y,z
x,1/2-y,1/2-z
1/2-x,y,1/2-z
-x,-y,-z
1/2+x,1/2+y,-z
-x,1/2+y,1/2+z
1/2+x,-y,1/2+z
loop_
_atom_site_type_symbol
_atom_site_label
_atom_site_fract_x
_atom_site_fract_y
_atom_site_fract_z
Si Si1 0.129500 0.234951 0.917428
Si Si2 0.882167 0.433953 0.087889
Si Si3 0.829290 0.513351 0.316193
Si Si4 0.250000 0.750000 0.477260
Si Si5 0.112165 0.035811 0.046749
Si Si6 0.977435 0.713824 0.677552
O O1 0.250000 0.250000 0.878832
O O2 0.082077 0.397381 0.928939
O O3 0.083139 0.125194 0.857291
O O4 0.160609 0.150502 0.989235
O O5 0.761525 0.448478 0.127981
O O6 0.974650 0.355619 0.136060
O O7 0.849177 0.327991 0.023281
O O8 0.750000 0.558918 0.250000
O O9 0.913203 0.380629 0.297319
O O10 0.186674 0.610578 0.442176
O O11 0.088304 0.119958 0.118955
O O12 0.000000 0.000000 0.000000
O O13 0.913541 0.750000 0.750000
#
# Coordination Sequence:
#
# PCOD9390661 Si02
#       6
#     8   8   8   4   8   8
#     4  10  21  36  57  95 127 166 213 260 334 407
#     4  11  19  33  58  91 125 166 206 255 336 411
#     4  11  19  33  56  88 136 176 198 252 346 431
#     4  12  20  38  63  94 125 176 214 274 346 392
#     4  12  22  40  64  93 133 169 226 280 335 412
#     4  12  23  37  58  91 132 174 218 272 335 415
#
# _framework density 21.677111
#
# number of rings (size 3 to 8) (size 9 to 14) (size 15 to 20)
#    0.000    0.727   10.909    0.000    0.000    4.000 
#    0.000    0.000    0.000    0.545    0.000    1.273 
#    0.000    0.000    0.000    0.000    0.000    0.000 
#
# Total GULP energy -244972.665239 kJ/mol
# GULP energy per Si atom -5567.560574 kJ/mol
# Density = 2.162777 g / cm^3
# Si number density = 21.677111 Si / 1000 Ang^3
#
#
#
# Elastic Constant Matrix: (Units=GPa)
#
#
# Indices 1 2 3 4 5 6 
#
# 1 29.0801 28.3512 25.6470 0.0000 0.0000 0.0000
# 2 28.3512 182.5949 70.5110 0.0000 0.0000 0.0000
# 3 25.6470 70.5110 143.6254 0.0000 0.0000 0.0000
# 4 0.0000 0.0000 0.0000 30.9668 0.0000 0.0000
# 5 0.0000 0.0000 0.0000 0.0000 22.9456 0.0000
# 6 0.0000 0.0000 0.0000 0.0000 0.0000 7.0263
#
#
#
# Elastic Compliance Matrix: (Units=1/GPa)
#
#
# Indices 1 2 3 4 5 6 
#
# 1 0.043818 -0.004667 -0.005533 0.000000 0.000000 0.000000
# 2 -0.004667 0.007255 -0.002728 0.000000 0.000000 0.000000
# 3 -0.005533 -0.002728 0.009290 0.000000 0.000000 0.000000
# 4 0.000000 0.000000 0.000000 0.032293 0.000000 0.000000
# 5 0.000000 0.000000 0.000000 0.000000 0.043581 0.000000
# 6 0.000000 0.000000 0.000000 0.000000 0.000000 0.142323
#
#
# Mechanical properties :
#
#
# Convention : Reuss Voigt Hill
#
# Bulk Modulus (GPa) = 28.98075 67.14654 48.06365
# Shear Modulus (GPa) = 15.82688 27.57381 21.70035
#
# Velocity S-wave (km/s) = 2.70500 3.57041 3.16740
# Velocity P-wave (km/s) = 4.81190 6.93110 5.96634
#
# Compressibility (1/GPa) = 0.03450566
#
# Stress axis : x y z
#
# Youngs Moduli (GPa) = 22.82185 137.84061 107.64185
#
# Poissons Ratio (x) = 0.64326 0.59563
# Poissons Ratio (y) = 0.10650 0.29368
# Poissons Ratio (z) = 0.12628 0.37607
#
# Static dielectric constant tensor:
#      x y z
#    x 2.054950 0.000000 0.000000 
#    y 0.000000 2.350800 0.000000 
#    z 0.000000 0.000000 1.864520 
# 
# From -- ./inp_files/14083.got.cif
#   From: 2010.05.17/outbox.cif.g08.bks.cpg/sg48_8_cif.got.tgz:14083.got - 2010.06.03 20:39:00.
