data_PCOD9390251
_publ_section_title
;
Structure prediction by ZEFSAII (Michael W. Deem and Ramdas Pophale) SiO2 
 PCOD9390251
Probable space group: P N N N
;
_chemical_formula_sum "Si O2"
_cell_formula_units_Z 58
_cell_length_a 8.613961
_cell_length_b 24.084079
_cell_length_c 14.959669
_cell_angle_alpha 90.000000
_cell_angle_beta 90.000000
_cell_angle_gamma 90.000000
_cell_volume 3103.522717
_symmetry_space_group_name_H-M "P N N N"
_symmetry_group_IT_number 48
_space_group.IT_coordinate_system_code '2'
_symmetry_cell_setting 'orthorhombic'
loop_
_space_group_symop_operation_xyz
x,y,z
1/2-x,1/2-y,z
x,1/2-y,1/2-z
1/2-x,y,1/2-z
-x,-y,-z
1/2+x,1/2+y,-z
-x,1/2+y,1/2+z
1/2+x,-y,1/2+z
loop_
_atom_site_type_symbol
_atom_site_label
_atom_site_fract_x
_atom_site_fract_y
_atom_site_fract_z
Si Si1 0.563132 0.942233 0.541715
Si Si2 0.001885 0.167647 0.784654
Si Si3 0.800619 0.187399 0.608278
Si Si4 0.309687 0.077818 0.636672
Si Si5 0.895764 0.045841 0.203931
Si Si6 0.890992 0.972839 0.625317
Si Si7 0.750000 0.750000 0.250000
Si Si8 0.027631 0.914966 0.453381
O O1 0.595571 0.907699 0.453800
O O2 0.446333 0.921443 0.616094
O O3 0.720497 0.951561 0.598713
O O4 0.500000 0.000000 0.500000
O O5 0.923114 0.187181 0.691715
O O6 0.858142 0.163444 0.850906
O O7 0.100497 0.111374 0.786701
O O8 0.136210 0.211740 0.807701
O O9 0.750000 0.250000 0.581012
O O10 0.880944 0.142967 0.542973
O O11 0.136665 0.089128 0.599681
O O12 0.332471 0.013744 0.665893
O O13 0.750000 0.073582 0.250000
O O14 0.031840 0.036754 0.277638
O O15 0.998550 0.942824 0.550186
O O16 0.883364 0.038481 0.604417
#
# Coordination Sequence:
#
# PCOD9390251 Si02
#       8
#     8   8   8   8   8   8   2   8
#     4   9  21  35  49  72 110 145 183 233 275 343
#     4  11  22  34  53  70 103 142 190 227 276 324
#     4  11  22  38  49  78 106 144 187 234 280 334
#     4  10  21  36  51  79 105 151 188 227 279 348
#     4  11  20  32  52  78 110 142 188 231 279 344
#     4  10  20  35  53  79 105 151 185 229 291 335
#     4  12  20  34  52  68 100 142 174 236 268 314
#     4  10  21  35  55  74 112 144 188 235 279 343
#
# _framework density 18.688441999999998
#
# number of rings (size 3 to 8) (size 9 to 14) (size 15 to 20)
#    0.000    1.655    2.759    2.483    6.759    0.000 
#    0.000    0.000    0.000    0.000    0.000    0.000 
#    0.000    6.069    1.103    0.000    0.000    0.000 
#
# Total GULP energy -322887.695750 kJ/mol
# GULP energy per Si atom -5567.029237 kJ/mol
# Density = 1.864591 g / cm^3
# Si number density = 18.688442 Si / 1000 Ang^3
#
#
#
# Elastic Constant Matrix: (Units=GPa)
#
#
# Indices 1 2 3 4 5 6 
#
# 1 67.9700 12.0327 19.2638 0.0000 0.0000 0.0000
# 2 12.0327 58.9107 1.3110 0.0000 0.0000 0.0000
# 3 19.2638 1.3110 93.8809 0.0000 0.0000 0.0000
# 4 0.0000 0.0000 0.0000 12.3562 0.0000 0.0000
# 5 0.0000 0.0000 0.0000 0.0000 24.2868 0.0000
# 6 0.0000 0.0000 0.0000 0.0000 0.0000 28.3606
#
#
#
# Elastic Compliance Matrix: (Units=1/GPa)
#
#
# Indices 1 2 3 4 5 6 
#
# 1 0.016216 -0.003239 -0.003282 0.000000 0.000000 0.000000
# 2 -0.003239 0.017627 0.000418 0.000000 0.000000 0.000000
# 3 -0.003282 0.000418 0.011319 0.000000 0.000000 0.000000
# 4 0.000000 0.000000 0.000000 0.080931 0.000000 0.000000
# 5 0.000000 0.000000 0.000000 0.000000 0.041175 0.000000
# 6 0.000000 0.000000 0.000000 0.000000 0.000000 0.035260
#
#
# Mechanical properties :
#
#
# Convention : Reuss Voigt Hill
#
# Bulk Modulus (GPa) = 30.34263 31.77517 31.05890
# Shear Modulus (GPa) = 22.15138 25.54434 23.84786
#
# Velocity S-wave (km/s) = 3.44655 3.70111 3.57610
# Velocity P-wave (km/s) = 5.66653 5.94170 5.80574
#
# Compressibility (1/GPa) = 0.03295693
#
# Stress axis : x y z
#
# Youngs Moduli (GPa) = 61.66738 56.73071 88.34362
#
# Poissons Ratio (x) = 0.18376 0.28996
# Poissons Ratio (y) = 0.19975 -0.03697
# Poissons Ratio (z) = 0.20240 -0.02374
#
# Static dielectric constant tensor:
#      x y z
#    x 1.710320 0.000000 0.000000 
#    y 0.000000 1.700020 0.000000 
#    z 0.000000 0.000000 1.711020 
# 
# From -- ./inp_files/25797.got.cif
#   From: 2010.05.17/outbox.cif.g08.bks.cpg/sg48_13_cif.got.tgz:25797.got - 2010.06.03 20:39:00.
