data_PCOD9390643
_publ_section_title
;
Structure prediction by ZEFSAII (Michael W. Deem and Ramdas Pophale) SiO2 
 PCOD9390643
Probable space group: P N N N
;
_chemical_formula_sum "Si O2"
_cell_formula_units_Z 34
_cell_length_a 14.991310
_cell_length_b 23.189656
_cell_length_c 4.787219
_cell_angle_alpha 90.000000
_cell_angle_beta 90.000000
_cell_angle_gamma 90.000000
_cell_volume 1664.244716
_symmetry_space_group_name_H-M "P N N N"
_symmetry_group_IT_number 48
_space_group.IT_coordinate_system_code '2'
_symmetry_cell_setting 'orthorhombic'
loop_
_space_group_symop_operation_xyz
x,y,z
1/2-x,1/2-y,z
x,1/2-y,1/2-z
1/2-x,y,1/2-z
-x,-y,-z
1/2+x,1/2+y,-z
-x,1/2+y,1/2+z
1/2+x,-y,1/2+z
loop_
_atom_site_type_symbol
_atom_site_label
_atom_site_fract_x
_atom_site_fract_y
_atom_site_fract_z
Si Si1 0.592671 0.692978 0.590058
Si Si2 0.972981 0.623571 0.389744
Si Si3 0.154153 0.557801 0.347884
Si Si4 0.250000 0.250000 0.750000
Si Si5 0.844752 0.973948 0.341193
O O1 0.563752 0.750000 0.750000
O O2 0.537525 0.676734 0.318839
O O3 0.689275 0.709680 0.453022
O O4 0.574193 0.642210 0.818042
O O5 0.918985 0.570531 0.252757
O O6 0.074550 0.602867 0.369112
O O7 0.250000 0.581492 0.250000
O O8 0.154849 0.530930 0.653711
O O9 0.142308 0.500677 0.148727
O O10 0.750000 0.946097 0.250000
#
# Coordination Sequence:
#
# PCOD9390643 Si02
#       5
#     8   8   8   2   8
#     4  12  26  42  63  89 125 161 207 262 317 385
#     4  12  23  38  66  91 123 169 215 249 310 382
#     4  10  21  40  60  90 130 166 205 256 311 361
#     4  12  26  48  62  88 136 164 202 272 338 380
#     4  10  21  35  58  91 130 164 204 253 303 375
#
# _framework density 20.429689
#
# number of rings (size 3 to 8) (size 9 to 14) (size 15 to 20)
#    0.000    0.941    2.353    4.588    1.647    0.000 
#    0.000    0.000    0.000    4.235    0.000    0.000 
#    0.000    0.000    0.000    0.000    0.000    0.000 
#
# Total GULP energy -189489.883544 kJ/mol
# GULP energy per Si atom -5573.231869 kJ/mol
# Density = 2.038319 g / cm^3
# Si number density = 20.429689 Si / 1000 Ang^3
#
#
#
# Elastic Constant Matrix: (Units=GPa)
#
#
# Indices 1 2 3 4 5 6 
#
# 1 140.1620 63.3786 28.6420 0.0000 0.0000 0.0000
# 2 63.3786 64.0346 27.2757 0.0000 0.0000 0.0000
# 3 28.6420 27.2757 103.1962 0.0000 0.0000 0.0000
# 4 0.0000 0.0000 0.0000 15.8919 0.0000 0.0000
# 5 0.0000 0.0000 0.0000 0.0000 17.7796 0.0000
# 6 0.0000 0.0000 0.0000 0.0000 0.0000 35.3103
#
#
#
# Elastic Compliance Matrix: (Units=1/GPa)
#
#
# Indices 1 2 3 4 5 6 
#
# 1 0.012919 -0.012688 -0.000232 0.000000 0.000000 0.000000
# 2 -0.012688 0.030059 -0.004423 0.000000 0.000000 0.000000
# 3 -0.000232 -0.004423 0.010924 0.000000 0.000000 0.000000
# 4 0.000000 0.000000 0.000000 0.062925 0.000000 0.000000
# 5 0.000000 0.000000 0.000000 0.000000 0.056244 0.000000
# 6 0.000000 0.000000 0.000000 0.000000 0.000000 0.028320
#
#
# Mechanical properties :
#
#
# Convention : Reuss Voigt Hill
#
# Bulk Modulus (GPa) = 52.04291 60.66502 56.35396
# Shear Modulus (GPa) = 20.61994 26.33612 23.47803
#
# Velocity S-wave (km/s) = 3.18041 3.59431 3.39368
# Velocity P-wave (km/s) = 6.24629 6.85452 6.55746
#
# Compressibility (1/GPa) = 0.01921491
#
# Stress axis : x y z
#
# Youngs Moduli (GPa) = 77.40314 33.26818 91.54308
#
# Poissons Ratio (x) = 0.42211 0.02125
# Poissons Ratio (y) = 0.98210 0.40492
# Poissons Ratio (z) = 0.01797 0.14715
#
# Static dielectric constant tensor:
#      x y z
#    x 1.887760 0.000000 0.000000 
#    y 0.000000 1.743050 0.000000 
#    z 0.000000 0.000000 1.760120 
# 
# From -- ./inp_files/3089.got.cif
#   From: 2010.05.17/outbox.cif.g08.bks.cpg/sg48_2_cif.got.tgz:3089.got - 2010.06.03 20:39:00.
