data_PCOD9390692
_publ_section_title
;
Structure prediction by ZEFSAII (Michael W. Deem and Ramdas Pophale) SiO2 
 PCOD9390692
Probable space group: P N N N
;
_chemical_formula_sum "Si O2"
_cell_formula_units_Z 56
_cell_length_a 17.944314
_cell_length_b 9.120399
_cell_length_c 16.993863
_cell_angle_alpha 90.000000
_cell_angle_beta 90.000000
_cell_angle_gamma 90.000000
_cell_volume 2781.203782
_symmetry_space_group_name_H-M "P N N N"
_symmetry_group_IT_number 48
_space_group.IT_coordinate_system_code '2'
_symmetry_cell_setting 'orthorhombic'
loop_
_space_group_symop_operation_xyz
x,y,z
1/2-x,1/2-y,z
x,1/2-y,1/2-z
1/2-x,y,1/2-z
-x,-y,-z
1/2+x,1/2+y,-z
-x,1/2+y,1/2+z
1/2+x,-y,1/2+z
loop_
_atom_site_type_symbol
_atom_site_label
_atom_site_fract_x
_atom_site_fract_y
_atom_site_fract_z
Si Si1 0.974878 0.080618 0.252928
Si Si2 0.454081 0.463065 0.419598
Si Si3 0.616922 0.423207 0.033681
Si Si4 0.549577 0.623167 0.901853
Si Si5 0.758570 0.580434 0.061133
Si Si6 0.816460 0.343987 0.944144
Si Si7 0.328548 0.419246 0.724130
O O1 0.951573 0.250000 0.250000
O O2 0.997719 0.036146 0.340589
O O3 0.042646 0.076746 0.189831
O O4 0.901779 0.986610 0.238739
O O5 0.500000 0.500000 0.500000
O O6 0.427879 0.291631 0.420259
O O7 0.389239 0.583420 0.405815
O O8 0.537021 0.394601 0.072295
O O9 0.677234 0.515479 0.082861
O O10 0.598839 0.515234 0.954361
O O11 0.652902 0.268979 0.009710
O O12 0.750000 0.750000 0.042391
O O13 0.820394 0.568948 0.129550
O O14 0.780849 0.482834 0.987465
O O15 0.750000 0.250000 0.902723
O O16 0.326895 0.250000 0.750000
O O17 0.250000 0.488834 0.750000
#
# Coordination Sequence:
#
# PCOD9390692 Si02
#       7
#     8   8   8   8   8   8   8
#     4  10  24  39  61  91 125 165 212 261 319 384
#     4  11  20  39  62  90 124 163 210 258 325 383
#     4  10  21  37  60  87 119 160 216 250 312 370
#     4  10  21  38  61  88 122 164 206 264 310 379
#     4  11  21  37  59  83 121 166 208 259 306 382
#     4  10  22  38  61  91 116 155 211 267 310 379
#     4  11  22  38  51  83 128 169 207 247 315 384
#
# _framework density 20.135166000000002
#
# number of rings (size 3 to 8) (size 9 to 14) (size 15 to 20)
#    0.000    1.571    2.857    2.571    2.000    1.429 
#    2.571    0.000    0.000    6.000    0.000   13.000 
#    0.000    0.000    0.000    0.000    0.000    0.000 
#
# Total GULP energy -312100.371709 kJ/mol
# GULP energy per Si atom -5573.220923 kJ/mol
# Density = 2.008934 g / cm^3
# Si number density = 20.135166 Si / 1000 Ang^3
#
#
#
# Elastic Constant Matrix: (Units=GPa)
#
#
# Indices 1 2 3 4 5 6 
#
# 1 74.1218 44.2805 15.9697 0.0000 0.0000 0.0000
# 2 44.2805 101.2634 27.3675 0.0000 0.0000 0.0000
# 3 15.9697 27.3675 81.7534 0.0000 0.0000 0.0000
# 4 0.0000 0.0000 0.0000 17.4317 0.0000 0.0000
# 5 0.0000 0.0000 0.0000 0.0000 -0.7771 0.0000
# 6 0.0000 0.0000 0.0000 0.0000 0.0000 22.8148
#
#
#
# Elastic Compliance Matrix: (Units=1/GPa)
#
#
# Indices 1 2 3 4 5 6 
#
# 1 0.018334 -0.007750 -0.000987 0.000000 0.000000 0.000000
# 2 -0.007750 0.014134 -0.003217 0.000000 0.000000 0.000000
# 3 -0.000987 -0.003217 0.013502 0.000000 0.000000 0.000000
# 4 0.000000 0.000000 0.000000 0.057367 0.000000 0.000000
# 5 0.000000 0.000000 0.000000 0.000000 -1.286891 0.000000
# 6 0.000000 0.000000 0.000000 0.000000 0.000000 0.043831
#
#
# Mechanical properties :
#
#
# Convention : Reuss Voigt Hill
#
# Bulk Modulus (GPa) = 45.33047 48.04156 46.68601
# Shear Modulus (GPa) = -4.51076 19.19530 7.34227
#
# Velocity S-wave (km/s) = -1.49837 3.09094 1.91165
# Velocity P-wave (km/s) = 4.42363 6.05391 5.30181
#
# Compressibility (1/GPa) = 0.02206022
#
# Stress axis : x y z
#
# Youngs Moduli (GPa) = 54.54337 70.75202 74.06454
#
# Poissons Ratio (x) = 0.54836 0.07309
# Poissons Ratio (y) = 0.42273 0.23830
# Poissons Ratio (z) = 0.05383 0.22764
#
# Static dielectric constant tensor:
#      x y z
#    x 1.771360 0.000000 0.000000 
#    y 0.000000 1.632550 0.000000 
#    z 0.000000 0.000000 1.763660 
# 
# From -- ./inp_files/34674.got.cif
#   From: 2010.05.17/outbox.cif.g08.bks.cpg/sg48_18_cif.got.tgz:34674.got - 2010.06.03 20:39:00.
