data_PCOD9390485
_publ_section_title
;
Structure prediction by ZEFSAII (Michael W. Deem and Ramdas Pophale) SiO2 
 PCOD9390485
Probable space group: P N N N
;
_chemical_formula_sum "Si O2"
_cell_formula_units_Z 58
_cell_length_a 9.523111
_cell_length_b 15.907592
_cell_length_c 17.829743
_cell_angle_alpha 90.000000
_cell_angle_beta 90.000000
_cell_angle_gamma 90.000000
_cell_volume 2701.023566
_symmetry_space_group_name_H-M "P N N N"
_symmetry_group_IT_number 48
_space_group.IT_coordinate_system_code '2'
_symmetry_cell_setting 'orthorhombic'
loop_
_space_group_symop_operation_xyz
x,y,z
1/2-x,1/2-y,z
x,1/2-y,1/2-z
1/2-x,y,1/2-z
-x,-y,-z
1/2+x,1/2+y,-z
-x,1/2+y,1/2+z
1/2+x,-y,1/2+z
loop_
_atom_site_type_symbol
_atom_site_label
_atom_site_fract_x
_atom_site_fract_y
_atom_site_fract_z
Si Si1 0.750000 0.750000 0.250000
Si Si2 0.343582 0.991384 0.584762
Si Si3 0.588632 0.632634 0.968476
Si Si4 0.470702 0.520083 0.587676
Si Si5 0.732443 0.898285 0.834296
Si Si6 0.890002 0.218738 0.936694
Si Si7 0.915414 0.432258 0.670056
Si Si8 0.498838 0.849512 0.179402
O O1 0.646718 0.807480 0.201095
O O2 0.332358 0.066684 0.523348
O O3 0.191141 0.953591 0.597005
O O4 0.426532 0.033570 0.654324
O O5 0.451205 0.920426 0.556658
O O6 0.680792 0.652080 0.896574
O O7 0.528593 0.712043 0.012917
O O8 0.500000 0.500000 0.500000
O O9 0.580311 0.581427 0.630038
O O10 0.482112 0.431602 0.630146
O O11 0.750000 0.863769 0.750000
O O12 0.812113 0.989066 0.829206
O O13 0.750000 0.250000 0.977202
O O14 0.875185 0.126863 0.899565
O O15 0.914290 0.282121 0.868543
O O16 0.920940 0.378214 0.745084
#
# Coordination Sequence:
#
# PCOD9390485 Si02
#       8
#     2   8   8   8   8   8   8   8
#     4  12  24  40  50  84 132 180 194 248 304 388
#     4   9  19  36  59  78 122 166 202 252 298 361
#     4   9  20  39  57  84 120 163 206 247 314 361
#     4  12  24  35  59  89 123 158 209 263 299 362
#     4  11  21  38  64  90 123 156 204 272 314 356
#     4  11  23  35  59  85 123 170 202 242 298 389
#     4  10  20  39  57  85 126 169 201 240 315 376
#     4  12  24  37  57  87 131 166 205 242 305 375
#
# _framework density 21.473341000000001
#
# number of rings (size 3 to 8) (size 9 to 14) (size 15 to 20)
#    0.000    1.379    4.138    2.483    3.862    0.552 
#    0.000    0.000    0.000    0.000    0.000    1.931 
#    0.000    0.000    0.000    0.000    0.000    0.000 
#
# Total GULP energy -324261.447528 kJ/mol
# GULP energy per Si atom -5590.714613 kJ/mol
# Density = 2.142447 g / cm^3
# Si number density = 21.473341 Si / 1000 Ang^3
#
#
#
# Elastic Constant Matrix: (Units=GPa)
#
#
# Indices 1 2 3 4 5 6 
#
# 1 140.7435 7.4877 47.4727 0.0000 0.0000 0.0000
# 2 7.4877 25.1548 18.2348 0.0000 0.0000 0.0000
# 3 47.4727 18.2348 120.1453 0.0000 0.0000 0.0000
# 4 0.0000 0.0000 0.0000 15.0800 0.0000 0.0000
# 5 0.0000 0.0000 0.0000 0.0000 24.1027 0.0000
# 6 0.0000 0.0000 0.0000 0.0000 0.0000 21.4916
#
#
#
# Elastic Compliance Matrix: (Units=1/GPa)
#
#
# Indices 1 2 3 4 5 6 
#
# 1 0.008198 -0.000103 -0.003224 0.000000 0.000000 0.000000
# 2 -0.000103 0.044670 -0.006739 0.000000 0.000000 0.000000
# 3 -0.003224 -0.006739 0.010620 0.000000 0.000000 0.000000
# 4 0.000000 0.000000 0.000000 0.066313 0.000000 0.000000
# 5 0.000000 0.000000 0.000000 0.000000 0.041489 0.000000
# 6 0.000000 0.000000 0.000000 0.000000 0.000000 0.046530
#
#
# Mechanical properties :
#
#
# Convention : Reuss Voigt Hill
#
# Bulk Modulus (GPa) = 23.06498 48.04820 35.55659
# Shear Modulus (GPa) = 19.80960 26.32473 23.06716
#
# Velocity S-wave (km/s) = 3.04060 3.50512 3.28109
# Velocity P-wave (km/s) = 4.80536 6.22940 5.56314
#
# Compressibility (1/GPa) = 0.04335578
#
# Stress axis : x y z
#
# Youngs Moduli (GPa) = 121.98212 22.38657 94.16450
#
# Poissons Ratio (x) = 0.00232 0.30354
# Poissons Ratio (y) = 0.01262 0.63455
# Poissons Ratio (z) = 0.39321 0.15086
#
# Static dielectric constant tensor:
#      x y z
#    x 1.846420 0.000000 0.000000 
#    y 0.000000 1.770880 0.000000 
#    z 0.000000 0.000000 1.825680 
# 
# From -- ./inp_files/30495.got.cif
#   From: 2010.05.17/outbox.cif.g08.bks.cpg/sg48_16_cif.got.tgz:30495.got - 2010.06.03 20:39:00.
