data_PCOD9390734
_publ_section_title
;
Structure prediction by ZEFSAII (Michael W. Deem and Ramdas Pophale) SiO2 
 PCOD9390734
Probable space group: P N N N
;
_chemical_formula_sum "Si O2"
_cell_formula_units_Z 32
_cell_length_a 6.969064
_cell_length_b 9.659063
_cell_length_c 20.533222
_cell_angle_alpha 90.000000
_cell_angle_beta 90.000000
_cell_angle_gamma 90.000000
_cell_volume 1382.186205
_symmetry_space_group_name_H-M "P N N N"
_symmetry_group_IT_number 48
_space_group.IT_coordinate_system_code '2'
_symmetry_cell_setting 'orthorhombic'
loop_
_space_group_symop_operation_xyz
x,y,z
1/2-x,1/2-y,z
x,1/2-y,1/2-z
1/2-x,y,1/2-z
-x,-y,-z
1/2+x,1/2+y,-z
-x,1/2+y,1/2+z
1/2+x,-y,1/2+z
loop_
_atom_site_type_symbol
_atom_site_label
_atom_site_fract_x
_atom_site_fract_y
_atom_site_fract_z
Si Si1 0.250000 0.250000 0.079316
Si Si2 0.750000 0.250000 0.572278
Si Si3 0.379500 0.376910 0.853506
Si Si4 0.550261 0.329225 0.186822
Si Si5 0.230338 0.493451 0.511973
O O1 0.416441 0.305360 0.125353
O O2 0.311002 0.128370 0.032185
O O3 0.575658 0.189277 0.616264
O O4 0.690414 0.370061 0.522045
O O5 0.250000 0.250000 0.829030
O O6 0.425024 0.505289 0.805743
O O7 0.260247 0.451946 0.912490
O O8 0.750000 0.250000 0.174842
O O9 0.470729 0.250000 0.250000
O O10 0.000000 0.500000 0.500000
#
# Coordination Sequence:
#
# PCOD9390734 Si02
#       5
#     4   4   8   8   8
#     4  12  21  44  74 100 146 181 232 290 362 426
#     4  10  22  40  62 103 147 172 228 276 354 436
#     4  11  24  42  68 104 144 181 226 290 361 416
#     4  11  27  47  70  98 135 193 248 290 343 422
#     4  10  21  38  62 107 140 176 219 278 357 425
#
# _framework density 23.151726
#
# number of rings (size 3 to 8) (size 9 to 14) (size 15 to 20)
#    0.000    1.250    6.250    0.375    5.250    1.000 
#    0.000    2.500    0.000    1.500    0.000    0.000 
#    0.000    0.000    0.000    0.000    0.000    0.000 
#
# Total GULP energy -178890.933967 kJ/mol
# GULP energy per Si atom -5590.341686 kJ/mol
# Density = 2.309903 g / cm^3
# Si number density = 23.151726 Si / 1000 Ang^3
#
#
#
# Elastic Constant Matrix: (Units=GPa)
#
#
# Indices 1 2 3 4 5 6 
#
# 1 120.7484 34.9938 15.6949 0.0000 0.0000 0.0000
# 2 34.9938 230.0013 52.4857 0.0000 0.0000 0.0000
# 3 15.6949 52.4857 85.6119 0.0000 0.0000 0.0000
# 4 0.0000 0.0000 0.0000 44.4714 0.0000 0.0000
# 5 0.0000 0.0000 0.0000 0.0000 46.2811 0.0000
# 6 0.0000 0.0000 0.0000 0.0000 0.0000 35.8923
#
#
#
# Elastic Compliance Matrix: (Units=1/GPa)
#
#
# Indices 1 2 3 4 5 6 
#
# 1 0.008725 -0.001119 -0.000913 0.000000 0.000000 0.000000
# 2 -0.001119 0.005199 -0.002982 0.000000 0.000000 0.000000
# 3 -0.000913 -0.002982 0.013676 0.000000 0.000000 0.000000
# 4 0.000000 0.000000 0.000000 0.022486 0.000000 0.000000
# 5 0.000000 0.000000 0.000000 0.000000 0.021607 0.000000
# 6 0.000000 0.000000 0.000000 0.000000 0.000000 0.027861
#
#
# Mechanical properties :
#
#
# Convention : Reuss Voigt Hill
#
# Bulk Modulus (GPa) = 56.91283 71.41226 64.16255
# Shear Modulus (GPa) = 43.31274 47.54146 45.42710
#
# Velocity S-wave (km/s) = 4.32999 4.53644 4.43442
# Velocity P-wave (km/s) = 7.04516 7.63881 7.34798
#
# Compressibility (1/GPa) = 0.01757073
#
# Stress axis : x y z
#
# Youngs Moduli (GPa) = 114.61709 192.36292 73.11990
#
# Poissons Ratio (x) = 0.21525 0.06679
# Poissons Ratio (y) = 0.12825 0.21804
# Poissons Ratio (z) = 0.10470 0.57360
#
# Static dielectric constant tensor:
#      x y z
#    x 1.924720 0.000000 0.000000 
#    y 0.000000 1.756090 0.000000 
#    z 0.000000 0.000000 1.913040 
# 
# From -- ./inp_files/35650.got.cif
#   From: 2010.05.17/outbox.cif.g08.bks.cpg/sg48_18_cif.got.tgz:35650.got - 2010.06.03 20:39:00.
