data_PCOD9390113
_publ_section_title
;
Structure prediction by ZEFSAII (Michael W. Deem and Ramdas Pophale) SiO2 
 PCOD9390113
Probable space group: P N N N
;
_chemical_formula_sum "Si O2"
_cell_formula_units_Z 58
_cell_length_a 14.344515
_cell_length_b 22.177140
_cell_length_c 8.746636
_cell_angle_alpha 90.000000
_cell_angle_beta 90.000000
_cell_angle_gamma 90.000000
_cell_volume 2782.482620
_symmetry_space_group_name_H-M "P N N N"
_symmetry_group_IT_number 48
_space_group.IT_coordinate_system_code '2'
_symmetry_cell_setting 'orthorhombic'
loop_
_space_group_symop_operation_xyz
x,y,z
1/2-x,1/2-y,z
x,1/2-y,1/2-z
1/2-x,y,1/2-z
-x,-y,-z
1/2+x,1/2+y,-z
-x,1/2+y,1/2+z
1/2+x,-y,1/2+z
loop_
_atom_site_type_symbol
_atom_site_label
_atom_site_fract_x
_atom_site_fract_y
_atom_site_fract_z
Si Si1 0.145394 0.354520 0.424714
Si Si2 0.304891 0.089324 0.900817
Si Si3 0.837193 0.367828 0.858270
Si Si4 0.750000 0.750000 0.750000
Si Si5 0.608145 0.231839 0.084569
Si Si6 0.490192 0.809867 0.346485
Si Si7 0.535965 0.867412 0.876785
Si Si8 0.403744 0.530772 0.554264
O O1 0.225167 0.401066 0.473037
O O2 0.191654 0.292956 0.362383
O O3 0.092279 0.377739 0.276567
O O4 0.075207 0.340363 0.564061
O O5 0.250000 0.112288 0.750000
O O6 0.341073 0.021286 0.872919
O O7 0.395695 0.121591 0.977606
O O8 0.750000 0.361201 0.750000
O O9 0.932719 0.352599 0.767668
O O10 0.831934 0.316806 0.990434
O O11 0.846110 0.435286 0.922611
O O12 0.644151 0.250000 0.250000
O O13 0.508485 0.198516 0.112766
O O14 0.583459 0.287110 0.974412
O O15 0.518027 0.750000 0.250000
O O16 0.447068 0.911752 0.860164
O O17 0.500000 0.500000 0.500000
#
# Coordination Sequence:
#
# PCOD9390113 Si02
#       8
#     8   8   8   2   8   8   8   8
#     4  12  23  38  67  95 138 173 219 262 336 406
#     4  11  25  40  64  99 130 166 224 281 332 395
#     4  10  23  44  68  95 133 173 229 286 343 394
#     4  12  24  40  62 100 136 182 206 268 322 420
#     4  10  19  38  68  97 133 174 218 263 333 410
#     4  10  23  37  64  99 137 175 221 268 337 409
#     4  10  20  42  66  91 130 182 217 269 334 398
#     4   9  22  43  68  84 125 173 223 281 338 385
#
# _framework density 20.844694
#
# number of rings (size 3 to 8) (size 9 to 14) (size 15 to 20)
#    0.000    1.655    2.759    0.828    7.724    4.690 
#    2.483    2.069    0.000    0.000    0.000    0.000 
#    0.000    0.000    0.000    0.000    0.000    0.000 
#
# Total GULP energy -323503.298068 kJ/mol
# GULP energy per Si atom -5577.643070 kJ/mol
# Density = 2.079725 g / cm^3
# Si number density = 20.844694 Si / 1000 Ang^3
#
#
#
# Elastic Constant Matrix: (Units=GPa)
#
#
# Indices 1 2 3 4 5 6 
#
# 1 108.4938 20.7442 47.1204 0.0000 0.0000 0.0000
# 2 20.7442 31.8846 8.5160 0.0000 0.0000 0.0000
# 3 47.1204 8.5160 106.0875 0.0000 0.0000 0.0000
# 4 0.0000 0.0000 0.0000 20.5391 0.0000 0.0000
# 5 0.0000 0.0000 0.0000 0.0000 43.8402 0.0000
# 6 0.0000 0.0000 0.0000 0.0000 0.0000 20.8792
#
#
#
# Elastic Compliance Matrix: (Units=1/GPa)
#
#
# Indices 1 2 3 4 5 6 
#
# 1 0.012764 -0.006939 -0.005112 0.000000 0.000000 0.000000
# 2 -0.006939 0.035823 0.000206 0.000000 0.000000 0.000000
# 3 -0.005112 0.000206 0.011680 0.000000 0.000000 0.000000
# 4 0.000000 0.000000 0.000000 0.048688 0.000000 0.000000
# 5 0.000000 0.000000 0.000000 0.000000 0.022810 0.000000
# 6 0.000000 0.000000 0.000000 0.000000 0.000000 0.047894
#
#
# Mechanical properties :
#
#
# Convention : Reuss Voigt Hill
#
# Bulk Modulus (GPa) = 27.33939 44.35856 35.84897
# Shear Modulus (GPa) = 23.19737 28.39072 25.79405
#
# Velocity S-wave (km/s) = 3.33958 3.69455 3.52154
# Velocity P-wave (km/s) = 5.29289 6.28699 5.81124
#
# Compressibility (1/GPa) = 0.03657726
#
# Stress axis : x y z
#
# Youngs Moduli (GPa) = 78.34369 27.91539 85.61376
#
# Poissons Ratio (x) = 0.19371 0.43769
# Poissons Ratio (y) = 0.54363 -0.01768
# Poissons Ratio (z) = 0.40053 -0.00576
#
# Static dielectric constant tensor:
#      x y z
#    x 1.777220 0.000000 0.000000 
#    y 0.000000 1.664150 0.000000 
#    z 0.000000 0.000000 1.779680 
# 
# From -- ./inp_files/13239.got.cif
#   From: 2010.05.17/outbox.cif.g08.bks.cpg/sg48_7_cif.got.tgz:13239.got - 2010.06.03 20:39:00.
