data_PCOD9390036
_publ_section_title
;
Structure prediction by ZEFSAII (Michael W. Deem and Ramdas Pophale) SiO2 
 PCOD9390036
Probable space group: P N N N
;
_chemical_formula_sum "Si O2"
_cell_formula_units_Z 64
_cell_length_a 11.825422
_cell_length_b 15.584224
_cell_length_c 18.696075
_cell_angle_alpha 90.000000
_cell_angle_beta 90.000000
_cell_angle_gamma 90.000000
_cell_volume 3445.500136
_symmetry_space_group_name_H-M "P N N N"
_symmetry_group_IT_number 48
_space_group.IT_coordinate_system_code '2'
_symmetry_cell_setting 'orthorhombic'
loop_
_space_group_symop_operation_xyz
x,y,z
1/2-x,1/2-y,z
x,1/2-y,1/2-z
1/2-x,y,1/2-z
-x,-y,-z
1/2+x,1/2+y,-z
-x,1/2+y,1/2+z
1/2+x,-y,1/2+z
loop_
_atom_site_type_symbol
_atom_site_label
_atom_site_fract_x
_atom_site_fract_y
_atom_site_fract_z
Si Si1 0.620632 0.748714 0.084131
Si Si2 0.625536 0.828681 0.786227
Si Si3 0.890305 0.407788 0.447972
Si Si4 0.492502 0.921346 0.395908
Si Si5 0.540605 0.746425 0.573583
Si Si6 0.125869 0.588632 0.955603
Si Si7 0.991298 0.426980 0.896418
Si Si8 0.114563 0.519126 0.248183
O O1 0.750000 0.750000 0.106500
O O2 0.556887 0.667613 0.117518
O O3 0.560663 0.839030 0.098314
O O4 0.610084 0.736368 0.998459
O O5 0.559895 0.750000 0.750000
O O6 0.750000 0.832364 0.750000
O O7 0.622113 0.797630 0.867802
O O8 0.577289 0.921331 0.769571
O O9 0.915626 0.406911 0.533454
O O10 0.756740 0.395687 0.438811
O O11 0.924957 0.500832 0.418204
O O12 0.971596 0.334975 0.412770
O O13 0.428681 0.949997 0.324672
O O14 0.446181 0.673643 0.560610
O O15 0.073417 0.507982 0.912450
O O16 0.101572 0.569636 0.039692
O O17 0.933498 0.430018 0.819396
O O18 0.250000 0.522497 0.250000
#
# Coordination Sequence:
#
# PCOD9390036 Si02
#       8
#     8   8   8   8   8   8   8   8
#     4  10  22  39  61  86 116 156 206 253 294 343
#     4  10  21  35  56  90 122 154 188 242 308 355
#     4  10  20  37  60  84 121 160 197 245 292 357
#     4  10  22  39  57  88 117 155 203 247 297 349
#     4  10  20  36  59  90 118 152 198 242 295 365
#     4  10  19  36  59  87 118 156 197 242 297 351
#     4  10  21  37  60  89 117 153 205 252 293 359
#     4  11  22  40  62  87 121 156 195 251 308 358
#
# _framework density 18.574952
#
# number of rings (size 3 to 8) (size 9 to 14) (size 15 to 20)
#    0.000    1.875    1.250    2.625    1.750    0.500 
#    4.500    5.625    0.000    0.750    0.000    0.000 
#    0.000    0.000    0.000    0.000    0.000    0.000 
#
# Total GULP energy -356822.555541 kJ/mol
# GULP energy per Si atom -5575.352430 kJ/mol
# Density = 1.853267 g / cm^3
# Si number density = 18.574952 Si / 1000 Ang^3
#
#
#
# Elastic Constant Matrix: (Units=GPa)
#
#
# Indices 1 2 3 4 5 6 
#
# 1 81.2624 20.2801 24.8841 0.0000 0.0000 0.0000
# 2 20.2801 98.0085 10.6451 0.0000 0.0000 0.0000
# 3 24.8841 10.6451 92.2239 0.0000 0.0000 0.0000
# 4 0.0000 0.0000 0.0000 27.6141 0.0000 0.0000
# 5 0.0000 0.0000 0.0000 0.0000 14.3668 0.0000
# 6 0.0000 0.0000 0.0000 0.0000 0.0000 10.8853
#
#
#
# Elastic Compliance Matrix: (Units=1/GPa)
#
#
# Indices 1 2 3 4 5 6 
#
# 1 0.014002 -0.002519 -0.003487 0.000000 0.000000 0.000000
# 2 -0.002519 0.010786 -0.000565 0.000000 0.000000 0.000000
# 3 -0.003487 -0.000565 0.011849 0.000000 0.000000 0.000000
# 4 0.000000 0.000000 0.000000 0.036213 0.000000 0.000000
# 5 0.000000 0.000000 0.000000 0.000000 0.069605 0.000000
# 6 0.000000 0.000000 0.000000 0.000000 0.000000 0.091867
#
#
# Mechanical properties :
#
#
# Convention : Reuss Voigt Hill
#
# Bulk Modulus (GPa) = 42.56287 42.56815 42.56551
# Shear Modulus (GPa) = 19.58503 24.95228 22.26866
#
# Velocity S-wave (km/s) = 3.25064 3.66912 3.46620
# Velocity P-wave (km/s) = 6.08710 6.39661 6.24377
#
# Compressibility (1/GPa) = 0.02349465
#
# Stress axis : x y z
#
# Youngs Moduli (GPa) = 71.41699 92.71484 84.39230
#
# Poissons Ratio (x) = 0.23351 0.29431
# Poissons Ratio (y) = 0.17987 0.04772
# Poissons Ratio (z) = 0.24906 0.05242
#
# Static dielectric constant tensor:
#      x y z
#    x 1.620590 0.000000 0.000000 
#    y 0.000000 1.662700 0.000000 
#    z 0.000000 0.000000 1.688510 
# 
# From -- ./inp_files/21574.got.cif
#   From: 2010.05.17/outbox.cif.g08.bks.cpg/sg48_11_cif.got.tgz:21574.got - 2010.06.03 20:39:00.
