data_PCOD9390613
_publ_section_title
;
Structure prediction by ZEFSAII (Michael W. Deem and Ramdas Pophale) SiO2 
 PCOD9390613
Probable space group: P N N N
;
_chemical_formula_sum "Si O2"
_cell_formula_units_Z 48
_cell_length_a 12.334324
_cell_length_b 12.523162
_cell_length_c 13.054959
_cell_angle_alpha 90.000000
_cell_angle_beta 90.000000
_cell_angle_gamma 90.000000
_cell_volume 2016.530816
_symmetry_space_group_name_H-M "P N N N"
_symmetry_group_IT_number 48
_space_group.IT_coordinate_system_code '2'
_symmetry_cell_setting 'orthorhombic'
loop_
_space_group_symop_operation_xyz
x,y,z
1/2-x,1/2-y,z
x,1/2-y,1/2-z
1/2-x,y,1/2-z
-x,-y,-z
1/2+x,1/2+y,-z
-x,1/2+y,1/2+z
1/2+x,-y,1/2+z
loop_
_atom_site_type_symbol
_atom_site_label
_atom_site_fract_x
_atom_site_fract_y
_atom_site_fract_z
Si Si1 0.068203 0.914924 0.272074
Si Si2 0.869897 0.855985 0.795882
Si Si3 0.145926 0.408986 0.524912
Si Si4 0.915563 0.131119 0.499697
Si Si5 0.626009 0.582543 0.398173
Si Si6 0.600468 0.361322 0.940008
O O1 0.120605 0.907833 0.385550
O O2 0.127310 0.852700 0.180605
O O3 0.068334 0.036750 0.233696
O O4 0.047163 0.124452 0.509966
O O5 0.922150 0.750000 0.750000
O O6 0.750000 0.866949 0.750000
O O7 0.853668 0.849455 0.916524
O O8 0.251313 0.382745 0.590620
O O9 0.148596 0.535034 0.494835
O O10 0.028658 0.383138 0.568896
O O11 0.881229 0.253677 0.496889
O O12 0.056026 0.116024 0.700234
O O13 0.879757 0.045986 0.415758
#
# Coordination Sequence:
#
# PCOD9390613 Si02
#       6
#     8   8   8   8   8   8
#     4   9  19  37  54  84 113 152 190 236 289 348
#     4  10  21  33  58  83 114 146 196 239 290 340
#     4  10  22  37  53  85 117 150 185 245 288 346
#     4   9  19  34  59  80 109 148 193 235 284 347
#     4   9  20  35  58  82 115 148 193 237 288 349
#     4  10  21  36  57  82 117 150 192 238 296 340
#
# _framework density 23.803256000000001
#
# number of rings (size 3 to 8) (size 9 to 14) (size 15 to 20)
#    1.000    1.500    0.000    1.500    2.333    3.333 
#    0.000    0.000    3.667    3.000    0.000    0.000 
#    0.000    0.000    0.000    0.000    0.000    0.000 
#
# Total GULP energy -267951.172147 kJ/mol
# GULP energy per Si atom -5582.316086 kJ/mol
# Density = 2.374908 g / cm^3
# Si number density = 23.803256 Si / 1000 Ang^3
#
#
#
# Elastic Constant Matrix: (Units=GPa)
#
#
# Indices 1 2 3 4 5 6 
#
# 1 108.9991 -16.9814 2.9711 0.0000 0.0000 0.0000
# 2 -16.9814 123.2534 1.0145 0.0000 0.0000 0.0000
# 3 2.9711 1.0145 44.1396 0.0000 0.0000 0.0000
# 4 0.0000 0.0000 0.0000 22.3003 0.0000 0.0000
# 5 0.0000 0.0000 0.0000 0.0000 27.2865 0.0000
# 6 0.0000 0.0000 0.0000 0.0000 0.0000 -8.1481
#
#
#
# Elastic Compliance Matrix: (Units=1/GPa)
#
#
# Indices 1 2 3 4 5 6 
#
# 1 0.009395 0.001300 -0.000662 0.000000 0.000000 0.000000
# 2 0.001300 0.008295 -0.000278 0.000000 0.000000 0.000000
# 3 -0.000662 -0.000278 0.022706 0.000000 0.000000 0.000000
# 4 0.000000 0.000000 0.000000 0.044842 0.000000 0.000000
# 5 0.000000 0.000000 0.000000 0.000000 0.036648 0.000000
# 6 0.000000 0.000000 0.000000 0.000000 0.000000 -0.122728
#
#
# Mechanical properties :
#
#
# Convention : Reuss Voigt Hill
#
# Bulk Modulus (GPa) = 24.32204 27.82228 26.07216
# Shear Modulus (GPa) = 411.68939 27.58027 219.63483
#
# Velocity S-wave (km/s) = 13.16551 3.40763 9.61620
# Velocity P-wave (km/s) = 15.53536 5.21501 11.58758
#
# Compressibility (1/GPa) = 0.04111497
#
# Stress axis : x y z
#
# Youngs Moduli (GPa) = 106.44021 120.55830 44.04052
#
# Poissons Ratio (x) = -0.15671 0.02917
# Poissons Ratio (y) = -0.13836 0.01225
# Poissons Ratio (z) = 0.07049 0.03353
#
# Static dielectric constant tensor:
#      x y z
#    x 1.947100 0.000000 0.000000 
#    y 0.000000 1.985650 0.000000 
#    z 0.000000 0.000000 1.977160 
# 
# From -- ./inp_files/27361.got.cif
#   From: 2010.05.17/outbox.cif.g08.bks.cpg/sg48_14_cif.got.tgz:27361.got - 2010.06.03 20:39:00.
