data_PCOD9390773
_publ_section_title
;
Structure prediction by ZEFSAII (Michael W. Deem and Ramdas Pophale) SiO2 
 PCOD9390773
Probable space group: P N N N
;
_chemical_formula_sum "Si O2"
_cell_formula_units_Z 64
_cell_length_a 24.353087
_cell_length_b 14.304455
_cell_length_c 9.146604
_cell_angle_alpha 90.000000
_cell_angle_beta 90.000000
_cell_angle_gamma 90.000000
_cell_volume 3186.289357
_symmetry_space_group_name_H-M "P N N N"
_symmetry_group_IT_number 48
_space_group.IT_coordinate_system_code '2'
_symmetry_cell_setting 'orthorhombic'
loop_
_space_group_symop_operation_xyz
x,y,z
1/2-x,1/2-y,z
x,1/2-y,1/2-z
1/2-x,y,1/2-z
-x,-y,-z
1/2+x,1/2+y,-z
-x,1/2+y,1/2+z
1/2+x,-y,1/2+z
loop_
_atom_site_type_symbol
_atom_site_label
_atom_site_fract_x
_atom_site_fract_y
_atom_site_fract_z
Si Si1 0.252645 0.139230 0.075819
Si Si2 0.561902 0.283318 0.914122
Si Si3 0.441569 0.238046 0.927522
Si Si4 0.605903 0.343277 0.347817
Si Si5 0.057847 0.506960 0.420828
Si Si6 0.691449 0.518719 0.337722
Si Si7 0.515013 0.924620 0.877710
Si Si8 0.643373 0.880984 0.424315
O O1 0.250000 0.250000 0.030876
O O2 0.250000 0.135548 0.250000
O O3 0.295698 0.072256 0.990512
O O4 0.195470 0.099173 0.020401
O O5 0.557416 0.250000 0.750000
O O6 0.499117 0.287267 0.974412
O O7 0.581634 0.388705 0.917949
O O8 0.597598 0.205777 0.995357
O O9 0.442950 0.250000 0.750000
O O10 0.383011 0.281924 0.961688
O O11 0.448926 0.145888 0.023877
O O12 0.617085 0.250000 0.250000
O O13 0.652003 0.425811 0.343396
O O14 0.543842 0.383735 0.318630
O O15 0.096512 0.449510 0.525525
O O16 0.000000 0.500000 0.500000
O O17 0.048599 0.466444 0.258160
O O18 0.750000 0.499976 0.250000
O O19 0.659822 0.596481 0.240611
O O20 0.500000 0.000000 0.000000
#
# Coordination Sequence:
#
# PCOD9390773 Si02
#       8
#     8   8   8   8   8   8   8   8
#     4  10  25  46  67  96 132 167 223 285 340 410
#     4  10  21  39  57  87 133 170 208 265 322 402
#     4  10  22  37  58  92 131 169 220 258 323 415
#     4  11  23  40  66  95 130 180 229 284 348 400
#     4  12  22  39  61  92 134 168 218 272 330 412
#     4  10  24  45  70  97 127 173 237 289 348 421
#     4  11  25  38  61  96 136 185 229 276 339 426
#     4  11  24  39  65  94 126 176 209 268 344 396
#
# _framework density 20.08606
#
# number of rings (size 3 to 8) (size 9 to 14) (size 15 to 20)
#    0.000    1.375    1.250    4.500    5.250    6.000 
#    0.000    0.000    0.000    0.000    0.000    2.625 
#    0.000    0.000    0.000    0.000    0.000    0.000 
#
# Total GULP energy -356431.839395 kJ/mol
# GULP energy per Si atom -5569.247491 kJ/mol
# Density = 2.004034 g / cm^3
# Si number density = 20.086060 Si / 1000 Ang^3
#
#
#
# Elastic Constant Matrix: (Units=GPa)
#
#
# Indices 1 2 3 4 5 6 
#
# 1 85.3531 30.1750 18.4818 0.0000 0.0000 0.0000
# 2 30.1750 81.6957 12.8515 0.0000 0.0000 0.0000
# 3 18.4818 12.8515 75.0122 0.0000 0.0000 0.0000
# 4 0.0000 0.0000 0.0000 35.0654 0.0000 0.0000
# 5 0.0000 0.0000 0.0000 0.0000 24.0420 0.0000
# 6 0.0000 0.0000 0.0000 0.0000 0.0000 29.1363
#
#
#
# Elastic Compliance Matrix: (Units=1/GPa)
#
#
# Indices 1 2 3 4 5 6 
#
# 1 0.013962 -0.004744 -0.002627 0.000000 0.000000 0.000000
# 2 -0.004744 0.014191 -0.001263 0.000000 0.000000 0.000000
# 3 -0.002627 -0.001263 0.014195 0.000000 0.000000 0.000000
# 4 0.000000 0.000000 0.000000 0.028518 0.000000 0.000000
# 5 0.000000 0.000000 0.000000 0.000000 0.041594 0.000000
# 6 0.000000 0.000000 0.000000 0.000000 0.000000 0.034321
#
#
# Mechanical properties :
#
#
# Convention : Reuss Voigt Hill
#
# Bulk Modulus (GPa) = 39.87084 40.56417 40.21750
# Shear Modulus (GPa) = 29.00081 29.68557 29.34319
#
# Velocity S-wave (km/s) = 3.80390 3.84854 3.82628
# Velocity P-wave (km/s) = 6.25987 6.32356 6.29179
#
# Compressibility (1/GPa) = 0.02508099
#
# Stress axis : x y z
#
# Youngs Moduli (GPa) = 71.62318 70.46588 70.44831
#
# Poissons Ratio (x) = 0.33427 0.18509
# Poissons Ratio (y) = 0.33976 0.08895
# Poissons Ratio (z) = 0.18817 0.08897
#
# Static dielectric constant tensor:
#      x y z
#    x 1.680820 0.000000 0.000000 
#    y 0.000000 2.066480 0.000000 
#    z 0.000000 0.000000 1.738490 
# 
# From -- ./inp_files/16043.got.cif
#   From: 2010.05.17/outbox.cif.g08.bks.cpg/sg48_9_cif.got.tgz:16043.got - 2010.06.03 20:39:00.
