data_PCOD9390093
_publ_section_title
;
Structure prediction by ZEFSAII (Michael W. Deem and Ramdas Pophale) SiO2 
 PCOD9390093
Probable space group: P N N N
;
_chemical_formula_sum "Si O2"
_cell_formula_units_Z 48
_cell_length_a 8.499960
_cell_length_b 17.813373
_cell_length_c 15.825066
_cell_angle_alpha 90.000000
_cell_angle_beta 90.000000
_cell_angle_gamma 90.000000
_cell_volume 2396.120053
_symmetry_space_group_name_H-M "P N N N"
_symmetry_group_IT_number 48
_space_group.IT_coordinate_system_code '2'
_symmetry_cell_setting 'orthorhombic'
loop_
_space_group_symop_operation_xyz
x,y,z
1/2-x,1/2-y,z
x,1/2-y,1/2-z
1/2-x,y,1/2-z
-x,-y,-z
1/2+x,1/2+y,-z
-x,1/2+y,1/2+z
1/2+x,-y,1/2+z
loop_
_atom_site_type_symbol
_atom_site_label
_atom_site_fract_x
_atom_site_fract_y
_atom_site_fract_z
Si Si1 0.483987 0.250000 0.750000
Si Si2 0.750000 0.611768 0.250000
Si Si3 0.645846 0.053728 0.974772
Si Si4 0.687332 0.949375 0.656512
Si Si5 0.011058 0.208337 0.561959
Si Si6 0.640053 0.988917 0.390396
Si Si7 0.348377 0.150067 0.500136
O O1 0.390326 0.328825 0.762181
O O2 0.544969 0.264914 0.655140
O O3 0.743569 0.554946 0.327781
O O4 0.594027 0.138782 0.963979
O O5 0.718762 0.016629 0.890469
O O6 0.500000 0.000000 0.000000
O O7 0.767355 0.046295 0.051473
O O8 0.750000 0.935750 0.750000
O O9 0.699857 0.878304 0.592702
O O10 0.505625 0.975002 0.657533
O O11 0.191791 0.175828 0.552717
O O12 0.028501 0.282271 0.504617
O O13 0.583479 0.923139 0.453717
#
# Coordination Sequence:
#
# PCOD9390093 Si02
#       7
#     4   4   8   8   8   8   8
#     4  11  18  32  58 103 125 152 208 279 309 392
#     4  11  18  32  64  90 121 162 216 250 321 388
#     4  11  21  40  65  94 128 166 217 261 328 406
#     4  11  26  41  60  90 135 172 223 277 326 384
#     4  11  20  34  66  97 126 162 216 266 317 399
#     4  11  22  38  61  91 131 173 210 269 332 393
#     4  10  19  38  59  88 126 169 213 256 331 392
#
# _framework density 20.032385999999999
#
# number of rings (size 3 to 8) (size 9 to 14) (size 15 to 20)
#    0.000    1.167    6.667    3.000    4.667    0.000 
#    0.000    5.000    0.000    3.000    0.000    1.167 
#    0.000    0.000    0.000    0.000    0.000    0.000 
#
# Total GULP energy -267617.260863 kJ/mol
# GULP energy per Si atom -5575.359601 kJ/mol
# Density = 1.998679 g / cm^3
# Si number density = 20.032386 Si / 1000 Ang^3
#
#
#
# Elastic Constant Matrix: (Units=GPa)
#
#
# Indices 1 2 3 4 5 6 
#
# 1 56.2575 47.4759 37.9662 0.0000 0.0000 0.0000
# 2 47.4759 145.1816 74.0634 0.0000 0.0000 0.0000
# 3 37.9662 74.0634 154.2798 0.0000 0.0000 0.0000
# 4 0.0000 0.0000 0.0000 31.6578 0.0000 0.0000
# 5 0.0000 0.0000 0.0000 0.0000 23.8962 0.0000
# 6 0.0000 0.0000 0.0000 0.0000 0.0000 21.7733
#
#
#
# Elastic Compliance Matrix: (Units=1/GPa)
#
#
# Indices 1 2 3 4 5 6 
#
# 1 0.025569 -0.006822 -0.003017 0.000000 0.000000 0.000000
# 2 -0.006822 0.010942 -0.003574 0.000000 0.000000 0.000000
# 3 -0.003017 -0.003574 0.008940 0.000000 0.000000 0.000000
# 4 0.000000 0.000000 0.000000 0.031588 0.000000 0.000000
# 5 0.000000 0.000000 0.000000 0.000000 0.041848 0.000000
# 6 0.000000 0.000000 0.000000 0.000000 0.000000 0.045928
#
#
# Mechanical properties :
#
#
# Convention : Reuss Voigt Hill
#
# Bulk Modulus (GPa) = 53.69326 74.96998 64.33162
# Shear Modulus (GPa) = 25.27186 28.54636 26.90911
#
# Velocity S-wave (km/s) = 3.55568 3.77903 3.66906
# Velocity P-wave (km/s) = 6.61200 7.51978 7.08045
#
# Compressibility (1/GPa) = 0.01862431
#
# Stress axis : x y z
#
# Youngs Moduli (GPa) = 39.11029 91.39027 111.85756
#
# Poissons Ratio (x) = 0.62347 0.33749
# Poissons Ratio (y) = 0.26681 0.39978
# Poissons Ratio (z) = 0.11800 0.32663
#
# Static dielectric constant tensor:
#      x y z
#    x 1.798780 0.000000 0.000000 
#    y 0.000000 1.696570 0.000000 
#    z 0.000000 0.000000 1.698530 
# 
# From -- ./inp_files/25430.got.cif
#   From: 2010.05.17/outbox.cif.g08.bks.cpg/sg48_13_cif.got.tgz:25430.got - 2010.06.03 20:39:00.
