data_PCOD9390143
_publ_section_title
;
Structure prediction by ZEFSAII (Michael W. Deem and Ramdas Pophale) SiO2 
 PCOD9390143
Probable space group: P N N N
;
_chemical_formula_sum "Si O2"
_cell_formula_units_Z 34
_cell_length_a 6.749895
_cell_length_b 28.012699
_cell_length_c 8.400752
_cell_angle_alpha 90.000000
_cell_angle_beta 90.000000
_cell_angle_gamma 90.000000
_cell_volume 1588.437516
_symmetry_space_group_name_H-M "P N N N"
_symmetry_group_IT_number 48
_space_group.IT_coordinate_system_code '2'
_symmetry_cell_setting 'orthorhombic'
loop_
_space_group_symop_operation_xyz
x,y,z
1/2-x,1/2-y,z
x,1/2-y,1/2-z
1/2-x,y,1/2-z
-x,-y,-z
1/2+x,1/2+y,-z
-x,1/2+y,1/2+z
1/2+x,-y,1/2+z
loop_
_atom_site_type_symbol
_atom_site_label
_atom_site_fract_x
_atom_site_fract_y
_atom_site_fract_z
Si Si1 0.409800 0.207180 0.536104
Si Si2 0.469399 0.079504 0.027285
Si Si3 0.750000 0.875941 0.250000
Si Si4 0.750000 0.250000 0.750000
Si Si5 0.213145 0.983977 0.066214
Si Si6 0.250000 0.344442 0.250000
O O1 0.250000 0.250000 0.558785
O O2 0.348516 0.159077 0.624896
O O3 0.608306 0.222147 0.626906
O O4 0.391311 0.190248 0.354046
O O5 0.411032 0.094911 0.848253
O O6 0.693449 0.059942 0.034328
O O7 0.392407 0.120935 0.144892
O O8 0.340463 0.032274 0.054428
O O9 0.250000 0.970288 0.250000
O O10 0.000000 0.000000 0.000000
#
# Coordination Sequence:
#
# PCOD9390143 Si02
#       6
#     8   8   4   2   8   4
#     4  11  22  45  71 100 144 182 228 290 355 426
#     4  10  22  42  66  97 132 175 234 287 342 410
#     4  10  19  42  68  98 138 184 228 288 347 422
#     4  12  22  44  74 108 132 194 236 276 372 428
#     4  11  23  43  66  93 133 182 230 283 353 411
#     4  10  23  46  72 101 140 182 231 296 347 408
#
# _framework density 21.404681
#
# number of rings (size 3 to 8) (size 9 to 14) (size 15 to 20)
#    0.000    1.412    3.529    1.765    0.000    2.824 
#   10.588    4.706    0.000    0.000    0.000    0.000 
#    0.000    0.000    0.000    0.000    0.000    0.000 
#
# Total GULP energy -189508.754534 kJ/mol
# GULP energy per Si atom -5573.786898 kJ/mol
# Density = 2.135596 g / cm^3
# Si number density = 21.404681 Si / 1000 Ang^3
#
#
#
# Elastic Constant Matrix: (Units=GPa)
#
#
# Indices 1 2 3 4 5 6 
#
# 1 144.7600 56.3891 56.3213 0.0000 0.0000 0.0000
# 2 56.3891 89.5169 53.6272 0.0000 0.0000 0.0000
# 3 56.3213 53.6272 118.7949 0.0000 0.0000 0.0000
# 4 0.0000 0.0000 0.0000 46.7105 0.0000 0.0000
# 5 0.0000 0.0000 0.0000 0.0000 -6.7447 0.0000
# 6 0.0000 0.0000 0.0000 0.0000 0.0000 88.0009
#
#
#
# Elastic Compliance Matrix: (Units=1/GPa)
#
#
# Indices 1 2 3 4 5 6 
#
# 1 0.009673 -0.004586 -0.002516 0.000000 0.000000 0.000000
# 2 -0.004586 0.017487 -0.005719 0.000000 0.000000 0.000000
# 3 -0.002516 -0.005719 0.012193 0.000000 0.000000 0.000000
# 4 0.000000 0.000000 0.000000 0.021408 0.000000 0.000000
# 5 0.000000 0.000000 0.000000 0.000000 -0.148264 0.000000
# 6 0.000000 0.000000 0.000000 0.000000 0.000000 0.011364
#
#
# Mechanical properties :
#
#
# Convention : Reuss Voigt Hill
#
# Bulk Modulus (GPa) = 72.94378 76.19412 74.56895
# Shear Modulus (GPa) = -108.86834 38.04229 -35.41303
#
# Velocity S-wave (km/s) = -7.13949 4.22036 -4.07191
# Velocity P-wave (km/s) = 5.81470 7.70862 3.57855
#
# Compressibility (1/GPa) = 0.01370919
#
# Stress axis : x y z
#
# Youngs Moduli (GPa) = 103.37687 57.18689 82.01738
#
# Poissons Ratio (x) = 0.26228 0.20634
# Poissons Ratio (y) = 0.47412 0.46910
# Poissons Ratio (z) = 0.26007 0.32708
#
# Static dielectric constant tensor:
#      x y z
#    x 1.825360 0.000000 0.000000 
#    y 0.000000 1.756310 0.000000 
#    z 0.000000 0.000000 1.893860 
# 
# From -- ./inp_files/7658.got.cif
#   From: 2010.05.17/outbox.cif.g08.bks.cpg/sg48_4_cif.got.tgz:7658.got - 2010.06.03 20:39:00.
