data_PCOD9390594
_publ_section_title
;
Structure prediction by ZEFSAII (Michael W. Deem and Ramdas Pophale) SiO2 
 PCOD9390594
Probable space group: P N N N
;
_chemical_formula_sum "Si O2"
_cell_formula_units_Z 46
_cell_length_a 9.552931
_cell_length_b 12.781945
_cell_length_c 19.573307
_cell_angle_alpha 90.000000
_cell_angle_beta 90.000000
_cell_angle_gamma 90.000000
_cell_volume 2389.999407
_symmetry_space_group_name_H-M "P N N N"
_symmetry_group_IT_number 48
_space_group.IT_coordinate_system_code '2'
_symmetry_cell_setting 'orthorhombic'
loop_
_space_group_symop_operation_xyz
x,y,z
1/2-x,1/2-y,z
x,1/2-y,1/2-z
1/2-x,y,1/2-z
-x,-y,-z
1/2+x,1/2+y,-z
-x,1/2+y,1/2+z
1/2+x,-y,1/2+z
loop_
_atom_site_type_symbol
_atom_site_label
_atom_site_fract_x
_atom_site_fract_y
_atom_site_fract_z
Si Si1 0.880608 0.321256 0.624170
Si Si2 0.099784 0.082487 0.344805
Si Si3 0.908074 0.712224 0.477072
Si Si4 0.750000 0.085378 0.750000
Si Si5 0.250000 0.250000 0.250000
Si Si6 0.713831 0.505642 0.967857
Si Si7 0.864637 0.339232 0.067950
O O1 0.750000 0.250000 0.601041
O O2 0.850958 0.347598 0.701915
O O3 0.866839 0.428054 0.582451
O O4 0.024808 0.274188 0.598098
O O5 0.157792 0.178983 0.300499
O O6 0.941378 0.107057 0.367358
O O7 0.148763 0.984153 0.298439
O O8 0.178370 0.064063 0.416940
O O9 0.750000 0.750000 0.478774
O O10 0.887520 0.592390 0.500580
O O11 0.015287 0.775611 0.525630
O O12 0.794489 0.431561 0.022294
O O13 0.750000 0.250000 0.084977
#
# Coordination Sequence:
#
# PCOD9390594 Si02
#       7
#     8   8   8   4   2   8   8
#     4  11  21  41  63  94 125 166 219 257 314 385
#     4  10  21  38  64  89 121 167 213 260 313 386
#     4  12  23  36  63 101 129 164 202 270 336 384
#     4   9  23  39  67  86 116 178 220 262 300 384
#     4  10  20  44  60  88 122 164 228 246 306 396
#     4  11  21  38  64  96 130 158 205 271 330 384
#     4  12  23  40  62  99 133 164 210 268 341 397
#
# _framework density 19.246866000000001
#
# number of rings (size 3 to 8) (size 9 to 14) (size 15 to 20)
#    0.000    1.043    5.217    2.348    0.000    0.000 
#    0.000    0.435    0.000    6.261    0.000    0.000 
#    0.000    0.000    0.000    0.000    0.000    0.000 
#
# Total GULP energy -256452.620248 kJ/mol
# GULP energy per Si atom -5575.056962 kJ/mol
# Density = 1.920306 g / cm^3
# Si number density = 19.246866 Si / 1000 Ang^3
#
#
#
# Elastic Constant Matrix: (Units=GPa)
#
#
# Indices 1 2 3 4 5 6 
#
# 1 69.7294 6.2417 31.2422 0.0000 0.0000 0.0000
# 2 6.2417 63.6730 28.8745 0.0000 0.0000 0.0000
# 3 31.2422 28.8745 83.2642 0.0000 0.0000 0.0000
# 4 0.0000 0.0000 0.0000 25.5482 0.0000 0.0000
# 5 0.0000 0.0000 0.0000 0.0000 16.4533 0.0000
# 6 0.0000 0.0000 0.0000 0.0000 0.0000 34.3355
#
#
#
# Elastic Compliance Matrix: (Units=1/GPa)
#
#
# Indices 1 2 3 4 5 6 
#
# 1 0.017357 0.001486 -0.007028 0.000000 0.000000 0.000000
# 2 0.001486 0.018763 -0.007064 0.000000 0.000000 0.000000
# 3 -0.007028 -0.007064 0.017097 0.000000 0.000000 0.000000
# 4 0.000000 0.000000 0.000000 0.039142 0.000000 0.000000
# 5 0.000000 0.000000 0.000000 0.000000 0.060778 0.000000
# 6 0.000000 0.000000 0.000000 0.000000 0.000000 0.029124
#
#
# Mechanical properties :
#
#
# Convention : Reuss Voigt Hill
#
# Bulk Modulus (GPa) = 35.70927 38.82037 37.26482
# Shear Modulus (GPa) = 23.06186 25.28794 24.17490
#
# Velocity S-wave (km/s) = 3.46528 3.62867 3.54792
# Velocity P-wave (km/s) = 5.88255 6.14572 6.01557
#
# Compressibility (1/GPa) = 0.02800393
#
# Stress axis : x y z
#
# Youngs Moduli (GPa) = 57.61369 53.29624 58.49111
#
# Poissons Ratio (x) = -0.07917 0.41106
# Poissons Ratio (y) = -0.08559 0.41319
# Poissons Ratio (z) = 0.40490 0.37649
#
# Static dielectric constant tensor:
#      x y z
#    x 1.706090 0.000000 0.000000 
#    y 0.000000 1.776200 0.000000 
#    z 0.000000 0.000000 1.680220 
# 
# From -- ./inp_files/33523.got.cif
#   From: 2010.05.17/outbox.cif.g08.bks.cpg/sg48_17_cif.got.tgz:33523.got - 2010.06.03 20:39:00.
