data_PCOD9390426
_publ_section_title
;
Structure prediction by ZEFSAII (Michael W. Deem and Ramdas Pophale) SiO2 
 PCOD9390426
Probable space group: P N N N
;
_chemical_formula_sum "Si O2"
_cell_formula_units_Z 48
_cell_length_a 12.214576
_cell_length_b 15.459169
_cell_length_c 10.021575
_cell_angle_alpha 90.000000
_cell_angle_beta 90.000000
_cell_angle_gamma 90.000000
_cell_volume 1892.345893
_symmetry_space_group_name_H-M "P N N N"
_symmetry_group_IT_number 48
_space_group.IT_coordinate_system_code '2'
_symmetry_cell_setting 'orthorhombic'
loop_
_space_group_symop_operation_xyz
x,y,z
1/2-x,1/2-y,z
x,1/2-y,1/2-z
1/2-x,y,1/2-z
-x,-y,-z
1/2+x,1/2+y,-z
-x,1/2+y,1/2+z
1/2+x,-y,1/2+z
loop_
_atom_site_type_symbol
_atom_site_label
_atom_site_fract_x
_atom_site_fract_y
_atom_site_fract_z
Si Si1 0.338098 0.633664 0.642206
Si Si2 0.417980 0.327408 0.426783
Si Si3 0.580129 0.943036 0.190553
Si Si4 0.299883 0.627707 0.113529
Si Si5 0.380250 0.043467 0.290383
Si Si6 0.548613 0.854135 0.462687
O O1 0.250000 0.662180 0.750000
O O2 0.459121 0.673574 0.635410
O O3 0.354969 0.531230 0.667472
O O4 0.281812 0.649995 0.502510
O O5 0.413590 0.383558 0.561441
O O6 0.352158 0.378901 0.311849
O O7 0.393904 0.230994 0.477505
O O8 0.605218 0.893981 0.330160
O O9 0.455496 0.977386 0.206156
O O10 0.250000 0.660076 0.250000
O O11 0.301587 0.522323 0.130466
O O12 0.422430 0.659692 0.080998
O O13 0.452184 0.081805 0.411435
#
# Coordination Sequence:
#
# PCOD9390426 Si02
#       6
#     8   8   8   8   8   8
#     4  11  21  36  59  87 117 150 189 238 289 338
#     4  11  22  38  60  87 117 151 190 236 287 340
#     4  10  20  38  59  81 112 156 202 228 265 344
#     4  11  21  36  59  87 117 150 189 238 289 338
#     4  10  20  38  59  81 112 156 202 228 265 344
#     4  11  22  38  60  87 117 151 190 236 287 340
#
# _framework density 25.365341999999998
#
# number of rings (size 3 to 8) (size 9 to 14) (size 15 to 20)
#    0.000    1.333    0.000   11.000    0.000    0.667 
#    0.000    5.000    0.000   15.000    0.000    0.000 
#    0.000    0.000    0.000    0.000    0.000    0.000 
#
# Total GULP energy -268737.979377 kJ/mol
# GULP energy per Si atom -5598.707904 kJ/mol
# Density = 2.530761 g / cm^3
# Si number density = 25.365342 Si / 1000 Ang^3
#
#
#
# Elastic Constant Matrix: (Units=GPa)
#
#
# Indices 1 2 3 4 5 6 
#
# 1 48.5655 14.6153 30.0136 0.0000 0.0000 0.0000
# 2 14.6153 133.4605 46.0372 0.0000 0.0000 0.0000
# 3 30.0136 46.0372 187.0576 0.0000 0.0000 0.0000
# 4 0.0000 0.0000 0.0000 62.4125 0.0000 0.0000
# 5 0.0000 0.0000 0.0000 0.0000 25.8506 0.0000
# 6 0.0000 0.0000 0.0000 0.0000 0.0000 22.9160
#
#
#
# Elastic Compliance Matrix: (Units=1/GPa)
#
#
# Indices 1 2 3 4 5 6 
#
# 1 0.023083 -0.001366 -0.003367 0.000000 0.000000 0.000000
# 2 -0.001366 0.008269 -0.001816 0.000000 0.000000 0.000000
# 3 -0.003367 -0.001816 0.006333 0.000000 0.000000 0.000000
# 4 0.000000 0.000000 0.000000 0.016022 0.000000 0.000000
# 5 0.000000 0.000000 0.000000 0.000000 0.038684 0.000000
# 6 0.000000 0.000000 0.000000 0.000000 0.000000 0.043638
#
#
# Mechanical properties :
#
#
# Convention : Reuss Voigt Hill
#
# Bulk Modulus (GPa) = 40.67364 61.15731 50.91548
# Shear Modulus (GPa) = 31.78169 40.79698 36.28934
#
# Velocity S-wave (km/s) = 3.54355 4.01481 3.78652
# Velocity P-wave (km/s) = 5.72820 6.75681 6.26366
#
# Compressibility (1/GPa) = 0.02458595
#
# Stress axis : x y z
#
# Youngs Moduli (GPa) = 43.32194 120.93582 157.89901
#
# Poissons Ratio (x) = 0.16523 0.53172
# Poissons Ratio (y) = 0.05919 0.28672
# Poissons Ratio (z) = 0.14588 0.21960
#
# Static dielectric constant tensor:
#      x y z
#    x 2.042840 0.000000 0.000000 
#    y 0.000000 2.035550 0.000000 
#    z 0.000000 0.000000 1.907270 
# 
# From -- ./inp_files/12770.got.cif
#   From: 2010.05.17/outbox.cif.g08.bks.cpg/sg48_7_cif.got.tgz:12770.got - 2010.06.03 20:39:00.
