data_PCOD9390831
_publ_section_title
;
Structure prediction by ZEFSAII (Michael W. Deem and Ramdas Pophale) SiO2 
 PCOD9390831
Probable space group: P N N N
;
_chemical_formula_sum "Si O2"
_cell_formula_units_Z 64
_cell_length_a 17.183847
_cell_length_b 14.769289
_cell_length_c 12.142360
_cell_angle_alpha 90.000000
_cell_angle_beta 90.000000
_cell_angle_gamma 90.000000
_cell_volume 3081.648430
_symmetry_space_group_name_H-M "P N N N"
_symmetry_group_IT_number 48
_space_group.IT_coordinate_system_code '2'
_symmetry_cell_setting 'orthorhombic'
loop_
_space_group_symop_operation_xyz
x,y,z
1/2-x,1/2-y,z
x,1/2-y,1/2-z
1/2-x,y,1/2-z
-x,-y,-z
1/2+x,1/2+y,-z
-x,1/2+y,1/2+z
1/2+x,-y,1/2+z
loop_
_atom_site_type_symbol
_atom_site_label
_atom_site_fract_x
_atom_site_fract_y
_atom_site_fract_z
Si Si1 0.061623 0.404535 0.152633
Si Si2 0.650256 0.932140 0.621672
Si Si3 0.084821 0.599419 0.502609
Si Si4 0.423871 0.501438 0.781506
Si Si5 0.307043 0.036401 0.996732
Si Si6 0.054309 0.227278 0.013858
Si Si7 0.637729 0.669499 0.322224
Si Si8 0.222507 0.893828 0.857655
O O1 0.121000 0.408794 0.256186
O O2 0.108792 0.456310 0.055073
O O3 0.046437 0.301857 0.111473
O O4 0.980898 0.449806 0.194344
O O5 0.740590 0.940108 0.586524
O O6 0.614468 0.851182 0.548629
O O7 0.615920 0.030854 0.588876
O O8 0.048165 0.534392 0.598526
O O9 0.159116 0.648195 0.560331
O O10 0.023324 0.675628 0.479617
O O11 0.414794 0.397593 0.751390
O O12 0.333932 0.532864 0.795277
O O13 0.304939 0.109346 0.897288
O O14 0.284765 0.942535 0.936680
O O15 0.084169 0.282903 0.911607
O O16 0.670597 0.750000 0.250000
O O17 0.250000 0.841935 0.750000
#
# Coordination Sequence:
#
# PCOD9390831 Si02
#       8
#     8   8   8   8   8   8   8   8
#     4  11  24  37  63  86 124 162 207 251 306 365
#     4  11  20  37  60  87 124 164 203 241 302 373
#     4   9  20  35  65  84 119 161 209 248 290 374
#     4  10  21  40  62  85 115 164 199 248 302 363
#     4  10  22  39  53  92 125 161 192 248 310 361
#     4  11  23  38  57  91 123 158 205 251 301 357
#     4  11  24  38  59  90 123 155 201 244 307 360
#     4   9  17  37  62  86 118 154 206 245 303 366
#
# _framework density 20.768104999999998
#
# number of rings (size 3 to 8) (size 9 to 14) (size 15 to 20)
#    0.750    1.000    2.500    1.875    1.750    4.000 
#    2.250    2.500    0.000    1.500    0.000    0.000 
#    0.000    0.000    0.000    0.000    0.000    0.000 
#
# Total GULP energy -356422.111584 kJ/mol
# GULP energy per Si atom -5569.095494 kJ/mol
# Density = 2.072084 g / cm^3
# Si number density = 20.768105 Si / 1000 Ang^3
#
#
#
# Elastic Constant Matrix: (Units=GPa)
#
#
# Indices 1 2 3 4 5 6 
#
# 1 69.7920 35.6904 18.5164 0.0000 0.0000 0.0000
# 2 35.6904 82.1399 26.1912 0.0000 0.0000 0.0000
# 3 18.5164 26.1912 62.6025 0.0000 0.0000 0.0000
# 4 0.0000 0.0000 0.0000 14.4010 0.0000 0.0000
# 5 0.0000 0.0000 0.0000 0.0000 0.1721 0.0000
# 6 0.0000 0.0000 0.0000 0.0000 0.0000 -19.6041
#
#
#
# Elastic Compliance Matrix: (Units=1/GPa)
#
#
# Indices 1 2 3 4 5 6 
#
# 1 0.018746 -0.007359 -0.002466 0.000000 0.000000 0.000000
# 2 -0.007359 0.016937 -0.004910 0.000000 0.000000 0.000000
# 3 -0.002466 -0.004910 0.018757 0.000000 0.000000 0.000000
# 4 0.000000 0.000000 0.000000 0.069440 0.000000 0.000000
# 5 0.000000 0.000000 0.000000 0.000000 5.809029 0.000000
# 6 0.000000 0.000000 0.000000 0.000000 0.000000 -0.051010
#
#
# Mechanical properties :
#
#
# Convention : Reuss Voigt Hill
#
# Bulk Modulus (GPa) = 40.04529 41.70337 40.87433
# Shear Modulus (GPa) = 0.84464 7.93624 4.39044
#
# Velocity S-wave (km/s) = 0.63842 1.95695 1.45555
# Velocity P-wave (km/s) = 4.45729 5.02298 4.74856
#
# Compressibility (1/GPa) = 0.02497172
#
# Stress axis : x y z
#
# Youngs Moduli (GPa) = 53.34560 59.04130 53.31306
#
# Poissons Ratio (x) = 0.43448 0.13146
# Poissons Ratio (y) = 0.39256 0.26174
# Poissons Ratio (z) = 0.13154 0.28986
#
# Static dielectric constant tensor:
#      x y z
#    x 1.810620 0.000000 0.000000 
#    y 0.000000 1.728580 0.000000 
#    z 0.000000 0.000000 1.792820 
# 
# From -- ./inp_files/22334.got.cif
#   From: 2010.05.17/outbox.cif.g08.bks.cpg/sg48_12_cif.got.tgz:22334.got - 2010.06.03 20:39:00.
