data_PCOD9390385
_publ_section_title
;
Structure prediction by ZEFSAII (Michael W. Deem and Ramdas Pophale) SiO2 
 PCOD9390385
Probable space group: P N N N
;
_chemical_formula_sum "Si O2"
_cell_formula_units_Z 64
_cell_length_a 18.144473
_cell_length_b 13.872333
_cell_length_c 11.861100
_cell_angle_alpha 90.000000
_cell_angle_beta 90.000000
_cell_angle_gamma 90.000000
_cell_volume 2985.512072
_symmetry_space_group_name_H-M "P N N N"
_symmetry_group_IT_number 48
_space_group.IT_coordinate_system_code '2'
_symmetry_cell_setting 'orthorhombic'
loop_
_space_group_symop_operation_xyz
x,y,z
1/2-x,1/2-y,z
x,1/2-y,1/2-z
1/2-x,y,1/2-z
-x,-y,-z
1/2+x,1/2+y,-z
-x,1/2+y,1/2+z
1/2+x,-y,1/2+z
loop_
_atom_site_type_symbol
_atom_site_label
_atom_site_fract_x
_atom_site_fract_y
_atom_site_fract_z
Si Si1 0.791807 0.337419 0.129777
Si Si2 0.928903 0.071410 0.999908
Si Si3 0.829376 0.505612 0.695771
Si Si4 0.957535 0.229551 0.375780
Si Si5 0.905882 0.875963 0.608635
Si Si6 0.173532 0.195354 0.047629
Si Si7 0.348376 0.422014 0.854374
Si Si8 0.819879 0.948670 0.394418
O O1 0.750000 0.250000 0.068758
O O2 0.750000 0.350897 0.250000
O O3 0.874563 0.303572 0.142857
O O4 0.799280 0.441318 0.076975
O O5 0.880424 0.063672 0.883994
O O6 0.953701 0.176564 0.043689
O O7 0.875888 0.022390 0.093281
O O8 0.000000 0.000000 0.000000
O O9 0.750000 0.472876 0.750000
O O10 0.881268 0.551764 0.792964
O O11 0.810725 0.596520 0.614340
O O12 0.986490 0.250000 0.250000
O O13 0.008143 0.140917 0.414554
O O14 0.873724 0.767882 0.622964
O O15 0.865468 0.908312 0.495808
O O16 0.250000 0.250000 0.026131
O O17 0.126369 0.164794 0.936352
O O18 0.362898 0.429865 0.722408
O O19 0.261085 0.407407 0.871352
#
# Coordination Sequence:
#
# PCOD9390385 Si02
#       8
#     8   8   8   8   8   8   8   8
#     4  11  21  40  67  93 122 163 219 286 340 392
#     4  11  23  42  64  96 135 175 226 289 355 415
#     4  11  22  39  64  93 138 189 231 282 341 425
#     4  12  23  40  67  99 131 174 231 293 350 408
#     4  12  24  38  60  99 137 180 223 273 340 420
#     4  11  19  34  58  90 132 174 224 274 331 405
#     4  10  20  37  61  91 127 179 218 278 343 407
#     4  11  22  39  62  96 138 166 222 280 344 413
#
# _framework density 21.436858999999998
#
# number of rings (size 3 to 8) (size 9 to 14) (size 15 to 20)
#    0.000    0.875    5.000    5.625    0.000    1.000 
#    0.000    0.000    0.000    2.250    0.000    3.500 
#    0.000    0.000    0.000    0.000    0.000    0.000 
#
# Total GULP energy -356957.429350 kJ/mol
# GULP energy per Si atom -5577.459834 kJ/mol
# Density = 2.138807 g / cm^3
# Si number density = 21.436859 Si / 1000 Ang^3
#
#
#
# Elastic Constant Matrix: (Units=GPa)
#
#
# Indices 1 2 3 4 5 6 
#
# 1 130.8443 39.3882 41.3906 0.0000 0.0000 0.0000
# 2 39.3882 62.9882 44.0844 0.0000 0.0000 0.0000
# 3 41.3906 44.0844 135.8053 0.0000 0.0000 0.0000
# 4 0.0000 0.0000 0.0000 12.6287 0.0000 0.0000
# 5 0.0000 0.0000 0.0000 0.0000 0.6408 0.0000
# 6 0.0000 0.0000 0.0000 0.0000 0.0000 25.3242
#
#
#
# Elastic Compliance Matrix: (Units=1/GPa)
#
#
# Indices 1 2 3 4 5 6 
#
# 1 0.009579 -0.005107 -0.001262 0.000000 0.000000 0.000000
# 2 -0.005107 0.023266 -0.005996 0.000000 0.000000 0.000000
# 3 -0.001262 -0.005996 0.009694 0.000000 0.000000 0.000000
# 4 0.000000 0.000000 0.000000 0.079184 0.000000 0.000000
# 5 0.000000 0.000000 0.000000 0.000000 1.560601 0.000000
# 6 0.000000 0.000000 0.000000 0.000000 0.000000 0.039488
#
#
# Mechanical properties :
#
#
# Convention : Reuss Voigt Hill
#
# Bulk Modulus (GPa) = 56.14778 64.37379 60.26079
# Shear Modulus (GPa) = 2.85310 21.37040 12.11175
#
# Velocity S-wave (km/s) = 1.15491 3.16080 2.37954
# Velocity P-wave (km/s) = 5.29410 6.58905 5.97675
#
# Compressibility (1/GPa) = 0.01781014
#
# Stress axis : x y z
#
# Youngs Moduli (GPa) = 104.39314 42.98110 103.15232
#
# Poissons Ratio (x) = 0.21951 0.13015
# Poissons Ratio (y) = 0.53314 0.61850
# Poissons Ratio (z) = 0.13171 0.25771
#
# Static dielectric constant tensor:
#      x y z
#    x 1.882670 0.000000 0.000000 
#    y 0.000000 1.846300 0.000000 
#    z 0.000000 0.000000 1.868970 
# 
# From -- ./inp_files/22330.got.cif
#   From: 2010.05.17/outbox.cif.g08.bks.cpg/sg48_12_cif.got.tgz:22330.got - 2010.06.03 20:39:00.
