data_PCOD9390131
_publ_section_title
;
Structure prediction by ZEFSAII (Michael W. Deem and Ramdas Pophale) SiO2 
 PCOD9390131
Probable space group: P N N N
;
_chemical_formula_sum "Si O2"
_cell_formula_units_Z 34
_cell_length_a 26.113221
_cell_length_b 11.061130
_cell_length_c 5.214797
_cell_angle_alpha 90.000000
_cell_angle_beta 90.000000
_cell_angle_gamma 90.000000
_cell_volume 1506.250999
_symmetry_space_group_name_H-M "P N N N"
_symmetry_group_IT_number 48
_space_group.IT_coordinate_system_code '2'
_symmetry_cell_setting 'orthorhombic'
loop_
_space_group_symop_operation_xyz
x,y,z
1/2-x,1/2-y,z
x,1/2-y,1/2-z
1/2-x,y,1/2-z
-x,-y,-z
1/2+x,1/2+y,-z
-x,1/2+y,1/2+z
1/2+x,-y,1/2+z
loop_
_atom_site_type_symbol
_atom_site_label
_atom_site_fract_x
_atom_site_fract_y
_atom_site_fract_z
Si Si1 0.441245 0.387863 0.018810
Si Si2 0.699855 0.549632 0.387376
Si Si3 0.132984 0.250000 0.750000
Si Si4 0.408495 0.962362 0.988811
Si Si5 0.250000 0.250000 0.250000
Si Si6 0.965963 0.250000 0.250000
O O1 0.425202 0.477331 0.245828
O O2 0.497097 0.336706 0.082500
O O3 0.405991 0.267951 0.984206
O O4 0.431609 0.457271 0.748408
O O5 0.750000 0.496624 0.250000
O O6 0.669441 0.636706 0.194642
O O7 0.653882 0.465024 0.481793
O O8 0.717003 0.653372 0.587433
O O9 0.431418 0.831329 0.935539
#
# Coordination Sequence:
#
# PCOD9390131 Si02
#       6
#     8   8   4   8   2   4
#     4  11  24  42  67  96 134 170 226 271 328 403
#     4  11  21  36  59  96 128 165 213 270 329 395
#     4  10  19  40  60 100 134 168 211 280 340 396
#     4  11  27  42  66  99 133 172 228 274 328 406
#     4  12  18  34  72  90 134 168 208 268 354 370
#     4  12  24  47  67  94 133 188 213 280 332 396
#
# _framework density 22.572600000000001
#
# number of rings (size 3 to 8) (size 9 to 14) (size 15 to 20)
#    0.000    0.941    2.353    5.647    3.294    4.706 
#    0.000    0.588    0.000    0.000    0.000    0.000 
#    0.000    0.000    0.000    0.000    0.000    0.000 
#
# Total GULP energy -189589.595947 kJ/mol
# GULP energy per Si atom -5576.164587 kJ/mol
# Density = 2.252122 g / cm^3
# Si number density = 22.572600 Si / 1000 Ang^3
#
#
#
# Elastic Constant Matrix: (Units=GPa)
#
#
# Indices 1 2 3 4 5 6 
#
# 1 184.7402 61.8299 42.4092 0.0000 0.0000 0.0000
# 2 61.8299 67.4891 41.0236 0.0000 0.0000 0.0000
# 3 42.4092 41.0236 142.9011 0.0000 0.0000 0.0000
# 4 0.0000 0.0000 0.0000 28.5929 0.0000 0.0000
# 5 0.0000 0.0000 0.0000 0.0000 -4.5299 0.0000
# 6 0.0000 0.0000 0.0000 0.0000 0.0000 3.4434
#
#
#
# Elastic Compliance Matrix: (Units=1/GPa)
#
#
# Indices 1 2 3 4 5 6 
#
# 1 0.007819 -0.006969 -0.000320 0.000000 0.000000 0.000000
# 2 -0.006969 0.024160 -0.004868 0.000000 0.000000 0.000000
# 3 -0.000320 -0.004868 0.008490 0.000000 0.000000 0.000000
# 4 0.000000 0.000000 0.000000 0.034974 0.000000 0.000000
# 5 0.000000 0.000000 0.000000 0.000000 -0.220756 0.000000
# 6 0.000000 0.000000 0.000000 0.000000 0.000000 0.290412
#
#
# Mechanical properties :
#
#
# Convention : Reuss Voigt Hill
#
# Bulk Modulus (GPa) = 61.89363 76.18400 69.03881
# Shear Modulus (GPa) = 28.60452 22.15913 25.38182
#
# Velocity S-wave (km/s) = 3.56367 3.13658 3.35692
# Velocity P-wave (km/s) = 6.66426 6.85138 6.75847
#
# Compressibility (1/GPa) = 0.01615675
#
# Stress axis : x y z
#
# Youngs Moduli (GPa) = 127.89751 41.38991 117.78292
#
# Poissons Ratio (x) = 0.28843 0.03767
# Poissons Ratio (y) = 0.89128 0.57334
# Poissons Ratio (z) = 0.04091 0.20148
#
# Static dielectric constant tensor:
#      x y z
#    x 1.986030 0.000000 0.000000 
#    y 0.000000 1.950020 0.000000 
#    z 0.000000 0.000000 1.933970 
# 
# From -- ./inp_files/5696.got.cif
#   From: 2010.05.17/outbox.cif.g08.bks.cpg/sg48_3_cif.got.tgz:5696.got - 2010.06.03 20:39:00.
