data_PCOD9390237
_publ_section_title
;
Structure prediction by ZEFSAII (Michael W. Deem and Ramdas Pophale) SiO2 
 PCOD9390237
Probable space group: P N N N
;
_chemical_formula_sum "Si O2"
_cell_formula_units_Z 44
_cell_length_a 7.640368
_cell_length_b 21.002088
_cell_length_c 13.647276
_cell_angle_alpha 90.000000
_cell_angle_beta 90.000000
_cell_angle_gamma 90.000000
_cell_volume 2189.892144
_symmetry_space_group_name_H-M "P N N N"
_symmetry_group_IT_number 48
_space_group.IT_coordinate_system_code '2'
_symmetry_cell_setting 'orthorhombic'
loop_
_space_group_symop_operation_xyz
x,y,z
1/2-x,1/2-y,z
x,1/2-y,1/2-z
1/2-x,y,1/2-z
-x,-y,-z
1/2+x,1/2+y,-z
-x,1/2+y,1/2+z
1/2+x,-y,1/2+z
loop_
_atom_site_type_symbol
_atom_site_label
_atom_site_fract_x
_atom_site_fract_y
_atom_site_fract_z
Si Si1 0.317181 0.679645 0.359973
Si Si2 0.798467 0.937310 0.959192
Si Si3 0.750000 0.898983 0.750000
Si Si4 0.109687 0.194506 0.508252
Si Si5 0.786154 0.075526 0.021295
Si Si6 0.100928 0.836867 0.674117
O O1 0.250000 0.750000 0.388768
O O2 0.250000 0.668151 0.250000
O O3 0.521061 0.688394 0.385456
O O4 0.260448 0.622486 0.431488
O O5 0.772970 0.942664 0.843629
O O6 0.695852 0.873930 0.988468
O O7 0.003874 0.925805 0.974920
O O8 0.733864 0.002085 0.008014
O O9 0.575343 0.856715 0.767390
O O10 0.250000 0.250000 0.504269
O O11 0.970509 0.204968 0.418209
O O12 0.693102 0.104349 0.116959
O O13 0.250000 0.814864 0.750000
#
# Coordination Sequence:
#
# PCOD9390237 Si02
#       6
#     8   8   4   8   8   8
#     4  10  22  41  65  93 125 169 214 261 329 389
#     4  10  21  38  61  96 125 167 218 266 315 395
#     4  10  20  34  63  86 127 164 214 264 312 390
#     4  10  22  41  69  91 132 170 219 275 322 390
#     4  10  21  39  64  91 133 169 208 265 333 374
#     4  10  20  39  65  92 130 168 215 267 324 388
#
# _framework density 20.092313999999998
#
# number of rings (size 3 to 8) (size 9 to 14) (size 15 to 20)
#    0.000    2.000    1.818    1.091    1.273    6.545 
#    0.000   13.636   24.000    0.000    0.000    0.000 
#    0.000    0.000    0.000    0.000    0.000    0.000 
#
# Total GULP energy -245315.017331 kJ/mol
# GULP energy per Si atom -5575.341303 kJ/mol
# Density = 2.004658 g / cm^3
# Si number density = 20.092314 Si / 1000 Ang^3
#
#
#
# Elastic Constant Matrix: (Units=GPa)
#
#
# Indices 1 2 3 4 5 6 
#
# 1 114.3841 46.8841 58.0149 0.0000 0.0000 0.0000
# 2 46.8841 132.1534 58.5357 0.0000 0.0000 0.0000
# 3 58.0149 58.5357 107.1340 0.0000 0.0000 0.0000
# 4 0.0000 0.0000 0.0000 23.9140 0.0000 0.0000
# 5 0.0000 0.0000 0.0000 0.0000 37.4024 0.0000
# 6 0.0000 0.0000 0.0000 0.0000 0.0000 4.7057
#
#
#
# Elastic Compliance Matrix: (Units=1/GPa)
#
#
# Indices 1 2 3 4 5 6 
#
# 1 0.012397 -0.001879 -0.005686 0.000000 0.000000 0.000000
# 2 -0.001879 0.010268 -0.004592 0.000000 0.000000 0.000000
# 3 -0.005686 -0.004592 0.014922 0.000000 0.000000 0.000000
# 4 0.000000 0.000000 0.000000 0.041816 0.000000 0.000000
# 5 0.000000 0.000000 0.000000 0.000000 0.026736 0.000000
# 6 0.000000 0.000000 0.000000 0.000000 0.000000 0.212509
#
#
# Mechanical properties :
#
#
# Convention : Reuss Voigt Hill
#
# Bulk Modulus (GPa) = 75.35166 75.61565 75.48365
# Shear Modulus (GPa) = 14.39308 25.88687 20.13998
#
# Velocity S-wave (km/s) = 2.67937 3.59332 3.16946
# Velocity P-wave (km/s) = 6.86704 7.41159 7.14451
#
# Compressibility (1/GPa) = 0.01327111
#
# Stress axis : x y z
#
# Youngs Moduli (GPa) = 80.66585 97.39118 67.01293
#
# Poissons Ratio (x) = 0.18303 0.38105
# Poissons Ratio (y) = 0.15160 0.30775
# Poissons Ratio (z) = 0.45868 0.44726
#
# Static dielectric constant tensor:
#      x y z
#    x 1.771600 0.000000 0.000000 
#    y 0.000000 1.717120 0.000000 
#    z 0.000000 0.000000 1.745800 
# 
# From -- ./inp_files/25317.got.cif
#   From: 2010.05.17/outbox.cif.g08.bks.cpg/sg48_13_cif.got.tgz:25317.got - 2010.06.03 20:39:00.
