data_PCOD9390854
_publ_section_title
;
Structure prediction by ZEFSAII (Michael W. Deem and Ramdas Pophale) SiO2 
 PCOD9390854
Probable space group: P N N N
;
_chemical_formula_sum "Si O2"
_cell_formula_units_Z 38
_cell_length_a 22.764132
_cell_length_b 6.083127
_cell_length_c 12.094647
_cell_angle_alpha 90.000000
_cell_angle_beta 90.000000
_cell_angle_gamma 90.000000
_cell_volume 1674.831715
_symmetry_space_group_name_H-M "P N N N"
_symmetry_group_IT_number 48
_space_group.IT_coordinate_system_code '2'
_symmetry_cell_setting 'orthorhombic'
loop_
_space_group_symop_operation_xyz
x,y,z
1/2-x,1/2-y,z
x,1/2-y,1/2-z
1/2-x,y,1/2-z
-x,-y,-z
1/2+x,1/2+y,-z
-x,1/2+y,1/2+z
1/2+x,-y,1/2+z
loop_
_atom_site_type_symbol
_atom_site_label
_atom_site_fract_x
_atom_site_fract_y
_atom_site_fract_z
Si Si1 0.750000 0.250000 0.543673
Si Si2 0.674426 0.608780 0.856849
Si Si3 0.464332 0.190536 0.937575
Si Si4 0.835343 0.560877 0.067576
Si Si5 0.750000 0.750000 0.250000
Si Si6 0.045290 0.048551 0.162051
O O1 0.773995 0.445056 0.616288
O O2 0.692916 0.333306 0.475380
O O3 0.685545 0.750000 0.750000
O O4 0.613450 0.484793 0.824325
O O5 0.669632 0.765462 0.965718
O O6 0.403477 0.080817 0.896761
O O7 0.501199 0.342748 0.852613
O O8 0.452050 0.349851 0.040001
O O9 0.500000 0.000000 0.000000
O O10 0.793056 0.620371 0.168572
O O11 0.031494 0.250000 0.250000
#
# Coordination Sequence:
#
# PCOD9390854 Si02
#       6
#     4   8   8   8   2   8
#     4  12  22  42  68  96 134 193 229 270 370 418
#     4  10  22  42  66 101 136 172 227 290 351 432
#     4  10  21  40  65  97 132 175 235 293 352 427
#     4  11  25  42  65  95 140 184 234 293 342 416
#     4  12  24  50  58  96 146 184 244 302 324 412
#     4   9  20  39  65  95 134 171 222 292 363 422
#
# _framework density 22.688846999999999
#
# number of rings (size 3 to 8) (size 9 to 14) (size 15 to 20)
#    0.000    1.684    2.105    1.263    0.000    6.316 
#    0.000    6.316    0.000    0.000    0.000    0.000 
#    0.000    0.000    0.000    0.000    0.000    0.000 
#
# Total GULP energy -211977.501879 kJ/mol
# GULP energy per Si atom -5578.355313 kJ/mol
# Density = 2.263721 g / cm^3
# Si number density = 22.688847 Si / 1000 Ang^3
#
#
#
# Elastic Constant Matrix: (Units=GPa)
#
#
# Indices 1 2 3 4 5 6 
#
# 1 196.2711 60.2862 35.2180 0.0000 0.0000 0.0000
# 2 60.2862 67.1839 21.5413 0.0000 0.0000 0.0000
# 3 35.2180 21.5413 114.3031 0.0000 0.0000 0.0000
# 4 0.0000 0.0000 0.0000 31.5563 0.0000 0.0000
# 5 0.0000 0.0000 0.0000 0.0000 -4.7986 0.0000
# 6 0.0000 0.0000 0.0000 0.0000 0.0000 16.4772
#
#
#
# Elastic Compliance Matrix: (Units=1/GPa)
#
#
# Indices 1 2 3 4 5 6 
#
# 1 0.007152 -0.006078 -0.001058 0.000000 0.000000 0.000000
# 2 -0.006078 0.021008 -0.002086 0.000000 0.000000 0.000000
# 3 -0.001058 -0.002086 0.009468 0.000000 0.000000 0.000000
# 4 0.000000 0.000000 0.000000 0.031689 0.000000 0.000000
# 5 0.000000 0.000000 0.000000 0.000000 -0.208393 0.000000
# 6 0.000000 0.000000 0.000000 0.000000 0.000000 0.060690
#
#
# Mechanical properties :
#
#
# Convention : Reuss Voigt Hill
#
# Bulk Modulus (GPa) = 52.13192 67.98323 60.05757
# Shear Modulus (GPa) = -93.37571 26.02782 -33.67395
#
# Velocity S-wave (km/s) = -6.42217 3.39065 -3.85666
# Velocity P-wave (km/s) = 5.65381 6.73476 2.58761
#
# Compressibility (1/GPa) = 0.01918211
#
# Stress axis : x y z
#
# Youngs Moduli (GPa) = 139.82396 47.60151 105.62073
#
# Poissons Ratio (x) = 0.28934 0.11175
# Poissons Ratio (y) = 0.84990 0.22035
# Poissons Ratio (z) = 0.14794 0.09931
#
# Static dielectric constant tensor:
#      x y z
#    x 1.943340 0.000000 0.000000 
#    y 0.000000 1.655030 0.000000 
#    z 0.000000 0.000000 1.907730 
# 
# From -- ./inp_files/28524.got.cif
#   From: 2010.05.17/outbox.cif.g08.bks.cpg/sg48_15_cif.got.tgz:28524.got - 2010.06.03 20:39:00.
