data_PCOD9390822
_publ_section_title
;
Structure prediction by ZEFSAII (Michael W. Deem and Ramdas Pophale) SiO2 
 PCOD9390822
Probable space group: P N N N
;
_chemical_formula_sum "Si O2"
_cell_formula_units_Z 36
_cell_length_a 12.586420
_cell_length_b 13.266223
_cell_length_c 9.037020
_cell_angle_alpha 90.000000
_cell_angle_beta 90.000000
_cell_angle_gamma 90.000000
_cell_volume 1508.949677
_symmetry_space_group_name_H-M "P N N N"
_symmetry_group_IT_number 48
_space_group.IT_coordinate_system_code '2'
_symmetry_cell_setting 'orthorhombic'
loop_
_space_group_symop_operation_xyz
x,y,z
1/2-x,1/2-y,z
x,1/2-y,1/2-z
1/2-x,y,1/2-z
-x,-y,-z
1/2+x,1/2+y,-z
-x,1/2+y,1/2+z
1/2+x,-y,1/2+z
loop_
_atom_site_type_symbol
_atom_site_label
_atom_site_fract_x
_atom_site_fract_y
_atom_site_fract_z
Si Si1 0.250000 0.250000 0.250000
Si Si2 0.877549 0.244534 0.916143
Si Si3 0.840042 0.073721 0.137120
Si Si4 0.998169 0.641919 0.841766
Si Si5 0.220054 0.387832 0.006787
Si Si6 0.750000 0.750000 0.250000
O O1 0.294880 0.172900 0.375920
O O2 0.750000 0.250000 0.909533
O O3 0.919414 0.250000 0.750000
O O4 0.888887 0.141921 0.007763
O O5 0.929901 0.329813 0.017040
O O6 0.750000 0.120951 0.250000
O O7 0.939370 0.059683 0.245720
O O8 0.781859 0.981421 0.059508
O O9 0.989824 0.750000 0.750000
O O10 0.886590 0.600597 0.899329
O O11 0.188746 0.321080 0.863921
#
# Coordination Sequence:
#
# PCOD9390822 Si02
#       6
#     2   8   8   8   8   2
#     4  10  24  46  72  90 136 198 224 306 360 438
#     4  10  21  39  68  99 139 184 234 294 370 433
#     4  11  22  42  68 103 144 184 236 314 367 432
#     4  10  22  42  75 101 140 194 243 296 375 456
#     4  11  23  46  70 102 142 187 250 299 375 439
#     4  10  24  42  72  94 148 202 240 302 376 442
#
# _framework density 23.857652999999999
#
# number of rings (size 3 to 8) (size 9 to 14) (size 15 to 20)
#    0.000    1.556    4.444    0.000    1.556    2.667 
#    0.000    1.111    4.889    0.000    0.000    0.000 
#    0.000    0.000    0.000    0.000    0.000    0.000 
#
# Total GULP energy -200669.754213 kJ/mol
# GULP energy per Si atom -5574.159839 kJ/mol
# Density = 2.380335 g / cm^3
# Si number density = 23.857653 Si / 1000 Ang^3
#
#
#
# Elastic Constant Matrix: (Units=GPa)
#
#
# Indices 1 2 3 4 5 6 
#
# 1 111.8969 32.1664 56.4771 0.0000 0.0000 0.0000
# 2 32.1664 90.0283 68.8064 0.0000 0.0000 0.0000
# 3 56.4771 68.8064 218.5914 0.0000 0.0000 0.0000
# 4 0.0000 0.0000 0.0000 62.8802 0.0000 0.0000
# 5 0.0000 0.0000 0.0000 0.0000 32.0736 0.0000
# 6 0.0000 0.0000 0.0000 0.0000 0.0000 12.4036
#
#
#
# Elastic Compliance Matrix: (Units=1/GPa)
#
#
# Indices 1 2 3 4 5 6 
#
# 1 0.010607 -0.002232 -0.002038 0.000000 0.000000 0.000000
# 2 -0.002232 0.015096 -0.004175 0.000000 0.000000 0.000000
# 3 -0.002038 -0.004175 0.006415 0.000000 0.000000 0.000000
# 4 0.000000 0.000000 0.000000 0.015903 0.000000 0.000000
# 5 0.000000 0.000000 0.000000 0.000000 0.031178 0.000000
# 6 0.000000 0.000000 0.000000 0.000000 0.000000 0.080622
#
#
# Mechanical properties :
#
#
# Convention : Reuss Voigt Hill
#
# Bulk Modulus (GPa) = 65.66798 81.71295 73.69046
# Shear Modulus (GPa) = 27.50450 39.00926 33.25688
#
# Velocity S-wave (km/s) = 3.39906 4.04800 3.73764
# Velocity P-wave (km/s) = 6.55664 7.49486 7.04139
#
# Compressibility (1/GPa) = 0.01522812
#
# Stress axis : x y z
#
# Youngs Moduli (GPa) = 94.27667 66.24219 155.87358
#
# Poissons Ratio (x) = 0.14788 0.31765
# Poissons Ratio (y) = 0.21046 0.65078
# Poissons Ratio (z) = 0.19212 0.27657
#
# Static dielectric constant tensor:
#      x y z
#    x 2.001810 0.000000 0.000000 
#    y 0.000000 1.992950 0.000000 
#    z 0.000000 0.000000 1.930590 
# 
# From -- ./inp_files/12242.got.cif
#   From: 2010.05.17/outbox.cif.g08.bks.cpg/sg48_7_cif.got.tgz:12242.got - 2010.06.03 20:39:00.
