data_PCOD9390203
_publ_section_title
;
Structure prediction by ZEFSAII (Michael W. Deem and Ramdas Pophale) SiO2 
 PCOD9390203
Probable space group: P N N N
;
_chemical_formula_sum "Si O2"
_cell_formula_units_Z 44
_cell_length_a 18.149312
_cell_length_b 21.344115
_cell_length_c 5.138576
_cell_angle_alpha 90.000000
_cell_angle_beta 90.000000
_cell_angle_gamma 90.000000
_cell_volume 1990.586722
_symmetry_space_group_name_H-M "P N N N"
_symmetry_group_IT_number 48
_space_group.IT_coordinate_system_code '2'
_symmetry_cell_setting 'orthorhombic'
loop_
_space_group_symop_operation_xyz
x,y,z
1/2-x,1/2-y,z
x,1/2-y,1/2-z
1/2-x,y,1/2-z
-x,-y,-z
1/2+x,1/2+y,-z
-x,1/2+y,1/2+z
1/2+x,-y,1/2+z
loop_
_atom_site_type_symbol
_atom_site_label
_atom_site_fract_x
_atom_site_fract_y
_atom_site_fract_z
Si Si1 0.559240 0.054909 0.820111
Si Si2 0.590769 0.367124 0.173947
Si Si3 0.250000 0.601153 0.750000
Si Si4 0.903145 0.903627 0.228368
Si Si5 0.064739 0.179201 0.266164
Si Si6 0.807020 0.516571 0.942761
O O1 0.584985 0.107633 0.618082
O O2 0.473695 0.049456 0.748882
O O3 0.616026 0.998152 0.793556
O O4 0.569406 0.079880 0.112938
O O5 0.677494 0.356873 0.213739
O O6 0.524077 0.319562 0.219237
O O7 0.271495 0.550278 0.526426
O O8 0.917859 0.853010 0.458433
O O9 0.832056 0.943369 0.309288
O O10 0.904131 0.865638 0.961095
O O11 0.092920 0.250000 0.250000
O O12 0.750000 0.548549 0.750000
#
# Coordination Sequence:
#
# PCOD9390203 Si02
#       6
#     8   8   4   8   8   8
#     4   9  18  34  50  80 115 154 189 229 281 358
#     4   9  18  32  54  79 112 151 193 234 288 353
#     4  10  20  34  51  84 125 158 180 220 288 374
#     4  10  22  35  59  85 112 148 199 245 295 352
#     4  10  21  40  60  81 107 147 204 264 299 328
#     4  11  21  33  54  84 125 159 186 224 296 369
#
# _framework density 22.104035
#
# number of rings (size 3 to 8) (size 9 to 14) (size 15 to 20)
#    0.000    2.182    1.818    1.091    2.545    0.000 
#    0.000    7.727    0.000    0.545    0.000    7.636 
#    0.000    0.000    0.000    0.000    0.000    0.000 
#
# Total GULP energy -245627.566393 kJ/mol
# GULP energy per Si atom -5582.444691 kJ/mol
# Density = 2.205373 g / cm^3
# Si number density = 22.104035 Si / 1000 Ang^3
#
#
#
# Elastic Constant Matrix: (Units=GPa)
#
#
# Indices 1 2 3 4 5 6 
#
# 1 89.5719 8.7524 11.6998 0.0000 0.0000 0.0000
# 2 8.7524 73.3182 27.8225 0.0000 0.0000 0.0000
# 3 11.6998 27.8225 79.5797 0.0000 0.0000 0.0000
# 4 0.0000 0.0000 0.0000 9.5481 0.0000 0.0000
# 5 0.0000 0.0000 0.0000 0.0000 31.7894 0.0000
# 6 0.0000 0.0000 0.0000 0.0000 0.0000 15.4779
#
#
#
# Elastic Compliance Matrix: (Units=1/GPa)
#
#
# Indices 1 2 3 4 5 6 
#
# 1 0.011427 -0.000838 -0.001387 0.000000 0.000000 0.000000
# 2 -0.000838 0.015787 -0.005396 0.000000 0.000000 0.000000
# 3 -0.001387 -0.005396 0.014657 0.000000 0.000000 0.000000
# 4 0.000000 0.000000 0.000000 0.104733 0.000000 0.000000
# 5 0.000000 0.000000 0.000000 0.000000 0.031457 0.000000
# 6 0.000000 0.000000 0.000000 0.000000 0.000000 0.064608
#
#
# Mechanical properties :
#
#
# Convention : Reuss Voigt Hill
#
# Bulk Modulus (GPa) = 37.55371 37.66880 37.61125
# Shear Modulus (GPa) = 18.74154 24.30942 21.52548
#
# Velocity S-wave (km/s) = 2.91499 3.31988 3.12400
# Velocity P-wave (km/s) = 5.32504 5.63685 5.48316
#
# Compressibility (1/GPa) = 0.02662853
#
# Stress axis : x y z
#
# Youngs Moduli (GPa) = 87.50999 63.34359 68.22884
#
# Poissons Ratio (x) = 0.05307 0.09464
# Poissons Ratio (y) = 0.07331 0.36818
# Poissons Ratio (z) = 0.12139 0.34182
#
# Static dielectric constant tensor:
#      x y z
#    x 1.895480 0.000000 0.000000 
#    y 0.000000 1.750260 0.000000 
#    z 0.000000 0.000000 1.837570 
# 
# From -- ./inp_files/3486.got.cif
#   From: 2010.05.17/outbox.cif.g08.bks.cpg/sg48_2_cif.got.tgz:3486.got - 2010.06.03 20:39:00.
