data_PCOD9390491
_publ_section_title
;
Structure prediction by ZEFSAII (Michael W. Deem and Ramdas Pophale) SiO2 
 PCOD9390491
Probable space group: P N N N
;
_chemical_formula_sum "Si O2"
_cell_formula_units_Z 64
_cell_length_a 31.075603
_cell_length_b 8.236680
_cell_length_c 11.876546
_cell_angle_alpha 90.000000
_cell_angle_beta 90.000000
_cell_angle_gamma 90.000000
_cell_volume 3039.918312
_symmetry_space_group_name_H-M "P N N N"
_symmetry_group_IT_number 48
_space_group.IT_coordinate_system_code '2'
_symmetry_cell_setting 'orthorhombic'
loop_
_space_group_symop_operation_xyz
x,y,z
1/2-x,1/2-y,z
x,1/2-y,1/2-z
1/2-x,y,1/2-z
-x,-y,-z
1/2+x,1/2+y,-z
-x,1/2+y,1/2+z
1/2+x,-y,1/2+z
loop_
_atom_site_type_symbol
_atom_site_label
_atom_site_fract_x
_atom_site_fract_y
_atom_site_fract_z
Si Si1 0.949283 0.180586 0.623830
Si Si2 0.310353 0.618519 0.585692
Si Si3 0.384965 0.463499 0.479992
Si Si4 0.230621 0.079431 0.004386
Si Si5 0.087774 0.979616 0.991833
Si Si6 0.452572 0.287046 0.619128
Si Si7 0.828843 0.472025 0.333154
Si Si8 0.847059 0.656307 0.632811
O O1 0.946278 0.250000 0.750000
O O2 0.918272 0.025409 0.613302
O O3 0.934188 0.312565 0.529907
O O4 0.999460 0.146686 0.601611
O O5 0.351298 0.604273 0.505170
O O6 0.268955 0.543625 0.524653
O O7 0.306860 0.803032 0.625988
O O8 0.324287 0.522471 0.699465
O O9 0.416053 0.412521 0.581359
O O10 0.356256 0.307503 0.451011
O O11 0.250000 0.250000 0.038494
O O12 0.194751 0.049708 0.100409
O O13 0.201666 0.102389 0.892361
O O14 0.124059 0.970878 0.891584
O O15 0.055335 0.120797 0.951082
O O16 0.112625 0.042704 0.103600
O O17 0.447320 0.250000 0.750000
O O18 0.844048 0.750000 0.750000
#
# Coordination Sequence:
#
# PCOD9390491 Si02
#       8
#     8   8   8   8   8   8   8   8
#     4  11  22  38  62  88 119 160 205 251 302 358
#     4  11  21  38  57  86 116 155 186 234 300 359
#     4  11  21  39  61  85 122 156 201 246 300 354
#     4  11  22  38  56  88 113 150 189 241 291 344
#     4  10  20  39  61  88 118 160 198 248 298 357
#     4  10  22  38  59  91 124 155 197 252 309 368
#     4  10  22  37  60  82 120 151 187 236 294 361
#     4  10  22  40  61  84 116 158 202 245 291 350
#
# _framework density 21.053194999999999
#
# number of rings (size 3 to 8) (size 9 to 14) (size 15 to 20)
#    0.000    1.500    2.500    3.000    0.000    2.250 
#    0.000    0.000    0.000    6.000    3.250    0.000 
#    0.000    0.000    0.000    0.000    0.000    0.000 
#
# Total GULP energy -356894.519958 kJ/mol
# GULP energy per Si atom -5576.476874 kJ/mol
# Density = 2.100528 g / cm^3
# Si number density = 21.053195 Si / 1000 Ang^3
#
#
#
# Elastic Constant Matrix: (Units=GPa)
#
#
# Indices 1 2 3 4 5 6 
#
# 1 123.9987 18.6650 45.9481 0.0000 0.0000 0.0000
# 2 18.6650 35.7153 -4.4279 0.0000 0.0000 0.0000
# 3 45.9481 -4.4279 73.2404 0.0000 0.0000 0.0000
# 4 0.0000 0.0000 0.0000 29.9289 0.0000 0.0000
# 5 0.0000 0.0000 0.0000 0.0000 9.5443 0.0000
# 6 0.0000 0.0000 0.0000 0.0000 0.0000 25.0650
#
#
#
# Elastic Compliance Matrix: (Units=1/GPa)
#
#
# Indices 1 2 3 4 5 6 
#
# 1 0.012165 -0.007359 -0.008077 0.000000 0.000000 0.000000
# 2 -0.007359 0.032662 0.006591 0.000000 0.000000 0.000000
# 3 -0.008077 0.006591 0.019119 0.000000 0.000000 0.000000
# 4 0.000000 0.000000 0.000000 0.033413 0.000000 0.000000
# 5 0.000000 0.000000 0.000000 0.000000 0.104774 0.000000
# 6 0.000000 0.000000 0.000000 0.000000 0.000000 0.039896
#
#
# Mechanical properties :
#
#
# Convention : Reuss Voigt Hill
#
# Bulk Modulus (GPa) = 21.61798 39.25832 30.43815
# Shear Modulus (GPa) = 18.17271 24.42559 21.29915
#
# Velocity S-wave (km/s) = 2.94118 3.40984 3.18415
# Velocity P-wave (km/s) = 4.67168 5.84726 5.29221
#
# Compressibility (1/GPa) = 0.04625779
#
# Stress axis : x y z
#
# Youngs Moduli (GPa) = 82.20148 30.61643 52.30322
#
# Poissons Ratio (x) = 0.22531 0.42245
# Poissons Ratio (y) = 0.60492 -0.34475
# Poissons Ratio (z) = 0.66393 -0.20180
#
# Static dielectric constant tensor:
#      x y z
#    x 1.765980 0.000000 0.000000 
#    y 0.000000 1.808590 0.000000 
#    z 0.000000 0.000000 1.778070 
# 
# From -- ./inp_files/16961.got.cif
#   From: 2010.05.17/outbox.cif.g08.bks.cpg/sg48_9_cif.got.tgz:16961.got - 2010.06.03 20:39:00.
