data_PCOD9390228
_publ_section_title
;
Structure prediction by ZEFSAII (Michael W. Deem and Ramdas Pophale) SiO2 
 PCOD9390228
Probable space group: P N N N
;
_chemical_formula_sum "Si O2"
_cell_formula_units_Z 32
_cell_length_a 15.982783
_cell_length_b 16.263024
_cell_length_c 4.977137
_cell_angle_alpha 90.000000
_cell_angle_beta 90.000000
_cell_angle_gamma 90.000000
_cell_volume 1293.699175
_symmetry_space_group_name_H-M "P N N N"
_symmetry_group_IT_number 48
_space_group.IT_coordinate_system_code '2'
_symmetry_cell_setting 'orthorhombic'
loop_
_space_group_symop_operation_xyz
x,y,z
1/2-x,1/2-y,z
x,1/2-y,1/2-z
1/2-x,y,1/2-z
-x,-y,-z
1/2+x,1/2+y,-z
-x,1/2+y,1/2+z
1/2+x,-y,1/2+z
loop_
_atom_site_type_symbol
_atom_site_label
_atom_site_fract_x
_atom_site_fract_y
_atom_site_fract_z
Si Si1 0.637336 0.488386 0.330162
Si Si2 0.663076 0.900551 0.665663
Si Si3 0.877553 0.332728 0.867819
Si Si4 0.016656 0.867750 0.844695
O O1 0.636403 0.554547 0.562131
O O2 0.672947 0.403972 0.472254
O O3 0.543556 0.459569 0.253799
O O4 0.677140 0.530748 0.067047
O O5 0.750000 0.858190 0.750000
O O6 0.579463 0.852507 0.585411
O O7 0.837159 0.250000 0.750000
O O8 0.924928 0.363733 0.605193
O O9 0.949628 0.315805 0.089520
#
# Coordination Sequence:
#
# PCOD9390228 Si02
#       4
#     8   8   8   8
#     4  10  20  35  56  80 111 141 184 229 275 328
#     4  12  22  34  53  86 117 144 175 223 290 344
#     4  10  20  34  59  84 102 139 196 236 265 312
#     4  10  20  34  58  78 115 138 185 230 277 325
#
# _framework density 24.735272999999999
#
# number of rings (size 3 to 8) (size 9 to 14) (size 15 to 20)
#    1.500    0.000    2.500    4.500    0.000    0.000 
#    0.000    0.000    0.000    5.250    6.500    0.000 
#    0.000    0.000    0.000    0.000    0.000    0.000 
#
# Total GULP energy -178135.501914 kJ/mol
# GULP energy per Si atom -5566.734435 kJ/mol
# Density = 2.467897 g / cm^3
# Si number density = 24.735273 Si / 1000 Ang^3
#
#
#
# Elastic Constant Matrix: (Units=GPa)
#
#
# Indices 1 2 3 4 5 6 
#
# 1 113.0532 7.4442 32.5502 0.0000 0.0000 0.0000
# 2 7.4442 35.5861 18.5380 0.0000 0.0000 0.0000
# 3 32.5502 18.5380 168.6568 0.0000 0.0000 0.0000
# 4 0.0000 0.0000 0.0000 40.9142 0.0000 0.0000
# 5 0.0000 0.0000 0.0000 0.0000 -25.1135 0.0000
# 6 0.0000 0.0000 0.0000 0.0000 0.0000 -33.1728
#
#
#
# Elastic Compliance Matrix: (Units=1/GPa)
#
#
# Indices 1 2 3 4 5 6 
#
# 1 0.009405 -0.001084 -0.001696 0.000000 0.000000 0.000000
# 2 -0.001084 0.029933 -0.003081 0.000000 0.000000 0.000000
# 3 -0.001696 -0.003081 0.006595 0.000000 0.000000 0.000000
# 4 0.000000 0.000000 0.000000 0.024441 0.000000 0.000000
# 5 0.000000 0.000000 0.000000 0.000000 -0.039819 0.000000
# 6 0.000000 0.000000 0.000000 0.000000 0.000000 -0.030145
#
#
# Mechanical properties :
#
#
# Convention : Reuss Voigt Hill
#
# Bulk Modulus (GPa) = 29.23023 48.26234 38.74629
# Shear Modulus (GPa) = 212.44936 13.77650 113.11293
#
# Velocity S-wave (km/s) = 9.27770 2.36256 6.76969
# Velocity P-wave (km/s) = 11.25213 5.19578 8.76375
#
# Compressibility (1/GPa) = 0.03421116
#
# Stress axis : x y z
#
# Youngs Moduli (GPa) = 106.32556 33.40849 151.62642
#
# Poissons Ratio (x) = 0.03621 0.25716
# Poissons Ratio (y) = 0.11525 0.46714
# Poissons Ratio (z) = 0.18033 0.10293
#
# Static dielectric constant tensor:
#      x y z
#    x 2.055840 0.000000 0.000000 
#    y 0.000000 2.165470 0.000000 
#    z 0.000000 0.000000 1.938840 
# 
# From -- ./inp_files/2967.got.cif
#   From: 2010.05.17/outbox.cif.g08.bks.cpg/sg48_2_cif.got.tgz:2967.got - 2010.06.03 20:39:00.
