data_PCOD9390476
_publ_section_title
;
Structure prediction by ZEFSAII (Michael W. Deem and Ramdas Pophale) SiO2 
 PCOD9390476
Probable space group: P N N N
;
_chemical_formula_sum "Si O2"
_cell_formula_units_Z 54
_cell_length_a 11.311793
_cell_length_b 20.445370
_cell_length_c 10.878749
_cell_angle_alpha 90.000000
_cell_angle_beta 90.000000
_cell_angle_gamma 90.000000
_cell_volume 2515.969547
_symmetry_space_group_name_H-M "P N N N"
_symmetry_group_IT_number 48
_space_group.IT_coordinate_system_code '2'
_symmetry_cell_setting 'orthorhombic'
loop_
_space_group_symop_operation_xyz
x,y,z
1/2-x,1/2-y,z
x,1/2-y,1/2-z
1/2-x,y,1/2-z
-x,-y,-z
1/2+x,1/2+y,-z
-x,1/2+y,1/2+z
1/2+x,-y,1/2+z
loop_
_atom_site_type_symbol
_atom_site_label
_atom_site_fract_x
_atom_site_fract_y
_atom_site_fract_z
Si Si1 0.616710 0.678080 0.584962
Si Si2 0.750000 0.250000 0.250000
Si Si3 0.060055 0.420107 0.891411
Si Si4 0.590835 0.372010 0.290547
Si Si5 0.750000 0.642554 0.250000
Si Si6 0.932673 0.431438 0.477223
Si Si7 0.170529 0.540458 0.021367
Si Si8 0.636118 0.675409 0.997974
O O1 0.554164 0.647468 0.464968
O O2 0.544527 0.649876 0.698082
O O3 0.605333 0.755079 0.562275
O O4 0.751574 0.654370 0.584272
O O5 0.662757 0.303992 0.309364
O O6 0.140046 0.405207 0.776524
O O7 0.138470 0.467555 0.977675
O O8 0.927758 0.445428 0.874356
O O9 0.604623 0.411341 0.163200
O O10 0.627607 0.418571 0.401885
O O11 0.701324 0.681427 0.131737
O O12 0.805629 0.440569 0.544780
O O13 0.000000 0.500000 0.500000
O O14 0.025210 0.373178 0.509053
#
# Coordination Sequence:
#
# PCOD9390476 Si02
#       8
#     8   2   8   8   4   8   8   8
#     4   9  20  40  60  95 127 168 217 276 343 397
#     4  12  20  38  64 104 120 178 222 264 346 416
#     4   9  20  36  65  87 125 171 220 279 328 421
#     4  11  23  38  66  92 132 174 220 275 343 411
#     4  10  20  38  66  89 122 175 218 266 342 393
#     4  12  24  39  61  97 132 175 229 281 338 413
#     4  10  21  41  60  92 127 174 222 272 346 402
#     4  10  22  38  63  94 133 174 221 286 332 409
#
# _framework density 21.462899
#
# number of rings (size 3 to 8) (size 9 to 14) (size 15 to 20)
#    0.000    1.778    1.481    2.667    4.148    5.333 
#    0.000    2.222    0.000    0.000    0.000    6.222 
#    0.000    0.000    0.000    0.000    0.000    0.000 
#
# Total GULP energy -300669.599172 kJ/mol
# GULP energy per Si atom -5567.955540 kJ/mol
# Density = 2.141405 g / cm^3
# Si number density = 21.462899 Si / 1000 Ang^3
#
#
#
# Elastic Constant Matrix: (Units=GPa)
#
#
# Indices 1 2 3 4 5 6 
#
# 1 173.4065 46.3014 22.1089 0.0000 0.0000 0.0000
# 2 46.3014 105.7098 1.5187 0.0000 0.0000 0.0000
# 3 22.1089 1.5187 34.2436 0.0000 0.0000 0.0000
# 4 0.0000 0.0000 0.0000 16.8882 0.0000 0.0000
# 5 0.0000 0.0000 0.0000 0.0000 36.0316 0.0000
# 6 0.0000 0.0000 0.0000 0.0000 0.0000 33.8150
#
#
#
# Elastic Compliance Matrix: (Units=1/GPa)
#
#
# Indices 1 2 3 4 5 6 
#
# 1 0.007159 -0.003071 -0.004486 0.000000 0.000000 0.000000
# 2 -0.003071 0.010783 0.001505 0.000000 0.000000 0.000000
# 3 -0.004486 0.001505 0.032032 0.000000 0.000000 0.000000
# 4 0.000000 0.000000 0.000000 0.059213 0.000000 0.000000
# 5 0.000000 0.000000 0.000000 0.000000 0.027753 0.000000
# 6 0.000000 0.000000 0.000000 0.000000 0.000000 0.029573
#
#
# Mechanical properties :
#
#
# Convention : Reuss Voigt Hill
#
# Bulk Modulus (GPa) = 26.40644 50.35755 38.38200
# Shear Modulus (GPa) = 26.14505 33.57569 29.86037
#
# Velocity S-wave (km/s) = 3.49399 3.95949 3.73400
# Velocity P-wave (km/s) = 5.34858 6.66460 6.04253
#
# Compressibility (1/GPa) = 0.03786954
#
# Stress axis : x y z
#
# Youngs Moduli (GPa) = 139.68938 92.73507 31.21886
#
# Poissons Ratio (x) = 0.28480 0.14004
# Poissons Ratio (y) = 0.42900 -0.04697
# Poissons Ratio (z) = 0.62661 -0.13953
#
# Static dielectric constant tensor:
#      x y z
#    x 1.864200 0.000000 0.000000 
#    y 0.000000 1.817260 0.000000 
#    z 0.000000 0.000000 1.864080 
# 
# From -- ./inp_files/20299.got.cif
#   From: 2010.05.17/outbox.cif.g08.bks.cpg/sg48_11_cif.got.tgz:20299.got - 2010.06.03 20:39:00.
