data_PCOD9390020
_publ_section_title
;
Structure prediction by ZEFSAII (Michael W. Deem and Ramdas Pophale) SiO2 
 PCOD9390020
Probable space group: P N N N
;
_chemical_formula_sum "Si O2"
_cell_formula_units_Z 48
_cell_length_a 19.976997
_cell_length_b 16.283897
_cell_length_c 8.649191
_cell_angle_alpha 90.000000
_cell_angle_beta 90.000000
_cell_angle_gamma 90.000000
_cell_volume 2813.610907
_symmetry_space_group_name_H-M "P N N N"
_symmetry_group_IT_number 48
_space_group.IT_coordinate_system_code '2'
_symmetry_cell_setting 'orthorhombic'
loop_
_space_group_symop_operation_xyz
x,y,z
1/2-x,1/2-y,z
x,1/2-y,1/2-z
1/2-x,y,1/2-z
-x,-y,-z
1/2+x,1/2+y,-z
-x,1/2+y,1/2+z
1/2+x,-y,1/2+z
loop_
_atom_site_type_symbol
_atom_site_label
_atom_site_fract_x
_atom_site_fract_y
_atom_site_fract_z
Si Si1 0.360274 0.764001 0.072216
Si Si2 0.670346 0.407818 0.071453
Si Si3 0.994327 0.679490 0.150946
Si Si4 0.049843 0.970865 0.133392
Si Si5 0.676173 0.063461 0.072287
Si Si6 0.935897 0.552177 0.940298
O O1 0.339707 0.750000 0.250000
O O2 0.440950 0.775338 0.076225
O O3 0.333233 0.689501 0.968050
O O4 0.335796 0.851311 0.014879
O O5 0.744156 0.446690 0.058961
O O6 0.652679 0.423472 0.250569
O O7 0.618196 0.445628 0.950884
O O8 0.959039 0.750000 0.250000
O O9 0.021894 0.607100 0.266199
O O10 0.948456 0.638877 0.020855
O O11 0.061207 0.043496 0.256506
O O12 0.000000 0.000000 0.000000
O O13 0.630866 0.992772 0.998949
O O14 0.000000 0.500000 0.000000
#
# Coordination Sequence:
#
# PCOD9390020 Si02
#       6
#     8   8   8   8   8   8
#     4  11  19  34  50  76 114 155 186 223 277 339
#     4  11  22  34  51  82 114 149 194 224 282 343
#     4  10  19  37  55  80 111 149 192 234 292 334
#     4  11  21  35  56  81 107 148 190 240 281 338
#     4  11  22  35  52  77 116 157 186 232 275 335
#     4  10  19  36  56  74 108 150 190 235 280 328
#
# _framework density 17.059929
#
# number of rings (size 3 to 8) (size 9 to 14) (size 15 to 20)
#    0.000    1.333    6.667    3.000    0.000    4.667 
#    0.000    0.833    0.000    0.000    0.000    9.333 
#    0.000    8.000    0.000    0.000    0.000    0.000 
#
# Total GULP energy -267644.078524 kJ/mol
# GULP energy per Si atom -5575.918303 kJ/mol
# Density = 1.702110 g / cm^3
# Si number density = 17.059929 Si / 1000 Ang^3
#
#
#
# Elastic Constant Matrix: (Units=GPa)
#
#
# Indices 1 2 3 4 5 6 
#
# 1 51.4086 29.7954 34.7737 0.0000 0.0000 0.0000
# 2 29.7954 60.3412 40.7476 0.0000 0.0000 0.0000
# 3 34.7737 40.7476 126.7873 0.0000 0.0000 0.0000
# 4 0.0000 0.0000 0.0000 34.4062 0.0000 0.0000
# 5 0.0000 0.0000 0.0000 0.0000 22.6901 0.0000
# 6 0.0000 0.0000 0.0000 0.0000 0.0000 29.4076
#
#
#
# Elastic Compliance Matrix: (Units=1/GPa)
#
#
# Indices 1 2 3 4 5 6 
#
# 1 0.028958 -0.011412 -0.004274 0.000000 0.000000 0.000000
# 2 -0.011412 0.025664 -0.005118 0.000000 0.000000 0.000000
# 3 -0.004274 -0.005118 0.010704 0.000000 0.000000 0.000000
# 4 0.000000 0.000000 0.000000 0.029065 0.000000 0.000000
# 5 0.000000 0.000000 0.000000 0.000000 0.044072 0.000000
# 6 0.000000 0.000000 0.000000 0.000000 0.000000 0.034005
#
#
# Mechanical properties :
#
#
# Convention : Reuss Voigt Hill
#
# Bulk Modulus (GPa) = 42.16483 49.90784 46.03634
# Shear Modulus (GPa) = 22.52435 26.18213 24.35324
#
# Velocity S-wave (km/s) = 3.63755 3.92179 3.78234
# Velocity P-wave (km/s) = 6.51243 7.05870 6.79106
#
# Compressibility (1/GPa) = 0.02371645
#
# Stress axis : x y z
#
# Youngs Moduli (GPa) = 34.53317 38.96559 93.41977
#
# Poissons Ratio (x) = 0.44469 0.39931
# Poissons Ratio (y) = 0.39410 0.47811
# Poissons Ratio (z) = 0.14761 0.19942
#
# Static dielectric constant tensor:
#      x y z
#    x 1.598170 0.000000 0.000000 
#    y 0.000000 1.590810 0.000000 
#    z 0.000000 0.000000 1.558180 
# 
# From -- ./inp_files/14316.got.cif
#   From: 2010.05.17/outbox.cif.g08.bks.cpg/sg48_8_cif.got.tgz:14316.got - 2010.06.03 20:39:00.
