data_PCOD9390205
_publ_section_title
;
Structure prediction by ZEFSAII (Michael W. Deem and Ramdas Pophale) SiO2 
 PCOD9390205
Probable space group: P N N N
;
_chemical_formula_sum "Si O2"
_cell_formula_units_Z 52
_cell_length_a 5.380734
_cell_length_b 17.941021
_cell_length_c 25.392348
_cell_angle_alpha 90.000000
_cell_angle_beta 90.000000
_cell_angle_gamma 90.000000
_cell_volume 2451.272194
_symmetry_space_group_name_H-M "P N N N"
_symmetry_group_IT_number 48
_space_group.IT_coordinate_system_code '2'
_symmetry_cell_setting 'orthorhombic'
loop_
_space_group_symop_operation_xyz
x,y,z
1/2-x,1/2-y,z
x,1/2-y,1/2-z
1/2-x,y,1/2-z
-x,-y,-z
1/2+x,1/2+y,-z
-x,1/2+y,1/2+z
1/2+x,-y,1/2+z
loop_
_atom_site_type_symbol
_atom_site_label
_atom_site_fract_x
_atom_site_fract_y
_atom_site_fract_z
Si Si1 0.500264 0.276383 0.158760
Si Si2 0.900526 0.081513 0.911587
Si Si3 0.994328 0.170409 0.445401
Si Si4 0.493550 0.092418 0.412011
Si Si5 0.361616 0.665512 0.196076
Si Si6 0.079593 0.340548 0.941924
Si Si7 0.250000 0.250000 0.650659
O O1 0.250000 0.250000 0.185549
O O2 0.502063 0.230118 0.102257
O O3 0.498315 0.362983 0.143602
O O4 0.750000 0.250000 0.185809
O O5 0.832773 0.111311 0.853232
O O6 0.640348 0.098174 0.940914
O O7 0.142361 0.125085 0.935126
O O8 0.979185 0.995827 0.909606
O O9 0.238313 0.119776 0.438550
O O10 0.024330 0.202601 0.503823
O O11 0.742811 0.122710 0.439773
O O12 0.250000 0.750000 0.192564
O O13 0.250000 0.634852 0.250000
O O14 0.651779 0.685731 0.188714
O O15 0.059828 0.286021 0.891619
#
# Coordination Sequence:
#
# PCOD9390205 Si02
#       7
#     8   8   8   8   8   8   4
#     4   8  16  30  46  71  93 132 185 216 250 299
#     4  11  23  39  52  80 106 141 173 235 289 335
#     4  10  20  34  53  75 102 154 187 224 255 317
#     4  10  20  34  52  72 110 138 187 223 273 321
#     4  10  21  41  61  80 105 137 187 234 296 346
#     4  11  23  35  54  72 111 137 192 225 277 319
#     4  10  22  39  56  86 106 142 186 256 285 330
#
# _framework density 21.213474999999999
#
# number of rings (size 3 to 8) (size 9 to 14) (size 15 to 20)
#    0.000    2.000    1.538    1.846    3.231    4.923 
#    8.308    0.000    0.000    0.000    0.000    0.000 
#    0.000    5.538    0.000   20.923    0.000    0.000 
#
# Total GULP energy -289718.966686 kJ/mol
# GULP energy per Si atom -5571.518590 kJ/mol
# Density = 2.116519 g / cm^3
# Si number density = 21.213475 Si / 1000 Ang^3
#
#
#
# Elastic Constant Matrix: (Units=GPa)
#
#
# Indices 1 2 3 4 5 6 
#
# 1 159.7265 31.8522 19.1258 0.0000 0.0000 0.0000
# 2 31.8522 95.2956 9.2544 0.0000 0.0000 0.0000
# 3 19.1258 9.2544 73.7658 0.0000 0.0000 0.0000
# 4 0.0000 0.0000 0.0000 77.7480 0.0000 0.0000
# 5 0.0000 0.0000 0.0000 0.0000 10.6274 0.0000
# 6 0.0000 0.0000 0.0000 0.0000 0.0000 33.3177
#
#
#
# Elastic Compliance Matrix: (Units=1/GPa)
#
#
# Indices 1 2 3 4 5 6 
#
# 1 0.006870 -0.002150 -0.001512 0.000000 0.000000 0.000000
# 2 -0.002150 0.011296 -0.000860 0.000000 0.000000 0.000000
# 3 -0.001512 -0.000860 0.014056 0.000000 0.000000 0.000000
# 4 0.000000 0.000000 0.000000 0.012862 0.000000 0.000000
# 5 0.000000 0.000000 0.000000 0.000000 0.094097 0.000000
# 6 0.000000 0.000000 0.000000 0.000000 0.000000 0.030014
#
#
# Mechanical properties :
#
#
# Convention : Reuss Voigt Hill
#
# Bulk Modulus (GPa) = 43.14027 49.91699 46.52863
# Shear Modulus (GPa) = 26.88697 42.24232 34.56464
#
# Velocity S-wave (km/s) = 3.56399 4.46724 4.04093
# Velocity P-wave (km/s) = 6.10871 7.08450 6.61463
#
# Compressibility (1/GPa) = 0.02318020
#
# Stress axis : x y z
#
# Youngs Moduli (GPa) = 145.55241 88.52959 71.14289
#
# Poissons Ratio (x) = 0.19030 0.10754
# Poissons Ratio (y) = 0.31288 0.06117
# Poissons Ratio (z) = 0.22003 0.07612
#
# Static dielectric constant tensor:
#      x y z
#    x 1.919110 0.000000 0.000000 
#    y 0.000000 1.748310 0.000000 
#    z 0.000000 0.000000 1.773200 
# 
# From -- ./inp_files/6572.got.cif
#   From: 2010.05.17/outbox.cif.g08.bks.cpg/sg48_4_cif.got.tgz:6572.got - 2010.06.03 20:39:00.
