data_PCOD9390442
_publ_section_title
;
Structure prediction by ZEFSAII (Michael W. Deem and Ramdas Pophale) SiO2 
 PCOD9390442
Probable space group: P N N N
;
_chemical_formula_sum "Si O2"
_cell_formula_units_Z 60
_cell_length_a 6.595948
_cell_length_b 26.044521
_cell_length_c 18.696342
_cell_angle_alpha 90.000000
_cell_angle_beta 90.000000
_cell_angle_gamma 90.000000
_cell_volume 3211.812924
_symmetry_space_group_name_H-M "P N N N"
_symmetry_group_IT_number 48
_space_group.IT_coordinate_system_code '2'
_symmetry_cell_setting 'orthorhombic'
loop_
_space_group_symop_operation_xyz
x,y,z
1/2-x,1/2-y,z
x,1/2-y,1/2-z
1/2-x,y,1/2-z
-x,-y,-z
1/2+x,1/2+y,-z
-x,1/2+y,1/2+z
1/2+x,-y,1/2+z
loop_
_atom_site_type_symbol
_atom_site_label
_atom_site_fract_x
_atom_site_fract_y
_atom_site_fract_z
Si Si1 0.615722 0.482299 0.070942
Si Si2 0.750000 0.750000 0.032652
Si Si3 0.802465 0.589501 0.076875
Si Si4 0.167037 0.602915 0.169318
Si Si5 0.240051 0.483624 0.164694
Si Si6 0.035181 0.906821 0.573966
Si Si7 0.057537 0.666212 0.430412
Si Si8 0.627207 0.201906 0.053581
O O1 0.753765 0.530456 0.092655
O O2 0.456748 0.470376 0.132081
O O3 0.752082 0.433387 0.058028
O O4 0.500000 0.500000 0.000000
O O5 0.604728 0.712330 0.077731
O O6 0.583529 0.779774 0.983694
O O7 0.592196 0.617990 0.061175
O O8 0.934909 0.611409 0.143034
O O9 0.924222 0.594086 0.002827
O O10 0.250000 0.602567 0.250000
O O11 0.204025 0.543689 0.143892
O O12 0.295913 0.647492 0.131993
O O13 0.250000 0.480042 0.250000
O O14 0.083994 0.444013 0.128281
O O15 0.069446 0.848397 0.598824
O O16 0.210047 0.682071 0.494077
O O17 0.750000 0.250000 0.087377
#
# Coordination Sequence:
#
# PCOD9390442 Si02
#       8
#     8   4   8   8   8   8   8   8
#     4  12  22  35  63  90 124 164 201 254 302 371
#     4  10  20  38  62  89 121 150 206 266 334 356
#     4  12  21  36  60  92 119 159 207 257 307 367
#     4  11  23  39  55  83 126 168 213 249 308 382
#     4  11  25  40  55  90 133 171 203 247 309 384
#     4  12  22  37  62  91 124 155 209 249 312 373
#     4  11  20  37  61  87 122 159 204 262 319 365
#     4  10  22  36  61  93 120 151 200 271 319 369
#
# _framework density 18.681038999999998
#
# number of rings (size 3 to 8) (size 9 to 14) (size 15 to 20)
#    0.000    0.800    6.667    2.000    0.000    1.067 
#    0.000    0.000    0.000   16.400    0.000    7.000 
#    0.000    0.000    0.000    0.000    0.000    0.000 
#
# Total GULP energy -334491.920888 kJ/mol
# GULP energy per Si atom -5574.865348 kJ/mol
# Density = 1.863852 g / cm^3
# Si number density = 18.681039 Si / 1000 Ang^3
#
#
#
# Elastic Constant Matrix: (Units=GPa)
#
#
# Indices 1 2 3 4 5 6 
#
# 1 94.4044 19.7406 8.8393 0.0000 0.0000 0.0000
# 2 19.7406 105.5062 -4.2790 0.0000 0.0000 0.0000
# 3 8.8393 -4.2790 41.0320 0.0000 0.0000 0.0000
# 4 0.0000 0.0000 0.0000 14.1690 0.0000 0.0000
# 5 0.0000 0.0000 0.0000 0.0000 16.2385 0.0000
# 6 0.0000 0.0000 0.0000 0.0000 0.0000 35.4386
#
#
#
# Elastic Compliance Matrix: (Units=1/GPa)
#
#
# Indices 1 2 3 4 5 6 
#
# 1 0.011308 -0.002224 -0.002668 0.000000 0.000000 0.000000
# 2 -0.002224 0.009956 0.001517 0.000000 0.000000 0.000000
# 3 -0.002668 0.001517 0.025104 0.000000 0.000000 0.000000
# 4 0.000000 0.000000 0.000000 0.070577 0.000000 0.000000
# 5 0.000000 0.000000 0.000000 0.000000 0.061582 0.000000
# 6 0.000000 0.000000 0.000000 0.000000 0.000000 0.028218
#
#
# Mechanical properties :
#
#
# Convention : Reuss Voigt Hill
#
# Bulk Modulus (GPa) = 25.24066 32.17161 28.70614
# Shear Modulus (GPa) = 22.05569 27.61201 24.83385
#
# Velocity S-wave (km/s) = 3.43978 3.84875 3.65000
# Velocity P-wave (km/s) = 5.41450 6.08353 5.75874
#
# Compressibility (1/GPa) = 0.03961861
#
# Stress axis : x y z
#
# Youngs Moduli (GPa) = 88.43649 100.44446 39.83405
#
# Poissons Ratio (x) = 0.22338 0.10627
# Poissons Ratio (y) = 0.19667 -0.06044
# Poissons Ratio (z) = 0.23594 -0.15241
#
# Static dielectric constant tensor:
#      x y z
#    x 1.695850 0.000000 0.000000 
#    y 0.000000 1.710160 0.000000 
#    z 0.000000 0.000000 1.591680 
# 
# From -- ./inp_files/29628.got.cif
#   From: 2010.05.17/outbox.cif.g08.bks.cpg/sg48_15_cif.got.tgz:29628.got - 2010.06.03 20:39:00.
