data_PCOD9390953
_publ_section_title
;
Structure prediction by ZEFSAII (Michael W. Deem and Ramdas Pophale) SiO2 
 PCOD9390953
Probable space group: P N N N
;
_chemical_formula_sum "Si O2"
_cell_formula_units_Z 32
_cell_length_a 6.846874
_cell_length_b 30.468773
_cell_length_c 7.221492
_cell_angle_alpha 90.000000
_cell_angle_beta 90.000000
_cell_angle_gamma 90.000000
_cell_volume 1506.517689
_symmetry_space_group_name_H-M "P N N N"
_symmetry_group_IT_number 48
_space_group.IT_coordinate_system_code '2'
_symmetry_cell_setting 'orthorhombic'
loop_
_space_group_symop_operation_xyz
x,y,z
1/2-x,1/2-y,z
x,1/2-y,1/2-z
1/2-x,y,1/2-z
-x,-y,-z
1/2+x,1/2+y,-z
-x,1/2+y,1/2+z
1/2+x,-y,1/2+z
loop_
_atom_site_type_symbol
_atom_site_label
_atom_site_fract_x
_atom_site_fract_y
_atom_site_fract_z
Si Si1 0.250000 0.052307 0.250000
Si Si2 0.778995 0.484148 0.466683
Si Si3 0.583976 0.808758 0.415523
Si Si4 0.750000 0.750000 0.750000
Si Si5 0.106665 0.607575 0.588390
Si Si6 0.250000 0.750000 0.250000
O O1 0.425442 0.082823 0.315260
O O2 0.168350 0.019225 0.406861
O O3 0.750000 0.489240 0.250000
O O4 0.773626 0.432161 0.510106
O O5 0.000000 0.500000 0.500000
O O6 0.750000 0.808581 0.250000
O O7 0.656350 0.784481 0.602424
O O8 0.495619 0.856543 0.460142
O O9 0.396544 0.780661 0.359928
O O10 0.250000 0.625992 0.750000
#
# Coordination Sequence:
#
# PCOD9390953 Si02
#       6
#     4   8   8   2   8   2
#     4  10  21  43  68  95 146 195 228 287 343 394
#     4   9  20  38  61  95 134 182 232 273 329 397
#     4  12  27  50  72 106 142 178 234 294 367 434
#     4  12  24  50  76  98 136 184 222 294 370 442
#     4  10  24  40  67 107 135 183 239 284 344 414
#     4  12  26  48  72 106 132 180 230 288 372 442
#
# _framework density 21.241040000000002
#
# number of rings (size 3 to 8) (size 9 to 14) (size 15 to 20)
#    0.000    1.500    2.500    0.750    3.500   16.000 
#    0.000    2.500    0.000    0.000    0.000    0.000 
#    0.000    0.000    0.000    0.000    0.000    0.000 
#
# Total GULP energy -178370.757734 kJ/mol
# GULP energy per Si atom -5574.086179 kJ/mol
# Density = 2.119269 g / cm^3
# Si number density = 21.241040 Si / 1000 Ang^3
#
#
#
# Elastic Constant Matrix: (Units=GPa)
#
#
# Indices 1 2 3 4 5 6 
#
# 1 106.3357 52.8677 73.6844 0.0000 0.0000 0.0000
# 2 52.8677 149.9562 83.2813 0.0000 0.0000 0.0000
# 3 73.6844 83.2813 152.4609 0.0000 0.0000 0.0000
# 4 0.0000 0.0000 0.0000 53.7332 0.0000 0.0000
# 5 0.0000 0.0000 0.0000 0.0000 -2.8932 0.0000
# 6 0.0000 0.0000 0.0000 0.0000 0.0000 42.1095
#
#
#
# Elastic Compliance Matrix: (Units=1/GPa)
#
#
# Indices 1 2 3 4 5 6 
#
# 1 0.014451 -0.001745 -0.006031 0.000000 0.000000 0.000000
# 2 -0.001745 0.009784 -0.004501 0.000000 0.000000 0.000000
# 3 -0.006031 -0.004501 0.011932 0.000000 0.000000 0.000000
# 4 0.000000 0.000000 0.000000 0.018610 0.000000 0.000000
# 5 0.000000 0.000000 0.000000 0.000000 -0.345638 0.000000
# 6 0.000000 0.000000 0.000000 0.000000 0.000000 0.023748
#
#
# Mechanical properties :
#
#
# Convention : Reuss Voigt Hill
#
# Bulk Modulus (GPa) = 86.11029 92.04663 89.07846
# Shear Modulus (GPa) = -20.94776 31.85118 5.45171
#
# Velocity S-wave (km/s) = -3.14378 3.87655 1.60380
# Velocity P-wave (km/s) = 5.23926 7.96651 6.74222
#
# Compressibility (1/GPa) = 0.01161301
#
# Stress axis : x y z
#
# Youngs Moduli (GPa) = 69.19989 102.21289 83.80725
#
# Poissons Ratio (x) = 0.17841 0.50541
# Poissons Ratio (y) = 0.12079 0.37719
# Poissons Ratio (z) = 0.41732 0.46002
#
# Static dielectric constant tensor:
#      x y z
#    x 1.906030 0.000000 0.000000 
#    y 0.000000 1.821430 0.000000 
#    z 0.000000 0.000000 1.713160 
# 
# From -- ./inp_files/1207.got.cif
#   From: 2010.05.17/outbox.cif.g08.bks.cpg/sg48_1_cif.got.tgz:1207.got - 2010.06.03 20:39:00.
