data_PCOD9390438
_publ_section_title
;
Structure prediction by ZEFSAII (Michael W. Deem and Ramdas Pophale) SiO2 
 PCOD9390438
Probable space group: P N N N
;
_chemical_formula_sum "Si O2"
_cell_formula_units_Z 44
_cell_length_a 9.615460
_cell_length_b 15.497158
_cell_length_c 14.145651
_cell_angle_alpha 90.000000
_cell_angle_beta 90.000000
_cell_angle_gamma 90.000000
_cell_volume 2107.876031
_symmetry_space_group_name_H-M "P N N N"
_symmetry_group_IT_number 48
_space_group.IT_coordinate_system_code '2'
_symmetry_cell_setting 'orthorhombic'
loop_
_space_group_symop_operation_xyz
x,y,z
1/2-x,1/2-y,z
x,1/2-y,1/2-z
1/2-x,y,1/2-z
-x,-y,-z
1/2+x,1/2+y,-z
-x,1/2+y,1/2+z
1/2+x,-y,1/2+z
loop_
_atom_site_type_symbol
_atom_site_label
_atom_site_fract_x
_atom_site_fract_y
_atom_site_fract_z
Si Si1 0.879097 0.911976 0.415236
Si Si2 0.750000 0.957432 0.750000
Si Si3 0.805467 0.057926 0.569450
Si Si4 0.750524 0.148659 0.102005
Si Si5 0.750000 0.480544 0.250000
Si Si6 0.750000 0.750000 0.511690
Si Si7 0.041069 0.316322 0.167174
O O1 0.784560 0.830047 0.443002
O O2 0.045352 0.898136 0.408507
O O3 0.843321 0.978126 0.500381
O O4 0.836413 0.957572 0.317875
O O5 0.633980 0.890763 0.786471
O O6 0.728349 0.019817 0.660294
O O7 0.715276 0.121802 0.504079
O O8 0.750000 0.250000 0.118275
O O9 0.824840 0.086833 0.177557
O O10 0.586200 0.133718 0.119514
O O11 0.878143 0.760487 0.586899
O O12 0.001570 0.250000 0.250000
#
# Coordination Sequence:
#
# PCOD9390438 Si02
#       7
#     8   4   8   8   4   4   8
#     4  10  20  38  61  90 126 166 206 261 317 382
#     4  12  19  34  63  96 120 162 208 264 305 383
#     4  10  20  38  61  88 125 166 208 256 324 376
#     4  11  23  41  62  89 128 168 205 265 323 389
#     4  10  21  37  60  88 118 164 210 245 313 380
#     4  12  19  37  62  96 126 164 206 274 312 378
#     4  12  20  34  62  99 124 157 216 267 313 368
#
# _framework density 20.874092999999998
#
# number of rings (size 3 to 8) (size 9 to 14) (size 15 to 20)
#    0.000    1.091    5.455    3.545    0.000    0.364 
#    0.000    4.091    4.000   13.091    0.000    0.000 
#    0.000    0.000    0.000    0.000    0.000    0.000 
#
# Total GULP energy -245238.158625 kJ/mol
# GULP energy per Si atom -5573.594514 kJ/mol
# Density = 2.082658 g / cm^3
# Si number density = 20.874093 Si / 1000 Ang^3
#
#
#
# Elastic Constant Matrix: (Units=GPa)
#
#
# Indices 1 2 3 4 5 6 
#
# 1 34.1031 24.6977 18.4701 0.0000 0.0000 0.0000
# 2 24.6977 122.3646 63.1704 0.0000 0.0000 0.0000
# 3 18.4701 63.1704 146.1341 0.0000 0.0000 0.0000
# 4 0.0000 0.0000 0.0000 35.1833 0.0000 0.0000
# 5 0.0000 0.0000 0.0000 0.0000 18.2919 0.0000
# 6 0.0000 0.0000 0.0000 0.0000 0.0000 22.9288
#
#
#
# Elastic Compliance Matrix: (Units=1/GPa)
#
#
# Indices 1 2 3 4 5 6 
#
# 1 0.034686 -0.006099 -0.001748 0.000000 0.000000 0.000000
# 2 -0.006099 0.011592 -0.004240 0.000000 0.000000 0.000000
# 3 -0.001748 -0.004240 0.008897 0.000000 0.000000 0.000000
# 4 0.000000 0.000000 0.000000 0.028423 0.000000 0.000000
# 5 0.000000 0.000000 0.000000 0.000000 0.054669 0.000000
# 6 0.000000 0.000000 0.000000 0.000000 0.000000 0.043613
#
#
# Mechanical properties :
#
#
# Convention : Reuss Voigt Hill
#
# Bulk Modulus (GPa) = 32.25601 57.25312 44.75457
# Shear Modulus (GPa) = 23.10670 28.36503 25.73586
#
# Velocity S-wave (km/s) = 3.33070 3.69027 3.51509
# Velocity P-wave (km/s) = 5.50251 6.75610 6.16127
#
# Compressibility (1/GPa) = 0.03100198
#
# Stress axis : x y z
#
# Youngs Moduli (GPa) = 28.83001 86.26451 112.39886
#
# Poissons Ratio (x) = 0.52610 0.19644
# Poissons Ratio (y) = 0.17582 0.47660
# Poissons Ratio (z) = 0.05039 0.36578
#
# Static dielectric constant tensor:
#      x y z
#    x 1.815940 0.000000 0.000000 
#    y 0.000000 1.816450 0.000000 
#    z 0.000000 0.000000 1.817810 
# 
# From -- ./inp_files/26422.got.cif
#   From: 2010.05.17/outbox.cif.g08.bks.cpg/sg48_14_cif.got.tgz:26422.got - 2010.06.03 20:39:00.
