data_PCOD9390934
_publ_section_title
;
Structure prediction by ZEFSAII (Michael W. Deem and Ramdas Pophale) SiO2 
 PCOD9390934
Probable space group: P N N N
;
_chemical_formula_sum "Si O2"
_cell_formula_units_Z 34
_cell_length_a 10.479450
_cell_length_b 14.607454
_cell_length_c 9.966879
_cell_angle_alpha 90.000000
_cell_angle_beta 90.000000
_cell_angle_gamma 90.000000
_cell_volume 1525.710739
_symmetry_space_group_name_H-M "P N N N"
_symmetry_group_IT_number 48
_space_group.IT_coordinate_system_code '2'
_symmetry_cell_setting 'orthorhombic'
loop_
_space_group_symop_operation_xyz
x,y,z
1/2-x,1/2-y,z
x,1/2-y,1/2-z
1/2-x,y,1/2-z
-x,-y,-z
1/2+x,1/2+y,-z
-x,1/2+y,1/2+z
1/2+x,-y,1/2+z
loop_
_atom_site_type_symbol
_atom_site_label
_atom_site_fract_x
_atom_site_fract_y
_atom_site_fract_z
Si Si1 0.167064 0.659385 0.589783
Si Si2 0.038555 0.515313 0.777218
Si Si3 0.200459 0.484831 0.032295
Si Si4 0.919451 0.869367 0.055252
Si Si5 0.750000 0.750000 0.250000
O O1 0.250000 0.750000 0.607642
O O2 0.386317 0.604912 0.778144
O O3 0.035007 0.681887 0.514422
O O4 0.027908 0.451814 0.647324
O O5 0.127415 0.467763 0.890353
O O6 0.903353 0.525946 0.851163
O O7 0.256542 0.586476 0.004265
O O8 0.317524 0.415242 0.044976
O O9 0.840774 0.806985 0.154104
#
# Coordination Sequence:
#
# PCOD9390934 Si02
#       5
#     8   8   8   8   2
#     4  11  25  40  64 105 141 177 231 292 345 406
#     4  10  21  42  70  95 138 183 225 282 345 419
#     4  10  21  42  69  99 131 188 230 265 361 419
#     4  11  23  41  65  93 136 180 223 293 336 413
#     4  12  24  44  62  90 130 168 240 278 350 388
#
# _framework density 22.284694999999999
#
# number of rings (size 3 to 8) (size 9 to 14) (size 15 to 20)
#    0.000    1.412    2.353    4.941    3.294    5.647 
#    0.000    0.000    0.000    1.412    0.000    0.000 
#    0.000    0.000    0.000    0.000    0.000    0.000 
#
# Total GULP energy -190131.694243 kJ/mol
# GULP energy per Si atom -5592.108654 kJ/mol
# Density = 2.223397 g / cm^3
# Si number density = 22.284695 Si / 1000 Ang^3
#
#
#
# Elastic Constant Matrix: (Units=GPa)
#
#
# Indices 1 2 3 4 5 6 
#
# 1 200.1866 83.0313 82.7766 0.0000 0.0000 0.0000
# 2 83.0313 116.7607 43.1131 0.0000 0.0000 0.0000
# 3 82.7766 43.1131 102.2510 0.0000 0.0000 0.0000
# 4 0.0000 0.0000 0.0000 15.6587 0.0000 0.0000
# 5 0.0000 0.0000 0.0000 0.0000 49.5448 0.0000
# 6 0.0000 0.0000 0.0000 0.0000 0.0000 39.8448
#
#
#
# Elastic Compliance Matrix: (Units=1/GPa)
#
#
# Indices 1 2 3 4 5 6 
#
# 1 0.009118 -0.004451 -0.005504 0.000000 0.000000 0.000000
# 2 -0.004451 0.012317 -0.001590 0.000000 0.000000 0.000000
# 3 -0.005504 -0.001590 0.014906 0.000000 0.000000 0.000000
# 4 0.000000 0.000000 0.000000 0.063862 0.000000 0.000000
# 5 0.000000 0.000000 0.000000 0.000000 0.020184 0.000000
# 6 0.000000 0.000000 0.000000 0.000000 0.000000 0.025097
#
#
# Mechanical properties :
#
#
# Convention : Reuss Voigt Hill
#
# Bulk Modulus (GPa) = 75.47183 93.00447 84.23815
# Shear Modulus (GPa) = 28.90315 35.02813 31.96564
#
# Velocity S-wave (km/s) = 3.60529 3.96895 3.79148
# Velocity P-wave (km/s) = 7.16041 7.92646 7.55315
#
# Compressibility (1/GPa) = 0.01324998
#
# Stress axis : x y z
#
# Youngs Moduli (GPa) = 109.67790 81.18859 67.08667
#
# Poissons Ratio (x) = 0.36140 0.36926
# Poissons Ratio (y) = 0.48821 0.10665
# Poissons Ratio (z) = 0.60369 0.12907
#
# Static dielectric constant tensor:
#      x y z
#    x 1.892850 0.000000 0.000000 
#    y 0.000000 1.829720 0.000000 
#    z 0.000000 0.000000 1.855430 
# 
# From -- ./inp_files/19488.got.cif
#   From: 2010.05.17/outbox.cif.g08.bks.cpg/sg48_10_cif.got.tgz:19488.got - 2010.06.03 20:39:00.
