data_PCOD9390709
_publ_section_title
;
Structure prediction by ZEFSAII (Michael W. Deem and Ramdas Pophale) SiO2 
 PCOD9390709
Probable space group: P N N N
;
_chemical_formula_sum "Si O2"
_cell_formula_units_Z 48
_cell_length_a 10.734149
_cell_length_b 8.788354
_cell_length_c 27.051801
_cell_angle_alpha 90.000000
_cell_angle_beta 90.000000
_cell_angle_gamma 90.000000
_cell_volume 2551.945208
_symmetry_space_group_name_H-M "P N N N"
_symmetry_group_IT_number 48
_space_group.IT_coordinate_system_code '2'
_symmetry_cell_setting 'orthorhombic'
loop_
_space_group_symop_operation_xyz
x,y,z
1/2-x,1/2-y,z
x,1/2-y,1/2-z
1/2-x,y,1/2-z
-x,-y,-z
1/2+x,1/2+y,-z
-x,1/2+y,1/2+z
1/2+x,-y,1/2+z
loop_
_atom_site_type_symbol
_atom_site_label
_atom_site_fract_x
_atom_site_fract_y
_atom_site_fract_z
Si Si1 0.767624 0.073458 0.069280
Si Si2 0.716203 0.420114 0.807703
Si Si3 0.509297 0.926749 0.053466
Si Si4 0.599199 0.405093 0.968729
Si Si5 0.479503 0.456158 0.127142
Si Si6 0.358960 0.146350 0.122869
O O1 0.750000 0.250000 0.084983
O O2 0.885095 0.016655 0.102388
O O3 0.648959 0.962123 0.073326
O O4 0.792787 0.090407 0.009753
O O5 0.750000 0.250000 0.826254
O O6 0.750000 0.421844 0.750000
O O7 0.573997 0.458006 0.824616
O O8 0.797898 0.554613 0.832076
O O9 0.460665 0.756338 0.045704
O O10 0.418377 0.021903 0.088076
O O11 0.500000 0.000000 0.000000
O O12 0.614570 0.486248 0.916337
O O13 0.500000 0.500000 0.000000
O O14 0.461002 0.275843 0.135500
O O15 0.250000 0.250000 0.099691
#
# Coordination Sequence:
#
# PCOD9390709 Si02
#       6
#     8   8   8   8   8   8
#     4  11  21  37  57  84 126 165 210 252 297 365
#     4  10  22  41  66  91 118 151 196 260 319 372
#     4  12  22  36  58  83 119 171 208 251 305 359
#     4  10  22  37  52  84 122 166 212 250 296 362
#     4  10  21  38  56  87 120 154 201 254 302 366
#     4  10  22  36  58  84 117 155 200 250 305 366
#
# _framework density 18.809180000000001
#
# number of rings (size 3 to 8) (size 9 to 14) (size 15 to 20)
#    0.000    1.500    3.333    2.000    4.667    6.333 
#    0.000    0.000    0.000    1.000    0.000    2.333 
#    0.000    0.000    0.000    0.000    0.000    0.000 
#
# Total GULP energy -267232.369430 kJ/mol
# GULP energy per Si atom -5567.341030 kJ/mol
# Density = 1.876637 g / cm^3
# Si number density = 18.809180 Si / 1000 Ang^3
#
#
#
# Elastic Constant Matrix: (Units=GPa)
#
#
# Indices 1 2 3 4 5 6 
#
# 1 114.1162 37.5584 37.0274 0.0000 0.0000 0.0000
# 2 37.5584 142.9582 30.1664 0.0000 0.0000 0.0000
# 3 37.0274 30.1664 69.1609 0.0000 0.0000 0.0000
# 4 0.0000 0.0000 0.0000 33.7961 0.0000 0.0000
# 5 0.0000 0.0000 0.0000 0.0000 28.6527 0.0000
# 6 0.0000 0.0000 0.0000 0.0000 0.0000 30.2388
#
#
#
# Elastic Compliance Matrix: (Units=1/GPa)
#
#
# Indices 1 2 3 4 5 6 
#
# 1 0.011018 -0.001817 -0.005106 0.000000 0.000000 0.000000
# 2 -0.001817 0.008004 -0.002518 0.000000 0.000000 0.000000
# 3 -0.005106 -0.002518 0.018291 0.000000 0.000000 0.000000
# 4 0.000000 0.000000 0.000000 0.029589 0.000000 0.000000
# 5 0.000000 0.000000 0.000000 0.000000 0.034901 0.000000
# 6 0.000000 0.000000 0.000000 0.000000 0.000000 0.033070
#
#
# Mechanical properties :
#
#
# Convention : Reuss Voigt Hill
#
# Bulk Modulus (GPa) = 54.25994 59.52664 56.89329
# Shear Modulus (GPa) = 31.26970 33.30307 32.28639
#
# Velocity S-wave (km/s) = 4.08176 4.21239 4.14759
# Velocity P-wave (km/s) = 7.15015 7.44146 7.29726
#
# Compressibility (1/GPa) = 0.01842980
#
# Stress axis : x y z
#
# Youngs Moduli (GPa) = 90.76168 124.93990 54.67121
#
# Poissons Ratio (x) = 0.22704 0.27916
# Poissons Ratio (y) = 0.16493 0.13767
# Poissons Ratio (z) = 0.46344 0.31463
#
# Static dielectric constant tensor:
#      x y z
#    x 1.757530 0.000000 0.000000 
#    y 0.000000 1.674710 0.000000 
#    z 0.000000 0.000000 1.587370 
# 
# From -- ./inp_files/36263.got.cif
#   From: 2010.05.17/outbox.cif.g08.bks.cpg/sg48_19_cif.got.tgz:36263.got - 2010.06.03 20:39:00.
