data_PCOD9390427
_publ_section_title
;
Structure prediction by ZEFSAII (Michael W. Deem and Ramdas Pophale) SiO2 
 PCOD9390427
Probable space group: P N N N
;
_chemical_formula_sum "Si O2"
_cell_formula_units_Z 48
_cell_length_a 16.687367
_cell_length_b 8.882028
_cell_length_c 16.496143
_cell_angle_alpha 90.000000
_cell_angle_beta 90.000000
_cell_angle_gamma 90.000000
_cell_volume 2445.019730
_symmetry_space_group_name_H-M "P N N N"
_symmetry_group_IT_number 48
_space_group.IT_coordinate_system_code '2'
_symmetry_cell_setting 'orthorhombic'
loop_
_space_group_symop_operation_xyz
x,y,z
1/2-x,1/2-y,z
x,1/2-y,1/2-z
1/2-x,y,1/2-z
-x,-y,-z
1/2+x,1/2+y,-z
-x,1/2+y,1/2+z
1/2+x,-y,1/2+z
loop_
_atom_site_type_symbol
_atom_site_label
_atom_site_fract_x
_atom_site_fract_y
_atom_site_fract_z
Si Si1 0.158026 0.750425 0.346140
Si Si2 0.232214 0.926181 0.629264
Si Si3 0.015952 0.962756 0.125860
Si Si4 0.478783 0.251106 0.023017
Si Si5 0.376104 0.535925 0.482634
Si Si6 0.631677 0.925585 0.268227
O O1 0.250000 0.750000 0.371786
O O2 0.154188 0.750000 0.250000
O O3 0.104382 0.607696 0.369710
O O4 0.126164 0.897637 0.392003
O O5 0.250000 0.750000 0.640742
O O6 0.203113 0.952498 0.537538
O O7 0.310431 0.017596 0.659008
O O8 0.161563 0.981489 0.689903
O O9 0.960165 0.947290 0.204757
O O10 0.019471 0.133877 0.097125
O O11 0.976329 0.857527 0.056294
O O12 0.406902 0.133513 0.019456
O O13 0.558288 0.147299 0.023644
O O14 0.645101 0.750000 0.250000
#
# Coordination Sequence:
#
# PCOD9390427 Si02
#       6
#     8   8   8   8   8   8
#     4  10  22  41  62  82 108 149 202 252 304 360
#     4  11  22  36  56  88 125 159 197 240 300 380
#     4  10  20  38  59  84 120 157 195 249 304 354
#     4   9  20  35  58  90 116 153 208 243 292 378
#     4  10  20  38  59  84 120 157 195 249 304 354
#     4  11  22  36  56  88 125 159 197 240 300 380
#
# _framework density 19.631743
#
# number of rings (size 3 to 8) (size 9 to 14) (size 15 to 20)
#    0.000    1.833    0.000    5.000    0.000    5.333 
#    0.000    5.000    0.000    2.000    0.000    0.000 
#    0.000    0.000    0.000    0.000    0.000    0.000 
#
# Total GULP energy -267861.131102 kJ/mol
# GULP energy per Si atom -5580.440231 kJ/mol
# Density = 1.958706 g / cm^3
# Si number density = 19.631743 Si / 1000 Ang^3
#
#
#
# Elastic Constant Matrix: (Units=GPa)
#
#
# Indices 1 2 3 4 5 6 
#
# 1 80.6735 47.2635 24.4823 0.0000 0.0000 0.0000
# 2 47.2635 161.8696 33.7982 0.0000 0.0000 0.0000
# 3 24.4823 33.7982 61.1131 0.0000 0.0000 0.0000
# 4 0.0000 0.0000 0.0000 1.9059 0.0000 0.0000
# 5 0.0000 0.0000 0.0000 0.0000 32.2693 0.0000
# 6 0.0000 0.0000 0.0000 0.0000 0.0000 -10.2692
#
#
#
# Elastic Compliance Matrix: (Units=1/GPa)
#
#
# Indices 1 2 3 4 5 6 
#
# 1 0.015893 -0.003743 -0.004296 0.000000 0.000000 0.000000
# 2 -0.003743 0.007866 -0.002851 0.000000 0.000000 0.000000
# 3 -0.004296 -0.002851 0.019661 0.000000 0.000000 0.000000
# 4 0.000000 0.000000 0.000000 0.524692 0.000000 0.000000
# 5 0.000000 0.000000 0.000000 0.000000 0.030989 0.000000
# 6 0.000000 0.000000 0.000000 0.000000 0.000000 -0.097378
#
#
# Mechanical properties :
#
#
# Convention : Reuss Voigt Hill
#
# Bulk Modulus (GPa) = 46.21374 57.19380 51.70377
# Shear Modulus (GPa) = 9.42124 17.98868 13.70496
#
# Velocity S-wave (km/s) = 2.19303 3.03034 2.64503
# Velocity P-wave (km/s) = 5.47759 6.43743 5.97681
#
# Compressibility (1/GPa) = 0.02163859
#
# Stress axis : x y z
#
# Youngs Moduli (GPa) = 62.92259 127.12929 50.86253
#
# Poissons Ratio (x) = 0.47588 0.21853
# Poissons Ratio (y) = 0.23554 0.14499
# Poissons Ratio (z) = 0.27034 0.36240
#
# Static dielectric constant tensor:
#      x y z
#    x 1.733110 0.000000 0.000000 
#    y 0.000000 1.640030 0.000000 
#    z 0.000000 0.000000 1.755400 
# 
# From -- ./inp_files/31551.got.cif
#   From: 2010.05.17/outbox.cif.g08.bks.cpg/sg48_16_cif.got.tgz:31551.got - 2010.06.03 20:39:00.
