data_PCOD9390577
_publ_section_title
;
Structure prediction by ZEFSAII (Michael W. Deem and Ramdas Pophale) SiO2 
 PCOD9390577
Probable space group: P N N N
;
_chemical_formula_sum "Si O2"
_cell_formula_units_Z 34
_cell_length_a 19.551949
_cell_length_b 14.651727
_cell_length_c 5.310797
_cell_angle_alpha 90.000000
_cell_angle_beta 90.000000
_cell_angle_gamma 90.000000
_cell_volume 1521.383056
_symmetry_space_group_name_H-M "P N N N"
_symmetry_group_IT_number 48
_space_group.IT_coordinate_system_code '2'
_symmetry_cell_setting 'orthorhombic'
loop_
_space_group_symop_operation_xyz
x,y,z
1/2-x,1/2-y,z
x,1/2-y,1/2-z
1/2-x,y,1/2-z
-x,-y,-z
1/2+x,1/2+y,-z
-x,1/2+y,1/2+z
1/2+x,-y,1/2+z
loop_
_atom_site_type_symbol
_atom_site_label
_atom_site_fract_x
_atom_site_fract_y
_atom_site_fract_z
Si Si1 0.703851 0.156875 0.450394
Si Si2 0.486118 0.250000 0.750000
Si Si3 0.367170 0.107402 0.810525
Si Si4 0.827294 0.988171 0.789958
Si Si5 0.576612 0.250000 0.250000
Si Si6 0.750000 0.750000 0.250000
O O1 0.750000 0.250000 0.492326
O O2 0.750000 0.101549 0.250000
O O3 0.632163 0.172337 0.310365
O O4 0.681399 0.097636 0.687810
O O5 0.435617 0.163588 0.755092
O O6 0.531471 0.257124 0.499136
O O7 0.351061 0.052033 0.556437
O O8 0.305417 0.179793 0.870270
O O9 0.371988 0.044573 0.056685
O O10 0.750000 0.954672 0.750000
#
# Coordination Sequence:
#
# PCOD9390577 Si02
#       6
#     8   4   8   8   4   2
#     4   9  22  44  73 103 131 173 231 286 352 411
#     4  11  24  45  65  92 137 186 238 266 329 414
#     4  11  24  39  65  97 138 176 227 273 336 397
#     4  12  22  40  64 104 138 167 215 294 343 393
#     4  10  23  46  68  93 128 188 232 278 334 405
#     4  10  20  42  60  94 128 186 218 274 326 390
#
# _framework density 22.348088000000001
#
# number of rings (size 3 to 8) (size 9 to 14) (size 15 to 20)
#    0.000    1.647    2.353    2.824    0.000    9.882 
#    0.000   13.529    0.000    0.000    0.000    0.000 
#    0.000    0.000    0.000    0.000    0.000    0.000 
#
# Total GULP energy -189561.927571 kJ/mol
# GULP energy per Si atom -5575.350811 kJ/mol
# Density = 2.229722 g / cm^3
# Si number density = 22.348088 Si / 1000 Ang^3
#
#
#
# Elastic Constant Matrix: (Units=GPa)
#
#
# Indices 1 2 3 4 5 6 
#
# 1 147.5027 47.0065 68.4056 0.0000 0.0000 0.0000
# 2 47.0065 109.6266 75.4390 0.0000 0.0000 0.0000
# 3 68.4056 75.4390 193.7063 0.0000 0.0000 0.0000
# 4 0.0000 0.0000 0.0000 -12.3696 0.0000 0.0000
# 5 0.0000 0.0000 0.0000 0.0000 27.8717 0.0000
# 6 0.0000 0.0000 0.0000 0.0000 0.0000 -33.8274
#
#
#
# Elastic Compliance Matrix: (Units=1/GPa)
#
#
# Indices 1 2 3 4 5 6 
#
# 1 0.008462 -0.002148 -0.002152 0.000000 0.000000 0.000000
# 2 -0.002148 0.013007 -0.004307 0.000000 0.000000 0.000000
# 3 -0.002152 -0.004307 0.007600 0.000000 0.000000 0.000000
# 4 0.000000 0.000000 0.000000 -0.080844 0.000000 0.000000
# 5 0.000000 0.000000 0.000000 0.000000 0.035879 0.000000
# 6 0.000000 0.000000 0.000000 0.000000 0.000000 -0.029562
#
#
# Mechanical properties :
#
#
# Convention : Reuss Voigt Hill
#
# Bulk Modulus (GPa) = 84.35047 92.50418 88.42732
# Shear Modulus (GPa) = -205.81298 13.66724 -96.07287
#
# Velocity S-wave (km/s) = -9.60698 2.47566 -6.56374
# Velocity P-wave (km/s) = 9.23217 7.04657 4.21775
#
# Compressibility (1/GPa) = 0.01185530
#
# Stress axis : x y z
#
# Youngs Moduli (GPa) = 118.17719 76.88425 131.58344
#
# Poissons Ratio (x) = 0.16511 0.28315
# Poissons Ratio (y) = 0.25379 0.56673
# Poissons Ratio (z) = 0.25430 0.33114
#
# Static dielectric constant tensor:
#      x y z
#    x 1.791570 0.000000 0.000000 
#    y 0.000000 1.944230 0.000000 
#    z 0.000000 0.000000 1.970110 
# 
# From -- ./inp_files/4059.got.cif
#   From: 2010.05.17/outbox.cif.g08.bks.cpg/sg48_3_cif.got.tgz:4059.got - 2010.06.03 20:39:00.
