data_PCOD9390406
_publ_section_title
;
Structure prediction by ZEFSAII (Michael W. Deem and Ramdas Pophale) SiO2 
 PCOD9390406
Probable space group: P N N N
;
_chemical_formula_sum "Si O2"
_cell_formula_units_Z 48
_cell_length_a 22.207499
_cell_length_b 8.330293
_cell_length_c 10.985803
_cell_angle_alpha 90.000000
_cell_angle_beta 90.000000
_cell_angle_gamma 90.000000
_cell_volume 2032.318335
_symmetry_space_group_name_H-M "P N N N"
_symmetry_group_IT_number 48
_space_group.IT_coordinate_system_code '2'
_symmetry_cell_setting 'orthorhombic'
loop_
_space_group_symop_operation_xyz
x,y,z
1/2-x,1/2-y,z
x,1/2-y,1/2-z
1/2-x,y,1/2-z
-x,-y,-z
1/2+x,1/2+y,-z
-x,1/2+y,1/2+z
1/2+x,-y,1/2+z
loop_
_atom_site_type_symbol
_atom_site_label
_atom_site_fract_x
_atom_site_fract_y
_atom_site_fract_z
Si Si1 0.170760 0.616596 0.531799
Si Si2 0.203599 0.992448 0.497665
Si Si3 0.416027 0.159470 0.938089
Si Si4 0.831422 0.067838 0.756338
Si Si5 0.943769 0.905295 0.702339
Si Si6 0.062203 0.499516 0.684209
O O1 0.179991 0.808052 0.514076
O O2 0.232730 0.523939 0.567059
O O3 0.160673 0.535301 0.399421
O O4 0.115926 0.598568 0.624363
O O5 0.207837 0.015823 0.350398
O O6 0.154958 0.125186 0.536908
O O7 0.427358 0.044321 0.824529
O O8 0.435047 0.334876 0.892136
O O9 0.453211 0.120264 0.059484
O O10 0.811330 0.250000 0.750000
O O11 0.899834 0.055378 0.708127
O O12 0.906912 0.750000 0.750000
O O13 0.997167 0.919704 0.800348
#
# Coordination Sequence:
#
# PCOD9390406 Si02
#       6
#     8   8   8   8   8   8
#     4  10  20  37  64  96 125 163 216 260 316 379
#     4   9  20  39  64  91 128 167 209 265 314 375
#     4  10  24  44  61  88 127 166 213 257 328 389
#     4   9  19  37  63  95 126 164 210 264 321 373
#     4  11  24  41  64  91 124 165 211 272 319 385
#     4  11  25  41  62  92 125 168 211 261 324 391
#
# _framework density 23.618348999999998
#
# number of rings (size 3 to 8) (size 9 to 14) (size 15 to 20)
#    0.000    2.000    0.000    2.000    4.667    6.000 
#    0.000    3.333    0.000    3.000    0.000    0.000 
#    0.000    0.000    0.000    0.000    0.000    0.000 
#
# Total GULP energy -267462.493037 kJ/mol
# GULP energy per Si atom -5572.135272 kJ/mol
# Density = 2.356459 g / cm^3
# Si number density = 23.618349 Si / 1000 Ang^3
#
#
#
# Elastic Constant Matrix: (Units=GPa)
#
#
# Indices 1 2 3 4 5 6 
#
# 1 119.4415 35.9971 51.6363 0.0000 0.0000 0.0000
# 2 35.9971 40.8716 34.3789 0.0000 0.0000 0.0000
# 3 51.6363 34.3789 107.0615 0.0000 0.0000 0.0000
# 4 0.0000 0.0000 0.0000 30.3727 0.0000 0.0000
# 5 0.0000 0.0000 0.0000 0.0000 40.5386 0.0000
# 6 0.0000 0.0000 0.0000 0.0000 0.0000 15.5123
#
#
#
# Elastic Compliance Matrix: (Units=1/GPa)
#
#
# Indices 1 2 3 4 5 6 
#
# 1 0.012210 -0.007947 -0.003337 0.000000 0.000000 0.000000
# 2 -0.007947 0.038693 -0.008592 0.000000 0.000000 0.000000
# 3 -0.003337 -0.008592 0.013709 0.000000 0.000000 0.000000
# 4 0.000000 0.000000 0.000000 0.032924 0.000000 0.000000
# 5 0.000000 0.000000 0.000000 0.000000 0.024668 0.000000
# 6 0.000000 0.000000 0.000000 0.000000 0.000000 0.064465
#
#
# Mechanical properties :
#
#
# Convention : Reuss Voigt Hill
#
# Bulk Modulus (GPa) = 40.22523 56.82213 48.52368
# Shear Modulus (GPa) = 21.30308 26.97552 24.13930
#
# Velocity S-wave (km/s) = 3.00654 3.38323 3.20043
# Velocity P-wave (km/s) = 5.39636 6.27474 5.85205
#
# Compressibility (1/GPa) = 0.02486002
#
# Stress axis : x y z
#
# Youngs Moduli (GPa) = 81.90028 25.84447 72.94488
#
# Poissons Ratio (x) = 0.20538 0.24343
# Poissons Ratio (y) = 0.65084 0.62675
# Poissons Ratio (z) = 0.27331 0.22206
#
# Static dielectric constant tensor:
#      x y z
#    x 2.046470 0.000000 0.000000 
#    y 0.000000 1.930230 0.000000 
#    z 0.000000 0.000000 1.893370 
# 
# From -- ./inp_files/23280.got.cif
#   From: 2010.05.17/outbox.cif.g08.bks.cpg/sg48_12_cif.got.tgz:23280.got - 2010.06.03 20:39:00.
