data_PCOD9390497
_publ_section_title
;
Structure prediction by ZEFSAII (Michael W. Deem and Ramdas Pophale) SiO2 
 PCOD9390497
Probable space group: P N N N
;
_chemical_formula_sum "Si O2"
_cell_formula_units_Z 64
_cell_length_a 7.864919
_cell_length_b 22.976668
_cell_length_c 17.003027
_cell_angle_alpha 90.000000
_cell_angle_beta 90.000000
_cell_angle_gamma 90.000000
_cell_volume 3072.610764
_symmetry_space_group_name_H-M "P N N N"
_symmetry_group_IT_number 48
_space_group.IT_coordinate_system_code '2'
_symmetry_cell_setting 'orthorhombic'
loop_
_space_group_symop_operation_xyz
x,y,z
1/2-x,1/2-y,z
x,1/2-y,1/2-z
1/2-x,y,1/2-z
-x,-y,-z
1/2+x,1/2+y,-z
-x,1/2+y,1/2+z
1/2+x,-y,1/2+z
loop_
_atom_site_type_symbol
_atom_site_label
_atom_site_fract_x
_atom_site_fract_y
_atom_site_fract_z
Si Si1 0.594047 0.483443 0.420360
Si Si2 0.346007 0.304803 0.618827
Si Si3 0.665483 0.060368 0.663534
Si Si4 0.122971 0.332209 0.463236
Si Si5 0.932530 0.222259 0.489138
Si Si6 0.734076 0.570670 0.657805
Si Si7 0.274212 0.080398 0.669275
Si Si8 0.240255 0.887666 0.001188
O O1 0.500000 0.500000 0.500000
O O2 0.456561 0.451836 0.364346
O O3 0.678922 0.542432 0.393395
O O4 0.747288 0.441205 0.442682
O O5 0.250000 0.250000 0.653724
O O6 0.246603 0.325539 0.538634
O O7 0.517791 0.279850 0.581511
O O8 0.331780 0.359873 0.673655
O O9 0.750000 0.068808 0.750000
O O10 0.475025 0.085756 0.658815
O O11 0.764042 0.090973 0.591126
O O12 0.662124 0.990494 0.648200
O O13 0.202726 0.376059 0.398335
O O14 0.064908 0.264799 0.444539
O O15 0.944344 0.359281 0.492077
O O16 0.750000 0.250000 0.477246
O O17 0.893003 0.154803 0.473056
O O18 0.750000 0.587127 0.750000
O O19 0.250000 0.046178 0.750000
#
# Coordination Sequence:
#
# PCOD9390497 Si02
#       8
#     8   8   8   8   8   8   8   8
#     4  12  24  38  63  97 125 170 220 268 319 394
#     4  10  21  38  62  87 120 164 223 268 318 384
#     4  11  24  39  60  95 139 176 211 267 336 403
#     4  10  20  39  62  91 122 167 217 272 317 384
#     4   9  20  36  62  92 121 157 214 275 322 369
#     4  11  23  40  62  94 137 172 212 268 340 397
#     4  12  25  40  61  90 132 174 214 268 337 395
#     4  11  21  37  65  91 124 165 219 268 321 382
#
# _framework density 20.829191999999999
#
# number of rings (size 3 to 8) (size 9 to 14) (size 15 to 20)
#    0.000    1.250    2.500    4.500    1.750    1.250 
#    0.000    0.000    0.000   12.750    0.000   10.500 
#    0.000    0.000    0.000    0.000    0.000    0.000 
#
# Total GULP energy -356607.601125 kJ/mol
# GULP energy per Si atom -5571.993768 kJ/mol
# Density = 2.078178 g / cm^3
# Si number density = 20.829192 Si / 1000 Ang^3
#
#
#
# Elastic Constant Matrix: (Units=GPa)
#
#
# Indices 1 2 3 4 5 6 
#
# 1 70.8916 13.5922 19.2971 0.0000 0.0000 0.0000
# 2 13.5922 109.8024 33.7714 0.0000 0.0000 0.0000
# 3 19.2971 33.7714 78.9112 0.0000 0.0000 0.0000
# 4 0.0000 0.0000 0.0000 11.6477 0.0000 0.0000
# 5 0.0000 0.0000 0.0000 0.0000 24.8445 0.0000
# 6 0.0000 0.0000 0.0000 0.0000 0.0000 19.3670
#
#
#
# Elastic Compliance Matrix: (Units=1/GPa)
#
#
# Indices 1 2 3 4 5 6 
#
# 1 0.015180 -0.000849 -0.003349 0.000000 0.000000 0.000000
# 2 -0.000849 0.010535 -0.004301 0.000000 0.000000 0.000000
# 3 -0.003349 -0.004301 0.015332 0.000000 0.000000 0.000000
# 4 0.000000 0.000000 0.000000 0.085854 0.000000 0.000000
# 5 0.000000 0.000000 0.000000 0.000000 0.040250 0.000000
# 6 0.000000 0.000000 0.000000 0.000000 0.000000 0.051634
#
#
# Mechanical properties :
#
#
# Convention : Reuss Voigt Hill
#
# Bulk Modulus (GPa) = 41.58067 43.65850 42.61959
# Shear Modulus (GPa) = 20.50849 24.03478 22.27164
#
# Velocity S-wave (km/s) = 3.14124 3.40059 3.27349
# Velocity P-wave (km/s) = 5.75870 6.03527 5.89860
#
# Compressibility (1/GPa) = 0.02404964
#
# Stress axis : x y z
#
# Youngs Moduli (GPa) = 65.87428 94.91940 65.22252
#
# Poissons Ratio (x) = 0.08060 0.21842
# Poissons Ratio (y) = 0.05594 0.28053
# Poissons Ratio (z) = 0.22060 0.40826
#
# Static dielectric constant tensor:
#      x y z
#    x 1.824000 0.000000 0.000000 
#    y 0.000000 1.830950 0.000000 
#    z 0.000000 0.000000 1.755510 
# 
# From -- ./inp_files/25747.got.cif
#   From: 2010.05.17/outbox.cif.g08.bks.cpg/sg48_13_cif.got.tgz:25747.got - 2010.06.03 20:39:00.
