data_PCOD9390728
_publ_section_title
;
Structure prediction by ZEFSAII (Michael W. Deem and Ramdas Pophale) SiO2 
 PCOD9390728
Probable space group: P N N N
;
_chemical_formula_sum "Si O2"
_cell_formula_units_Z 48
_cell_length_a 28.401601
_cell_length_b 15.110190
_cell_length_c 5.267969
_cell_angle_alpha 90.000000
_cell_angle_beta 90.000000
_cell_angle_gamma 90.000000
_cell_volume 2260.767795
_symmetry_space_group_name_H-M "P N N N"
_symmetry_group_IT_number 48
_space_group.IT_coordinate_system_code '2'
_symmetry_cell_setting 'orthorhombic'
loop_
_space_group_symop_operation_xyz
x,y,z
1/2-x,1/2-y,z
x,1/2-y,1/2-z
1/2-x,y,1/2-z
-x,-y,-z
1/2+x,1/2+y,-z
-x,1/2+y,1/2+z
1/2+x,-y,1/2+z
loop_
_atom_site_type_symbol
_atom_site_label
_atom_site_fract_x
_atom_site_fract_y
_atom_site_fract_z
Si Si1 0.000535 0.886232 0.257809
Si Si2 0.454263 0.420254 0.244652
Si Si3 0.306179 0.937371 0.800331
Si Si4 0.416785 0.750000 0.250000
Si Si5 0.344861 0.038564 0.308757
Si Si6 0.645738 0.250000 0.250000
Si Si7 0.728918 0.650870 0.990862
O O1 0.965961 0.872193 0.493358
O O2 0.048075 0.831601 0.293332
O O3 0.973801 0.866904 0.996047
O O4 0.016117 0.988550 0.250243
O O5 0.400088 0.447386 0.222927
O O6 0.250000 0.934999 0.750000
O O7 0.324073 0.836580 0.819629
O O8 0.330217 0.977252 0.546004
O O9 0.324307 0.994322 0.047195
O O10 0.386046 0.767224 0.500694
O O11 0.324688 0.134015 0.418471
O O12 0.750000 0.750000 0.989521
O O13 0.750000 0.600913 0.750000
O O14 0.750000 0.614821 0.250000
#
# Coordination Sequence:
#
# PCOD9390728 Si02
#       7
#     8   8   8   4   8   4   8
#     4  10  21  39  61  86 122 156 197 254 316 371
#     4  10  21  38  61  89 119 158 202 253 307 373
#     4  12  25  41  64  94 131 169 214 272 327 386
#     4  12  24  42  67  94 126 170 213 262 328 400
#     4  12  23  40  66  94 123 168 223 263 319 396
#     4  12  25  42  64  94 130 168 216 266 327 398
#     4  10  21  39  61  87 121 163 209 261 317 371
#
# _framework density 21.231725999999998
#
# number of rings (size 3 to 8) (size 9 to 14) (size 15 to 20)
#    0.000    1.000    0.000    8.250    0.000    2.667 
#    0.000    7.500    0.000    0.000    0.000    0.000 
#    0.000    0.000    0.000    0.000    0.000    0.000 
#
# Total GULP energy -267580.556756 kJ/mol
# GULP energy per Si atom -5574.594932 kJ/mol
# Density = 2.118340 g / cm^3
# Si number density = 21.231726 Si / 1000 Ang^3
#
#
#
# Elastic Constant Matrix: (Units=GPa)
#
#
# Indices 1 2 3 4 5 6 
#
# 1 144.7590 22.7972 75.8404 0.0000 0.0000 0.0000
# 2 22.7972 76.5135 28.1300 0.0000 0.0000 0.0000
# 3 75.8404 28.1300 192.1511 0.0000 0.0000 0.0000
# 4 0.0000 0.0000 0.0000 14.7723 0.0000 0.0000
# 5 0.0000 0.0000 0.0000 0.0000 36.4885 0.0000
# 6 0.0000 0.0000 0.0000 0.0000 0.0000 22.4631
#
#
#
# Elastic Compliance Matrix: (Units=1/GPa)
#
#
# Indices 1 2 3 4 5 6 
#
# 1 0.008855 -0.001430 -0.003285 0.000000 0.000000 0.000000
# 2 -0.001430 0.014044 -0.001491 0.000000 0.000000 0.000000
# 3 -0.003285 -0.001491 0.006719 0.000000 0.000000 0.000000
# 4 0.000000 0.000000 0.000000 0.067694 0.000000 0.000000
# 5 0.000000 0.000000 0.000000 0.000000 0.027406 0.000000
# 6 0.000000 0.000000 0.000000 0.000000 0.000000 0.044517
#
#
# Mechanical properties :
#
#
# Convention : Reuss Voigt Hill
#
# Bulk Modulus (GPa) = 58.12757 74.10650 66.11704
# Shear Modulus (GPa) = 26.68313 33.85519 30.26916
#
# Velocity S-wave (km/s) = 3.54892 3.99752 3.77988
# Velocity P-wave (km/s) = 6.65058 7.50242 7.08931
#
# Compressibility (1/GPa) = 0.01720354
#
# Stress axis : x y z
#
# Youngs Moduli (GPa) = 112.93635 71.20437 148.82495
#
# Poissons Ratio (x) = 0.10185 0.48895
# Poissons Ratio (y) = 0.16154 0.22196
# Poissons Ratio (z) = 0.37104 0.10620
#
# Static dielectric constant tensor:
#      x y z
#    x 1.791760 0.000000 0.000000 
#    y 0.000000 1.823030 0.000000 
#    z 0.000000 0.000000 1.773290 
# 
# From -- ./inp_files/6496.got.cif
#   From: 2010.05.17/outbox.cif.g08.bks.cpg/sg48_4_cif.got.tgz:6496.got - 2010.06.03 20:39:00.
