data_PCOD9390107
_publ_section_title
;
Structure prediction by ZEFSAII (Michael W. Deem and Ramdas Pophale) SiO2 
 PCOD9390107
Probable space group: P N N N
;
_chemical_formula_sum "Si O2"
_cell_formula_units_Z 64
_cell_length_a 28.718138
_cell_length_b 12.202008
_cell_length_c 8.387261
_cell_angle_alpha 90.000000
_cell_angle_beta 90.000000
_cell_angle_gamma 90.000000
_cell_volume 2939.055190
_symmetry_space_group_name_H-M "P N N N"
_symmetry_group_IT_number 48
_space_group.IT_coordinate_system_code '2'
_symmetry_cell_setting 'orthorhombic'
loop_
_space_group_symop_operation_xyz
x,y,z
1/2-x,1/2-y,z
x,1/2-y,1/2-z
1/2-x,y,1/2-z
-x,-y,-z
1/2+x,1/2+y,-z
-x,1/2+y,1/2+z
1/2+x,-y,1/2+z
loop_
_atom_site_type_symbol
_atom_site_label
_atom_site_fract_x
_atom_site_fract_y
_atom_site_fract_z
Si Si1 0.750318 0.027952 0.057472
Si Si2 0.854067 0.096160 0.425031
Si Si3 0.708955 0.816470 0.580292
Si Si4 0.932273 0.919116 0.512102
Si Si5 0.390510 0.203991 0.568847
Si Si6 0.657136 0.351469 0.054006
Si Si7 0.070114 0.533158 0.496936
Si Si8 0.506731 0.999342 0.252317
O O1 0.750000 0.998288 0.250000
O O2 0.696649 0.053201 0.021212
O O3 0.787857 0.126448 0.037591
O O4 0.770295 0.938308 0.934008
O O5 0.853508 0.099638 0.231304
O O6 0.855670 0.224730 0.465340
O O7 0.895031 0.018227 0.491193
O O8 0.750000 0.750000 0.494241
O O9 0.702330 0.750000 0.750000
O O10 0.661988 0.820670 0.481638
O O11 0.906269 0.806439 0.536197
O O12 0.963488 0.916739 0.353010
O O13 0.970931 0.935793 0.644277
O O14 0.391327 0.250000 0.750000
O O15 0.420553 0.096000 0.530075
O O16 0.619480 0.416826 0.949399
O O17 0.045315 0.573117 0.659624
O O18 0.028952 0.555397 0.374023
#
# Coordination Sequence:
#
# PCOD9390107 Si02
#       8
#     8   8   8   8   8   8   8   8
#     4  10  21  38  67  97 138 175 223 269 331 397
#     4  10  20  38  65  99 134 175 213 278 323 391
#     4  11  26  41  62  99 135 177 218 264 328 400
#     4  11  23  44  61  97 132 171 226 274 338 403
#     4  12  24  41  70  96 136 173 222 276 339 404
#     4  10  19  38  65  99 134 168 226 268 326 393
#     4  11  22  45  64  96 129 169 224 281 336 398
#     4  10  24  44  63  89 129 173 224 273 344 393
#
# _framework density 21.775704999999999
#
# number of rings (size 3 to 8) (size 9 to 14) (size 15 to 20)
#    0.000    1.375    3.750    1.125    5.250    1.500 
#   13.500    0.000    0.000    0.000    0.000    5.250 
#    0.000    0.000    0.000    0.000    0.000    0.250 
#
# Total GULP energy -356631.468199 kJ/mol
# GULP energy per Si atom -5572.366691 kJ/mol
# Density = 2.172614 g / cm^3
# Si number density = 21.775705 Si / 1000 Ang^3
#
#
#
# Elastic Constant Matrix: (Units=GPa)
#
#
# Indices 1 2 3 4 5 6 
#
# 1 166.3987 47.2829 27.0165 0.0000 0.0000 0.0000
# 2 47.2829 86.3587 13.5074 0.0000 0.0000 0.0000
# 3 27.0165 13.5074 38.0034 0.0000 0.0000 0.0000
# 4 0.0000 0.0000 0.0000 10.0527 0.0000 0.0000
# 5 0.0000 0.0000 0.0000 0.0000 5.6888 0.0000
# 6 0.0000 0.0000 0.0000 0.0000 0.0000 -27.9810
#
#
#
# Elastic Compliance Matrix: (Units=1/GPa)
#
#
# Indices 1 2 3 4 5 6 
#
# 1 0.007705 -0.003560 -0.004212 0.000000 0.000000 0.000000
# 2 -0.003560 0.013906 -0.002412 0.000000 0.000000 0.000000
# 3 -0.004212 -0.002412 0.030165 0.000000 0.000000 0.000000
# 4 0.000000 0.000000 0.000000 0.099476 0.000000 0.000000
# 5 0.000000 0.000000 0.000000 0.000000 0.175785 0.000000
# 6 0.000000 0.000000 0.000000 0.000000 0.000000 -0.035739
#
#
# Mechanical properties :
#
#
# Convention : Reuss Voigt Hill
#
# Bulk Modulus (GPa) = 31.83876 51.81937 41.82906
# Shear Modulus (GPa) = 15.52139 11.08236 13.30188
#
# Velocity S-wave (km/s) = 2.67270 2.25840 2.47424
# Velocity P-wave (km/s) = 4.91705 5.53616 5.23576
#
# Compressibility (1/GPa) = 0.03140826
#
# Stress axis : x y z
#
# Youngs Moduli (GPa) = 129.78392 71.91180 33.15087
#
# Poissons Ratio (x) = 0.25600 0.13964
# Poissons Ratio (y) = 0.46201 0.07995
# Poissons Ratio (z) = 0.54669 0.17344
#
# Static dielectric constant tensor:
#      x y z
#    x 1.800180 0.000000 0.000000 
#    y 0.000000 1.800170 0.000000 
#    z 0.000000 0.000000 1.973650 
# 
# From -- ./inp_files/16927.got.cif
#   From: 2010.05.17/outbox.cif.g08.bks.cpg/sg48_9_cif.got.tgz:16927.got - 2010.06.03 20:39:00.
