data_PCOD9390338
_publ_section_title
;
Structure prediction by ZEFSAII (Michael W. Deem and Ramdas Pophale) SiO2 
 PCOD9390338
Probable space group: P N N N
;
_chemical_formula_sum "Si O2"
_cell_formula_units_Z 64
_cell_length_a 19.571512
_cell_length_b 13.727423
_cell_length_c 11.659268
_cell_angle_alpha 90.000000
_cell_angle_beta 90.000000
_cell_angle_gamma 90.000000
_cell_volume 3132.453840
_symmetry_space_group_name_H-M "P N N N"
_symmetry_group_IT_number 48
_space_group.IT_coordinate_system_code '2'
_symmetry_cell_setting 'orthorhombic'
loop_
_space_group_symop_operation_xyz
x,y,z
1/2-x,1/2-y,z
x,1/2-y,1/2-z
1/2-x,y,1/2-z
-x,-y,-z
1/2+x,1/2+y,-z
-x,1/2+y,1/2+z
1/2+x,-y,1/2+z
loop_
_atom_site_type_symbol
_atom_site_label
_atom_site_fract_x
_atom_site_fract_y
_atom_site_fract_z
Si Si1 0.380811 0.827979 0.039666
Si Si2 0.464518 0.893938 0.818206
Si Si3 0.117127 0.357653 0.217114
Si Si4 0.423950 0.862019 0.561076
Si Si5 0.010262 0.122818 0.682987
Si Si6 0.443645 0.202568 0.571644
Si Si7 0.780575 0.011074 0.622240
Si Si8 0.139398 0.445160 0.462297
O O1 0.434667 0.844070 0.143725
O O2 0.316183 0.892533 0.072912
O O3 0.418218 0.869656 0.926674
O O4 0.373835 0.714863 0.003397
O O5 0.539604 0.846146 0.825164
O O6 0.427809 0.863828 0.699073
O O7 0.479897 0.008631 0.821920
O O8 0.144399 0.250000 0.250000
O O9 0.165141 0.422335 0.135409
O O10 0.115006 0.420920 0.333804
O O11 0.498647 0.828311 0.519041
O O12 0.405464 0.968887 0.516574
O O13 0.058197 0.182896 0.595352
O O14 0.029166 0.156886 0.809787
O O15 0.374242 0.152363 0.534066
O O16 0.750000 0.028956 0.750000
O O17 0.717353 0.977448 0.545120
#
# Coordination Sequence:
#
# PCOD9390338 Si02
#       8
#     8   8   8   8   8   8   8   8
#     4  11  24  40  61  99 133 166 217 271 335 377
#     4  12  21  39  66  99 131 165 210 281 336 382
#     4  11  23  39  66  98 131 166 213 263 331 392
#     4  11  22  38  66  94 126 170 215 271 326 389
#     4  10  21  35  62  98 130 161 208 280 331 371
#     4  10  20  36  61  96 128 164 216 271 327 379
#     4  10  25  43  61  91 131 179 217 260 320 393
#     4  11  22  40  63  87 128 176 220 259 314 396
#
# _framework density 20.431267999999999
#
# number of rings (size 3 to 8) (size 9 to 14) (size 15 to 20)
#    0.000    1.250    3.750    2.625    3.500    2.750 
#    0.000    2.500    0.000    1.500    0.000    0.000 
#    0.000    0.000    0.000    0.000    0.000    0.000 
#
# Total GULP energy -357637.152511 kJ/mol
# GULP energy per Si atom -5588.080508 kJ/mol
# Density = 2.038477 g / cm^3
# Si number density = 20.431268 Si / 1000 Ang^3
#
#
#
# Elastic Constant Matrix: (Units=GPa)
#
#
# Indices 1 2 3 4 5 6 
#
# 1 83.0181 26.4376 33.7530 0.0000 0.0000 0.0000
# 2 26.4376 98.5893 7.2234 0.0000 0.0000 0.0000
# 3 33.7530 7.2234 86.8974 0.0000 0.0000 0.0000
# 4 0.0000 0.0000 0.0000 34.8292 0.0000 0.0000
# 5 0.0000 0.0000 0.0000 0.0000 23.2037 0.0000
# 6 0.0000 0.0000 0.0000 0.0000 0.0000 30.9794
#
#
#
# Elastic Compliance Matrix: (Units=1/GPa)
#
#
# Indices 1 2 3 4 5 6 
#
# 1 0.015574 -0.003756 -0.005737 0.000000 0.000000 0.000000
# 2 -0.003756 0.011111 0.000535 0.000000 0.000000 0.000000
# 3 -0.005737 0.000535 0.013692 0.000000 0.000000 0.000000
# 4 0.000000 0.000000 0.000000 0.028712 0.000000 0.000000
# 5 0.000000 0.000000 0.000000 0.000000 0.043097 0.000000
# 6 0.000000 0.000000 0.000000 0.000000 0.000000 0.032280
#
#
# Mechanical properties :
#
#
# Convention : Reuss Voigt Hill
#
# Bulk Modulus (GPa) = 44.52095 44.81475 44.66785
# Shear Modulus (GPa) = 29.43466 31.20850 30.32158
#
# Velocity S-wave (km/s) = 3.79973 3.91255 3.85655
# Velocity P-wave (km/s) = 6.41003 6.51097 6.46070
#
# Compressibility (1/GPa) = 0.02246133
#
# Stress axis : x y z
#
# Youngs Moduli (GPa) = 64.20842 90.00021 73.03646
#
# Poissons Ratio (x) = 0.33804 0.41902
# Poissons Ratio (y) = 0.24117 -0.03910
# Poissons Ratio (z) = 0.36838 -0.04818
#
# Static dielectric constant tensor:
#      x y z
#    x 1.715400 0.000000 0.000000 
#    y 0.000000 1.785270 0.000000 
#    z 0.000000 0.000000 1.738040 
# 
# From -- ./inp_files/22341.got.cif
#   From: 2010.05.17/outbox.cif.g08.bks.cpg/sg48_12_cif.got.tgz:22341.got - 2010.06.03 20:39:00.
