data_PCOD9390462
_publ_section_title
;
Structure prediction by ZEFSAII (Michael W. Deem and Ramdas Pophale) SiO2 
 PCOD9390462
Probable space group: P N N N
;
_chemical_formula_sum "Si O2"
_cell_formula_units_Z 36
_cell_length_a 18.461255
_cell_length_b 19.004343
_cell_length_c 5.144046
_cell_angle_alpha 90.000000
_cell_angle_beta 90.000000
_cell_angle_gamma 90.000000
_cell_volume 1804.757789
_symmetry_space_group_name_H-M "P N N N"
_symmetry_group_IT_number 48
_space_group.IT_coordinate_system_code '2'
_symmetry_cell_setting 'orthorhombic'
loop_
_space_group_symop_operation_xyz
x,y,z
1/2-x,1/2-y,z
x,1/2-y,1/2-z
1/2-x,y,1/2-z
-x,-y,-z
1/2+x,1/2+y,-z
-x,1/2+y,1/2+z
1/2+x,-y,1/2+z
loop_
_atom_site_type_symbol
_atom_site_label
_atom_site_fract_x
_atom_site_fract_y
_atom_site_fract_z
Si Si1 0.462865 0.589301 0.352819
Si Si2 0.523788 0.322210 0.121571
Si Si3 0.250000 0.407223 0.750000
Si Si4 0.642326 0.677160 0.876063
Si Si5 0.113011 0.047196 0.503372
O O1 0.467964 0.621550 0.643492
O O2 0.411922 0.521373 0.349068
O O3 0.545580 0.562650 0.304019
O O4 0.441306 0.645824 0.136935
O O5 0.550522 0.250000 0.250000
O O6 0.440092 0.307761 0.030494
O O7 0.201534 0.355514 0.569052
O O8 0.309842 0.459263 0.634153
O O9 0.667411 0.750000 0.750000
O O10 0.627181 0.616711 0.665826
#
# Coordination Sequence:
#
# PCOD9390462 Si02
#       5
#     8   8   4   8   8
#     4  10  21  38  61  88 120 159 199 262 302 365
#     4  10  20  38  64  90 120 154 203 254 314 362
#     4  12  22  39  56  80 121 172 212 250 301 382
#     4  10  23  38  55  84 121 167 207 248 284 363
#     4  10  23  35  57  83 122 160 209 245 311 353
#
# _framework density 19.947275999999999
#
# number of rings (size 3 to 8) (size 9 to 14) (size 15 to 20)
#    0.000    1.778    2.222    1.333    3.111    6.222 
#    0.000    0.000    0.000    0.000    0.000    0.778 
#    0.000    0.000    0.000    0.000    0.000    0.000 
#
# Total GULP energy -200745.447450 kJ/mol
# GULP energy per Si atom -5576.262429 kJ/mol
# Density = 1.990188 g / cm^3
# Si number density = 19.947276 Si / 1000 Ang^3
#
#
#
# Elastic Constant Matrix: (Units=GPa)
#
#
# Indices 1 2 3 4 5 6 
#
# 1 62.3916 66.8732 47.1457 0.0000 0.0000 0.0000
# 2 66.8732 124.5024 40.3068 0.0000 0.0000 0.0000
# 3 47.1457 40.3068 73.9110 0.0000 0.0000 0.0000
# 4 0.0000 0.0000 0.0000 35.8633 0.0000 0.0000
# 5 0.0000 0.0000 0.0000 0.0000 -258.8073 0.0000
# 6 0.0000 0.0000 0.0000 0.0000 0.0000 37.4792
#
#
#
# Elastic Compliance Matrix: (Units=1/GPa)
#
#
# Indices 1 2 3 4 5 6 
#
# 1 0.063324 -0.025425 -0.026527 0.000000 0.000000 0.000000
# 2 -0.025425 0.019962 0.005332 0.000000 0.000000 0.000000
# 3 -0.026527 0.005332 0.027543 0.000000 0.000000 0.000000
# 4 0.000000 0.000000 0.000000 0.027884 0.000000 0.000000
# 5 0.000000 0.000000 0.000000 0.000000 -0.003864 0.000000
# 6 0.000000 0.000000 0.000000 0.000000 0.000000 0.026681
#
#
# Mechanical properties :
#
#
# Convention : Reuss Voigt Hill
#
# Bulk Modulus (GPa) = 56.85609 63.27293 60.06451
# Shear Modulus (GPa) = 19.18393 -29.99433 -5.40520
#
# Velocity S-wave (km/s) = 3.10454 -3.88194 -1.64792
# Velocity P-wave (km/s) = 6.43553 3.41999 5.15327
#
# Compressibility (1/GPa) = 0.01758827
#
# Stress axis : x y z
#
# Youngs Moduli (GPa) = 15.79180 50.09467 36.30647
#
# Poissons Ratio (x) = 1.27365 0.96311
# Poissons Ratio (y) = 0.40150 -0.19357
# Poissons Ratio (z) = 0.41891 -0.26708
#
# Static dielectric constant tensor:
#      x y z
#    x 1.739300 0.000000 0.000000 
#    y 0.000000 1.717600 0.000000 
#    z 0.000000 0.000000 1.799900 
# 
# From -- ./inp_files/5051.got.cif
#   From: 2010.05.17/outbox.cif.g08.bks.cpg/sg48_3_cif.got.tgz:5051.got - 2010.06.03 20:39:00.
