data_PCOD9390590
_publ_section_title
;
Structure prediction by ZEFSAII (Michael W. Deem and Ramdas Pophale) SiO2 
 PCOD9390590
Probable space group: P N N N
;
_chemical_formula_sum "Si O2"
_cell_formula_units_Z 64
_cell_length_a 9.230031
_cell_length_b 14.839956
_cell_length_c 22.170249
_cell_angle_alpha 90.000000
_cell_angle_beta 90.000000
_cell_angle_gamma 90.000000
_cell_volume 3036.731146
_symmetry_space_group_name_H-M "P N N N"
_symmetry_group_IT_number 48
_space_group.IT_coordinate_system_code '2'
_symmetry_cell_setting 'orthorhombic'
loop_
_space_group_symop_operation_xyz
x,y,z
1/2-x,1/2-y,z
x,1/2-y,1/2-z
1/2-x,y,1/2-z
-x,-y,-z
1/2+x,1/2+y,-z
-x,1/2+y,1/2+z
1/2+x,-y,1/2+z
loop_
_atom_site_type_symbol
_atom_site_label
_atom_site_fract_x
_atom_site_fract_y
_atom_site_fract_z
Si Si1 0.943551 0.399910 0.575780
Si Si2 0.234884 0.493013 0.579755
Si Si3 0.272868 0.442384 0.451411
Si Si4 0.008555 0.003921 0.346775
Si Si5 0.573131 0.359061 0.243587
Si Si6 0.227982 0.643275 0.183374
Si Si7 0.112224 0.810139 0.955606
Si Si8 0.884471 0.693274 0.634666
O O1 0.856148 0.484181 0.548456
O O2 0.847091 0.379362 0.633478
O O3 0.955153 0.328265 0.521557
O O4 0.101007 0.429744 0.594033
O O5 0.314871 0.448623 0.521256
O O6 0.344160 0.495812 0.634141
O O7 0.171273 0.593434 0.568475
O O8 0.400724 0.463714 0.405138
O O9 0.195264 0.358484 0.420173
O O10 0.007096 0.078728 0.293497
O O11 0.078585 0.905949 0.334064
O O12 0.561660 0.250000 0.250000
O O13 0.750000 0.376777 0.250000
O O14 0.474122 0.368527 0.182301
O O15 0.250000 0.750000 0.187222
O O16 0.250000 0.604754 0.250000
O O17 0.250000 0.750000 0.966878
O O18 0.013699 0.761817 0.904621
O O19 0.750000 0.750000 0.662538
#
# Coordination Sequence:
#
# PCOD9390590 Si02
#       8
#     8   8   8   8   8   8   8   8
#     4  10  20  43  68  93 130 173 219 283 353 413
#     4  11  21  43  68  99 133 175 228 284 348 419
#     4  10  21  40  63  96 131 176 223 280 344 411
#     4  11  25  40  70  97 131 184 230 283 349 417
#     4  11  27  45  65  99 147 196 242 289 341 419
#     4  10  24  46  70  96 127 170 227 286 351 425
#     4  11  23  39  65  96 135 182 224 280 350 414
#     4  12  25  41  65  99 143 185 235 287 348 409
#
# _framework density 21.075294
#
# number of rings (size 3 to 8) (size 9 to 14) (size 15 to 20)
#    0.000    1.250    2.500    3.000    8.750    1.250 
#    2.250    0.625    0.000    1.500    0.000    0.000 
#    0.000    0.000    0.000    0.000    0.000    0.000 
#
# Total GULP energy -356435.488297 kJ/mol
# GULP energy per Si atom -5569.304505 kJ/mol
# Density = 2.102733 g / cm^3
# Si number density = 21.075294 Si / 1000 Ang^3
#
#
#
# Elastic Constant Matrix: (Units=GPa)
#
#
# Indices 1 2 3 4 5 6 
#
# 1 90.6304 30.3987 38.1514 0.0000 0.0000 0.0000
# 2 30.3987 54.1165 24.8759 0.0000 0.0000 0.0000
# 3 38.1514 24.8759 101.9731 0.0000 0.0000 0.0000
# 4 0.0000 0.0000 0.0000 17.5649 0.0000 0.0000
# 5 0.0000 0.0000 0.0000 0.0000 21.6610 0.0000
# 6 0.0000 0.0000 0.0000 0.0000 0.0000 11.1967
#
#
#
# Elastic Compliance Matrix: (Units=1/GPa)
#
#
# Indices 1 2 3 4 5 6 
#
# 1 0.014904 -0.006542 -0.003980 0.000000 0.000000 0.000000
# 2 -0.006542 0.023684 -0.003330 0.000000 0.000000 0.000000
# 3 -0.003980 -0.003330 0.012108 0.000000 0.000000 0.000000
# 4 0.000000 0.000000 0.000000 0.056932 0.000000 0.000000
# 5 0.000000 0.000000 0.000000 0.000000 0.046166 0.000000
# 6 0.000000 0.000000 0.000000 0.000000 0.000000 0.089312
#
#
# Mechanical properties :
#
#
# Convention : Reuss Voigt Hill
#
# Bulk Modulus (GPa) = 43.49467 48.17465 45.83466
# Shear Modulus (GPa) = 17.95501 20.30412 19.12957
#
# Velocity S-wave (km/s) = 2.92198 3.10725 3.01604
# Velocity P-wave (km/s) = 5.66273 5.98175 5.82442
#
# Compressibility (1/GPa) = 0.02299132
#
# Stress axis : x y z
#
# Youngs Moduli (GPa) = 67.09802 42.22201 82.59089
#
# Poissons Ratio (x) = 0.27623 0.32871
# Poissons Ratio (y) = 0.43897 0.27503
# Poissons Ratio (z) = 0.26705 0.14060
#
# Static dielectric constant tensor:
#      x y z
#    x 1.797120 0.000000 0.000000 
#    y 0.000000 1.765520 0.000000 
#    z 0.000000 0.000000 -5.976080 
# 
# From -- ./inp_files/35994.got.cif
#   From: 2010.05.17/outbox.cif.g08.bks.cpg/sg48_18_cif.got.tgz:35994.got - 2010.06.03 20:39:00.
