data_PCOD9390917
_publ_section_title
;
Structure prediction by ZEFSAII (Michael W. Deem and Ramdas Pophale) SiO2 
 PCOD9390917
Probable space group: P N N N
;
_chemical_formula_sum "Si O2"
_cell_formula_units_Z 58
_cell_length_a 8.328720
_cell_length_b 27.037067
_cell_length_c 11.523730
_cell_angle_alpha 90.000000
_cell_angle_beta 90.000000
_cell_angle_gamma 90.000000
_cell_volume 2594.961468
_symmetry_space_group_name_H-M "P N N N"
_symmetry_group_IT_number 48
_space_group.IT_coordinate_system_code '2'
_symmetry_cell_setting 'orthorhombic'
loop_
_space_group_symop_operation_xyz
x,y,z
1/2-x,1/2-y,z
x,1/2-y,1/2-z
1/2-x,y,1/2-z
-x,-y,-z
1/2+x,1/2+y,-z
-x,1/2+y,1/2+z
1/2+x,-y,1/2+z
loop_
_atom_site_type_symbol
_atom_site_label
_atom_site_fract_x
_atom_site_fract_y
_atom_site_fract_z
Si Si1 0.250000 0.250000 0.250000
Si Si2 0.055399 0.535144 0.893642
Si Si3 0.770715 0.376968 0.386655
Si Si4 0.067133 0.270523 0.630316
Si Si5 0.430660 0.548043 0.261426
Si Si6 0.010841 0.299149 0.061810
Si Si7 0.886126 0.896581 0.466679
Si Si8 0.535264 0.881940 0.432926
O O1 0.127231 0.282345 0.168445
O O2 0.041703 0.500382 0.782285
O O3 0.213647 0.566809 0.917403
O O4 0.928594 0.579719 0.908283
O O5 0.000000 0.500000 0.000000
O O6 0.750000 0.376846 0.250000
O O7 0.651362 0.331487 0.420170
O O8 0.942654 0.371819 0.447010
O O9 0.250000 0.250000 0.624507
O O10 0.996124 0.250000 0.750000
O O11 0.981150 0.248716 0.516695
O O12 0.059896 0.329322 0.628406
O O13 0.250000 0.528212 0.250000
O O14 0.491758 0.584232 0.367121
O O15 0.436958 0.582308 0.149545
O O16 0.107855 0.338182 0.982779
O O17 0.705119 0.909463 0.439407
#
# Coordination Sequence:
#
# PCOD9390917 Si02
#       8
#     2   8   8   8   8   8   8   8
#     4  12  24  40  76  92 132 184 258 286 348 460
#     4   9  21  44  66  93 133 181 228 295 354 432
#     4  11  28  46  67  98 151 184 243 302 367 432
#     4  11  23  41  70 104 141 176 243 297 360 441
#     4  11  23  42  70 102 137 179 229 293 368 433
#     4  11  23  45  67  99 136 184 236 293 357 430
#     4  10  21  41  69  98 137 179 234 285 357 431
#     4  12  24  42  68 105 139 187 232 299 361 439
#
# _framework density 22.351008
#
# number of rings (size 3 to 8) (size 9 to 14) (size 15 to 20)
#    0.000    1.241    2.069    3.724    5.793    3.862 
#    2.483    4.828    0.000    0.000    0.000    0.000 
#    0.000    0.000    0.000    0.000    0.000    0.000 
#
# Total GULP energy -322934.038338 kJ/mol
# GULP energy per Si atom -5567.828247 kJ/mol
# Density = 2.230014 g / cm^3
# Si number density = 22.351008 Si / 1000 Ang^3
#
#
#
# Elastic Constant Matrix: (Units=GPa)
#
#
# Indices 1 2 3 4 5 6 
#
# 1 63.5575 5.5165 19.9855 0.0000 0.0000 0.0000
# 2 5.5165 82.8534 6.9078 0.0000 0.0000 0.0000
# 3 19.9855 6.9078 89.9578 0.0000 0.0000 0.0000
# 4 0.0000 0.0000 0.0000 20.2340 0.0000 0.0000
# 5 0.0000 0.0000 0.0000 0.0000 12.5310 0.0000
# 6 0.0000 0.0000 0.0000 0.0000 0.0000 21.8335
#
#
#
# Elastic Compliance Matrix: (Units=1/GPa)
#
#
# Indices 1 2 3 4 5 6 
#
# 1 0.016971 -0.000821 -0.003707 0.000000 0.000000 0.000000
# 2 -0.000821 0.012187 -0.000753 0.000000 0.000000 0.000000
# 3 -0.003707 -0.000753 0.011998 0.000000 0.000000 0.000000
# 4 0.000000 0.000000 0.000000 0.049422 0.000000 0.000000
# 5 0.000000 0.000000 0.000000 0.000000 0.079802 0.000000
# 6 0.000000 0.000000 0.000000 0.000000 0.000000 0.045801
#
#
# Mechanical properties :
#
#
# Convention : Reuss Voigt Hill
#
# Bulk Modulus (GPa) = 32.68791 33.46539 33.07665
# Shear Modulus (GPa) = 21.10228 24.51695 22.80962
#
# Velocity S-wave (km/s) = 3.07601 3.31555 3.19802
# Velocity P-wave (km/s) = 5.22229 5.44631 5.33548
#
# Compressibility (1/GPa) = 0.03059235
#
# Stress axis : x y z
#
# Youngs Moduli (GPa) = 58.92481 82.05470 83.34851
#
# Poissons Ratio (x) = 0.06736 0.30900
# Poissons Ratio (y) = 0.04837 0.06280
# Poissons Ratio (z) = 0.21845 0.06183
#
# Static dielectric constant tensor:
#      x y z
#    x 1.899630 0.000000 0.000000 
#    y 0.000000 2.009910 0.000000 
#    z 0.000000 0.000000 1.906200 
# 
# From -- ./inp_files/18982.got.cif
#   From: 2010.05.17/outbox.cif.g08.bks.cpg/sg48_10_cif.got.tgz:18982.got - 2010.06.03 20:39:00.
