data_PCOD9390268
_publ_section_title
;
Structure prediction by ZEFSAII (Michael W. Deem and Ramdas Pophale) SiO2 
 PCOD9390268
Probable space group: P N N N
;
_chemical_formula_sum "Si O2"
_cell_formula_units_Z 48
_cell_length_a 8.754327
_cell_length_b 10.233305
_cell_length_c 27.707812
_cell_angle_alpha 90.000000
_cell_angle_beta 90.000000
_cell_angle_gamma 90.000000
_cell_volume 2482.223685
_symmetry_space_group_name_H-M "P N N N"
_symmetry_group_IT_number 48
_space_group.IT_coordinate_system_code '2'
_symmetry_cell_setting 'orthorhombic'
loop_
_space_group_symop_operation_xyz
x,y,z
1/2-x,1/2-y,z
x,1/2-y,1/2-z
1/2-x,y,1/2-z
-x,-y,-z
1/2+x,1/2+y,-z
-x,1/2+y,1/2+z
1/2+x,-y,1/2+z
loop_
_atom_site_type_symbol
_atom_site_label
_atom_site_fract_x
_atom_site_fract_y
_atom_site_fract_z
Si Si1 0.427276 0.900442 0.344097
Si Si2 0.580475 0.545354 0.062114
Si Si3 0.920013 0.414626 0.855670
Si Si4 0.424949 0.091023 0.755094
Si Si5 0.074927 0.956538 0.550654
Si Si6 0.921325 0.701856 0.525629
O O1 0.558091 0.941022 0.381312
O O2 0.258646 0.951701 0.356420
O O3 0.422693 0.743341 0.351308
O O4 0.471981 0.945010 0.290699
O O5 0.747044 0.491272 0.049574
O O6 0.452901 0.441883 0.045768
O O7 0.556850 0.679421 0.032045
O O8 0.003679 0.453647 0.805758
O O9 0.000870 0.472099 0.903076
O O10 0.422578 0.250000 0.750000
O O11 0.250000 0.046947 0.750000
O O12 0.037224 0.802530 0.550118
O O13 0.000000 0.000000 0.500000
O O14 0.750000 0.750000 0.534128
#
# Coordination Sequence:
#
# PCOD9390268 Si02
#       6
#     8   8   8   8   8   8
#     4  10  20  35  56  85 119 152 198 246 294 357
#     4  11  24  39  59  85 116 158 200 242 300 352
#     4  10  21  34  56  86 117 157 195 242 303 348
#     4   9  17  32  54  82 116 151 192 244 300 350
#     4  12  23  38  58  83 117 156 198 241 291 351
#     4  11  23  41  58  82 117 156 198 246 294 349
#
# _framework density 19.337499000000001
#
# number of rings (size 3 to 8) (size 9 to 14) (size 15 to 20)
#    0.000    1.500    1.667    4.000    2.333    3.333 
#    0.000    0.000    0.000    1.000    0.000    7.000 
#    0.000    0.000    0.000    0.000    0.000    0.000 
#
# Total GULP energy -267820.878043 kJ/mol
# GULP energy per Si atom -5579.601626 kJ/mol
# Density = 1.929349 g / cm^3
# Si number density = 19.337499 Si / 1000 Ang^3
#
#
#
# Elastic Constant Matrix: (Units=GPa)
#
#
# Indices 1 2 3 4 5 6 
#
# 1 132.0249 30.0110 60.2138 0.0000 0.0000 0.0000
# 2 30.0110 41.4190 23.7931 0.0000 0.0000 0.0000
# 3 60.2138 23.7931 151.6020 0.0000 0.0000 0.0000
# 4 0.0000 0.0000 0.0000 20.1325 0.0000 0.0000
# 5 0.0000 0.0000 0.0000 0.0000 36.5943 0.0000
# 6 0.0000 0.0000 0.0000 0.0000 0.0000 25.3453
#
#
#
# Elastic Compliance Matrix: (Units=1/GPa)
#
#
# Indices 1 2 3 4 5 6 
#
# 1 0.010321 -0.005631 -0.003216 0.000000 0.000000 0.000000
# 2 -0.005631 0.029608 -0.002410 0.000000 0.000000 0.000000
# 3 -0.003216 -0.002410 0.008252 0.000000 0.000000 0.000000
# 4 0.000000 0.000000 0.000000 0.049671 0.000000 0.000000
# 5 0.000000 0.000000 0.000000 0.000000 0.027327 0.000000
# 6 0.000000 0.000000 0.000000 0.000000 0.000000 0.039455
#
#
# Mechanical properties :
#
#
# Convention : Reuss Voigt Hill
#
# Bulk Modulus (GPa) = 38.96049 61.45352 50.20701
# Shear Modulus (GPa) = 25.54895 30.48295 28.01595
#
# Velocity S-wave (km/s) = 3.63879 3.97465 3.81042
# Velocity P-wave (km/s) = 6.15189 7.27408 6.73640
#
# Compressibility (1/GPa) = 0.02566703
#
# Stress axis : x y z
#
# Youngs Moduli (GPa) = 96.89099 33.77437 121.18787
#
# Poissons Ratio (x) = 0.19019 0.38968
# Poissons Ratio (y) = 0.54560 0.29210
# Poissons Ratio (z) = 0.31155 0.08141
#
# Static dielectric constant tensor:
#      x y z
#    x 1.673440 0.000000 0.000000 
#    y 0.000000 1.705470 0.000000 
#    z 0.000000 0.000000 1.704260 
# 
# From -- ./inp_files/38680.got.cif
#   From: 2010.05.17/outbox.cif.g08.bks.cpg/sg48_20_cif.got.tgz:38680.got - 2010.06.03 20:39:00.
