data_PCOD9390421
_publ_section_title
;
Structure prediction by ZEFSAII (Michael W. Deem and Ramdas Pophale) SiO2 
 PCOD9390421
Probable space group: P N N N
;
_chemical_formula_sum "Si O2"
_cell_formula_units_Z 64
_cell_length_a 16.008222
_cell_length_b 20.059254
_cell_length_c 10.122760
_cell_angle_alpha 90.000000
_cell_angle_beta 90.000000
_cell_angle_gamma 90.000000
_cell_volume 3250.549743
_symmetry_space_group_name_H-M "P N N N"
_symmetry_group_IT_number 48
_space_group.IT_coordinate_system_code '2'
_symmetry_cell_setting 'orthorhombic'
loop_
_space_group_symop_operation_xyz
x,y,z
1/2-x,1/2-y,z
x,1/2-y,1/2-z
1/2-x,y,1/2-z
-x,-y,-z
1/2+x,1/2+y,-z
-x,1/2+y,1/2+z
1/2+x,-y,1/2+z
loop_
_atom_site_type_symbol
_atom_site_label
_atom_site_fract_x
_atom_site_fract_y
_atom_site_fract_z
Si Si1 0.346065 0.445816 0.713205
Si Si2 0.374179 0.601813 0.667420
Si Si3 0.835939 0.210289 0.516246
Si Si4 0.581157 0.160723 0.450189
Si Si5 0.042133 0.428019 0.028787
Si Si6 0.439007 0.436175 0.988913
Si Si7 0.848527 0.977454 0.757888
Si Si8 0.849578 0.373109 0.737452
O O1 0.250000 0.427252 0.750000
O O2 0.346672 0.524618 0.672089
O O3 0.400293 0.410084 0.597424
O O4 0.399808 0.436098 0.845085
O O5 0.314499 0.649293 0.581933
O O6 0.461982 0.610336 0.587806
O O7 0.385036 0.626395 0.817279
O O8 0.750000 0.250000 0.544240
O O9 0.899888 0.260728 0.445023
O O10 0.873769 0.180768 0.652026
O O11 0.489075 0.130535 0.472781
O O12 0.625703 0.141118 0.587951
O O13 0.106712 0.433715 0.148852
O O14 0.000000 0.500000 0.000000
O O15 0.370539 0.451633 0.098166
O O16 0.500000 0.500000 0.000000
O O17 0.750000 0.978914 0.750000
O O18 0.881941 0.052723 0.733167
O O19 0.750000 0.375209 0.750000
#
# Coordination Sequence:
#
# PCOD9390421 Si02
#       8
#     8   8   8   8   8   8   8   8
#     4  11  23  37  62  94 129 164 210 266 329 381
#     4  11  24  40  61  87 127 174 212 254 314 380
#     4  12  27  42  59  90 133 173 214 250 301 381
#     4  12  24  39  62  84 124 172 209 257 308 368
#     4  10  20  38  56  89 124 164 208 265 320 379
#     4  12  21  39  61  92 124 163 211 266 320 378
#     4  11  21  36  64  90 123 165 210 261 320 376
#     4  11  22  39  58  89 127 169 210 254 305 368
#
# _framework density 19.688977999999999
#
# number of rings (size 3 to 8) (size 9 to 14) (size 15 to 20)
#    0.000    0.750    5.000    3.750    3.500    2.500 
#    0.000    0.000    0.000    0.000    0.000    5.250 
#    0.000    0.000    0.000    0.000    0.000    0.000 
#
# Total GULP energy -357307.141098 kJ/mol
# GULP energy per Si atom -5582.924080 kJ/mol
# Density = 1.964417 g / cm^3
# Si number density = 19.688978 Si / 1000 Ang^3
#
#
#
# Elastic Constant Matrix: (Units=GPa)
#
#
# Indices 1 2 3 4 5 6 
#
# 1 72.3897 7.6610 19.5173 0.0000 0.0000 0.0000
# 2 7.6610 51.4219 6.0229 0.0000 0.0000 0.0000
# 3 19.5173 6.0229 114.6074 0.0000 0.0000 0.0000
# 4 0.0000 0.0000 0.0000 24.1221 0.0000 0.0000
# 5 0.0000 0.0000 0.0000 0.0000 41.1782 0.0000
# 6 0.0000 0.0000 0.0000 0.0000 0.0000 20.9992
#
#
#
# Elastic Compliance Matrix: (Units=1/GPa)
#
#
# Indices 1 2 3 4 5 6 
#
# 1 0.014662 -0.001904 -0.002397 0.000000 0.000000 0.000000
# 2 -0.001904 0.019815 -0.000717 0.000000 0.000000 0.000000
# 3 -0.002397 -0.000717 0.009171 0.000000 0.000000 0.000000
# 4 0.000000 0.000000 0.000000 0.041456 0.000000 0.000000
# 5 0.000000 0.000000 0.000000 0.000000 0.024285 0.000000
# 6 0.000000 0.000000 0.000000 0.000000 0.000000 0.047621
#
#
# Mechanical properties :
#
#
# Convention : Reuss Voigt Hill
#
# Bulk Modulus (GPa) = 29.75083 33.86906 31.80994
# Shear Modulus (GPa) = 28.05073 30.94108 29.49590
#
# Velocity S-wave (km/s) = 3.77860 3.96851 3.87472
# Velocity P-wave (km/s) = 5.84640 6.18370 6.01741
#
# Compressibility (1/GPa) = 0.03361251
#
# Stress axis : x y z
#
# Youngs Moduli (GPa) = 68.20450 50.46791 109.03588
#
# Poissons Ratio (x) = 0.09607 0.26134
# Poissons Ratio (y) = 0.12984 0.07819
# Poissons Ratio (z) = 0.16347 0.03619
#
# Static dielectric constant tensor:
#      x y z
#    x 1.729950 0.000000 0.000000 
#    y 0.000000 1.753280 0.000000 
#    z 0.000000 0.000000 1.697240 
# 
# From -- ./inp_files/13284.got.cif
#   From: 2010.05.17/outbox.cif.g08.bks.cpg/sg48_7_cif.got.tgz:13284.got - 2010.06.03 20:39:00.
