data_PCOD9390892
_publ_section_title
;
Structure prediction by ZEFSAII (Michael W. Deem and Ramdas Pophale) SiO2 
 PCOD9390892
Probable space group: P N N N
;
_chemical_formula_sum "Si O2"
_cell_formula_units_Z 32
_cell_length_a 5.105443
_cell_length_b 14.698555
_cell_length_c 20.171508
_cell_angle_alpha 90.000000
_cell_angle_beta 90.000000
_cell_angle_gamma 90.000000
_cell_volume 1513.723107
_symmetry_space_group_name_H-M "P N N N"
_symmetry_group_IT_number 48
_space_group.IT_coordinate_system_code '2'
_symmetry_cell_setting 'orthorhombic'
loop_
_space_group_symop_operation_xyz
x,y,z
1/2-x,1/2-y,z
x,1/2-y,1/2-z
1/2-x,y,1/2-z
-x,-y,-z
1/2+x,1/2+y,-z
-x,1/2+y,1/2+z
1/2+x,-y,1/2+z
loop_
_atom_site_type_symbol
_atom_site_label
_atom_site_fract_x
_atom_site_fract_y
_atom_site_fract_z
Si Si1 0.250000 0.250000 0.017936
Si Si2 0.951288 0.516708 0.641565
Si Si3 0.512854 0.691351 0.111101
Si Si4 0.063712 0.623429 0.886410
Si Si5 0.250000 0.616613 0.750000
O O1 0.042942 0.302371 0.063330
O O2 0.400580 0.315214 0.966270
O O3 0.664850 0.549091 0.621527
O O4 0.981685 0.409292 0.638227
O O5 0.167793 0.570826 0.597133
O O6 0.035280 0.553802 0.713691
O O7 0.750000 0.750000 0.142463
O O8 0.250000 0.750000 0.115826
O O9 0.111285 0.664235 0.812386
#
# Coordination Sequence:
#
# PCOD9390892 Si02
#       5
#     4   8   8   8   4
#     4  10  26  40  61  97 130 160 208 258 316 370
#     4  10  21  41  65  89 120 170 210 255 315 375
#     4  10  23  40  61  94 129 159 208 262 313 374
#     4  10  22  39  66  87 125 160 211 254 313 376
#     4   8  22  40  66  86 118 170 212 256 307 381
#
# _framework density 21.13993
#
# number of rings (size 3 to 8) (size 9 to 14) (size 15 to 20)
#    2.250    0.000    0.000    2.250    3.500    2.000 
#    0.000    4.375    0.000    0.000    0.000    0.000 
#    0.000    0.000    0.000    0.000    0.000    0.000 
#
# Total GULP energy -178322.247898 kJ/mol
# GULP energy per Si atom -5572.570247 kJ/mol
# Density = 2.109181 g / cm^3
# Si number density = 21.139930 Si / 1000 Ang^3
#
#
#
# Elastic Constant Matrix: (Units=GPa)
#
#
# Indices 1 2 3 4 5 6 
#
# 1 114.9888 23.5841 6.0227 0.0000 0.0000 0.0000
# 2 23.5841 86.0938 12.9985 0.0000 0.0000 0.0000
# 3 6.0227 12.9985 23.2843 0.0000 0.0000 0.0000
# 4 0.0000 0.0000 0.0000 2.1902 0.0000 0.0000
# 5 0.0000 0.0000 0.0000 0.0000 6.6890 0.0000
# 6 0.0000 0.0000 0.0000 0.0000 0.0000 40.8370
#
#
#
# Elastic Compliance Matrix: (Units=1/GPa)
#
#
# Indices 1 2 3 4 5 6 
#
# 1 0.009238 -0.002370 -0.001067 0.000000 0.000000 0.000000
# 2 -0.002370 0.013292 -0.006807 0.000000 0.000000 0.000000
# 3 -0.001067 -0.006807 0.047024 0.000000 0.000000 0.000000
# 4 0.000000 0.000000 0.000000 0.456585 0.000000 0.000000
# 5 0.000000 0.000000 0.000000 0.000000 0.149500 0.000000
# 6 0.000000 0.000000 0.000000 0.000000 0.000000 0.024488
#
#
# Mechanical properties :
#
#
# Convention : Reuss Voigt Hill
#
# Bulk Modulus (GPa) = 20.38053 34.39750 27.38901
# Shear Modulus (GPa) = 6.78454 22.06066 14.42260
#
# Velocity S-wave (km/s) = 1.79341 3.23391 2.61481
# Velocity P-wave (km/s) = 3.73499 5.50008 4.70112
#
# Compressibility (1/GPa) = 0.04906644
#
# Stress axis : x y z
#
# Youngs Moduli (GPa) = 108.24405 75.23223 21.26595
#
# Poissons Ratio (x) = 0.17828 0.02268
# Poissons Ratio (y) = 0.25650 0.14477
# Poissons Ratio (z) = 0.11546 0.51214
#
# Static dielectric constant tensor:
#      x y z
#    x 1.770500 0.000000 0.000000 
#    y 0.000000 1.736980 0.000000 
#    z 0.000000 0.000000 1.787460 
# 
# From -- ./inp_files/37030.got.cif
#   From: 2010.05.17/outbox.cif.g08.bks.cpg/sg48_19_cif.got.tgz:37030.got - 2010.06.03 20:39:00.
