data_PCOD9390349
_publ_section_title
;
Structure prediction by ZEFSAII (Michael W. Deem and Ramdas Pophale) SiO2 
 PCOD9390349
Probable space group: P N N N
;
_chemical_formula_sum "Si O2"
_cell_formula_units_Z 38
_cell_length_a 7.428809
_cell_length_b 10.471790
_cell_length_c 21.830956
_cell_angle_alpha 90.000000
_cell_angle_beta 90.000000
_cell_angle_gamma 90.000000
_cell_volume 1698.293984
_symmetry_space_group_name_H-M "P N N N"
_symmetry_group_IT_number 48
_space_group.IT_coordinate_system_code '2'
_symmetry_cell_setting 'orthorhombic'
loop_
_space_group_symop_operation_xyz
x,y,z
1/2-x,1/2-y,z
x,1/2-y,1/2-z
1/2-x,y,1/2-z
-x,-y,-z
1/2+x,1/2+y,-z
-x,1/2+y,1/2+z
1/2+x,-y,1/2+z
loop_
_atom_site_type_symbol
_atom_site_label
_atom_site_fract_x
_atom_site_fract_y
_atom_site_fract_z
Si Si1 0.250000 0.750000 0.446755
Si Si2 0.378030 0.136193 0.968603
Si Si3 0.750000 0.250000 0.750000
Si Si4 0.067014 0.423107 0.098614
Si Si5 0.375510 0.559066 0.155675
Si Si6 0.544578 0.295009 0.183333
O O1 0.416181 0.684675 0.480903
O O2 0.359004 0.852836 0.405023
O O3 0.250000 0.250000 0.946995
O O4 0.406163 0.019567 0.921312
O O5 0.317778 0.091460 0.035967
O O6 0.624715 0.339386 0.790654
O O7 0.029458 0.285779 0.126300
O O8 0.180676 0.491498 0.151520
O O9 0.512168 0.443795 0.168172
O O10 0.750000 0.250000 0.185411
O O11 0.468571 0.250000 0.250000
#
# Coordination Sequence:
#
# PCOD9390349 Si02
#       6
#     4   8   2   8   8   8
#     4   9  22  37  60  96 117 166 215 252 330 394
#     4  10  21  39  63  92 131 167 212 270 330 394
#     4  10  20  36  70  90 112 168 214 268 346 372
#     4  10  22  40  60  94 122 166 220 262 334 398
#     4  10  20  39  61  87 122 156 215 271 312 407
#     4  11  24  38  59  89 126 168 216 266 335 397
#
# _framework density 22.375398000000001
#
# number of rings (size 3 to 8) (size 9 to 14) (size 15 to 20)
#    0.000    1.895    0.000    3.158    4.421    0.842 
#    0.000    4.211    0.000    0.000    0.000    0.000 
#    0.000    0.000    0.000    0.000    0.000    0.000 
#
# Total GULP energy -211723.520399 kJ/mol
# GULP energy per Si atom -5571.671589 kJ/mol
# Density = 2.232447 g / cm^3
# Si number density = 22.375398 Si / 1000 Ang^3
#
#
#
# Elastic Constant Matrix: (Units=GPa)
#
#
# Indices 1 2 3 4 5 6 
#
# 1 67.9880 45.0392 23.8785 0.0000 0.0000 0.0000
# 2 45.0392 174.7229 43.2527 0.0000 0.0000 0.0000
# 3 23.8785 43.2527 72.4153 0.0000 0.0000 0.0000
# 4 0.0000 0.0000 0.0000 48.7254 0.0000 0.0000
# 5 0.0000 0.0000 0.0000 0.0000 10.2191 0.0000
# 6 0.0000 0.0000 0.0000 0.0000 0.0000 45.1412
#
#
#
# Elastic Compliance Matrix: (Units=1/GPa)
#
#
# Indices 1 2 3 4 5 6 
#
# 1 0.018604 -0.003846 -0.003838 0.000000 0.000000 0.000000
# 2 -0.003846 0.007511 -0.003218 0.000000 0.000000 0.000000
# 3 -0.003838 -0.003218 0.016997 0.000000 0.000000 0.000000
# 4 0.000000 0.000000 0.000000 0.020523 0.000000 0.000000
# 5 0.000000 0.000000 0.000000 0.000000 0.097856 0.000000
# 6 0.000000 0.000000 0.000000 0.000000 0.000000 0.022153
#
#
# Mechanical properties :
#
#
# Convention : Reuss Voigt Hill
#
# Bulk Modulus (GPa) = 46.92844 59.94080 53.43462
# Shear Modulus (GPa) = 23.52381 34.34751 28.93566
#
# Velocity S-wave (km/s) = 3.24593 3.92223 3.60000
# Velocity P-wave (km/s) = 5.92173 6.88177 6.41972
#
# Compressibility (1/GPa) = 0.02130904
#
# Stress axis : x y z
#
# Youngs Moduli (GPa) = 53.75230 133.13161 58.83409
#
# Poissons Ratio (x) = 0.51197 0.22578
# Poissons Ratio (y) = 0.20671 0.18935
# Poissons Ratio (z) = 0.20628 0.42847
#
# Static dielectric constant tensor:
#      x y z
#    x 1.743770 0.000000 0.000000 
#    y 0.000000 1.946990 0.000000 
#    z 0.000000 0.000000 1.851560 
# 
# From -- ./inp_files/35713.got.cif
#   From: 2010.05.17/outbox.cif.g08.bks.cpg/sg48_18_cif.got.tgz:35713.got - 2010.06.03 20:39:00.
