data_PCOD9390004
_publ_section_title
;
Structure prediction by ZEFSAII (Michael W. Deem and Ramdas Pophale) SiO2 
 PCOD9390004
Probable space group: P N N N
;
_chemical_formula_sum "Si O2"
_cell_formula_units_Z 48
_cell_length_a 13.571897
_cell_length_b 18.796115
_cell_length_c 7.550284
_cell_angle_alpha 90.000000
_cell_angle_beta 90.000000
_cell_angle_gamma 90.000000
_cell_volume 1926.069421
_symmetry_space_group_name_H-M "P N N N"
_symmetry_group_IT_number 48
_space_group.IT_coordinate_system_code '2'
_symmetry_cell_setting 'orthorhombic'
loop_
_space_group_symop_operation_xyz
x,y,z
1/2-x,1/2-y,z
x,1/2-y,1/2-z
1/2-x,y,1/2-z
-x,-y,-z
1/2+x,1/2+y,-z
-x,1/2+y,1/2+z
1/2+x,-y,1/2+z
loop_
_atom_site_type_symbol
_atom_site_label
_atom_site_fract_x
_atom_site_fract_y
_atom_site_fract_z
Si Si1 0.332993 0.035129 0.602256
Si Si2 0.897823 0.292523 0.578584
Si Si3 0.451147 0.948451 0.854554
Si Si4 0.098014 0.168045 0.756228
Si Si5 0.749407 0.405517 0.952173
Si Si6 0.048281 0.190056 0.374059
O O1 0.250000 0.020316 0.750000
O O2 0.342011 0.119281 0.609517
O O3 0.427822 0.000384 0.692358
O O4 0.301337 0.983613 0.447839
O O5 0.857558 0.250000 0.750000
O O6 0.822239 0.343165 0.474098
O O7 0.986544 0.336860 0.670988
O O8 0.956864 0.236071 0.455917
O O9 0.511272 0.881118 0.779902
O O10 0.353334 0.914830 0.949393
O O11 0.500000 0.000000 0.000000
O O12 0.127613 0.250000 0.750000
O O13 0.100537 0.153655 0.545978
O O14 0.750000 0.383747 0.750000
O O15 0.099003 0.250000 0.250000
#
# Coordination Sequence:
#
# PCOD9390004 Si02
#       6
#     8   8   8   8   8   8
#     4  10  22  39  58  85 120 162 210 257 319 394
#     4   9  20  37  59  86 123 158 199 262 322 394
#     4  11  22  39  61  84 128 172 201 259 332 392
#     4   9  19  38  58  84 116 156 205 254 321 385
#     4  11  23  39  58  95 125 163 218 266 322 394
#     4  10  19  35  60  92 117 160 206 253 321 394
#
# _framework density 24.921219000000001
#
# number of rings (size 3 to 8) (size 9 to 14) (size 15 to 20)
#    0.000    2.333    1.667    3.000    0.000    3.333 
#    6.000    0.833    0.000    0.000    0.000    5.833 
#    0.000    0.000    0.000    0.000    0.000    0.000 
#
# Total GULP energy -267548.310764 kJ/mol
# GULP energy per Si atom -5573.923141 kJ/mol
# Density = 2.486450 g / cm^3
# Si number density = 24.921219 Si / 1000 Ang^3
#
#
#
# Elastic Constant Matrix: (Units=GPa)
#
#
# Indices 1 2 3 4 5 6 
#
# 1 53.6265 18.6876 3.9020 0.0000 0.0000 0.0000
# 2 18.6876 127.4014 1.9537 0.0000 0.0000 0.0000
# 3 3.9020 1.9537 46.8426 0.0000 0.0000 0.0000
# 4 0.0000 0.0000 0.0000 33.8290 0.0000 0.0000
# 5 0.0000 0.0000 0.0000 0.0000 10.4423 0.0000
# 6 0.0000 0.0000 0.0000 0.0000 0.0000 30.6174
#
#
#
# Elastic Compliance Matrix: (Units=1/GPa)
#
#
# Indices 1 2 3 4 5 6 
#
# 1 0.019760 -0.002875 -0.001526 0.000000 0.000000 0.000000
# 2 -0.002875 0.008273 -0.000106 0.000000 0.000000 0.000000
# 3 -0.001526 -0.000106 0.021480 0.000000 0.000000 0.000000
# 4 0.000000 0.000000 0.000000 0.029560 0.000000 0.000000
# 5 0.000000 0.000000 0.000000 0.000000 0.095765 0.000000
# 6 0.000000 0.000000 0.000000 0.000000 0.000000 0.032661
#
#
# Mechanical properties :
#
#
# Convention : Reuss Voigt Hill
#
# Bulk Modulus (GPa) = 24.69190 30.77298 27.73244
# Shear Modulus (GPa) = 21.73798 28.53287 25.13543
#
# Velocity S-wave (km/s) = 2.95662 3.38734 3.17928
# Velocity P-wave (km/s) = 4.64596 5.26058 4.96279
#
# Compressibility (1/GPa) = 0.04049911
#
# Stress axis : x y z
#
# Youngs Moduli (GPa) = 50.60615 120.88162 46.55575
#
# Poissons Ratio (x) = 0.34755 0.07105
# Poissons Ratio (y) = 0.14550 0.00491
# Poissons Ratio (z) = 0.07723 0.01276
#
# Static dielectric constant tensor:
#      x y z
#    x 2.150750 0.000000 0.000000 
#    y 0.000000 2.023620 0.000000 
#    z 0.000000 0.000000 2.059710 
# 
# From -- ./inp_files/12791.got.cif
#   From: 2010.05.17/outbox.cif.g08.bks.cpg/sg48_7_cif.got.tgz:12791.got - 2010.06.03 20:39:00.
