data_PCOD9390581
_publ_section_title
;
Structure prediction by ZEFSAII (Michael W. Deem and Ramdas Pophale) SiO2 
 PCOD9390581
Probable space group: P N N N
;
_chemical_formula_sum "Si O2"
_cell_formula_units_Z 36
_cell_length_a 9.775454
_cell_length_b 22.893014
_cell_length_c 8.530671
_cell_angle_alpha 90.000000
_cell_angle_beta 90.000000
_cell_angle_gamma 90.000000
_cell_volume 1909.075496
_symmetry_space_group_name_H-M "P N N N"
_symmetry_group_IT_number 48
_space_group.IT_coordinate_system_code '2'
_symmetry_cell_setting 'orthorhombic'
loop_
_space_group_symop_operation_xyz
x,y,z
1/2-x,1/2-y,z
x,1/2-y,1/2-z
1/2-x,y,1/2-z
-x,-y,-z
1/2+x,1/2+y,-z
-x,1/2+y,1/2+z
1/2+x,-y,1/2+z
loop_
_atom_site_type_symbol
_atom_site_label
_atom_site_fract_x
_atom_site_fract_y
_atom_site_fract_z
Si Si1 0.333327 0.663098 0.496466
Si Si2 0.194629 0.449164 0.427333
Si Si3 0.030029 0.436722 0.921939
Si Si4 0.250000 0.750000 0.250000
Si Si5 0.082777 0.922335 0.065810
Si Si6 0.750000 0.250000 0.250000
O O1 0.445588 0.613382 0.509309
O O2 0.344691 0.707620 0.352163
O O3 0.188714 0.629790 0.465031
O O4 0.334063 0.705912 0.642840
O O5 0.250000 0.443830 0.250000
O O6 0.309485 0.427705 0.548434
O O7 0.165105 0.517518 0.462615
O O8 0.048721 0.418937 0.454128
O O9 0.975972 0.430565 0.743195
O O10 0.000000 0.500000 0.000000
#
# Coordination Sequence:
#
# PCOD9390581 Si02
#       6
#     8   8   8   2   8   2
#     4  11  22  42  67  93 127 166 232 269 318 381
#     4  11  23  36  57  96 135 167 198 258 339 399
#     4  12  21  38  64  96 134 168 209 269 334 397
#     4  10  20  42  68  88 120 170 228 274 292 378
#     4  11  22  39  61  90 132 176 206 258 328 396
#     4  10  28  38  64 104 120 182 224 286 312 366
#
# _framework density 18.857296000000002
#
# number of rings (size 3 to 8) (size 9 to 14) (size 15 to 20)
#    0.000    0.889    6.667    0.667    3.111    0.000 
#    0.000    0.000    0.000    8.000    0.000    0.000 
#    0.000    0.000    0.000    0.000    0.000    0.000 
#
# Total GULP energy -200929.108776 kJ/mol
# GULP energy per Si atom -5581.364133 kJ/mol
# Density = 1.881438 g / cm^3
# Si number density = 18.857296 Si / 1000 Ang^3
#
#
#
# Elastic Constant Matrix: (Units=GPa)
#
#
# Indices 1 2 3 4 5 6 
#
# 1 133.9215 58.7575 45.7779 0.0000 0.0000 0.0000
# 2 58.7575 127.1003 44.0449 0.0000 0.0000 0.0000
# 3 45.7779 44.0449 78.7648 0.0000 0.0000 0.0000
# 4 0.0000 0.0000 0.0000 -69.1284 0.0000 0.0000
# 5 0.0000 0.0000 0.0000 0.0000 16.7254 0.0000
# 6 0.0000 0.0000 0.0000 0.0000 0.0000 27.1126
#
#
#
# Elastic Compliance Matrix: (Units=1/GPa)
#
#
# Indices 1 2 3 4 5 6 
#
# 1 0.010354 -0.003350 -0.004144 0.000000 0.000000 0.000000
# 2 -0.003350 0.010843 -0.004116 0.000000 0.000000 0.000000
# 3 -0.004144 -0.004116 0.017406 0.000000 0.000000 0.000000
# 4 0.000000 0.000000 0.000000 -0.014466 0.000000 0.000000
# 5 0.000000 0.000000 0.000000 0.000000 0.059789 0.000000
# 6 0.000000 0.000000 0.000000 0.000000 0.000000 0.036883
#
#
# Mechanical properties :
#
#
# Convention : Reuss Voigt Hill
#
# Bulk Modulus (GPa) = 65.01155 70.77192 67.89173
# Shear Modulus (GPa) = 33.52160 7.68901 20.60530
#
# Velocity S-wave (km/s) = 4.22079 2.02147 3.30918
# Velocity P-wave (km/s) = 7.63569 6.56202 7.11913
#
# Compressibility (1/GPa) = 0.01538188
#
# Stress axis : x y z
#
# Youngs Moduli (GPa) = 96.58554 92.22513 57.45065
#
# Poissons Ratio (x) = 0.30898 0.23807
# Poissons Ratio (y) = 0.32359 0.23648
# Poissons Ratio (z) = 0.40025 0.37961
#
# Static dielectric constant tensor:
#      x y z
#    x 1.661440 0.000000 0.000000 
#    y 0.000000 1.634010 0.000000 
#    z 0.000000 0.000000 1.693260 
# 
# From -- ./inp_files/8809.got.cif
#   From: 2010.05.17/outbox.cif.g08.bks.cpg/sg48_5_cif.got.tgz:8809.got - 2010.06.03 20:39:00.
