data_PCOD9390554
_publ_section_title
;
Structure prediction by ZEFSAII (Michael W. Deem and Ramdas Pophale) SiO2 
 PCOD9390554
Probable space group: P N N N
;
_chemical_formula_sum "Si O2"
_cell_formula_units_Z 28
_cell_length_a 18.079050
_cell_length_b 6.985211
_cell_length_c 8.080729
_cell_angle_alpha 90.000000
_cell_angle_beta 90.000000
_cell_angle_gamma 90.000000
_cell_volume 1020.482772
_symmetry_space_group_name_H-M "P N N N"
_symmetry_group_IT_number 48
_space_group.IT_coordinate_system_code '2'
_symmetry_cell_setting 'orthorhombic'
loop_
_space_group_symop_operation_xyz
x,y,z
1/2-x,1/2-y,z
x,1/2-y,1/2-z
1/2-x,y,1/2-z
-x,-y,-z
1/2+x,1/2+y,-z
-x,1/2+y,1/2+z
1/2+x,-y,1/2+z
loop_
_atom_site_type_symbol
_atom_site_label
_atom_site_fract_x
_atom_site_fract_y
_atom_site_fract_z
Si Si1 0.250000 0.250000 0.498842
Si Si2 0.975624 0.525448 0.237175
Si Si3 0.375578 0.970296 0.093094
Si Si4 0.343609 0.619197 0.909555
O O1 0.311285 0.375289 0.406401
O O2 0.202673 0.421317 0.588152
O O3 0.972694 0.750000 0.250000
O O4 0.929737 0.432475 0.383936
O O5 0.062072 0.480786 0.226879
O O6 0.926319 0.482817 0.073933
O O7 0.339680 0.759229 0.067647
O O8 0.323779 0.750000 0.750000
#
# Coordination Sequence:
#
# PCOD9390554 Si02
#       4
#     4   8   8   8
#     4  12  22  43  62  97 136 174 213 286 325 402
#     4  10  20  41  62  98 127 168 215 279 321 389
#     4  10  23  39  64  98 131 167 223 270 334 388
#     4  10  23  39  65  97 128 169 220 272 335 386
#
# _framework density 27.437992999999999
#
# number of rings (size 3 to 8) (size 9 to 14) (size 15 to 20)
#    0.000    1.714    2.857    0.857    0.000   13.714 
#   10.286    0.000    0.000    5.143    7.429    0.000 
#    0.000    0.000    0.000    0.000    0.000    0.000 
#
# Total GULP energy -156738.259253 kJ/mol
# GULP energy per Si atom -5597.794973 kJ/mol
# Density = 2.737554 g / cm^3
# Si number density = 27.437993 Si / 1000 Ang^3
#
#
#
# Elastic Constant Matrix: (Units=GPa)
#
#
# Indices 1 2 3 4 5 6 
#
# 1 248.3660 117.8792 51.0252 0.0000 0.0000 0.0000
# 2 117.8792 250.6546 43.3221 0.0000 0.0000 0.0000
# 3 51.0252 43.3221 95.9388 0.0000 0.0000 0.0000
# 4 0.0000 0.0000 0.0000 11.6047 0.0000 0.0000
# 5 0.0000 0.0000 0.0000 0.0000 252.1217 0.0000
# 6 0.0000 0.0000 0.0000 0.0000 0.0000 44.5798
#
#
#
# Elastic Compliance Matrix: (Units=1/GPa)
#
#
# Indices 1 2 3 4 5 6 
#
# 1 0.005485 -0.002251 -0.001901 0.000000 0.000000 0.000000
# 2 -0.002251 0.005251 -0.001174 0.000000 0.000000 0.000000
# 3 -0.001901 -0.001174 0.011964 0.000000 0.000000 0.000000
# 4 0.000000 0.000000 0.000000 0.086172 0.000000 0.000000
# 5 0.000000 0.000000 0.000000 0.000000 0.003966 0.000000
# 6 0.000000 0.000000 0.000000 0.000000 0.000000 0.022432
#
#
# Mechanical properties :
#
#
# Convention : Reuss Voigt Hill
#
# Bulk Modulus (GPa) = 82.99450 113.26806 98.13128
# Shear Modulus (GPa) = 33.34690 87.17676 60.26183
#
# Velocity S-wave (km/s) = 3.48998 5.64281 4.69155
# Velocity P-wave (km/s) = 6.82302 9.15566 8.07402
#
# Compressibility (1/GPa) = 0.01204899
#
# Stress axis : x y z
#
# Youngs Moduli (GPa) = 182.30737 190.43587 83.58147
#
# Poissons Ratio (x) = 0.42869 0.15887
# Poissons Ratio (y) = 0.41039 0.09812
# Poissons Ratio (z) = 0.34653 0.22356
#
# Static dielectric constant tensor:
#      x y z
#    x 2.123280 0.000000 0.000000 
#    y 0.000000 2.143670 0.000000 
#    z 0.000000 0.000000 2.308450 
# 
# From -- ./inp_files/22477.got.cif
#   From: 2010.05.17/outbox.cif.g08.bks.cpg/sg48_12_cif.got.tgz:22477.got - 2010.06.03 20:39:00.
