data_PCOD9390634
_publ_section_title
;
Structure prediction by ZEFSAII (Michael W. Deem and Ramdas Pophale) SiO2 
 PCOD9390634
Probable space group: P N N N
;
_chemical_formula_sum "Si O2"
_cell_formula_units_Z 56
_cell_length_a 5.597251
_cell_length_b 13.809529
_cell_length_c 32.479158
_cell_angle_alpha 90.000000
_cell_angle_beta 90.000000
_cell_angle_gamma 90.000000
_cell_volume 2510.489509
_symmetry_space_group_name_H-M "P N N N"
_symmetry_group_IT_number 48
_space_group.IT_coordinate_system_code '2'
_symmetry_cell_setting 'orthorhombic'
loop_
_space_group_symop_operation_xyz
x,y,z
1/2-x,1/2-y,z
x,1/2-y,1/2-z
1/2-x,y,1/2-z
-x,-y,-z
1/2+x,1/2+y,-z
-x,1/2+y,1/2+z
1/2+x,-y,1/2+z
loop_
_atom_site_type_symbol
_atom_site_label
_atom_site_fract_x
_atom_site_fract_y
_atom_site_fract_z
Si Si1 0.344588 0.129085 0.388110
Si Si2 0.497497 0.198152 0.304170
Si Si3 0.000625 0.474110 0.725670
Si Si4 0.917400 0.575383 0.364499
Si Si5 0.844307 0.357667 0.557512
Si Si6 0.541629 0.487931 0.414608
Si Si7 0.383050 0.646431 0.967356
O O1 0.461988 0.193907 0.353519
O O2 0.409592 0.156322 0.434118
O O3 0.067356 0.103593 0.389975
O O4 0.456021 0.025098 0.377034
O O5 0.250000 0.250000 0.291093
O O6 0.499201 0.088492 0.286936
O O7 0.750000 0.250000 0.294923
O O8 0.750000 0.455460 0.750000
O O9 0.250000 0.458002 0.750000
O O10 0.023412 0.412378 0.683208
O O11 0.647422 0.553684 0.377691
O O12 0.008105 0.645584 0.400134
O O13 0.750000 0.250000 0.553150
O O14 0.644979 0.441592 0.562580
O O15 0.968395 0.377422 0.513514
O O16 0.717992 0.439182 0.447917
O O17 0.250000 0.750000 0.967424
#
# Coordination Sequence:
#
# PCOD9390634 Si02
#       7
#     8   8   8   8   8   8   8
#     4   9  21  34  56  82 129 174 225 257 307 363
#     4  11  24  37  60  90 136 182 225 270 322 382
#     4  11  25  42  68  95 128 166 218 275 339 416
#     4   9  22  40  62  89 119 158 212 260 337 398
#     4  10  22  40  62  89 124 162 215 275 334 399
#     4  10  21  37  61  86 127 173 215 270 326 383
#     4  10  21  35  54  90 129 173 223 267 310 373
#
# _framework density 22.306408000000001
#
# number of rings (size 3 to 8) (size 9 to 14) (size 15 to 20)
#    0.000    2.000    0.000    1.714   14.000    8.571 
#    0.000    2.857    0.000    0.429    0.000    0.000 
#    0.000    0.000    0.000    0.000    0.000    0.000 
#
# Total GULP energy -312026.446073 kJ/mol
# GULP energy per Si atom -5571.900823 kJ/mol
# Density = 2.225564 g / cm^3
# Si number density = 22.306408 Si / 1000 Ang^3
#
#
#
# Elastic Constant Matrix: (Units=GPa)
#
#
# Indices 1 2 3 4 5 6 
#
# 1 93.8300 8.6852 63.3492 0.0000 0.0000 0.0000
# 2 8.6852 42.0539 20.0653 0.0000 0.0000 0.0000
# 3 63.3492 20.0653 204.8551 0.0000 0.0000 0.0000
# 4 0.0000 0.0000 0.0000 27.5078 0.0000 0.0000
# 5 0.0000 0.0000 0.0000 0.0000 24.3298 0.0000
# 6 0.0000 0.0000 0.0000 0.0000 0.0000 15.3322
#
#
#
# Elastic Compliance Matrix: (Units=1/GPa)
#
#
# Indices 1 2 3 4 5 6 
#
# 1 0.013498 -0.000835 -0.004092 0.000000 0.000000 0.000000
# 2 -0.000835 0.024996 -0.002190 0.000000 0.000000 0.000000
# 3 -0.004092 -0.002190 0.006361 0.000000 0.000000 0.000000
# 4 0.000000 0.000000 0.000000 0.036353 0.000000 0.000000
# 5 0.000000 0.000000 0.000000 0.000000 0.041102 0.000000
# 6 0.000000 0.000000 0.000000 0.000000 0.000000 0.065222
#
#
# Mechanical properties :
#
#
# Convention : Reuss Voigt Hill
#
# Bulk Modulus (GPa) = 32.65755 58.32648 45.49202
# Shear Modulus (GPa) = 23.58772 30.00993 26.79882
#
# Velocity S-wave (km/s) = 3.25536 3.67188 3.46988
# Velocity P-wave (km/s) = 5.36675 6.64692 6.04084
#
# Compressibility (1/GPa) = 0.03062079
#
# Stress axis : x y z
#
# Youngs Moduli (GPa) = 74.08656 40.00569 157.19580
#
# Poissons Ratio (x) = 0.03341 0.64328
# Poissons Ratio (y) = 0.06187 0.34428
# Poissons Ratio (z) = 0.30318 0.08762
#
# Static dielectric constant tensor:
#      x y z
#    x 1.974190 0.000000 0.000000 
#    y 0.000000 1.889830 0.000000 
#    z 0.000000 0.000000 1.871000 
# 
# From -- ./inp_files/38334.got.cif
#   From: 2010.05.17/outbox.cif.g08.bks.cpg/sg48_20_cif.got.tgz:38334.got - 2010.06.03 20:39:00.
