data_PCOD9390833
_publ_section_title
;
Structure prediction by ZEFSAII (Michael W. Deem and Ramdas Pophale) SiO2 
 PCOD9390833
Probable space group: P N N N
;
_chemical_formula_sum "Si O2"
_cell_formula_units_Z 28
_cell_length_a 15.797639
_cell_length_b 10.690237
_cell_length_c 8.061113
_cell_angle_alpha 90.000000
_cell_angle_beta 90.000000
_cell_angle_gamma 90.000000
_cell_volume 1361.364834
_symmetry_space_group_name_H-M "P N N N"
_symmetry_group_IT_number 48
_space_group.IT_coordinate_system_code '2'
_symmetry_cell_setting 'orthorhombic'
loop_
_space_group_symop_operation_xyz
x,y,z
1/2-x,1/2-y,z
x,1/2-y,1/2-z
1/2-x,y,1/2-z
-x,-y,-z
1/2+x,1/2+y,-z
-x,1/2+y,1/2+z
1/2+x,-y,1/2+z
loop_
_atom_site_type_symbol
_atom_site_label
_atom_site_fract_x
_atom_site_fract_y
_atom_site_fract_z
Si Si1 0.748096 0.603007 0.551749
Si Si2 0.579905 0.993980 0.120765
Si Si3 0.067342 0.394150 0.541843
Si Si4 0.983376 0.250000 0.250000
O O1 0.750000 0.750000 0.504535
O O2 0.750000 0.594070 0.750000
O O3 0.667159 0.535946 0.472781
O O4 0.838564 0.555401 0.491567
O O5 0.564512 0.887316 0.259329
O O6 0.574333 0.130687 0.206299
O O7 0.500000 0.000000 0.000000
O O8 0.000000 0.500000 0.500000
O O9 0.043386 0.285644 0.408820
#
# Coordination Sequence:
#
# PCOD9390833 Si02
#       4
#     8   8   8   4
#     4  11  22  39  64  93 122 158 211 267 319 388
#     4  11  23  39  64  95 127 169 215 268 334 394
#     4  10  21  40  62  89 124 162 207 260 319 386
#     4  10  22  42  64  90 132 170 210 276 332 392
#
# _framework density 20.567595000000001
#
# number of rings (size 3 to 8) (size 9 to 14) (size 15 to 20)
#    0.000    1.429    0.000    7.714    0.000    5.714 
#    0.000   11.429    0.000    6.857    0.000    0.000 
#    0.000    0.000    0.000    0.000    0.000    0.000 
#
# Total GULP energy -156260.175797 kJ/mol
# GULP energy per Si atom -5580.720564 kJ/mol
# Density = 2.052078 g / cm^3
# Si number density = 20.567595 Si / 1000 Ang^3
#
#
#
# Elastic Constant Matrix: (Units=GPa)
#
#
# Indices 1 2 3 4 5 6 
#
# 1 209.7319 63.7698 76.0140 0.0000 0.0000 0.0000
# 2 63.7698 117.8997 52.0937 0.0000 0.0000 0.0000
# 3 76.0140 52.0937 146.3774 0.0000 0.0000 0.0000
# 4 0.0000 0.0000 0.0000 35.7339 0.0000 0.0000
# 5 0.0000 0.0000 0.0000 0.0000 48.2368 0.0000
# 6 0.0000 0.0000 0.0000 0.0000 0.0000 28.4250
#
#
#
# Elastic Compliance Matrix: (Units=1/GPa)
#
#
# Indices 1 2 3 4 5 6 
#
# 1 0.006382 -0.002358 -0.002475 0.000000 0.000000 0.000000
# 2 -0.002358 0.010936 -0.002667 0.000000 0.000000 0.000000
# 3 -0.002475 -0.002667 0.009066 0.000000 0.000000 0.000000
# 4 0.000000 0.000000 0.000000 0.027985 0.000000 0.000000
# 5 0.000000 0.000000 0.000000 0.000000 0.020731 0.000000
# 6 0.000000 0.000000 0.000000 0.000000 0.000000 0.035180
#
#
# Mechanical properties :
#
#
# Convention : Reuss Voigt Hill
#
# Bulk Modulus (GPa) = 87.85002 95.30711 91.57857
# Shear Modulus (GPa) = 38.73703 41.28790 40.01247
#
# Velocity S-wave (km/s) = 4.34453 4.48529 4.41547
# Velocity P-wave (km/s) = 8.24452 8.55937 8.40342
#
# Compressibility (1/GPa) = 0.01138304
#
# Stress axis : x y z
#
# Youngs Moduli (GPa) = 156.68923 91.44193 110.30115
#
# Poissons Ratio (x) = 0.21566 0.27298
# Poissons Ratio (y) = 0.36954 0.29420
# Poissons Ratio (z) = 0.38779 0.24389
#
# Static dielectric constant tensor:
#      x y z
#    x 1.693410 0.000000 0.000000 
#    y 0.000000 1.769910 0.000000 
#    z 0.000000 0.000000 1.818370 
# 
# From -- ./inp_files/11786.got.cif
#   From: 2010.05.17/outbox.cif.g08.bks.cpg/sg48_6_cif.got.tgz:11786.got - 2010.06.03 20:39:00.
