data_PCOD9390487
_publ_section_title
;
Structure prediction by ZEFSAII (Michael W. Deem and Ramdas Pophale) SiO2 
 PCOD9390487
Probable space group: P N N N
;
_chemical_formula_sum "Si O2"
_cell_formula_units_Z 24
_cell_length_a 7.487119
_cell_length_b 10.209863
_cell_length_c 12.382017
_cell_angle_alpha 90.000000
_cell_angle_beta 90.000000
_cell_angle_gamma 90.000000
_cell_volume 946.511830
_symmetry_space_group_name_H-M "P N N N"
_symmetry_group_IT_number 48
_space_group.IT_coordinate_system_code '2'
_symmetry_cell_setting 'orthorhombic'
loop_
_space_group_symop_operation_xyz
x,y,z
1/2-x,1/2-y,z
x,1/2-y,1/2-z
1/2-x,y,1/2-z
-x,-y,-z
1/2+x,1/2+y,-z
-x,1/2+y,1/2+z
1/2+x,-y,1/2+z
loop_
_atom_site_type_symbol
_atom_site_label
_atom_site_fract_x
_atom_site_fract_y
_atom_site_fract_z
Si Si1 0.536443 0.776319 0.369665
Si Si2 0.055060 0.545456 0.707940
Si Si3 0.452505 0.196959 0.094395
O O1 0.750000 0.750000 0.366387
O O2 0.464621 0.750000 0.250000
O O3 0.477307 0.689591 0.471769
O O4 0.498020 0.931830 0.374540
O O5 0.250000 0.507658 0.750000
O O6 0.953974 0.577499 0.820891
O O7 0.059748 0.682649 0.646664
O O8 0.250000 0.250000 0.090804
#
# Coordination Sequence:
#
# PCOD9390487 Si02
#       3
#     8   8   8
#     4  10  20  39  58  88 121 159 201 246 301 362
#     4  11  20  38  66  87 119 159 206 248 303 362
#     4  10  22  38  63  90 122 157 200 254 307 362
#
# _framework density 25.356259999999999
#
# number of rings (size 3 to 8) (size 9 to 14) (size 15 to 20)
#    0.000    1.667    3.333    5.000    0.000    1.333 
#    0.000    0.000    7.333    0.000    0.000    0.000 
#    0.000    0.000    0.000    0.000    0.000    0.000 
#
# Total GULP energy -133848.121522 kJ/mol
# GULP energy per Si atom -5577.005063 kJ/mol
# Density = 2.529855 g / cm^3
# Si number density = 25.356260 Si / 1000 Ang^3
#
#
#
# Elastic Constant Matrix: (Units=GPa)
#
#
# Indices 1 2 3 4 5 6 
#
# 1 42.1105 6.1517 10.7607 0.0000 0.0000 0.0000
# 2 6.1517 85.7439 29.6673 0.0000 0.0000 0.0000
# 3 10.7607 29.6673 202.9631 0.0000 0.0000 0.0000
# 4 0.0000 0.0000 0.0000 18.6274 0.0000 0.0000
# 5 0.0000 0.0000 0.0000 0.0000 24.1231 0.0000
# 6 0.0000 0.0000 0.0000 0.0000 0.0000 11.6538
#
#
#
# Elastic Compliance Matrix: (Units=1/GPa)
#
#
# Indices 1 2 3 4 5 6 
#
# 1 0.024223 -0.001362 -0.001085 0.000000 0.000000 0.000000
# 2 -0.001362 0.012361 -0.001735 0.000000 0.000000 0.000000
# 3 -0.001085 -0.001735 0.005238 0.000000 0.000000 0.000000
# 4 0.000000 0.000000 0.000000 0.053684 0.000000 0.000000
# 5 0.000000 0.000000 0.000000 0.000000 0.041454 0.000000
# 6 0.000000 0.000000 0.000000 0.000000 0.000000 0.085809
#
#
# Mechanical properties :
#
#
# Convention : Reuss Voigt Hill
#
# Bulk Modulus (GPa) = 29.88844 47.10855 38.49849
# Shear Modulus (GPa) = 20.63673 29.83002 25.23338
#
# Velocity S-wave (km/s) = 2.85594 3.43364 3.15803
# Velocity P-wave (km/s) = 4.76321 5.85994 5.33980
#
# Compressibility (1/GPa) = 0.03345775
#
# Stress axis : x y z
#
# Youngs Moduli (GPa) = 41.28249 80.90266 190.90997
#
# Poissons Ratio (x) = 0.11023 0.20716
# Poissons Ratio (y) = 0.05625 0.33114
# Poissons Ratio (z) = 0.04480 0.14033
#
# Static dielectric constant tensor:
#      x y z
#    x 2.003920 0.000000 0.000000 
#    y 0.000000 2.083440 0.000000 
#    z 0.000000 0.000000 2.086340 
# 
# From -- ./inp_files/9784.got.cif
#   From: 2010.05.17/outbox.cif.g08.bks.cpg/sg48_5_cif.got.tgz:9784.got - 2010.06.03 20:39:00.
