data_PCOD9390829
_publ_section_title
;
Structure prediction by ZEFSAII (Michael W. Deem and Ramdas Pophale) SiO2 
 PCOD9390829
Probable space group: P N N N
;
_chemical_formula_sum "Si O2"
_cell_formula_units_Z 34
_cell_length_a 23.289281
_cell_length_b 9.841096
_cell_length_c 8.310928
_cell_angle_alpha 90.000000
_cell_angle_beta 90.000000
_cell_angle_gamma 90.000000
_cell_volume 1904.798626
_symmetry_space_group_name_H-M "P N N N"
_symmetry_group_IT_number 48
_space_group.IT_coordinate_system_code '2'
_symmetry_cell_setting 'orthorhombic'
loop_
_space_group_symop_operation_xyz
x,y,z
1/2-x,1/2-y,z
x,1/2-y,1/2-z
1/2-x,y,1/2-z
-x,-y,-z
1/2+x,1/2+y,-z
-x,1/2+y,1/2+z
1/2+x,-y,1/2+z
loop_
_atom_site_type_symbol
_atom_site_label
_atom_site_fract_x
_atom_site_fract_y
_atom_site_fract_z
Si Si1 0.563241 0.532334 0.070801
Si Si2 0.360896 0.812072 0.413592
Si Si3 0.576605 0.416224 0.429470
Si Si4 0.449179 0.190626 0.070715
Si Si5 0.250000 0.750000 0.250000
O O1 0.569706 0.477031 0.251138
O O2 0.500000 0.500000 0.000000
O O3 0.608674 0.448175 0.966642
O O4 0.571514 0.692678 0.049931
O O5 0.388340 0.750000 0.250000
O O6 0.373640 0.693865 0.543628
O O7 0.294509 0.829795 0.364185
O O8 0.516485 0.339221 0.462344
O O9 0.581491 0.546366 0.545636
O O10 0.443671 0.250000 0.250000
#
# Coordination Sequence:
#
# PCOD9390829 Si02
#       5
#     8   8   8   8   2
#     4  12  21  34  54  89 126 158 191 246 307 373
#     4  10  21  40  61  83 116 156 212 246 298 364
#     4  11  22  33  55  83 123 161 196 244 298 364
#     4  11  21  33  51  86 125 165 188 231 308 375
#     4   8  24  40  66  86 108 168 214 262 298 352
#
# _framework density 17.849656
#
# number of rings (size 3 to 8) (size 9 to 14) (size 15 to 20)
#    0.706    0.471    4.706    2.824    3.294    0.000 
#    0.000    2.353    0.000    2.824    0.000    3.294 
#    0.000    0.000    0.000    0.000    0.000    0.000 
#
# Total GULP energy -189631.013018 kJ/mol
# GULP energy per Si atom -5577.382736 kJ/mol
# Density = 1.780903 g / cm^3
# Si number density = 17.849656 Si / 1000 Ang^3
#
#
#
# Elastic Constant Matrix: (Units=GPa)
#
#
# Indices 1 2 3 4 5 6 
#
# 1 88.7499 39.2100 22.4761 0.0000 0.0000 0.0000
# 2 39.2100 128.2839 41.8827 0.0000 0.0000 0.0000
# 3 22.4761 41.8827 85.1293 0.0000 0.0000 0.0000
# 4 0.0000 0.0000 0.0000 33.6134 0.0000 0.0000
# 5 0.0000 0.0000 0.0000 0.0000 26.0120 0.0000
# 6 0.0000 0.0000 0.0000 0.0000 0.0000 17.5255
#
#
#
# Elastic Compliance Matrix: (Units=1/GPa)
#
#
# Indices 1 2 3 4 5 6 
#
# 1 0.013253 -0.003465 -0.001794 0.000000 0.000000 0.000000
# 2 -0.003465 0.010193 -0.004100 0.000000 0.000000 0.000000
# 3 -0.001794 -0.004100 0.014238 0.000000 0.000000 0.000000
# 4 0.000000 0.000000 0.000000 0.029750 0.000000 0.000000
# 5 0.000000 0.000000 0.000000 0.000000 0.038444 0.000000
# 6 0.000000 0.000000 0.000000 0.000000 0.000000 0.057060
#
#
# Mechanical properties :
#
#
# Convention : Reuss Voigt Hill
#
# Bulk Modulus (GPa) = 52.72879 56.58897 54.65888
# Shear Modulus (GPa) = 26.59900 28.66980 27.63440
#
# Velocity S-wave (km/s) = 3.86446 4.01207 3.93895
# Velocity P-wave (km/s) = 7.03681 7.29618 7.16767
#
# Compressibility (1/GPa) = 0.01896497
#
# Stress axis : x y z
#
# Youngs Moduli (GPa) = 75.45539 98.10813 70.23593
#
# Poissons Ratio (x) = 0.33994 0.12603
# Poissons Ratio (y) = 0.26145 0.28796
# Poissons Ratio (z) = 0.13539 0.40224
#
# Static dielectric constant tensor:
#      x y z
#    x 1.587170 0.000000 0.000000 
#    y 0.000000 1.635770 0.000000 
#    z 0.000000 0.000000 1.636310 
# 
# From -- ./inp_files/8762.got.cif
#   From: 2010.05.17/outbox.cif.g08.bks.cpg/sg48_5_cif.got.tgz:8762.got - 2010.06.03 20:39:00.
