data_PCOD9390810
_publ_section_title
;
Structure prediction by ZEFSAII (Michael W. Deem and Ramdas Pophale) SiO2 
 PCOD9390810
Probable space group: P N N N
;
_chemical_formula_sum "Si O2"
_cell_formula_units_Z 64
_cell_length_a 10.384898
_cell_length_b 11.591618
_cell_length_c 25.358366
_cell_angle_alpha 90.000000
_cell_angle_beta 90.000000
_cell_angle_gamma 90.000000
_cell_volume 3052.583565
_symmetry_space_group_name_H-M "P N N N"
_symmetry_group_IT_number 48
_space_group.IT_coordinate_system_code '2'
_symmetry_cell_setting 'orthorhombic'
loop_
_space_group_symop_operation_xyz
x,y,z
1/2-x,1/2-y,z
x,1/2-y,1/2-z
1/2-x,y,1/2-z
-x,-y,-z
1/2+x,1/2+y,-z
-x,1/2+y,1/2+z
1/2+x,-y,1/2+z
loop_
_atom_site_type_symbol
_atom_site_label
_atom_site_fract_x
_atom_site_fract_y
_atom_site_fract_z
Si Si1 0.574043 0.254760 0.309908
Si Si2 0.095695 0.768205 0.190457
Si Si3 0.200531 0.577687 0.897588
Si Si4 0.107745 0.696580 0.000995
Si Si5 0.517808 0.078923 0.449533
Si Si6 0.320438 0.133777 0.150708
Si Si7 0.518664 0.423416 0.607023
Si Si8 0.430265 0.029191 0.340974
O O1 0.618695 0.250000 0.250000
O O2 0.660172 0.329709 0.351764
O O3 0.436183 0.318864 0.313607
O O4 0.538390 0.121957 0.324116
O O5 0.250000 0.750000 0.190202
O O6 0.049754 0.750000 0.250000
O O7 0.048626 0.670682 0.150981
O O8 0.053271 0.895750 0.171925
O O9 0.346443 0.566942 0.917958
O O10 0.128781 0.460735 0.883673
O O11 0.131565 0.614609 0.951714
O O12 0.250000 0.750000 0.014713
O O13 0.047799 0.634125 0.050833
O O14 0.019243 0.794858 0.974885
O O15 0.416708 0.047553 0.404257
O O16 0.500000 0.000000 0.500000
O O17 0.250000 0.250000 0.127886
O O18 0.207062 0.069151 0.181684
O O19 0.390742 0.037301 0.114614
#
# Coordination Sequence:
#
# PCOD9390810 Si02
#       8
#     8   8   8   8   8   8   8   8
#     4  10  22  40  69  96 133 178 219 291 356 406
#     4  11  24  38  62  95 136 183 225 278 339 422
#     4  10  23  43  64  98 133 171 226 291 341 418
#     4  10  21  39  66  92 127 167 218 275 339 411
#     4  11  24  43  66  94 132 179 228 282 342 414
#     4   9  21  36  59  97 135 169 218 285 341 409
#     4  11  21  40  64  93 133 177 221 275 349 413
#     4  11  22  40  62  95 135 172 237 277 337 417
#
# _framework density 20.965848000000001
#
# number of rings (size 3 to 8) (size 9 to 14) (size 15 to 20)
#    0.000    1.625    2.500    1.500    7.000    2.250 
#    0.000    3.750    0.000    0.750    0.000    0.000 
#    0.000    0.000    0.000    0.000    0.000    0.000 
#
# Total GULP energy -356838.775514 kJ/mol
# GULP energy per Si atom -5575.605867 kJ/mol
# Density = 2.091813 g / cm^3
# Si number density = 20.965848 Si / 1000 Ang^3
#
#
#
# Elastic Constant Matrix: (Units=GPa)
#
#
# Indices 1 2 3 4 5 6 
#
# 1 79.9436 42.6353 44.8094 0.0000 0.0000 0.0000
# 2 42.6353 129.7361 61.1063 0.0000 0.0000 0.0000
# 3 44.8094 61.1063 160.0545 0.0000 0.0000 0.0000
# 4 0.0000 0.0000 0.0000 13.8127 0.0000 0.0000
# 5 0.0000 0.0000 0.0000 0.0000 17.4434 0.0000
# 6 0.0000 0.0000 0.0000 0.0000 0.0000 17.7533
#
#
#
# Elastic Compliance Matrix: (Units=1/GPa)
#
#
# Indices 1 2 3 4 5 6 
#
# 1 0.016320 -0.003915 -0.003074 0.000000 0.000000 0.000000
# 2 -0.003915 0.010337 -0.002850 0.000000 0.000000 0.000000
# 3 -0.003074 -0.002850 0.008197 0.000000 0.000000 0.000000
# 4 0.000000 0.000000 0.000000 0.072397 0.000000 0.000000
# 5 0.000000 0.000000 0.000000 0.000000 0.057328 0.000000
# 6 0.000000 0.000000 0.000000 0.000000 0.000000 0.056327
#
#
# Mechanical properties :
#
#
# Convention : Reuss Voigt Hill
#
# Bulk Modulus (GPa) = 65.90161 74.09291 69.99726
# Shear Modulus (GPa) = 20.35459 24.54743 22.45101
#
# Velocity S-wave (km/s) = 3.11922 3.42545 3.27592
# Velocity P-wave (km/s) = 6.66887 7.14573 6.91141
#
# Compressibility (1/GPa) = 0.01517414
#
# Stress axis : x y z
#
# Youngs Moduli (GPa) = 61.27431 96.73779 121.99888
#
# Poissons Ratio (x) = 0.37876 0.37505
# Poissons Ratio (y) = 0.23991 0.34775
# Poissons Ratio (z) = 0.18837 0.27575
#
# Static dielectric constant tensor:
#      x y z
#    x 1.845510 0.000000 0.000000 
#    y 0.000000 1.744080 0.000000 
#    z 0.000000 0.000000 2.052830 
# 
# From -- ./inp_files/36392.got.cif
#   From: 2010.05.17/outbox.cif.g08.bks.cpg/sg48_19_cif.got.tgz:36392.got - 2010.06.03 20:39:00.
