data_PCOD9390175
_publ_section_title
;
Structure prediction by ZEFSAII (Michael W. Deem and Ramdas Pophale) SiO2 
 PCOD9390175
Probable space group: P N N N
;
_chemical_formula_sum "Si O2"
_cell_formula_units_Z 64
_cell_length_a 17.249932
_cell_length_b 23.632383
_cell_length_c 7.904324
_cell_angle_alpha 90.000000
_cell_angle_beta 90.000000
_cell_angle_gamma 90.000000
_cell_volume 3222.253007
_symmetry_space_group_name_H-M "P N N N"
_symmetry_group_IT_number 48
_space_group.IT_coordinate_system_code '2'
_symmetry_cell_setting 'orthorhombic'
loop_
_space_group_symop_operation_xyz
x,y,z
1/2-x,1/2-y,z
x,1/2-y,1/2-z
1/2-x,y,1/2-z
-x,-y,-z
1/2+x,1/2+y,-z
-x,1/2+y,1/2+z
1/2+x,-y,1/2+z
loop_
_atom_site_type_symbol
_atom_site_label
_atom_site_fract_x
_atom_site_fract_y
_atom_site_fract_z
Si Si1 0.327293 0.515589 0.353246
Si Si2 0.585410 0.042396 0.524964
Si Si3 0.349180 0.656567 0.913667
Si Si4 0.953298 0.197944 0.657163
Si Si5 0.684877 0.138247 0.027101
Si Si6 0.515438 0.717548 0.916123
Si Si7 0.341786 0.030759 0.777454
Si Si8 0.448480 0.115137 0.607129
O O1 0.250000 0.496506 0.250000
O O2 0.108083 0.515565 0.294392
O O3 0.309254 0.578133 0.431146
O O4 0.352825 0.481600 0.522424
O O5 0.628444 0.103168 0.526649
O O6 0.496038 0.062522 0.525890
O O7 0.617821 0.012777 0.355449
O O8 0.264762 0.674128 0.982079
O O9 0.333110 0.632767 0.726023
O O10 0.424273 0.697119 0.904008
O O11 0.910650 0.250000 0.750000
O O12 0.889850 0.168971 0.543918
O O13 0.017320 0.234201 0.558056
O O14 0.995181 0.150560 0.768127
O O15 0.538436 0.750000 0.750000
O O16 0.564525 0.662135 0.962899
O O17 0.250000 0.027534 0.750000
O O18 0.377980 0.089872 0.713011
#
# Coordination Sequence:
#
# PCOD9390175 Si02
#       8
#     8   8   8   8   8   8   8   8
#     4  12  22  36  61  88 127 174 210 242 315 373
#     4  11  21  40  60  90 128 169 205 249 303 381
#     4  10  20  32  56  85 122 165 208 251 288 365
#     4  10  21  38  56  77 117 157 207 265 313 359
#     4  11  19  34  54  83 122 168 215 247 292 359
#     4  10  20  39  59  83 120 159 204 259 325 370
#     4  12  24  42  64  91 128 162 205 268 321 380
#     4  10  24  41  61  91 121 160 214 260 319 386
#
# _framework density 19.861879999999999
#
# number of rings (size 3 to 8) (size 9 to 14) (size 15 to 20)
#    0.000    1.250    6.250    0.375    0.000    1.000 
#    2.250    3.125    0.000    3.375    0.000    0.875 
#    0.000    0.000    0.000    0.000    0.000    0.000 
#
# Total GULP energy -356555.530970 kJ/mol
# GULP energy per Si atom -5571.180171 kJ/mol
# Density = 1.981667 g / cm^3
# Si number density = 19.861880 Si / 1000 Ang^3
#
#
#
# Elastic Constant Matrix: (Units=GPa)
#
#
# Indices 1 2 3 4 5 6 
#
# 1 46.0323 27.5948 27.7896 0.0000 0.0000 0.0000
# 2 27.5948 79.1284 43.6579 0.0000 0.0000 0.0000
# 3 27.7896 43.6579 137.7195 0.0000 0.0000 0.0000
# 4 0.0000 0.0000 0.0000 37.5094 0.0000 0.0000
# 5 0.0000 0.0000 0.0000 0.0000 19.9511 0.0000
# 6 0.0000 0.0000 0.0000 0.0000 0.0000 8.8414
#
#
#
# Elastic Compliance Matrix: (Units=1/GPa)
#
#
# Indices 1 2 3 4 5 6 
#
# 1 0.028555 -0.008216 -0.003157 0.000000 0.000000 0.000000
# 2 -0.008216 0.017681 -0.003947 0.000000 0.000000 0.000000
# 3 -0.003157 -0.003947 0.009149 0.000000 0.000000 0.000000
# 4 0.000000 0.000000 0.000000 0.026660 0.000000 0.000000
# 5 0.000000 0.000000 0.000000 0.000000 0.050123 0.000000
# 6 0.000000 0.000000 0.000000 0.000000 0.000000 0.113104
#
#
# Mechanical properties :
#
#
# Convention : Reuss Voigt Hill
#
# Bulk Modulus (GPa) = 40.41338 51.21831 45.81585
# Shear Modulus (GPa) = 17.59566 24.18290 20.88928
#
# Velocity S-wave (km/s) = 2.97964 3.49313 3.24655
# Velocity P-wave (km/s) = 5.67706 6.48942 6.09678
#
# Compressibility (1/GPa) = 0.02474428
#
# Stress axis : x y z
#
# Youngs Moduli (GPa) = 35.01977 56.55906 109.29589
#
# Poissons Ratio (x) = 0.46470 0.34509
# Poissons Ratio (y) = 0.28773 0.43139
# Poissons Ratio (z) = 0.11057 0.22324
#
# Static dielectric constant tensor:
#      x y z
#    x 1.722720 0.000000 0.000000 
#    y 0.000000 1.741860 0.000000 
#    z 0.000000 0.000000 1.804330 
# 
# From -- ./inp_files/13282.got.cif
#   From: 2010.05.17/outbox.cif.g08.bks.cpg/sg48_7_cif.got.tgz:13282.got - 2010.06.03 20:39:00.
