data_PCOD9390301
_publ_section_title
;
Structure prediction by ZEFSAII (Michael W. Deem and Ramdas Pophale) SiO2 
 PCOD9390301
Probable space group: P N N N
;
_chemical_formula_sum "Si O2"
_cell_formula_units_Z 36
_cell_length_a 10.867973
_cell_length_b 20.548259
_cell_length_c 8.747764
_cell_angle_alpha 90.000000
_cell_angle_beta 90.000000
_cell_angle_gamma 90.000000
_cell_volume 1953.532496
_symmetry_space_group_name_H-M "P N N N"
_symmetry_group_IT_number 48
_space_group.IT_coordinate_system_code '2'
_symmetry_cell_setting 'orthorhombic'
loop_
_space_group_symop_operation_xyz
x,y,z
1/2-x,1/2-y,z
x,1/2-y,1/2-z
1/2-x,y,1/2-z
-x,-y,-z
1/2+x,1/2+y,-z
-x,1/2+y,1/2+z
1/2+x,-y,1/2+z
loop_
_atom_site_type_symbol
_atom_site_label
_atom_site_fract_x
_atom_site_fract_y
_atom_site_fract_z
Si Si1 0.250000 0.590328 0.750000
Si Si2 0.750000 0.593402 0.750000
Si Si3 0.130147 0.213585 0.090213
Si Si4 0.250000 0.621361 0.250000
Si Si5 0.854632 0.195662 0.037356
Si Si6 0.136925 0.517620 0.041142
O O1 0.346704 0.640144 0.830324
O O2 0.298958 0.545149 0.612624
O O3 0.665867 0.641139 0.853899
O O4 0.809775 0.545777 0.874825
O O5 0.250000 0.250000 0.016426
O O6 0.113185 0.250000 0.250000
O O7 0.995530 0.218162 0.016666
O O8 0.187234 0.663721 0.379421
O O9 0.152421 0.575076 0.164850
O O10 0.750000 0.250000 0.071663
O O11 0.000000 0.500000 0.000000
#
# Coordination Sequence:
#
# PCOD9390301 Si02
#       6
#     4   4   8   4   8   8
#     4  10  21  32  54  86 107 142 194 224 264 334
#     4   9  19  36  56  80 113 145 176 226 280 323
#     4   9  19  34  56  86 110 140 185 229 273 330
#     4   9  23  36  52  82 111 143 188 228 274 329
#     4  11  20  36  58  81 111 148 185 232 278 326
#     4  10  20  36  55  79 112 147 181 225 273 327
#
# _framework density 18.428156000000001
#
# number of rings (size 3 to 8) (size 9 to 14) (size 15 to 20)
#    0.000    2.444    0.000    3.333    0.000    7.111 
#    0.000    6.667    0.000    8.000    0.000    8.556 
#    0.000    0.000    0.000    0.000    0.000    0.000 
#
# Total GULP energy -200404.170727 kJ/mol
# GULP energy per Si atom -5566.782520 kJ/mol
# Density = 1.838621 g / cm^3
# Si number density = 18.428156 Si / 1000 Ang^3
#
#
#
# Elastic Constant Matrix: (Units=GPa)
#
#
# Indices 1 2 3 4 5 6 
#
# 1 153.3813 73.6628 37.4118 0.0000 0.0000 0.0000
# 2 73.6628 126.2537 53.3194 0.0000 0.0000 0.0000
# 3 37.4118 53.3194 87.9450 0.0000 0.0000 0.0000
# 4 0.0000 0.0000 0.0000 61.2138 0.0000 0.0000
# 5 0.0000 0.0000 0.0000 0.0000 12.0106 0.0000
# 6 0.0000 0.0000 0.0000 0.0000 0.0000 -1.9115
#
#
#
# Elastic Compliance Matrix: (Units=1/GPa)
#
#
# Indices 1 2 3 4 5 6 
#
# 1 0.009108 -0.004943 -0.000877 0.000000 0.000000 0.000000
# 2 -0.004943 0.013330 -0.005979 0.000000 0.000000 0.000000
# 3 -0.000877 -0.005979 0.015369 0.000000 0.000000 0.000000
# 4 0.000000 0.000000 0.000000 0.016336 0.000000 0.000000
# 5 0.000000 0.000000 0.000000 0.000000 0.083260 0.000000
# 6 0.000000 0.000000 0.000000 0.000000 0.000000 -0.523149
#
#
# Mechanical properties :
#
#
# Convention : Reuss Voigt Hill
#
# Bulk Modulus (GPa) = 70.38582 77.37423 73.88003
# Shear Modulus (GPa) = -13.98943 27.80832 6.90944
#
# Velocity S-wave (km/s) = -2.75823 3.88882 1.93844
# Velocity P-wave (km/s) = 5.30414 7.88936 6.72220
#
# Compressibility (1/GPa) = 0.01420741
#
# Stress axis : x y z
#
# Youngs Moduli (GPa) = 109.79560 75.02044 65.06737
#
# Poissons Ratio (x) = 0.37086 0.05709
# Poissons Ratio (y) = 0.54277 0.38901
# Poissons Ratio (z) = 0.09633 0.44852
#
# Static dielectric constant tensor:
#      x y z
#    x 1.686430 0.000000 0.000000 
#    y 0.000000 1.716180 0.000000 
#    z 0.000000 0.000000 1.590990 
# 
# From -- ./inp_files/10925.got.cif
#   From: 2010.05.17/outbox.cif.g08.bks.cpg/sg48_6_cif.got.tgz:10925.got - 2010.06.03 20:39:00.
