data_PCOD9390367
_publ_section_title
;
Structure prediction by ZEFSAII (Michael W. Deem and Ramdas Pophale) SiO2 
 PCOD9390367
Probable space group: P N N N
;
_chemical_formula_sum "Si O2"
_cell_formula_units_Z 52
_cell_length_a 17.264699
_cell_length_b 10.924826
_cell_length_c 15.679201
_cell_angle_alpha 90.000000
_cell_angle_beta 90.000000
_cell_angle_gamma 90.000000
_cell_volume 2957.314191
_symmetry_space_group_name_H-M "P N N N"
_symmetry_group_IT_number 48
_space_group.IT_coordinate_system_code '2'
_symmetry_cell_setting 'orthorhombic'
loop_
_space_group_symop_operation_xyz
x,y,z
1/2-x,1/2-y,z
x,1/2-y,1/2-z
1/2-x,y,1/2-z
-x,-y,-z
1/2+x,1/2+y,-z
-x,1/2+y,1/2+z
1/2+x,-y,1/2+z
loop_
_atom_site_type_symbol
_atom_site_label
_atom_site_fract_x
_atom_site_fract_y
_atom_site_fract_z
Si Si1 0.910810 0.376895 0.439589
Si Si2 0.587800 0.089060 0.078569
Si Si3 0.048558 0.544588 0.373774
Si Si4 0.252461 0.601425 0.848454
Si Si5 0.933440 0.041718 0.620664
Si Si6 0.042332 0.750000 0.250000
Si Si7 0.341181 0.104831 0.245729
O O1 0.920947 0.235649 0.411365
O O2 0.913638 0.393650 0.542201
O O3 0.831001 0.427503 0.399335
O O4 0.983050 0.452051 0.404144
O O5 0.673860 0.055497 0.108201
O O6 0.521070 0.012135 0.126702
O O7 0.579647 0.066863 0.978010
O O8 0.008405 0.647294 0.313442
O O9 0.111796 0.470014 0.318293
O O10 0.250000 0.750000 0.849105
O O11 0.250000 0.562046 0.750000
O O12 0.918408 0.160724 0.679693
O O13 0.875902 0.940480 0.656559
O O14 0.353233 0.250000 0.250000
O O15 0.250000 0.078814 0.250000
#
# Coordination Sequence:
#
# PCOD9390367 Si02
#       7
#     8   8   8   8   8   4   8
#     4  10  20  37  59  84 112 148 193 231 287 338
#     4  10  20  37  59  84 112 148 193 231 287 338
#     4  10  21  36  59  83 114 151 184 238 286 340
#     4   9  20  34  54  82 111 140 184 240 273 327
#     4  10  21  36  59  83 114 151 184 238 286 340
#     4  10  20  38  55  89 112 142 190 238 282 347
#     4  10  22  38  57  83 113 149 195 233 284 344
#
# _framework density 17.583521999999999
#
# number of rings (size 3 to 8) (size 9 to 14) (size 15 to 20)
#    0.000    2.154    1.538    0.923    6.462    0.000 
#    0.000    6.154    0.000    1.846    0.000    0.000 
#    0.000    0.000    0.000    0.000    0.000    0.000 
#
# Total GULP energy -289472.497716 kJ/mol
# GULP energy per Si atom -5566.778802 kJ/mol
# Density = 1.754350 g / cm^3
# Si number density = 17.583522 Si / 1000 Ang^3
#
#
#
# Elastic Constant Matrix: (Units=GPa)
#
#
# Indices 1 2 3 4 5 6 
#
# 1 105.4318 35.6126 35.8952 0.0000 0.0000 0.0000
# 2 35.6126 66.6763 26.2542 0.0000 0.0000 0.0000
# 3 35.8952 26.2542 81.3810 0.0000 0.0000 0.0000
# 4 0.0000 0.0000 0.0000 22.4828 0.0000 0.0000
# 5 0.0000 0.0000 0.0000 0.0000 23.0537 0.0000
# 6 0.0000 0.0000 0.0000 0.0000 0.0000 6.9414
#
#
#
# Elastic Compliance Matrix: (Units=1/GPa)
#
#
# Indices 1 2 3 4 5 6 
#
# 1 0.012551 -0.005182 -0.003864 0.000000 0.000000 0.000000
# 2 -0.005182 0.019320 -0.003947 0.000000 0.000000 0.000000
# 3 -0.003864 -0.003947 0.015266 0.000000 0.000000 0.000000
# 4 0.000000 0.000000 0.000000 0.044478 0.000000 0.000000
# 5 0.000000 0.000000 0.000000 0.000000 0.043377 0.000000
# 6 0.000000 0.000000 0.000000 0.000000 0.000000 0.144064
#
#
# Mechanical properties :
#
#
# Convention : Reuss Voigt Hill
#
# Bulk Modulus (GPa) = 47.28170 49.89035 48.58603
# Shear Modulus (GPa) = 16.02093 20.87738 18.44915
#
# Velocity S-wave (km/s) = 3.02177 3.44950 3.24270
# Velocity P-wave (km/s) = 6.25484 6.65585 6.45846
#
# Compressibility (1/GPa) = 0.02114983
#
# Stress axis : x y z
#
# Youngs Moduli (GPa) = 79.67664 51.76037 65.50676
#
# Poissons Ratio (x) = 0.26822 0.25312
# Poissons Ratio (y) = 0.41288 0.25856
# Poissons Ratio (z) = 0.30788 0.20430
#
# Static dielectric constant tensor:
#      x y z
#    x 1.579260 0.000000 0.000000 
#    y 0.000000 1.605040 0.000000 
#    z 0.000000 0.000000 1.614450 
# 
# From -- ./inp_files/31651.got.cif
#   From: 2010.05.17/outbox.cif.g08.bks.cpg/sg48_16_cif.got.tgz:31651.got - 2010.06.03 20:39:00.
