data_PCOD9390067
_publ_section_title
;
Structure prediction by ZEFSAII (Michael W. Deem and Ramdas Pophale) SiO2 
 PCOD9390067
Probable space group: P N N N
;
_chemical_formula_sum "Si O2"
_cell_formula_units_Z 56
_cell_length_a 15.259571
_cell_length_b 11.737584
_cell_length_c 14.727244
_cell_angle_alpha 90.000000
_cell_angle_beta 90.000000
_cell_angle_gamma 90.000000
_cell_volume 2637.803984
_symmetry_space_group_name_H-M "P N N N"
_symmetry_group_IT_number 48
_space_group.IT_coordinate_system_code '2'
_symmetry_cell_setting 'orthorhombic'
loop_
_space_group_symop_operation_xyz
x,y,z
1/2-x,1/2-y,z
x,1/2-y,1/2-z
1/2-x,y,1/2-z
-x,-y,-z
1/2+x,1/2+y,-z
-x,1/2+y,1/2+z
1/2+x,-y,1/2+z
loop_
_atom_site_type_symbol
_atom_site_label
_atom_site_fract_x
_atom_site_fract_y
_atom_site_fract_z
Si Si1 0.950940 0.191814 0.392117
Si Si2 0.433796 0.125310 0.598273
Si Si3 0.802577 0.416562 0.991484
Si Si4 0.523255 0.507540 0.277681
Si Si5 0.599047 0.103677 0.493779
Si Si6 0.845704 0.122662 0.713936
Si Si7 0.097171 0.368254 0.957131
O O1 0.940467 0.326399 0.408150
O O2 0.028895 0.149248 0.459675
O O3 0.859243 0.146369 0.432493
O O4 0.964176 0.125967 0.298125
O O5 0.423868 0.068432 0.696654
O O6 0.537341 0.144957 0.576137
O O7 0.383320 0.242055 0.580312
O O8 0.409900 0.029997 0.524760
O O9 0.840436 0.380721 0.894560
O O10 0.701806 0.380873 0.993098
O O11 0.824124 0.550435 0.009384
O O12 0.422310 0.536910 0.258918
O O13 0.550542 0.568390 0.372466
O O14 0.863731 0.250000 0.750000
O O15 0.750000 0.088890 0.750000
#
# Coordination Sequence:
#
# PCOD9390067 Si02
#       7
#     8   8   8   8   8   8   8
#     4  10  20  36  59  84 124 166 199 240 316 384
#     4  10  22  38  58  83 117 163 214 257 305 375
#     4  11  20  36  58  88 125 155 200 257 320 385
#     4  11  19  36  59  88 120 156 201 255 310 377
#     4  10  23  38  56  85 117 166 211 257 312 374
#     4  11  22  29  53  98 128 152 186 263 339 377
#     4  10  19  37  60  86 122 163 201 247 321 381
#
# _framework density 21.229780000000002
#
# number of rings (size 3 to 8) (size 9 to 14) (size 15 to 20)
#    0.000    1.571    2.857    3.429    6.000    1.143 
#    0.000    2.857    0.000    6.857    0.000    0.000 
#    0.000    0.000    0.000    0.000    0.000    0.000 
#
# Total GULP energy -312596.847370 kJ/mol
# GULP energy per Si atom -5582.086560 kJ/mol
# Density = 2.118146 g / cm^3
# Si number density = 21.229780 Si / 1000 Ang^3
#
#
#
# Elastic Constant Matrix: (Units=GPa)
#
#
# Indices 1 2 3 4 5 6 
#
# 1 46.6840 9.0690 4.9376 0.0000 0.0000 0.0000
# 2 9.0690 143.4658 27.2581 0.0000 0.0000 0.0000
# 3 4.9376 27.2581 86.4905 0.0000 0.0000 0.0000
# 4 0.0000 0.0000 0.0000 39.8529 0.0000 0.0000
# 5 0.0000 0.0000 0.0000 0.0000 14.2535 0.0000
# 6 0.0000 0.0000 0.0000 0.0000 0.0000 27.0731
#
#
#
# Elastic Compliance Matrix: (Units=1/GPa)
#
#
# Indices 1 2 3 4 5 6 
#
# 1 0.021747 -0.001211 -0.000860 0.000000 0.000000 0.000000
# 2 -0.001211 0.007482 -0.002289 0.000000 0.000000 0.000000
# 3 -0.000860 -0.002289 0.012332 0.000000 0.000000 0.000000
# 4 0.000000 0.000000 0.000000 0.025092 0.000000 0.000000
# 5 0.000000 0.000000 0.000000 0.000000 0.070158 0.000000
# 6 0.000000 0.000000 0.000000 0.000000 0.000000 0.036937
#
#
# Mechanical properties :
#
#
# Convention : Reuss Voigt Hill
#
# Bulk Modulus (GPa) = 30.44946 39.90772 35.17859
# Shear Modulus (GPa) = 25.85115 31.92763 28.88939
#
# Velocity S-wave (km/s) = 3.49332 3.88223 3.69290
# Velocity P-wave (km/s) = 5.53579 6.23975 5.89828
#
# Compressibility (1/GPa) = 0.03284130
#
# Stress axis : x y z
#
# Youngs Moduli (GPa) = 45.98361 133.65889 81.08747
#
# Poissons Ratio (x) = 0.16191 0.06971
# Poissons Ratio (y) = 0.05570 0.18559
# Poissons Ratio (z) = 0.03953 0.30591
#
# Static dielectric constant tensor:
#      x y z
#    x 1.776560 0.000000 0.000000 
#    y 0.000000 1.826790 0.000000 
#    z 0.000000 0.000000 1.787420 
# 
# From -- ./inp_files/26528.got.cif
#   From: 2010.05.17/outbox.cif.g08.bks.cpg/sg48_14_cif.got.tgz:26528.got - 2010.06.03 20:39:00.
