data_PCOD9390636
_publ_section_title
;
Structure prediction by ZEFSAII (Michael W. Deem and Ramdas Pophale) SiO2 
 PCOD9390636
Probable space group: P N N N
;
_chemical_formula_sum "Si O2"
_cell_formula_units_Z 54
_cell_length_a 20.223519
_cell_length_b 22.651814
_cell_length_c 5.306430
_cell_angle_alpha 90.000000
_cell_angle_beta 90.000000
_cell_angle_gamma 90.000000
_cell_volume 2430.872350
_symmetry_space_group_name_H-M "P N N N"
_symmetry_group_IT_number 48
_space_group.IT_coordinate_system_code '2'
_symmetry_cell_setting 'orthorhombic'
loop_
_space_group_symop_operation_xyz
x,y,z
1/2-x,1/2-y,z
x,1/2-y,1/2-z
1/2-x,y,1/2-z
-x,-y,-z
1/2+x,1/2+y,-z
-x,1/2+y,1/2+z
1/2+x,-y,1/2+z
loop_
_atom_site_type_symbol
_atom_site_label
_atom_site_fract_x
_atom_site_fract_y
_atom_site_fract_z
Si Si1 0.450662 0.820845 0.219396
Si Si2 0.750000 0.870815 0.750000
Si Si3 0.322591 0.477835 0.464965
Si Si4 0.827944 0.473672 0.464003
Si Si5 0.844677 0.709930 0.502782
Si Si6 0.815035 0.153057 0.905786
Si Si7 0.250000 0.750000 0.750000
Si Si8 0.482836 0.179024 0.288836
O O1 0.460044 0.750000 0.250000
O O2 0.372915 0.833280 0.206505
O O3 0.469866 0.844935 0.494298
O O4 0.495633 0.843123 0.987785
O O5 0.805871 0.911896 0.622942
O O6 0.717078 0.833566 0.525805
O O7 0.249127 0.506596 0.502095
O O8 0.355533 0.488594 0.732957
O O9 0.358070 0.510250 0.234729
O O10 0.831034 0.404019 0.425648
O O11 0.834957 0.750000 0.750000
O O12 0.911065 0.674695 0.579475
O O13 0.850659 0.750000 0.250000
O O14 0.750000 0.137049 0.750000
O O15 0.796197 0.208979 0.075873
O O16 0.490813 0.250000 0.250000
#
# Coordination Sequence:
#
# PCOD9390636 Si02
#       8
#     8   4   8   8   8   8   2   8
#     4  10  21  35  55  77 112 164 217 255 291 362
#     4  10  23  38  64 100 134 155 198 258 316 384
#     4   9  18  36  55  81 111 159 202 244 306 362
#     4   9  18  34  54  73 111 151 208 248 301 363
#     4  11  23  39  62  95 133 171 195 241 312 384
#     4  12  24  36  53  85 125 164 205 272 332 377
#     4  12  26  32  48  82 136 164 194 254 352 392
#     4   9  19  38  56  75 110 165 218 244 272 360
#
# _framework density 22.214248999999999
#
# number of rings (size 3 to 8) (size 9 to 14) (size 15 to 20)
#    0.000    2.074    1.481    4.444    5.185    5.926 
#    0.000    0.000    0.000    0.000    0.000   14.519 
#    0.000    0.000    0.000    0.000    0.000    0.000 
#
# Total GULP energy -301030.947403 kJ/mol
# GULP energy per Si atom -5574.647174 kJ/mol
# Density = 2.216369 g / cm^3
# Si number density = 22.214249 Si / 1000 Ang^3
#
#
#
# Elastic Constant Matrix: (Units=GPa)
#
#
# Indices 1 2 3 4 5 6 
#
# 1 67.5502 22.0977 38.0379 0.0000 0.0000 0.0000
# 2 22.0977 55.3230 31.8154 0.0000 0.0000 0.0000
# 3 38.0379 31.8154 175.2391 0.0000 0.0000 0.0000
# 4 0.0000 0.0000 0.0000 -169.8003 0.0000 0.0000
# 5 0.0000 0.0000 0.0000 0.0000 19.6830 0.0000
# 6 0.0000 0.0000 0.0000 0.0000 0.0000 -9.7149
#
#
#
# Elastic Compliance Matrix: (Units=1/GPa)
#
#
# Indices 1 2 3 4 5 6 
#
# 1 0.018303 -0.005612 -0.002954 0.000000 0.000000 0.000000
# 2 -0.005612 0.021904 -0.002759 0.000000 0.000000 0.000000
# 3 -0.002954 -0.002759 0.006849 0.000000 0.000000 0.000000
# 4 0.000000 0.000000 0.000000 -0.005889 0.000000 0.000000
# 5 0.000000 0.000000 0.000000 0.000000 0.050805 0.000000
# 6 0.000000 0.000000 0.000000 0.000000 0.000000 -0.102935
#
#
# Mechanical properties :
#
#
# Convention : Reuss Voigt Hill
#
# Bulk Modulus (GPa) = 40.97333 53.55715 47.26524
# Shear Modulus (GPa) = 252.25854 -18.22234 117.01810
#
# Velocity S-wave (km/s) = 10.66788 -2.86719 7.26577
# Velocity P-wave (km/s) = 13.04695 3.63327 9.57662
#
# Compressibility (1/GPa) = 0.02440612
#
# Stress axis : x y z
#
# Youngs Moduli (GPa) = 54.63551 45.65447 146.01684
#
# Poissons Ratio (x) = 0.25621 0.43134
# Poissons Ratio (y) = 0.30661 0.40279
# Poissons Ratio (z) = 0.16140 0.12594
#
# Static dielectric constant tensor:
#      x y z
#    x 1.905710 0.000000 0.000000 
#    y 0.000000 1.894190 0.000000 
#    z 0.000000 0.000000 1.978490 
# 
# From -- ./inp_files/5368.got.cif
#   From: 2010.05.17/outbox.cif.g08.bks.cpg/sg48_3_cif.got.tgz:5368.got - 2010.06.03 20:39:00.
