data_PCOD9390464
_publ_section_title
;
Structure prediction by ZEFSAII (Michael W. Deem and Ramdas Pophale) SiO2 
 PCOD9390464
Probable space group: P N N N
;
_chemical_formula_sum "Si O2"
_cell_formula_units_Z 64
_cell_length_a 12.919059
_cell_length_b 9.657261
_cell_length_c 20.549755
_cell_angle_alpha 90.000000
_cell_angle_beta 90.000000
_cell_angle_gamma 90.000000
_cell_volume 2563.843424
_symmetry_space_group_name_H-M "P N N N"
_symmetry_group_IT_number 48
_space_group.IT_coordinate_system_code '2'
_symmetry_cell_setting 'orthorhombic'
loop_
_space_group_symop_operation_xyz
x,y,z
1/2-x,1/2-y,z
x,1/2-y,1/2-z
1/2-x,y,1/2-z
-x,-y,-z
1/2+x,1/2+y,-z
-x,1/2+y,1/2+z
1/2+x,-y,1/2+z
loop_
_atom_site_type_symbol
_atom_site_label
_atom_site_fract_x
_atom_site_fract_y
_atom_site_fract_z
Si Si1 0.047503 0.391517 0.275746
Si Si2 0.137449 0.721138 0.928848
Si Si3 0.498530 0.085402 0.838089
Si Si4 0.941920 0.610836 0.362832
Si Si5 0.403191 0.231747 0.403971
Si Si6 0.732547 0.584474 0.322827
Si Si7 0.879329 0.442584 0.540707
Si Si8 0.844012 0.469514 0.947703
O O1 0.000849 0.250000 0.250000
O O2 0.064998 0.006199 0.286451
O O3 0.972467 0.486689 0.316244
O O4 0.126727 0.332865 0.332260
O O5 0.250000 0.750000 0.895089
O O6 0.127994 0.855195 0.975985
O O7 0.142479 0.590306 0.979379
O O8 0.024337 0.724001 0.895849
O O9 0.470681 0.253040 0.674929
O O10 0.379893 0.032316 0.843656
O O11 0.562628 0.085609 0.904153
O O12 0.019862 0.607774 0.421861
O O13 0.823083 0.572844 0.376055
O O14 0.347561 0.366113 0.433369
O O15 0.390268 0.107952 0.455447
O O16 0.750000 0.750000 0.314410
O O17 0.750000 0.526555 0.250000
O O18 0.768482 0.416124 0.574990
#
# Coordination Sequence:
#
# PCOD9390464 Si02
#       8
#     8   8   8   8   8   8   8   8
#     4  11  22  38  59  94 132 171 211 267 331 398
#     4  10  22  44  71  99 129 172 225 287 331 389
#     4  11  20  38  65  92 130 171 224 269 328 399
#     4  10  20  38  64  92 122 176 221 263 332 389
#     4  11  23  42  65  94 137 175 216 266 344 410
#     4   9  17  32  58  85 126 171 207 265 321 379
#     4  10  22  41  70  96 129 173 220 281 336 395
#     4  11  22  41  70  97 132 174 222 276 341 389
#
# _framework density 24.962523000000001
#
# number of rings (size 3 to 8) (size 9 to 14) (size 15 to 20)
#    0.000    1.625    3.750    1.500    0.000    0.000 
#    4.500    5.000    5.500    3.000    0.000    0.000 
#    0.000    0.000    0.000    0.000    0.000    0.000 
#
# Total GULP energy -356566.288786 kJ/mol
# GULP energy per Si atom -5571.348262 kJ/mol
# Density = 2.490571 g / cm^3
# Si number density = 24.962523 Si / 1000 Ang^3
#
#
#
# Elastic Constant Matrix: (Units=GPa)
#
#
# Indices 1 2 3 4 5 6 
#
# 1 125.2873 -5.8841 32.3113 0.0000 0.0000 0.0000
# 2 -5.8841 153.7053 27.0040 0.0000 0.0000 0.0000
# 3 32.3113 27.0040 85.0360 0.0000 0.0000 0.0000
# 4 0.0000 0.0000 0.0000 22.7412 0.0000 0.0000
# 5 0.0000 0.0000 0.0000 0.0000 24.8812 0.0000
# 6 0.0000 0.0000 0.0000 0.0000 0.0000 22.2234
#
#
#
# Elastic Compliance Matrix: (Units=1/GPa)
#
#
# Indices 1 2 3 4 5 6 
#
# 1 0.008992 0.001000 -0.003734 0.000000 0.000000 0.000000
# 2 0.001000 0.007002 -0.002604 0.000000 0.000000 0.000000
# 3 -0.003734 -0.002604 0.014005 0.000000 0.000000 0.000000
# 4 0.000000 0.000000 0.000000 0.043973 0.000000 0.000000
# 5 0.000000 0.000000 0.000000 0.000000 0.040191 0.000000
# 6 0.000000 0.000000 0.000000 0.000000 0.000000 0.044998
#
#
# Mechanical properties :
#
#
# Convention : Reuss Voigt Hill
#
# Bulk Modulus (GPa) = 51.74969 52.32120 52.03544
# Shear Modulus (GPa) = 28.36451 34.67565 31.52008
#
# Velocity S-wave (km/s) = 3.37454 3.73112 3.55730
# Velocity P-wave (km/s) = 5.99661 6.29024 6.14518
#
# Compressibility (1/GPa) = 0.01932379
#
# Stress axis : x y z
#
# Youngs Moduli (GPa) = 111.21392 142.82345 71.40101
#
# Poissons Ratio (x) = -0.14286 0.26663
# Poissons Ratio (y) = -0.11124 0.18589
# Poissons Ratio (z) = 0.41530 0.37184
#
# Static dielectric constant tensor:
#      x y z
#    x 2.037440 0.000000 0.000000 
#    y 0.000000 2.085520 0.000000 
#    z 0.000000 0.000000 2.062600 
# 
# From -- ./inp_files/36395.got.cif
#   From: 2010.05.17/outbox.cif.g08.bks.cpg/sg48_19_cif.got.tgz:36395.got - 2010.06.03 20:39:00.
