data_PCOD9390646
_publ_section_title
;
Structure prediction by ZEFSAII (Michael W. Deem and Ramdas Pophale) SiO2 
 PCOD9390646
Probable space group: P N N N
;
_chemical_formula_sum "Si O2"
_cell_formula_units_Z 60
_cell_length_a 22.224968
_cell_length_b 5.099578
_cell_length_c 25.346263
_cell_angle_alpha 90.000000
_cell_angle_beta 90.000000
_cell_angle_gamma 90.000000
_cell_volume 2872.693688
_symmetry_space_group_name_H-M "P N N N"
_symmetry_group_IT_number 48
_space_group.IT_coordinate_system_code '2'
_symmetry_cell_setting 'orthorhombic'
loop_
_space_group_symop_operation_xyz
x,y,z
1/2-x,1/2-y,z
x,1/2-y,1/2-z
1/2-x,y,1/2-z
-x,-y,-z
1/2+x,1/2+y,-z
-x,1/2+y,1/2+z
1/2+x,-y,1/2+z
loop_
_atom_site_type_symbol
_atom_site_label
_atom_site_fract_x
_atom_site_fract_y
_atom_site_fract_z
Si Si1 0.386870 0.850292 0.402249
Si Si2 0.584145 0.123040 0.070699
Si Si3 0.388427 0.143170 0.302229
Si Si4 0.789230 0.511599 0.075626
Si Si5 0.790528 0.990688 0.548597
Si Si6 0.515987 0.475928 0.646888
Si Si7 0.984408 0.250000 0.750000
Si Si8 0.068120 0.390849 0.504289
O O1 0.349210 0.599671 0.421773
O O2 0.454024 0.757329 0.386529
O O3 0.395986 0.055340 0.449970
O O4 0.358521 0.977722 0.349328
O O5 0.528142 0.135739 0.109973
O O6 0.567927 0.903941 0.026233
O O7 0.644611 0.025024 0.098950
O O8 0.597654 0.404772 0.045403
O O9 0.354221 0.250000 0.250000
O O10 0.426018 0.367159 0.332080
O O11 0.439916 0.961084 0.276399
O O12 0.750000 0.250000 0.078934
O O13 0.802360 0.566782 0.013157
O O14 0.750000 0.750000 0.096571
O O15 0.750000 0.250000 0.549297
O O16 0.750000 0.750000 0.569745
O O17 0.483062 0.375556 0.699896
O O18 0.000000 0.500000 0.500000
#
# Coordination Sequence:
#
# PCOD9390646 Si02
#       8
#     8   8   8   8   8   8   4   8
#     4  11  22  35  58  84 122 161 197 244 300 362
#     4  12  24  37  57  87 123 163 201 239 293 364
#     4   9  19  36  59  83 118 151 193 243 306 368
#     4  10  21  39  55  75 114 164 206 242 278 335
#     4  10  23  37  54  78 112 157 203 243 282 341
#     4  10  21  35  59  87 121 154 193 245 304 365
#     4   8  18  38  52  86 116 148 194 240 298 362
#     4  12  24  35  51  88 130 163 192 231 302 370
#
# _framework density 20.886317999999999
#
# number of rings (size 3 to 8) (size 9 to 14) (size 15 to 20)
#    0.000    1.600    2.667    2.000    9.333    0.000 
#    0.000    0.000    0.000    0.000    0.000   21.933 
#    0.000    0.000    0.000    0.000    0.000    0.000 
#
# Total GULP energy -334972.800252 kJ/mol
# GULP energy per Si atom -5582.880004 kJ/mol
# Density = 2.083878 g / cm^3
# Si number density = 20.886318 Si / 1000 Ang^3
#
#
#
# Elastic Constant Matrix: (Units=GPa)
#
#
# Indices 1 2 3 4 5 6 
#
# 1 49.9747 -4.6133 -1.6729 0.0000 0.0000 0.0000
# 2 -4.6133 77.4737 23.3108 0.0000 0.0000 0.0000
# 3 -1.6729 23.3108 88.3400 0.0000 0.0000 0.0000
# 4 0.0000 0.0000 0.0000 25.5340 0.0000 0.0000
# 5 0.0000 0.0000 0.0000 0.0000 3.8228 0.0000
# 6 0.0000 0.0000 0.0000 0.0000 0.0000 25.2355
#
#
#
# Elastic Compliance Matrix: (Units=1/GPa)
#
#
# Indices 1 2 3 4 5 6 
#
# 1 0.020121 0.001177 0.000070 0.000000 0.000000 0.000000
# 2 0.001177 0.014090 -0.003696 0.000000 0.000000 0.000000
# 3 0.000070 -0.003696 0.012296 0.000000 0.000000 0.000000
# 4 0.000000 0.000000 0.000000 0.039163 0.000000 0.000000
# 5 0.000000 0.000000 0.000000 0.000000 0.261590 0.000000
# 6 0.000000 0.000000 0.000000 0.000000 0.000000 0.039627
#
#
# Mechanical properties :
#
#
# Convention : Reuss Voigt Hill
#
# Bulk Modulus (GPa) = 24.03228 27.75976 25.89602
# Shear Modulus (GPa) = 12.32578 24.16938 18.24758
#
# Velocity S-wave (km/s) = 2.43191 3.40544 2.95898
# Velocity P-wave (km/s) = 4.40645 5.36492 4.90913
#
# Compressibility (1/GPa) = 0.04161071
#
# Stress axis : x y z
#
# Youngs Moduli (GPa) = 49.69904 70.97409 81.32450
#
# Poissons Ratio (x) = -0.08353 -0.00573
# Poissons Ratio (y) = -0.05849 0.30055
# Poissons Ratio (z) = -0.00350 0.26229
#
# Static dielectric constant tensor:
#      x y z
#    x 1.805720 0.000000 0.000000 
#    y 0.000000 1.900450 0.000000 
#    z 0.000000 0.000000 1.821650 
# 
# From -- ./inp_files/36772.got.cif
#   From: 2010.05.17/outbox.cif.g08.bks.cpg/sg48_19_cif.got.tgz:36772.got - 2010.06.03 20:39:00.
