data_PCOD9390493
_publ_section_title
;
Structure prediction by ZEFSAII (Michael W. Deem and Ramdas Pophale) SiO2 
 PCOD9390493
Probable space group: P N N N
;
_chemical_formula_sum "Si O2"
_cell_formula_units_Z 48
_cell_length_a 18.362869
_cell_length_b 8.782511
_cell_length_c 14.240768
_cell_angle_alpha 90.000000
_cell_angle_beta 90.000000
_cell_angle_gamma 90.000000
_cell_volume 2296.638547
_symmetry_space_group_name_H-M "P N N N"
_symmetry_group_IT_number 48
_space_group.IT_coordinate_system_code '2'
_symmetry_cell_setting 'orthorhombic'
loop_
_space_group_symop_operation_xyz
x,y,z
1/2-x,1/2-y,z
x,1/2-y,1/2-z
1/2-x,y,1/2-z
-x,-y,-z
1/2+x,1/2+y,-z
-x,1/2+y,1/2+z
1/2+x,-y,1/2+z
loop_
_atom_site_type_symbol
_atom_site_label
_atom_site_fract_x
_atom_site_fract_y
_atom_site_fract_z
Si Si1 0.167353 0.226943 0.860775
Si Si2 0.432597 0.380870 0.118166
Si Si3 0.827289 0.393939 0.698663
Si Si4 0.084058 0.949302 0.916129
Si Si5 0.173647 0.715660 0.004582
Si Si6 0.419113 0.424555 0.488007
O O1 0.250000 0.250000 0.895604
O O2 0.163988 0.250000 0.750000
O O3 0.111280 0.333500 0.919672
O O4 0.146015 0.051735 0.872942
O O5 0.373614 0.454353 0.186577
O O6 0.513079 0.433000 0.147545
O O7 0.427762 0.465201 0.016234
O O8 0.424042 0.204030 0.093292
O O9 0.865220 0.250000 0.750000
O O10 0.750000 0.417777 0.750000
O O11 0.817462 0.326492 0.594427
O O12 0.109715 0.781612 0.940898
O O13 0.250000 0.750000 0.953890
O O14 0.143858 0.550197 0.032943
O O15 0.500000 0.500000 0.500000
#
# Coordination Sequence:
#
# PCOD9390493 Si02
#       6
#     8   8   8   8   8   8
#     4  10  22  41  64  92 128 166 219 287 354 403
#     4   9  19  36  61  91 127 170 220 271 319 398
#     4  10  20  39  61  90 133 179 217 256 338 411
#     4   9  18  35  60  90 117 166 219 263 333 395
#     4  11  20  36  66  90 128 173 221 272 326 403
#     4  11  22  41  67 101 127 170 235 286 329 406
#
# _framework density 20.900110999999999
#
# number of rings (size 3 to 8) (size 9 to 14) (size 15 to 20)
#    0.000    2.000    3.333    1.000    2.333    0.667 
#    0.000    2.500    0.000    3.000    0.000    0.000 
#    0.000    0.000    0.000    0.000    0.000    0.000 
#
# Total GULP energy -267257.982280 kJ/mol
# GULP energy per Si atom -5567.874631 kJ/mol
# Density = 2.085254 g / cm^3
# Si number density = 20.900111 Si / 1000 Ang^3
#
#
#
# Elastic Constant Matrix: (Units=GPa)
#
#
# Indices 1 2 3 4 5 6 
#
# 1 125.7582 74.0321 27.0272 0.0000 0.0000 0.0000
# 2 74.0321 137.9557 13.0291 0.0000 0.0000 0.0000
# 3 27.0272 13.0291 37.3977 0.0000 0.0000 0.0000
# 4 0.0000 0.0000 0.0000 21.8298 0.0000 0.0000
# 5 0.0000 0.0000 0.0000 0.0000 13.4597 0.0000
# 6 0.0000 0.0000 0.0000 0.0000 0.0000 -2.8020
#
#
#
# Elastic Compliance Matrix: (Units=1/GPa)
#
#
# Indices 1 2 3 4 5 6 
#
# 1 0.013346 -0.006464 -0.007393 0.000000 0.000000 0.000000
# 2 -0.006464 0.010626 0.000969 0.000000 0.000000 0.000000
# 3 -0.007393 0.000969 0.031745 0.000000 0.000000 0.000000
# 4 0.000000 0.000000 0.000000 0.045809 0.000000 0.000000
# 5 0.000000 0.000000 0.000000 0.000000 0.074296 0.000000
# 6 0.000000 0.000000 0.000000 0.000000 0.000000 -0.356882
#
#
# Mechanical properties :
#
#
# Convention : Reuss Voigt Hill
#
# Bulk Modulus (GPa) = 33.39833 58.80982 46.10407
# Shear Modulus (GPa) = -34.41025 18.96569 -7.72228
#
# Velocity S-wave (km/s) = -4.06201 3.01565 -1.92428
# Velocity P-wave (km/s) = 2.44646 6.35021 4.14367
#
# Compressibility (1/GPa) = 0.02994162
#
# Stress axis : x y z
#
# Youngs Moduli (GPa) = 74.93101 94.11117 31.50121
#
# Poissons Ratio (x) = 0.60829 0.23289
# Poissons Ratio (y) = 0.48432 -0.03053
# Poissons Ratio (z) = 0.55396 -0.09121
#
# Static dielectric constant tensor:
#      x y z
#    x 1.844480 0.000000 0.000000 
#    y 0.000000 1.803200 0.000000 
#    z 0.000000 0.000000 1.821400 
# 
# From -- ./inp_files/27892.got.cif
#   From: 2010.05.17/outbox.cif.g08.bks.cpg/sg48_14_cif.got.tgz:27892.got - 2010.06.03 20:39:00.
