data_PCOD9390371
_publ_section_title
;
Structure prediction by ZEFSAII (Michael W. Deem and Ramdas Pophale) SiO2 
 PCOD9390371
Probable space group: P N N N
;
_chemical_formula_sum "Si O2"
_cell_formula_units_Z 34
_cell_length_a 4.989717
_cell_length_b 24.018649
_cell_length_c 13.080083
_cell_angle_alpha 90.000000
_cell_angle_beta 90.000000
_cell_angle_gamma 90.000000
_cell_volume 1567.599044
_symmetry_space_group_name_H-M "P N N N"
_symmetry_group_IT_number 48
_space_group.IT_coordinate_system_code '2'
_symmetry_cell_setting 'orthorhombic'
loop_
_space_group_symop_operation_xyz
x,y,z
1/2-x,1/2-y,z
x,1/2-y,1/2-z
1/2-x,y,1/2-z
-x,-y,-z
1/2+x,1/2+y,-z
-x,1/2+y,1/2+z
1/2+x,-y,1/2+z
loop_
_atom_site_type_symbol
_atom_site_label
_atom_site_fract_x
_atom_site_fract_y
_atom_site_fract_z
Si Si1 0.744012 0.638608 0.524896
Si Si2 0.920671 0.499081 0.165797
Si Si3 0.750000 0.750000 0.400612
Si Si4 0.750000 0.250000 0.750000
Si Si5 0.231617 0.933305 0.023656
Si Si6 0.750000 0.601574 0.750000
O O1 0.802408 0.696997 0.472389
O O2 0.446572 0.615276 0.503025
O O3 0.798712 0.636409 0.647029
O O4 0.943665 0.593861 0.474810
O O5 0.750000 0.530743 0.250000
O O6 0.165174 0.535246 0.123755
O O7 0.021254 0.442396 0.219033
O O8 0.755578 0.478123 0.067693
O O9 0.485712 0.733140 0.333451
#
# Coordination Sequence:
#
# PCOD9390371 Si02
#       6
#     8   8   4   2   8   4
#     4  11  23  43  64 101 128 180 218 291 323 419
#     4  10  20  37  59  90 135 187 211 276 325 410
#     4  11  24  47  76  92 136 165 234 281 350 380
#     4  10  24  50  70  92 116 182 210 294 336 388
#     4  10  23  37  61  91 136 171 233 259 336 394
#     4  10  22  37  67  94 146 167 219 258 360 396
#
# _framework density 21.689221
#
# number of rings (size 3 to 8) (size 9 to 14) (size 15 to 20)
#    0.000    1.647    2.353    1.412    3.294    3.294 
#    8.471    1.176    0.000    4.235    0.000    0.000 
#    0.000    0.000    0.000    0.000    0.000    0.000 
#
# Total GULP energy -189694.932427 kJ/mol
# GULP energy per Si atom -5579.262718 kJ/mol
# Density = 2.163986 g / cm^3
# Si number density = 21.689221 Si / 1000 Ang^3
#
#
#
# Elastic Constant Matrix: (Units=GPa)
#
#
# Indices 1 2 3 4 5 6 
#
# 1 73.8670 9.5082 28.0582 0.0000 0.0000 0.0000
# 2 9.5082 93.7661 47.5306 0.0000 0.0000 0.0000
# 3 28.0582 47.5306 153.7104 0.0000 0.0000 0.0000
# 4 0.0000 0.0000 0.0000 -16.8850 0.0000 0.0000
# 5 0.0000 0.0000 0.0000 0.0000 36.2655 0.0000
# 6 0.0000 0.0000 0.0000 0.0000 0.0000 21.5628
#
#
#
# Elastic Compliance Matrix: (Units=1/GPa)
#
#
# Indices 1 2 3 4 5 6 
#
# 1 0.014548 -0.000153 -0.002608 0.000000 0.000000 0.000000
# 2 -0.000153 0.012649 -0.003883 0.000000 0.000000 0.000000
# 3 -0.002608 -0.003883 0.008183 0.000000 0.000000 0.000000
# 4 0.000000 0.000000 0.000000 -0.059224 0.000000 0.000000
# 5 0.000000 0.000000 0.000000 0.000000 0.027574 0.000000
# 6 0.000000 0.000000 0.000000 0.000000 0.000000 0.046376
#
#
# Mechanical properties :
#
#
# Convention : Reuss Voigt Hill
#
# Bulk Modulus (GPa) = 45.26864 54.61528 49.94196
# Shear Modulus (GPa) = 70.66215 23.93843 47.30029
#
# Velocity S-wave (km/s) = 5.71403 3.32580 4.67499
# Velocity P-wave (km/s) = 8.02809 6.32325 7.22612
#
# Compressibility (1/GPa) = 0.02209035
#
# Stress axis : x y z
#
# Youngs Moduli (GPa) = 68.73655 79.05855 122.20937
#
# Poissons Ratio (x) = 0.01210 0.31876
# Poissons Ratio (y) = 0.01052 0.47458
# Poissons Ratio (z) = 0.17929 0.30701
#
# Static dielectric constant tensor:
#      x y z
#    x 1.825880 0.000000 0.000000 
#    y 0.000000 1.771090 0.000000 
#    z 0.000000 0.000000 1.841460 
# 
# From -- ./inp_files/2268.got.cif
#   From: 2010.05.17/outbox.cif.g08.bks.cpg/sg48_2_cif.got.tgz:2268.got - 2010.06.03 20:39:00.
