data_PCOD9390702
_publ_section_title
;
Structure prediction by ZEFSAII (Michael W. Deem and Ramdas Pophale) SiO2 
 PCOD9390702
Probable space group: P N N N
;
_chemical_formula_sum "Si O2"
_cell_formula_units_Z 48
_cell_length_a 18.657687
_cell_length_b 7.186974
_cell_length_c 16.246782
_cell_angle_alpha 90.000000
_cell_angle_beta 90.000000
_cell_angle_gamma 90.000000
_cell_volume 2178.568551
_symmetry_space_group_name_H-M "P N N N"
_symmetry_group_IT_number 48
_space_group.IT_coordinate_system_code '2'
_symmetry_cell_setting 'orthorhombic'
loop_
_space_group_symop_operation_xyz
x,y,z
1/2-x,1/2-y,z
x,1/2-y,1/2-z
1/2-x,y,1/2-z
-x,-y,-z
1/2+x,1/2+y,-z
-x,1/2+y,1/2+z
1/2+x,-y,1/2+z
loop_
_atom_site_type_symbol
_atom_site_label
_atom_site_fract_x
_atom_site_fract_y
_atom_site_fract_z
Si Si1 0.446942 0.539633 0.119177
Si Si2 0.638037 0.954760 0.779042
Si Si3 0.025050 0.559011 0.089484
Si Si4 0.092898 0.298090 0.660550
Si Si5 0.272705 0.955572 0.073413
Si Si6 0.855324 0.706152 0.512852
O O1 0.394872 0.545410 0.198003
O O2 0.528707 0.547273 0.153546
O O3 0.435937 0.740756 0.077835
O O4 0.427609 0.377546 0.054473
O O5 0.659721 0.750000 0.750000
O O6 0.571865 0.946131 0.844268
O O7 0.700862 0.046427 0.832109
O O8 0.165278 0.422653 0.027035
O O9 0.952148 0.614356 0.136244
O O10 0.000000 0.500000 0.000000
O O11 0.122780 0.250000 0.750000
O O12 0.144800 0.333538 0.584075
O O13 0.250000 0.750000 0.046311
O O14 0.204114 0.085601 0.059554
#
# Coordination Sequence:
#
# PCOD9390702 Si02
#       6
#     8   8   8   8   8   8
#     4  10  21  41  65  99 138 176 231 290 365 436
#     4  12  22  40  66 100 145 178 234 294 356 437
#     4  10  21  37  64 101 140 186 221 288 366 435
#     4  10  21  40  70 100 137 174 233 297 372 424
#     4  11  26  44  68  97 139 189 243 293 342 434
#     4  11  23  44  70  96 138 193 240 284 361 434
#
# _framework density 22.032817000000001
#
# number of rings (size 3 to 8) (size 9 to 14) (size 15 to 20)
#    1.000    0.333    3.333    3.000    0.000    0.667 
#    0.000    2.500    3.667    1.000    0.000    0.000 
#    0.000    0.000    0.000    0.000    0.000    0.000 
#
# Total GULP energy -267566.201736 kJ/mol
# GULP energy per Si atom -5574.295870 kJ/mol
# Density = 2.198267 g / cm^3
# Si number density = 22.032817 Si / 1000 Ang^3
#
#
#
# Elastic Constant Matrix: (Units=GPa)
#
#
# Indices 1 2 3 4 5 6 
#
# 1 54.5947 20.3110 40.7814 0.0000 0.0000 0.0000
# 2 20.3110 121.3084 43.8928 0.0000 0.0000 0.0000
# 3 40.7814 43.8928 174.2912 0.0000 0.0000 0.0000
# 4 0.0000 0.0000 0.0000 35.4185 0.0000 0.0000
# 5 0.0000 0.0000 0.0000 0.0000 27.1144 0.0000
# 6 0.0000 0.0000 0.0000 0.0000 0.0000 34.6877
#
#
#
# Elastic Compliance Matrix: (Units=1/GPa)
#
#
# Indices 1 2 3 4 5 6 
#
# 1 0.022656 -0.002063 -0.004782 0.000000 0.000000 0.000000
# 2 -0.002063 0.009258 -0.001849 0.000000 0.000000 0.000000
# 3 -0.004782 -0.001849 0.007322 0.000000 0.000000 0.000000
# 4 0.000000 0.000000 0.000000 0.028234 0.000000 0.000000
# 5 0.000000 0.000000 0.000000 0.000000 0.036881 0.000000
# 6 0.000000 0.000000 0.000000 0.000000 0.000000 0.028829
#
#
# Mechanical properties :
#
#
# Convention : Reuss Voigt Hill
#
# Bulk Modulus (GPa) = 45.76902 62.24050 54.00476
# Shear Modulus (GPa) = 31.67581 35.79139 33.73360
#
# Velocity S-wave (km/s) = 3.79577 4.03483 3.91712
# Velocity P-wave (km/s) = 6.32682 7.07226 6.70990
#
# Compressibility (1/GPa) = 0.02184884
#
# Stress axis : x y z
#
# Youngs Moduli (GPa) = 44.13806 108.01684 136.57648
#
# Poissons Ratio (x) = 0.22287 0.65305
# Poissons Ratio (y) = 0.09107 0.25249
# Poissons Ratio (z) = 0.21105 0.19969
#
# Static dielectric constant tensor:
#      x y z
#    x 1.943310 0.000000 0.000000 
#    y 0.000000 1.907150 0.000000 
#    z 0.000000 0.000000 1.855860 
# 
# From -- ./inp_files/32167.got.cif
#   From: 2010.05.17/outbox.cif.g08.bks.cpg/sg48_17_cif.got.tgz:32167.got - 2010.06.03 20:39:00.
