data_PCOD9390685
_publ_section_title
;
Structure prediction by ZEFSAII (Michael W. Deem and Ramdas Pophale) SiO2 
 PCOD9390685
Probable space group: P N N N
;
_chemical_formula_sum "Si O2"
_cell_formula_units_Z 58
_cell_length_a 16.991850
_cell_length_b 9.328068
_cell_length_c 16.115921
_cell_angle_alpha 90.000000
_cell_angle_beta 90.000000
_cell_angle_gamma 90.000000
_cell_volume 2554.391726
_symmetry_space_group_name_H-M "P N N N"
_symmetry_group_IT_number 48
_space_group.IT_coordinate_system_code '2'
_symmetry_cell_setting 'orthorhombic'
loop_
_space_group_symop_operation_xyz
x,y,z
1/2-x,1/2-y,z
x,1/2-y,1/2-z
1/2-x,y,1/2-z
-x,-y,-z
1/2+x,1/2+y,-z
-x,1/2+y,1/2+z
1/2+x,-y,1/2+z
loop_
_atom_site_type_symbol
_atom_site_label
_atom_site_fract_x
_atom_site_fract_y
_atom_site_fract_z
Si Si1 0.825960 0.313179 0.961639
Si Si2 0.250000 0.750000 0.750000
Si Si3 0.409311 0.539629 0.018174
Si Si4 0.787809 0.479476 0.122694
Si Si5 0.562630 0.950730 0.930441
Si Si6 0.447951 0.596131 0.714390
Si Si7 0.369091 0.252939 0.937192
Si Si8 0.985385 0.148660 0.825745
O O1 0.750000 0.250000 0.916030
O O2 0.878528 0.194507 0.009054
O O3 0.883642 0.412870 0.909915
O O4 0.788574 0.411967 0.032182
O O5 0.269821 0.620510 0.820103
O O6 0.417214 0.577037 0.117202
O O7 0.500000 0.500000 0.000000
O O8 0.358731 0.416519 0.971371
O O9 0.871380 0.444713 0.164152
O O10 0.804646 0.651205 0.108864
O O11 0.519723 0.896872 0.849518
O O12 0.611335 0.829822 0.977736
O O13 0.500000 0.000000 0.000000
O O14 0.431678 0.750000 0.750000
O O15 0.467118 0.481931 0.784768
O O16 0.448677 0.265187 0.880493
O O17 0.959214 0.250000 0.750000
#
# Coordination Sequence:
#
# PCOD9390685 Si02
#       8
#     8   2   8   8   8   8   8   8
#     4  11  23  41  66  92 127 174 221 265 326 402
#     4  12  24  40  60  90 128 184 216 258 352 424
#     4  10  22  36  65  92 124 172 222 270 319 391
#     4  11  23  38  61  87 131 176 215 261 324 417
#     4  11  19  38  63  90 126 169 224 268 318 387
#     4  12  23  34  62  95 129 166 215 276 336 385
#     4  10  21  37  58  86 123 168 217 267 315 375
#     4  11  20  35  57  95 129 155 209 283 335 373
#
# _framework density 22.705991999999998
#
# number of rings (size 3 to 8) (size 9 to 14) (size 15 to 20)
#    0.000    1.103    5.517    3.310    3.862    0.000 
#    0.000    2.759    3.034    3.724    0.000    0.966 
#    0.000    0.000    0.000    0.000    0.000    0.000 
#
# Total GULP energy -322990.191077 kJ/mol
# GULP energy per Si atom -5568.796398 kJ/mol
# Density = 2.265431 g / cm^3
# Si number density = 22.705992 Si / 1000 Ang^3
#
#
#
# Elastic Constant Matrix: (Units=GPa)
#
#
# Indices 1 2 3 4 5 6 
#
# 1 63.1312 35.3875 14.7118 0.0000 0.0000 0.0000
# 2 35.3875 140.2016 36.4798 0.0000 0.0000 0.0000
# 3 14.7118 36.4798 75.7345 0.0000 0.0000 0.0000
# 4 0.0000 0.0000 0.0000 35.3858 0.0000 0.0000
# 5 0.0000 0.0000 0.0000 0.0000 7.3314 0.0000
# 6 0.0000 0.0000 0.0000 0.0000 0.0000 39.7467
#
#
#
# Elastic Compliance Matrix: (Units=1/GPa)
#
#
# Indices 1 2 3 4 5 6 
#
# 1 0.018607 -0.004294 -0.001546 0.000000 0.000000 0.000000
# 2 -0.004294 0.009146 -0.003571 0.000000 0.000000 0.000000
# 3 -0.001546 -0.003571 0.015224 0.000000 0.000000 0.000000
# 4 0.000000 0.000000 0.000000 0.028260 0.000000 0.000000
# 5 0.000000 0.000000 0.000000 0.000000 0.136400 0.000000
# 6 0.000000 0.000000 0.000000 0.000000 0.000000 0.025159
#
#
# Mechanical properties :
#
#
# Convention : Reuss Voigt Hill
#
# Bulk Modulus (GPa) = 41.40002 50.24729 45.82366
# Shear Modulus (GPa) = 19.25508 29.32532 24.29020
#
# Velocity S-wave (km/s) = 2.91523 3.59768 3.27428
# Velocity P-wave (km/s) = 5.44097 6.27975 5.87535
#
# Compressibility (1/GPa) = 0.02415457
#
# Stress axis : x y z
#
# Youngs Moduli (GPa) = 53.74188 109.34130 65.68362
#
# Poissons Ratio (x) = 0.46955 0.10155
# Poissons Ratio (y) = 0.23078 0.23456
# Poissons Ratio (z) = 0.08309 0.39047
#
# Static dielectric constant tensor:
#      x y z
#    x 1.854890 0.000000 0.000000 
#    y 0.000000 1.970850 0.000000 
#    z 0.000000 0.000000 1.899390 
# 
# From -- ./inp_files/32011.got.cif
#   From: 2010.05.17/outbox.cif.g08.bks.cpg/sg48_17_cif.got.tgz:32011.got - 2010.06.03 20:39:00.
