data_PCOD9390812
_publ_section_title
;
Structure prediction by ZEFSAII (Michael W. Deem and Ramdas Pophale) SiO2 
 PCOD9390812
Probable space group: P N N N
;
_chemical_formula_sum "Si O2"
_cell_formula_units_Z 48
_cell_length_a 13.406413
_cell_length_b 6.691865
_cell_length_c 25.044317
_cell_angle_alpha 90.000000
_cell_angle_beta 90.000000
_cell_angle_gamma 90.000000
_cell_volume 2246.823499
_symmetry_space_group_name_H-M "P N N N"
_symmetry_group_IT_number 48
_space_group.IT_coordinate_system_code '2'
_symmetry_cell_setting 'orthorhombic'
loop_
_space_group_symop_operation_xyz
x,y,z
1/2-x,1/2-y,z
x,1/2-y,1/2-z
1/2-x,y,1/2-z
-x,-y,-z
1/2+x,1/2+y,-z
-x,1/2+y,1/2+z
1/2+x,-y,1/2+z
loop_
_atom_site_type_symbol
_atom_site_label
_atom_site_fract_x
_atom_site_fract_y
_atom_site_fract_z
Si Si1 0.632170 0.740558 0.422792
Si Si2 0.142431 0.667595 0.130793
Si Si3 0.356134 0.136299 0.033367
Si Si4 0.014381 0.448429 0.403545
Si Si5 0.507964 0.656587 0.694831
Si Si6 0.861277 0.845842 0.302698
O O1 0.750000 0.750000 0.420067
O O2 0.609238 0.595112 0.472340
O O3 0.600595 0.687255 0.362811
O O4 0.582275 0.955364 0.431220
O O5 0.250000 0.750000 0.150332
O O6 0.153667 0.541652 0.075614
O O7 0.083383 0.516937 0.171644
O O8 0.083342 0.865993 0.113514
O O9 0.250000 0.250000 0.030519
O O10 0.431731 0.296595 0.057421
O O11 0.995034 0.324690 0.349917
O O12 0.546667 0.750000 0.750000
O O13 0.395774 0.572406 0.705082
O O14 0.750000 0.750000 0.303053
O O15 0.910853 0.750000 0.250000
#
# Coordination Sequence:
#
# PCOD9390812 Si02
#       6
#     8   8   8   8   8   8
#     4  10  21  40  63  99 137 171 228 282 331 409
#     4  11  23  43  71  94 138 183 224 288 349 394
#     4  10  21  39  66  97 131 176 233 276 341 419
#     4  11  22  42  67  96 134 181 219 285 347 401
#     4  11  25  43  72 100 131 175 234 278 339 419
#     4  10  21  43  71  92 133 176 214 271 337 399
#
# _framework density 21.363492999999998
#
# number of rings (size 3 to 8) (size 9 to 14) (size 15 to 20)
#    0.000    1.500    3.333    1.500    0.000    0.667 
#    3.000   14.167    0.000    0.000    0.000    0.000 
#    0.000    0.000    0.000    0.000    0.000    0.000 
#
# Total GULP energy -267271.760517 kJ/mol
# GULP energy per Si atom -5568.161677 kJ/mol
# Density = 2.131487 g / cm^3
# Si number density = 21.363493 Si / 1000 Ang^3
#
#
#
# Elastic Constant Matrix: (Units=GPa)
#
#
# Indices 1 2 3 4 5 6 
#
# 1 102.9170 41.6285 13.5037 0.0000 0.0000 0.0000
# 2 41.6285 101.3136 33.8595 0.0000 0.0000 0.0000
# 3 13.5037 33.8595 156.6113 0.0000 0.0000 0.0000
# 4 0.0000 0.0000 0.0000 25.2174 0.0000 0.0000
# 5 0.0000 0.0000 0.0000 0.0000 7574.4432 0.0000
# 6 0.0000 0.0000 0.0000 0.0000 0.0000 37.6156
#
#
#
# Elastic Compliance Matrix: (Units=1/GPa)
#
#
# Indices 1 2 3 4 5 6 
#
# 1 0.011653 -0.004799 0.000033 0.000000 0.000000 0.000000
# 2 -0.004799 0.012616 -0.002314 0.000000 0.000000 0.000000
# 3 0.000033 -0.002314 0.006883 0.000000 0.000000 0.000000
# 4 0.000000 0.000000 0.000000 0.039655 0.000000 0.000000
# 5 0.000000 0.000000 0.000000 0.000000 0.000132 0.000000
# 6 0.000000 0.000000 0.000000 0.000000 0.000000 0.026585
#
#
# Mechanical properties :
#
#
# Convention : Reuss Voigt Hill
#
# Bulk Modulus (GPa) = 58.85329 59.86945 59.36137
# Shear Modulus (GPa) = 42.60846 1545.57859 794.09353
#
# Velocity S-wave (km/s) = 4.47077 26.92653 19.30059
# Velocity P-wave (km/s) = 7.36605 31.54048 22.90263
#
# Compressibility (1/GPa) = 0.01699140
#
# Stress axis : x y z
#
# Youngs Moduli (GPa) = 85.81128 79.26738 145.29331
#
# Poissons Ratio (x) = 0.38042 -0.00476
# Poissons Ratio (y) = 0.41183 0.33616
# Poissons Ratio (z) = -0.00281 0.18340
#
# Static dielectric constant tensor:
#      x y z
#    x 0.609760 0.000000 0.000000 
#    y 0.000000 1.792270 0.000000 
#    z 0.000000 0.000000 1.868570 
# 
# From -- ./inp_files/37887.got.cif
#   From: 2010.05.17/outbox.cif.g08.bks.cpg/sg48_19_cif.got.tgz:37887.got - 2010.06.03 20:39:00.
