data_PCOD9390097
_publ_section_title
;
Structure prediction by ZEFSAII (Michael W. Deem and Ramdas Pophale) SiO2 
 PCOD9390097
Probable space group: P N N N
;
_chemical_formula_sum "Si O2"
_cell_formula_units_Z 34
_cell_length_a 9.293509
_cell_length_b 8.720820
_cell_length_c 21.248746
_cell_angle_alpha 90.000000
_cell_angle_beta 90.000000
_cell_angle_gamma 90.000000
_cell_volume 1722.147524
_symmetry_space_group_name_H-M "P N N N"
_symmetry_group_IT_number 48
_space_group.IT_coordinate_system_code '2'
_symmetry_cell_setting 'orthorhombic'
loop_
_space_group_symop_operation_xyz
x,y,z
1/2-x,1/2-y,z
x,1/2-y,1/2-z
1/2-x,y,1/2-z
-x,-y,-z
1/2+x,1/2+y,-z
-x,1/2+y,1/2+z
1/2+x,-y,1/2+z
loop_
_atom_site_type_symbol
_atom_site_label
_atom_site_fract_x
_atom_site_fract_y
_atom_site_fract_z
Si Si1 0.087928 0.187228 0.938379
Si Si2 0.590706 0.810084 0.681337
Si Si3 0.750000 0.750000 0.250000
Si Si4 0.408909 0.684222 0.938515
Si Si5 0.974691 0.158174 0.810184
O O1 0.250000 0.250000 0.934603
O O2 0.988937 0.235954 0.878488
O O3 0.095593 0.001546 0.936703
O O4 0.009683 0.231185 0.003055
O O5 0.750000 0.750000 0.667480
O O6 0.546925 0.750000 0.750000
O O7 0.481358 0.763599 0.626660
O O8 0.596162 0.994140 0.684000
O O9 0.856038 0.854791 0.209245
O O10 0.250000 0.750000 0.945866
O O11 0.915079 0.250000 0.750000
#
# Coordination Sequence:
#
# PCOD9390097 Si02
#       5
#     8   8   2   8   8
#     4  10  19  38  61  83 119 151 193 248 289 346
#     4  10  22  40  59  84 123 156 191 241 299 358
#     4   8  16  32  62  90 112 144 200 250 284 340
#     4  10  23  38  58  87 115 156 197 239 297 348
#     4   9  18  36  62  90 115 152 200 245 292 347
#
# _framework density 19.742791
#
# number of rings (size 3 to 8) (size 9 to 14) (size 15 to 20)
#    0.706    1.647    1.176    0.706    0.000    7.059 
#    0.000   16.471    0.000    0.000    0.000    0.000 
#    0.000    0.000    0.000    0.000    0.000    0.000 
#
# Total GULP energy -189527.114493 kJ/mol
# GULP energy per Si atom -5574.326897 kJ/mol
# Density = 1.969786 g / cm^3
# Si number density = 19.742791 Si / 1000 Ang^3
#
#
#
# Elastic Constant Matrix: (Units=GPa)
#
#
# Indices 1 2 3 4 5 6 
#
# 1 105.9015 41.2194 64.0837 0.0000 0.0000 0.0000
# 2 41.2194 36.5383 24.7577 0.0000 0.0000 0.0000
# 3 64.0837 24.7577 163.9493 0.0000 0.0000 0.0000
# 4 0.0000 0.0000 0.0000 35.2991 0.0000 0.0000
# 5 0.0000 0.0000 0.0000 0.0000 -46.5699 0.0000
# 6 0.0000 0.0000 0.0000 0.0000 0.0000 46.4846
#
#
#
# Elastic Compliance Matrix: (Units=1/GPa)
#
#
# Indices 1 2 3 4 5 6 
#
# 1 0.019794 -0.019035 -0.004863 0.000000 0.000000 0.000000
# 2 -0.019035 0.048794 0.000072 0.000000 0.000000 0.000000
# 3 -0.004863 0.000072 0.007989 0.000000 0.000000 0.000000
# 4 0.000000 0.000000 0.000000 0.028329 0.000000 0.000000
# 5 0.000000 0.000000 0.000000 0.000000 -0.021473 0.000000
# 6 0.000000 0.000000 0.000000 0.000000 0.000000 0.021512
#
#
# Mechanical properties :
#
#
# Convention : Reuss Voigt Hill
#
# Bulk Modulus (GPa) = 34.57136 62.94562 48.75849
# Shear Modulus (GPa) = 30.81868 18.79798 24.80833
#
# Velocity S-wave (km/s) = 3.95525 3.08903 3.54867
# Velocity P-wave (km/s) = 6.19738 6.68393 6.44525
#
# Compressibility (1/GPa) = 0.02892568
#
# Stress axis : x y z
#
# Youngs Moduli (GPa) = 50.51982 20.49443 125.16897
#
# Poissons Ratio (x) = 0.39012 0.60864
# Poissons Ratio (y) = 0.96166 -0.00904
# Poissons Ratio (z) = 0.24566 -0.00148
#
# Static dielectric constant tensor:
#      x y z
#    x 1.664700 0.000000 0.000000 
#    y 0.000000 1.681960 0.000000 
#    z 0.000000 0.000000 1.757000 
# 
# From -- ./inp_files/33222.got.cif
#   From: 2010.05.17/outbox.cif.g08.bks.cpg/sg48_17_cif.got.tgz:33222.got - 2010.06.03 20:39:00.
