data_PCOD9390601
_publ_section_title
;
Structure prediction by ZEFSAII (Michael W. Deem and Ramdas Pophale) SiO2 
 PCOD9390601
Probable space group: P N N N
;
_chemical_formula_sum "Si O2"
_cell_formula_units_Z 34
_cell_length_a 17.300736
_cell_length_b 13.145784
_cell_length_c 6.288187
_cell_angle_alpha 90.000000
_cell_angle_beta 90.000000
_cell_angle_gamma 90.000000
_cell_volume 1430.133301
_symmetry_space_group_name_H-M "P N N N"
_symmetry_group_IT_number 48
_space_group.IT_coordinate_system_code '2'
_symmetry_cell_setting 'orthorhombic'
loop_
_space_group_symop_operation_xyz
x,y,z
1/2-x,1/2-y,z
x,1/2-y,1/2-z
1/2-x,y,1/2-z
-x,-y,-z
1/2+x,1/2+y,-z
-x,1/2+y,1/2+z
1/2+x,-y,1/2+z
loop_
_atom_site_type_symbol
_atom_site_label
_atom_site_fract_x
_atom_site_fract_y
_atom_site_fract_z
Si Si1 0.994945 0.106505 0.383385
Si Si2 0.050125 0.250000 0.750000
Si Si3 0.250000 0.935381 0.250000
Si Si4 0.750000 0.750000 0.750000
Si Si5 0.824237 0.361634 0.153821
Si Si6 0.134031 0.399046 0.453694
O O1 0.908885 0.101552 0.288555
O O2 0.003491 0.201785 0.548276
O O3 0.062245 0.107028 0.209625
O O4 0.000000 0.000000 0.500000
O O5 0.098233 0.350634 0.671337
O O6 0.196130 0.869253 0.405974
O O7 0.313680 0.002876 0.382436
O O8 0.804459 0.686160 0.602118
O O9 0.823654 0.250000 0.250000
O O10 0.750000 0.418826 0.250000
#
# Coordination Sequence:
#
# PCOD9390601 Si02
#       6
#     8   4   4   2   8   8
#     4  12  26  50  74 111 150 200 263 317 387 474
#     4  12  26  45  82 107 148 206 240 320 403 453
#     4  11  26  46  74 115 152 198 257 320 378 461
#     4  10  20  46  72 110 148 182 238 310 384 470
#     4  11  27  49  76 105 152 203 264 316 382 457
#     4  11  24  46  72 112 154 188 248 316 385 474
#
# _framework density 23.774009
#
# number of rings (size 3 to 8) (size 9 to 14) (size 15 to 20)
#    0.000    0.706    4.706    1.412    3.294    8.941 
#    0.000    0.000    0.000    0.000    0.000    0.000 
#    0.000    0.000    0.000    0.000    0.000    0.000 
#
# Total GULP energy -189455.643299 kJ/mol
# GULP energy per Si atom -5572.224803 kJ/mol
# Density = 2.371990 g / cm^3
# Si number density = 23.774009 Si / 1000 Ang^3
#
#
#
# Elastic Constant Matrix: (Units=GPa)
#
#
# Indices 1 2 3 4 5 6 
#
# 1 207.8173 33.2245 43.0044 0.0000 0.0000 0.0000
# 2 33.2245 100.2815 42.7674 0.0000 0.0000 0.0000
# 3 43.0044 42.7674 80.8468 0.0000 0.0000 0.0000
# 4 0.0000 0.0000 0.0000 85.8607 0.0000 0.0000
# 5 0.0000 0.0000 0.0000 0.0000 32.0295 0.0000
# 6 0.0000 0.0000 0.0000 0.0000 0.0000 -9.0778
#
#
#
# Elastic Compliance Matrix: (Units=1/GPa)
#
#
# Indices 1 2 3 4 5 6 
#
# 1 0.005449 -0.000735 -0.002510 0.000000 0.000000 0.000000
# 2 -0.000735 0.012976 -0.006473 0.000000 0.000000 0.000000
# 3 -0.002510 -0.006473 0.017128 0.000000 0.000000 0.000000
# 4 0.000000 0.000000 0.000000 0.011647 0.000000 0.000000
# 5 0.000000 0.000000 0.000000 0.000000 0.031221 0.000000
# 6 0.000000 0.000000 0.000000 0.000000 0.000000 -0.110159
#
#
# Mechanical properties :
#
#
# Convention : Reuss Voigt Hill
#
# Bulk Modulus (GPa) = 62.04434 69.65980 65.85207
# Shear Modulus (GPa) = -721.54212 39.75911 -340.89151
#
# Velocity S-wave (km/s) = -17.44016 4.09391 -11.98748
# Velocity P-wave (km/s) = 19.47797 7.19105 12.80001
#
# Compressibility (1/GPa) = 0.01611750
#
# Stress axis : x y z
#
# Youngs Moduli (GPa) = 183.52910 77.06454 58.38300
#
# Poissons Ratio (x) = 0.05664 0.14651
# Poissons Ratio (y) = 0.13489 0.37793
# Poissons Ratio (z) = 0.46057 0.49886
#
# Static dielectric constant tensor:
#      x y z
#    x 2.550170 0.000000 0.000000 
#    y 0.000000 1.935170 0.000000 
#    z 0.000000 0.000000 2.209030 
# 
# From -- ./inp_files/4080.got.cif
#   From: 2010.05.17/outbox.cif.g08.bks.cpg/sg48_3_cif.got.tgz:4080.got - 2010.06.03 20:39:00.
