data_PCOD9390862
_publ_section_title
;
Structure prediction by ZEFSAII (Michael W. Deem and Ramdas Pophale) SiO2 
 PCOD9390862
Probable space group: P N N N
;
_chemical_formula_sum "Si O2"
_cell_formula_units_Z 30
_cell_length_a 5.002057
_cell_length_b 12.676118
_cell_length_c 17.032600
_cell_angle_alpha 90.000000
_cell_angle_beta 90.000000
_cell_angle_gamma 90.000000
_cell_volume 1079.980358
_symmetry_space_group_name_H-M "P N N N"
_symmetry_group_IT_number 48
_space_group.IT_coordinate_system_code '2'
_symmetry_cell_setting 'orthorhombic'
loop_
_space_group_symop_operation_xyz
x,y,z
1/2-x,1/2-y,z
x,1/2-y,1/2-z
1/2-x,y,1/2-z
-x,-y,-z
1/2+x,1/2+y,-z
-x,1/2+y,1/2+z
1/2+x,-y,1/2+z
loop_
_atom_site_type_symbol
_atom_site_label
_atom_site_fract_x
_atom_site_fract_y
_atom_site_fract_z
Si Si1 0.074349 0.059076 0.156086
Si Si2 0.360018 0.139521 0.014020
Si Si3 0.560360 0.572759 0.344137
Si Si4 0.750000 0.250000 0.750000
Si Si5 0.250000 0.750000 0.862923
O O1 0.945528 0.169534 0.182061
O O2 0.126385 0.082772 0.062975
O O3 0.864663 0.963875 0.168579
O O4 0.366289 0.021757 0.182454
O O5 0.250000 0.250000 0.980208
O O6 0.572434 0.176942 0.079246
O O7 0.469217 0.081443 0.938123
O O8 0.441910 0.676790 0.303683
#
# Coordination Sequence:
#
# PCOD9390862 Si02
#       5
#     8   8   8   2   4
#     4  11  24  42  73 107 147 189 245 319 393 447
#     4  10  22  39  70 113 152 189 241 316 403 452
#     4  12  27  45  70  99 151 203 256 303 370 470
#     4  12  34  54  72 104 152 216 268 306 366 484
#     4  10  21  40  68 114 144 173 228 320 398 452
#
# _framework density 27.778282999999998
#
# number of rings (size 3 to 8) (size 9 to 14) (size 15 to 20)
#    0.000    1.067    2.667    2.400   11.200    2.133 
#    0.000    0.000    0.000    4.800    0.000    0.000 
#    0.000    0.000    0.000    0.000    0.000    0.000 
#
# Total GULP energy -168180.553604 kJ/mol
# GULP energy per Si atom -5606.018453 kJ/mol
# Density = 2.771506 g / cm^3
# Si number density = 27.778283 Si / 1000 Ang^3
#
#
#
# Elastic Constant Matrix: (Units=GPa)
#
#
# Indices 1 2 3 4 5 6 
#
# 1 170.1646 76.1504 36.8211 0.0000 0.0000 0.0000
# 2 76.1504 115.3191 49.1326 0.0000 0.0000 0.0000
# 3 36.8211 49.1326 127.1219 0.0000 0.0000 0.0000
# 4 0.0000 0.0000 0.0000 62.6209 0.0000 0.0000
# 5 0.0000 0.0000 0.0000 0.0000 51.1412 0.0000
# 6 0.0000 0.0000 0.0000 0.0000 0.0000 71.7183
#
#
#
# Elastic Compliance Matrix: (Units=1/GPa)
#
#
# Indices 1 2 3 4 5 6 
#
# 1 0.008354 -0.005370 -0.000344 0.000000 0.000000 0.000000
# 2 -0.005370 0.013833 -0.003791 0.000000 0.000000 0.000000
# 3 -0.000344 -0.003791 0.009431 0.000000 0.000000 0.000000
# 4 0.000000 0.000000 0.000000 0.015969 0.000000 0.000000
# 5 0.000000 0.000000 0.000000 0.000000 0.019554 0.000000
# 6 0.000000 0.000000 0.000000 0.000000 0.000000 0.013943
#
#
# Mechanical properties :
#
#
# Convention : Reuss Voigt Hill
#
# Bulk Modulus (GPa) = 79.31512 81.86820 80.59166
# Shear Modulus (GPa) = 47.93953 53.79618 50.86785
#
# Velocity S-wave (km/s) = 4.15877 4.40549 4.28391
# Velocity P-wave (km/s) = 7.18856 7.44404 7.31742
#
# Compressibility (1/GPa) = 0.01260794
#
# Stress axis : x y z
#
# Youngs Moduli (GPa) = 119.69864 72.29180 106.02876
#
# Poissons Ratio (x) = 0.38821 0.03651
# Poissons Ratio (y) = 0.64279 0.40195
# Poissons Ratio (z) = 0.04122 0.27405
#
# Static dielectric constant tensor:
#      x y z
#    x 2.118960 0.000000 0.000000 
#    y 0.000000 2.148600 0.000000 
#    z 0.000000 0.000000 2.180310 
# 
# From -- ./inp_files/29176.got.cif
#   From: 2010.05.17/outbox.cif.g08.bks.cpg/sg48_15_cif.got.tgz:29176.got - 2010.06.03 20:39:00.
