data_PCOD9390683
_publ_section_title
;
Structure prediction by ZEFSAII (Michael W. Deem and Ramdas Pophale) SiO2 
 PCOD9390683
Probable space group: P N N N
;
_chemical_formula_sum "Si O2"
_cell_formula_units_Z 60
_cell_length_a 18.166244
_cell_length_b 6.411019
_cell_length_c 22.666827
_cell_angle_alpha 90.000000
_cell_angle_beta 90.000000
_cell_angle_gamma 90.000000
_cell_volume 2639.872410
_symmetry_space_group_name_H-M "P N N N"
_symmetry_group_IT_number 48
_space_group.IT_coordinate_system_code '2'
_symmetry_cell_setting 'orthorhombic'
loop_
_space_group_symop_operation_xyz
x,y,z
1/2-x,1/2-y,z
x,1/2-y,1/2-z
1/2-x,y,1/2-z
-x,-y,-z
1/2+x,1/2+y,-z
-x,1/2+y,1/2+z
1/2+x,-y,1/2+z
loop_
_atom_site_type_symbol
_atom_site_label
_atom_site_fract_x
_atom_site_fract_y
_atom_site_fract_z
Si Si1 0.160790 0.271174 0.682422
Si Si2 0.641049 0.628563 0.806480
Si Si3 0.943501 0.016542 0.636501
Si Si4 0.090997 0.486083 0.925148
Si Si5 0.673826 0.831445 0.502206
Si Si6 0.824273 0.350670 0.594620
Si Si7 0.677888 0.126363 0.395357
Si Si8 0.452177 0.750000 0.250000
O O1 0.250000 0.250000 0.681349
O O2 0.136694 0.250000 0.750000
O O3 0.128006 0.114187 0.634069
O O4 0.142444 0.502282 0.658569
O O5 0.671489 0.750000 0.750000
O O6 0.694446 0.504687 0.850584
O O7 0.593229 0.440180 0.779155
O O8 0.591157 0.796664 0.842269
O O9 0.877861 0.167849 0.615726
O O10 0.983243 0.131140 0.692538
O O11 0.004453 0.004260 0.585935
O O12 0.119630 0.347676 0.979541
O O13 0.123061 0.716890 0.927071
O O14 0.750000 0.750000 0.530036
O O15 0.639485 0.997992 0.546555
O O16 0.699666 0.954911 0.443723
O O17 0.750000 0.250000 0.569887
O O18 0.750000 0.250000 0.375937
#
# Coordination Sequence:
#
# PCOD9390683 Si02
#       8
#     8   8   8   8   8   8   8   4
#     4  10  21  37  57  91 133 171 229 286 328 392
#     4   9  20  44  70  98 138 173 214 274 336 409
#     4  10  23  42  66 101 138 175 223 275 344 413
#     4  11  23  40  65  96 132 181 222 278 340 398
#     4  11  24  42  71  95 128 177 229 282 334 405
#     4  11  26  44  73 102 130 173 227 277 342 421
#     4  11  19  39  61  88 127 177 226 270 339 389
#     4   8  18  42  67  90 139 184 216 266 332 412
#
# _framework density 22.728373000000001
#
# number of rings (size 3 to 8) (size 9 to 14) (size 15 to 20)
#    0.000    1.733    2.667    1.200    2.800    5.333 
#    4.800   16.667    0.000    0.000    0.000    0.000 
#    0.000    0.000    0.000    0.000    0.000    0.000 
#
# Total GULP energy -335114.128257 kJ/mol
# GULP energy per Si atom -5585.235471 kJ/mol
# Density = 2.267664 g / cm^3
# Si number density = 22.728373 Si / 1000 Ang^3
#
#
#
# Elastic Constant Matrix: (Units=GPa)
#
#
# Indices 1 2 3 4 5 6 
#
# 1 77.4945 33.0028 9.4539 0.0000 0.0000 0.0000
# 2 33.0028 142.9708 39.6643 0.0000 0.0000 0.0000
# 3 9.4539 39.6643 76.6835 0.0000 0.0000 0.0000
# 4 0.0000 0.0000 0.0000 42.7932 0.0000 0.0000
# 5 0.0000 0.0000 0.0000 0.0000 139.2840 0.0000
# 6 0.0000 0.0000 0.0000 0.0000 0.0000 7.5188
#
#
#
# Elastic Compliance Matrix: (Units=1/GPa)
#
#
# Indices 1 2 3 4 5 6 
#
# 1 0.014311 -0.003286 -0.000065 0.000000 0.000000 0.000000
# 2 -0.003286 0.008921 -0.004209 0.000000 0.000000 0.000000
# 3 -0.000065 -0.004209 0.015226 0.000000 0.000000 0.000000
# 4 0.000000 0.000000 0.000000 0.023368 0.000000 0.000000
# 5 0.000000 0.000000 0.000000 0.000000 0.007180 0.000000
# 6 0.000000 0.000000 0.000000 0.000000 0.000000 0.133000
#
#
# Mechanical properties :
#
#
# Convention : Reuss Voigt Hill
#
# Bulk Modulus (GPa) = 42.84765 51.26566 47.05665
# Shear Modulus (GPa) = 22.23176 52.25441 37.24308
#
# Velocity S-wave (km/s) = 3.13093 4.80008 4.05237
# Velocity P-wave (km/s) = 5.65361 7.30245 6.53028
#
# Compressibility (1/GPa) = 0.02333850
#
# Stress axis : x y z
#
# Youngs Moduli (GPa) = 69.87493 112.10032 65.67818
#
# Poissons Ratio (x) = 0.36831 0.00426
# Poissons Ratio (y) = 0.22958 0.27645
# Poissons Ratio (z) = 0.00454 0.47184
#
# Static dielectric constant tensor:
#      x y z
#    x 1.838730 0.000000 0.000000 
#    y 0.000000 1.861580 0.000000 
#    z 0.000000 0.000000 1.889930 
# 
# From -- ./inp_files/36775.got.cif
#   From: 2010.05.17/outbox.cif.g08.bks.cpg/sg48_19_cif.got.tgz:36775.got - 2010.06.03 20:39:00.
