data_PCOD9390649
_publ_section_title
;
Structure prediction by ZEFSAII (Michael W. Deem and Ramdas Pophale) SiO2 
 PCOD9390649
Probable space group: P N N N
;
_chemical_formula_sum "Si O2"
_cell_formula_units_Z 48
_cell_length_a 16.905785
_cell_length_b 7.861710
_cell_length_c 17.265438
_cell_angle_alpha 90.000000
_cell_angle_beta 90.000000
_cell_angle_gamma 90.000000
_cell_volume 2294.721377
_symmetry_space_group_name_H-M "P N N N"
_symmetry_group_IT_number 48
_space_group.IT_coordinate_system_code '2'
_symmetry_cell_setting 'orthorhombic'
loop_
_space_group_symop_operation_xyz
x,y,z
1/2-x,1/2-y,z
x,1/2-y,1/2-z
1/2-x,y,1/2-z
-x,-y,-z
1/2+x,1/2+y,-z
-x,1/2+y,1/2+z
1/2+x,-y,1/2+z
loop_
_atom_site_type_symbol
_atom_site_label
_atom_site_fract_x
_atom_site_fract_y
_atom_site_fract_z
Si Si1 0.996406 0.950352 0.770144
Si Si2 0.806287 0.985286 0.038204
Si Si3 0.475138 0.964208 0.104593
Si Si4 0.557507 0.422014 0.934691
Si Si5 0.871543 0.603472 0.026772
Si Si6 0.672337 0.063493 0.287827
O O1 0.997789 0.750000 0.750000
O O2 0.086754 0.017553 0.773929
O O3 0.956629 0.030888 0.694858
O O4 0.957187 0.987900 0.852487
O O5 0.818154 0.075943 0.120165
O O6 0.845462 0.795940 0.047811
O O7 0.713448 0.983824 0.020909
O O8 0.854778 0.062307 0.967725
O O9 0.461383 0.775252 0.074190
O O10 0.421323 0.089677 0.053203
O O11 0.569111 0.987995 0.087601
O O12 0.500000 0.500000 0.000000
O O13 0.668884 0.250000 0.250000
O O14 0.750000 0.977444 0.250000
#
# Coordination Sequence:
#
# PCOD9390649 Si02
#       6
#     8   8   8   8   8   8
#     4  11  23  39  63  93 129 169 215 267 321 383
#     4  11  22  42  63  94 130 171 213 266 324 387
#     4  11  23  40  66  96 129 169 221 263 323 389
#     4  12  23  41  66  93 129 172 214 266 320 388
#     4  10  23  40  66  94 130 172 214 264 326 385
#     4  10  21  35  59  92 131 167 211 259 322 382
#
# _framework density 20.917572
#
# number of rings (size 3 to 8) (size 9 to 14) (size 15 to 20)
#    0.000    1.167    3.333    2.500    2.333    3.333 
#    0.000    5.833    0.000    5.000    0.000    0.000 
#    0.000    0.000    0.000    0.000    0.000    0.000 
#
# Total GULP energy -268244.022854 kJ/mol
# GULP energy per Si atom -5588.417143 kJ/mol
# Density = 2.086996 g / cm^3
# Si number density = 20.917572 Si / 1000 Ang^3
#
#
#
# Elastic Constant Matrix: (Units=GPa)
#
#
# Indices 1 2 3 4 5 6 
#
# 1 129.0734 29.9385 65.3779 0.0000 0.0000 0.0000
# 2 29.9385 64.9436 36.6787 0.0000 0.0000 0.0000
# 3 65.3779 36.6787 191.2322 0.0000 0.0000 0.0000
# 4 0.0000 0.0000 0.0000 36.6958 0.0000 0.0000
# 5 0.0000 0.0000 0.0000 0.0000 30.2774 0.0000
# 6 0.0000 0.0000 0.0000 0.0000 0.0000 16.9685
#
#
#
# Elastic Compliance Matrix: (Units=1/GPa)
#
#
# Indices 1 2 3 4 5 6 
#
# 1 0.009853 -0.002960 -0.002801 0.000000 0.000000 0.000000
# 2 -0.002960 0.018158 -0.002471 0.000000 0.000000 0.000000
# 3 -0.002801 -0.002471 0.006661 0.000000 0.000000 0.000000
# 4 0.000000 0.000000 0.000000 0.027251 0.000000 0.000000
# 5 0.000000 0.000000 0.000000 0.000000 0.033028 0.000000
# 6 0.000000 0.000000 0.000000 0.000000 0.000000 0.058933
#
#
# Mechanical properties :
#
#
# Convention : Reuss Voigt Hill
#
# Bulk Modulus (GPa) = 54.92051 72.13773 63.52912
# Shear Modulus (GPa) = 28.34215 33.67195 31.00705
#
# Velocity S-wave (km/s) = 3.68495 4.01652 3.85430
# Velocity P-wave (km/s) = 6.66467 7.48808 7.08834
#
# Compressibility (1/GPa) = 0.01820813
#
# Stress axis : x y z
#
# Youngs Moduli (GPa) = 101.49454 55.07199 150.13662
#
# Poissons Ratio (x) = 0.16303 0.42048
# Poissons Ratio (y) = 0.30046 0.37094
# Poissons Ratio (z) = 0.28425 0.13607
#
# Static dielectric constant tensor:
#      x y z
#    x 2.195190 0.000000 0.000000 
#    y 0.000000 1.800530 0.000000 
#    z 0.000000 0.000000 1.735400 
# 
# From -- ./inp_files/31547.got.cif
#   From: 2010.05.17/outbox.cif.g08.bks.cpg/sg48_16_cif.got.tgz:31547.got - 2010.06.03 20:39:00.
