data_PCOD9390037
_publ_section_title
;
Structure prediction by ZEFSAII (Michael W. Deem and Ramdas Pophale) SiO2 
 PCOD9390037
Probable space group: P N N N
;
_chemical_formula_sum "Si O2"
_cell_formula_units_Z 32
_cell_length_a 15.259078
_cell_length_b 10.111450
_cell_length_c 8.873531
_cell_angle_alpha 90.000000
_cell_angle_beta 90.000000
_cell_angle_gamma 90.000000
_cell_volume 1369.109559
_symmetry_space_group_name_H-M "P N N N"
_symmetry_group_IT_number 48
_space_group.IT_coordinate_system_code '2'
_symmetry_cell_setting 'orthorhombic'
loop_
_space_group_symop_operation_xyz
x,y,z
1/2-x,1/2-y,z
x,1/2-y,1/2-z
1/2-x,y,1/2-z
-x,-y,-z
1/2+x,1/2+y,-z
-x,1/2+y,1/2+z
1/2+x,-y,1/2+z
loop_
_atom_site_type_symbol
_atom_site_label
_atom_site_fract_x
_atom_site_fract_y
_atom_site_fract_z
Si Si1 0.337000 0.454772 0.847826
Si Si2 0.440572 0.894500 0.911478
Si Si3 0.880244 0.722196 0.919919
Si Si4 0.280299 0.941454 0.079707
O O1 0.250000 0.424644 0.750000
O O2 0.405469 0.529278 0.737837
O O3 0.363808 0.325298 0.944330
O O4 0.303832 0.556497 0.974155
O O5 0.514490 0.783608 0.902269
O O6 0.500000 0.000000 0.000000
O O7 0.356922 0.851850 0.010375
O O8 0.849098 0.750000 0.750000
O O9 0.827287 0.585460 0.944869
O O10 0.250000 0.920923 0.250000
#
# Coordination Sequence:
#
# PCOD9390037 Si02
#       4
#     8   8   8   8
#     4  10  21  37  64  90 123 160 200 262 317 358
#     4   9  22  37  53  91 125 160 195 250 324 374
#     4  11  21  35  60  96 123 153 208 260 311 377
#     4  10  19  36  59  88 119 149 204 257 311 362
#
# _framework density 23.372855000000001
#
# number of rings (size 3 to 8) (size 9 to 14) (size 15 to 20)
#    0.000    2.000    2.500    0.750    0.000   15.000 
#    0.000    0.000    0.000    6.750    6.500    0.000 
#    0.000    0.000    0.000    0.000    0.000    0.000 
#
# Total GULP energy -178331.924369 kJ/mol
# GULP energy per Si atom -5572.872637 kJ/mol
# Density = 2.331966 g / cm^3
# Si number density = 23.372855 Si / 1000 Ang^3
#
#
#
# Elastic Constant Matrix: (Units=GPa)
#
#
# Indices 1 2 3 4 5 6 
#
# 1 127.8213 65.7033 83.5924 0.0000 0.0000 0.0000
# 2 65.7033 81.3723 53.9797 0.0000 0.0000 0.0000
# 3 83.5924 53.9797 210.6391 0.0000 0.0000 0.0000
# 4 0.0000 0.0000 0.0000 16.6730 0.0000 0.0000
# 5 0.0000 0.0000 0.0000 0.0000 36.8567 0.0000
# 6 0.0000 0.0000 0.0000 0.0000 0.0000 31.5351
#
#
#
# Elastic Compliance Matrix: (Units=1/GPa)
#
#
# Indices 1 2 3 4 5 6 
#
# 1 0.015240 -0.009992 -0.003488 0.000000 0.000000 0.000000
# 2 -0.009992 0.021358 -0.001508 0.000000 0.000000 0.000000
# 3 -0.003488 -0.001508 0.006518 0.000000 0.000000 0.000000
# 4 0.000000 0.000000 0.000000 0.059977 0.000000 0.000000
# 5 0.000000 0.000000 0.000000 0.000000 0.027132 0.000000
# 6 0.000000 0.000000 0.000000 0.000000 0.000000 0.031711
#
#
# Mechanical properties :
#
#
# Convention : Reuss Voigt Hill
#
# Bulk Modulus (GPa) = 76.09897 91.82039 83.95968
# Shear Modulus (GPa) = 25.47237 31.45013 28.46125
#
# Velocity S-wave (km/s) = 3.30483 3.67220 3.49335
# Velocity P-wave (km/s) = 6.86964 7.57300 7.22988
#
# Compressibility (1/GPa) = 0.01314078
#
# Stress axis : x y z
#
# Youngs Moduli (GPa) = 65.61496 46.82190 153.42427
#
# Poissons Ratio (x) = 0.46786 0.53507
# Poissons Ratio (y) = 0.65564 0.23133
# Poissons Ratio (z) = 0.22883 0.07060
#
# Static dielectric constant tensor:
#      x y z
#    x 1.952580 0.000000 0.000000 
#    y 0.000000 2.077660 0.000000 
#    z 0.000000 0.000000 2.027470 
# 
# From -- ./inp_files/10098.got.cif
#   From: 2010.05.17/outbox.cif.g08.bks.cpg/sg48_6_cif.got.tgz:10098.got - 2010.06.03 20:39:00.
