data_PCOD9390104
_publ_section_title
;
Structure prediction by ZEFSAII (Michael W. Deem and Ramdas Pophale) SiO2 
 PCOD9390104
Probable space group: P N N N
;
_chemical_formula_sum "Si O2"
_cell_formula_units_Z 64
_cell_length_a 9.043371
_cell_length_b 18.379119
_cell_length_c 17.976646
_cell_angle_alpha 90.000000
_cell_angle_beta 90.000000
_cell_angle_gamma 90.000000
_cell_volume 2987.883802
_symmetry_space_group_name_H-M "P N N N"
_symmetry_group_IT_number 48
_space_group.IT_coordinate_system_code '2'
_symmetry_cell_setting 'orthorhombic'
loop_
_space_group_symop_operation_xyz
x,y,z
1/2-x,1/2-y,z
x,1/2-y,1/2-z
1/2-x,y,1/2-z
-x,-y,-z
1/2+x,1/2+y,-z
-x,1/2+y,1/2+z
1/2+x,-y,1/2+z
loop_
_atom_site_type_symbol
_atom_site_label
_atom_site_fract_x
_atom_site_fract_y
_atom_site_fract_z
Si Si1 0.914901 0.855092 0.282259
Si Si2 0.324084 0.090815 0.179775
Si Si3 0.191011 0.009482 0.936759
Si Si4 0.365081 0.533452 0.106713
Si Si5 0.619837 0.479986 0.307903
Si Si6 0.129269 0.687398 0.352455
Si Si7 0.430058 0.415291 0.489189
Si Si8 0.583255 0.773787 0.063262
O O1 0.750000 0.854650 0.250000
O O2 0.942493 0.937795 0.308351
O O3 0.912177 0.802850 0.352325
O O4 0.030279 0.829666 0.220109
O O5 0.250000 0.133145 0.250000
O O6 0.372418 0.105125 0.093403
O O7 0.209858 0.025735 0.159899
O O8 0.483854 0.069735 0.210642
O O9 0.300563 0.962197 0.886053
O O10 0.162485 0.977706 0.018506
O O11 0.043732 0.027712 0.890697
O O12 0.285564 0.080384 0.957206
O O13 0.298582 0.610019 0.129995
O O14 0.750000 0.476134 0.250000
O O15 0.250000 0.750000 0.342256
O O16 0.025585 0.705611 0.423890
O O17 0.500000 0.500000 0.500000
O O18 0.497400 0.339369 0.518156
O O19 0.750000 0.750000 0.039105
#
# Coordination Sequence:
#
# PCOD9390104 Si02
#       8
#     8   8   8   8   8   8   8   8
#     4  11  21  39  56  78 120 173 212 244 283 370
#     4  11  22  38  61  90 125 153 203 269 324 373
#     4  10  19  38  64  83 114 159 213 265 317 362
#     4  10  23  39  56  88 124 164 205 265 320 372
#     4  11  21  35  63  85 116 161 215 252 310 372
#     4  12  27  36  54  84 129 170 208 253 310 376
#     4  11  22  39  67  90 116 166 216 265 316 374
#     4  12  24  41  61  85 121 166 220 249 303 383
#
# _framework density 21.419844000000001
#
# number of rings (size 3 to 8) (size 9 to 14) (size 15 to 20)
#    0.000    1.000    3.750    4.125    5.250    1.000 
#    2.250    0.000    0.000    0.375    0.000    0.000 
#    0.000    0.750    0.000    0.000    0.000    0.000 
#
# Total GULP energy -356486.586261 kJ/mol
# GULP energy per Si atom -5570.102910 kJ/mol
# Density = 2.137109 g / cm^3
# Si number density = 21.419844 Si / 1000 Ang^3
#
#
#
# Elastic Constant Matrix: (Units=GPa)
#
#
# Indices 1 2 3 4 5 6 
#
# 1 96.0905 -0.8138 13.6270 0.0000 0.0000 0.0000
# 2 -0.8138 38.7425 7.5417 0.0000 0.0000 0.0000
# 3 13.6270 7.5417 93.1090 0.0000 0.0000 0.0000
# 4 0.0000 0.0000 0.0000 16.6396 0.0000 0.0000
# 5 0.0000 0.0000 0.0000 0.0000 31.3910 0.0000
# 6 0.0000 0.0000 0.0000 0.0000 0.0000 16.3523
#
#
#
# Elastic Compliance Matrix: (Units=1/GPa)
#
#
# Indices 1 2 3 4 5 6 
#
# 1 0.010638 0.000535 -0.001600 0.000000 0.000000 0.000000
# 2 0.000535 0.026252 -0.002205 0.000000 0.000000 0.000000
# 3 -0.001600 -0.002205 0.011153 0.000000 0.000000 0.000000
# 4 0.000000 0.000000 0.000000 0.060098 0.000000 0.000000
# 5 0.000000 0.000000 0.000000 0.000000 0.031856 0.000000
# 6 0.000000 0.000000 0.000000 0.000000 0.000000 0.061154
#
#
# Mechanical properties :
#
#
# Convention : Reuss Voigt Hill
#
# Bulk Modulus (GPa) = 24.09458 29.85019 26.97238
# Shear Modulus (GPa) = 22.57083 26.71572 24.64327
#
# Velocity S-wave (km/s) = 3.24965 3.53546 3.39556
# Velocity P-wave (km/s) = 5.03522 5.53462 5.29081
#
# Compressibility (1/GPa) = 0.04150312
#
# Stress axis : x y z
#
# Youngs Moduli (GPa) = 93.99970 38.09254 89.66290
#
# Poissons Ratio (x) = -0.02038 0.14349
# Poissons Ratio (y) = -0.05029 0.19768
# Poissons Ratio (z) = 0.15043 0.08398
#
# Static dielectric constant tensor:
#      x y z
#    x 1.939360 0.000000 0.000000 
#    y 0.000000 1.852730 0.000000 
#    z 0.000000 0.000000 1.849680 
# 
# From -- ./inp_files/30584.got.cif
#   From: 2010.05.17/outbox.cif.g08.bks.cpg/sg48_16_cif.got.tgz:30584.got - 2010.06.03 20:39:00.
