data_PCOD9390488
_publ_section_title
;
Structure prediction by ZEFSAII (Michael W. Deem and Ramdas Pophale) SiO2 
 PCOD9390488
Probable space group: P N N N
;
_chemical_formula_sum "Si O2"
_cell_formula_units_Z 40
_cell_length_a 12.446232
_cell_length_b 16.966662
_cell_length_c 8.916898
_cell_angle_alpha 90.000000
_cell_angle_beta 90.000000
_cell_angle_gamma 90.000000
_cell_volume 1882.990370
_symmetry_space_group_name_H-M "P N N N"
_symmetry_group_IT_number 48
_space_group.IT_coordinate_system_code '2'
_symmetry_cell_setting 'orthorhombic'
loop_
_space_group_symop_operation_xyz
x,y,z
1/2-x,1/2-y,z
x,1/2-y,1/2-z
1/2-x,y,1/2-z
-x,-y,-z
1/2+x,1/2+y,-z
-x,1/2+y,1/2+z
1/2+x,-y,1/2+z
loop_
_atom_site_type_symbol
_atom_site_label
_atom_site_fract_x
_atom_site_fract_y
_atom_site_fract_z
Si Si1 0.580238 0.326586 0.540416
Si Si2 0.724016 0.065579 0.572229
Si Si3 0.982322 0.350713 0.620207
Si Si4 0.197733 0.394348 0.473340
Si Si5 0.396904 0.336508 0.322369
O O1 0.698805 0.362668 0.522323
O O2 0.562332 0.232548 0.555851
O O3 0.536717 0.354345 0.702033
O O4 0.506292 0.355675 0.405346
O O5 0.750000 0.057729 0.750000
O O6 0.599018 0.085870 0.551182
O O7 0.741997 0.981475 0.495481
O O8 0.106760 0.363242 0.583982
O O9 0.300549 0.339822 0.442820
O O10 0.135462 0.394410 0.312282
O O11 0.402181 0.250000 0.250000
#
# Coordination Sequence:
#
# PCOD9390488 Si02
#       5
#     8   8   8   8   8
#     4  10  22  38  63  89 121 158 206 251 299 363
#     4  10  20  39  60  90 122 163 199 245 313 370
#     4  10  21  38  63  90 119 160 204 253 297 364
#     4  11  21  38  64  88 120 160 199 251 307 362
#     4  11  22  39  64  88 117 161 204 246 304 371
#
# _framework density 21.242805000000001
#
# number of rings (size 3 to 8) (size 9 to 14) (size 15 to 20)
#    0.000    1.600    4.000    2.400    0.000    4.000 
#    0.000    3.000    4.400    0.000    0.000    0.000 
#    0.000    0.000    0.000    0.000    0.000    0.000 
#
# Total GULP energy -223200.514575 kJ/mol
# GULP energy per Si atom -5580.012864 kJ/mol
# Density = 2.119446 g / cm^3
# Si number density = 21.242805 Si / 1000 Ang^3
#
#
#
# Elastic Constant Matrix: (Units=GPa)
#
#
# Indices 1 2 3 4 5 6 
#
# 1 73.8475 11.5515 5.3909 0.0000 0.0000 0.0000
# 2 11.5515 63.6840 -0.3910 0.0000 0.0000 0.0000
# 3 5.3909 -0.3910 8.1970 0.0000 0.0000 0.0000
# 4 0.0000 0.0000 0.0000 7.9534 0.0000 0.0000
# 5 0.0000 0.0000 0.0000 0.0000 30.8764 0.0000
# 6 0.0000 0.0000 0.0000 0.0000 0.0000 18.8365
#
#
#
# Elastic Compliance Matrix: (Units=1/GPa)
#
#
# Indices 1 2 3 4 5 6 
#
# 1 0.014682 -0.002723 -0.009786 0.000000 0.000000 0.000000
# 2 -0.002723 0.016212 0.002564 0.000000 0.000000 0.000000
# 3 -0.009786 0.002564 0.128554 0.000000 0.000000 0.000000
# 4 0.000000 0.000000 0.000000 0.125732 0.000000 0.000000
# 5 0.000000 0.000000 0.000000 0.000000 0.032387 0.000000
# 6 0.000000 0.000000 0.000000 0.000000 0.000000 0.053088
#
#
# Mechanical properties :
#
#
# Convention : Reuss Voigt Hill
#
# Bulk Modulus (GPa) = 7.16543 19.87016 13.51780
# Shear Modulus (GPa) = 11.43996 20.14508 15.79252
#
# Velocity S-wave (km/s) = 2.32315 3.08283 2.72955
# Velocity P-wave (km/s) = 3.25215 4.69531 4.03871
#
# Compressibility (1/GPa) = 0.13955897
#
# Stress axis : x y z
#
# Youngs Moduli (GPa) = 68.11175 61.68188 7.77881
#
# Poissons Ratio (x) = 0.16797 0.07612
# Poissons Ratio (y) = 0.18548 -0.01995
# Poissons Ratio (z) = 0.66652 -0.15816
#
# Static dielectric constant tensor:
#      x y z
#    x 1.755450 0.000000 0.000000 
#    y 0.000000 1.822630 0.000000 
#    z 0.000000 0.000000 1.777750 
# 
# From -- ./inp_files/19763.got.cif
#   From: 2010.05.17/outbox.cif.g08.bks.cpg/sg48_10_cif.got.tgz:19763.got - 2010.06.03 20:39:00.
