data_PCOD9390337
_publ_section_title
;
Structure prediction by ZEFSAII (Michael W. Deem and Ramdas Pophale) SiO2 
 PCOD9390337
Probable space group: P N N N
;
_chemical_formula_sum "Si O2"
_cell_formula_units_Z 30
_cell_length_a 18.524109
_cell_length_b 5.143884
_cell_length_c 14.684392
_cell_angle_alpha 90.000000
_cell_angle_beta 90.000000
_cell_angle_gamma 90.000000
_cell_volume 1399.215036
_symmetry_space_group_name_H-M "P N N N"
_symmetry_group_IT_number 48
_space_group.IT_coordinate_system_code '2'
_symmetry_cell_setting 'orthorhombic'
loop_
_space_group_symop_operation_xyz
x,y,z
1/2-x,1/2-y,z
x,1/2-y,1/2-z
1/2-x,y,1/2-z
-x,-y,-z
1/2+x,1/2+y,-z
-x,1/2+y,1/2+z
1/2+x,-y,1/2+z
loop_
_atom_site_type_symbol
_atom_site_label
_atom_site_fract_x
_atom_site_fract_y
_atom_site_fract_z
Si Si1 0.667735 0.642693 0.654718
Si Si2 0.750000 0.250000 0.934250
Si Si3 0.844185 0.076601 0.088439
Si Si4 0.079294 0.397045 0.977860
Si Si5 0.750000 0.250000 0.250000
O O1 0.750000 0.750000 0.648497
O O2 0.639922 0.750000 0.750000
O O3 0.686391 0.341160 0.633111
O O4 0.613070 0.696674 0.573806
O O5 0.784676 0.048474 0.007072
O O6 0.878208 0.358391 0.065472
O O7 0.800986 0.085761 0.182588
O O8 0.904524 0.853497 0.084501
O O9 0.000000 0.500000 0.000000
#
# Coordination Sequence:
#
# PCOD9390337 Si02
#       5
#     8   4   8   8   2
#     4  10  20  36  61  91 124 158 220 268 322 383
#     4   9  18  36  59  94 124 160 209 277 333 381
#     4  10  22  40  68  94 131 171 222 277 343 400
#     4  11  23  43  65  93 134 183 217 267 344 422
#     4  10  24  42  74 106 134 166 244 306 348 404
#
# _framework density 21.440593
#
# number of rings (size 3 to 8) (size 9 to 14) (size 15 to 20)
#    0.000    1.867    2.667    0.800    0.000    4.267 
#    2.400    0.000    5.867    0.000    0.000    0.000 
#    0.000    0.000    0.000    0.000    0.000    0.000 
#
# Total GULP energy -167035.233644 kJ/mol
# GULP energy per Si atom -5567.841121 kJ/mol
# Density = 2.139179 g / cm^3
# Si number density = 21.440593 Si / 1000 Ang^3
#
#
#
# Elastic Constant Matrix: (Units=GPa)
#
#
# Indices 1 2 3 4 5 6 
#
# 1 104.7137 31.3399 51.9688 0.0000 0.0000 0.0000
# 2 31.3399 96.2564 51.2412 0.0000 0.0000 0.0000
# 3 51.9688 51.2412 158.8083 0.0000 0.0000 0.0000
# 4 0.0000 0.0000 0.0000 14.0659 0.0000 0.0000
# 5 0.0000 0.0000 0.0000 0.0000 22.7914 0.0000
# 6 0.0000 0.0000 0.0000 0.0000 0.0000 38.4012
#
#
#
# Elastic Compliance Matrix: (Units=1/GPa)
#
#
# Indices 1 2 3 4 5 6 
#
# 1 0.011759 -0.002149 -0.003154 0.000000 0.000000 0.000000
# 2 -0.002149 0.012936 -0.003471 0.000000 0.000000 0.000000
# 3 -0.003154 -0.003471 0.008449 0.000000 0.000000 0.000000
# 4 0.000000 0.000000 0.000000 0.071094 0.000000 0.000000
# 5 0.000000 0.000000 0.000000 0.000000 0.043876 0.000000
# 6 0.000000 0.000000 0.000000 0.000000 0.000000 0.026041
#
#
# Mechanical properties :
#
#
# Convention : Reuss Voigt Hill
#
# Bulk Modulus (GPa) = 64.12243 69.87537 66.99890
# Shear Modulus (GPa) = 25.39329 30.06692 27.73011
#
# Velocity S-wave (km/s) = 3.44518 3.74884 3.60021
# Velocity P-wave (km/s) = 6.76740 7.16934 6.97126
#
# Compressibility (1/GPa) = 0.01559517
#
# Stress axis : x y z
#
# Youngs Moduli (GPa) = 85.04395 77.30194 118.35675
#
# Poissons Ratio (x) = 0.16614 0.37335
# Poissons Ratio (y) = 0.18278 0.41078
# Poissons Ratio (z) = 0.26827 0.26829
#
# Static dielectric constant tensor:
#      x y z
#    x 1.806750 0.000000 0.000000 
#    y 0.000000 2.050920 0.000000 
#    z 0.000000 0.000000 1.791430 
# 
# From -- ./inp_files/27587.got.cif
#   From: 2010.05.17/outbox.cif.g08.bks.cpg/sg48_14_cif.got.tgz:27587.got - 2010.06.03 20:39:00.
