data_PCOD9390139
_publ_section_title
;
Structure prediction by ZEFSAII (Michael W. Deem and Ramdas Pophale) SiO2 
 PCOD9390139
Probable space group: P N N N
;
_chemical_formula_sum "Si O2"
_cell_formula_units_Z 48
_cell_length_a 13.394204
_cell_length_b 10.932529
_cell_length_c 15.657521
_cell_angle_alpha 90.000000
_cell_angle_beta 90.000000
_cell_angle_gamma 90.000000
_cell_volume 2292.770314
_symmetry_space_group_name_H-M "P N N N"
_symmetry_group_IT_number 48
_space_group.IT_coordinate_system_code '2'
_symmetry_cell_setting 'orthorhombic'
loop_
_space_group_symop_operation_xyz
x,y,z
1/2-x,1/2-y,z
x,1/2-y,1/2-z
1/2-x,y,1/2-z
-x,-y,-z
1/2+x,1/2+y,-z
-x,1/2+y,1/2+z
1/2+x,-y,1/2+z
loop_
_atom_site_type_symbol
_atom_site_label
_atom_site_fract_x
_atom_site_fract_y
_atom_site_fract_z
Si Si1 0.847730 0.447707 0.453518
Si Si2 0.501857 0.977574 0.100216
Si Si3 0.209878 0.114225 0.653433
Si Si4 0.946459 0.987514 0.880845
Si Si5 0.552048 0.249652 0.348880
Si Si6 0.358413 0.608554 0.274146
O O1 0.754785 0.513589 0.411131
O O2 0.861887 0.462440 0.554955
O O3 0.867357 0.313278 0.413045
O O4 0.945743 0.522305 0.419560
O O5 0.591385 0.894030 0.137858
O O6 0.397991 0.919942 0.132226
O O7 0.521502 0.113186 0.134544
O O8 0.500000 0.000000 0.000000
O O9 0.250000 0.250000 0.633454
O O10 0.250000 0.086793 0.750000
O O11 0.957999 0.841761 0.866563
O O12 0.935531 0.045005 0.789089
O O13 0.585353 0.250000 0.250000
O O14 0.358015 0.750000 0.250000
O O15 0.250000 0.557862 0.250000
#
# Coordination Sequence:
#
# PCOD9390139 Si02
#       6
#     8   8   8   8   8   8
#     4   9  21  38  67  92 126 177 221 259 336 419
#     4  12  28  42  67 109 141 169 234 303 339 395
#     4  11  25  42  67 101 135 182 226 279 351 410
#     4   9  20  40  69  88 127 179 221 263 333 412
#     4  10  19  41  65  94 131 175 212 275 353 384
#     4  11  26  45  69  91 135 188 228 274 342 421
#
# _framework density 20.935372000000001
#
# number of rings (size 3 to 8) (size 9 to 14) (size 15 to 20)
#    1.000    0.667    1.667    2.000   11.667    0.667 
#    0.000    3.333    0.000    0.000    0.000    0.000 
#    0.000    0.000    0.000    0.000    0.000    0.000 
#
# Total GULP energy -267489.965019 kJ/mol
# GULP energy per Si atom -5572.707605 kJ/mol
# Density = 2.088772 g / cm^3
# Si number density = 20.935372 Si / 1000 Ang^3
#
#
#
# Elastic Constant Matrix: (Units=GPa)
#
#
# Indices 1 2 3 4 5 6 
#
# 1 78.0992 6.1613 16.2227 0.0000 0.0000 0.0000
# 2 6.1613 91.8399 7.7382 0.0000 0.0000 0.0000
# 3 16.2227 7.7382 99.9574 0.0000 0.0000 0.0000
# 4 0.0000 0.0000 0.0000 25.9013 0.0000 0.0000
# 5 0.0000 0.0000 0.0000 0.0000 26.9137 0.0000
# 6 0.0000 0.0000 0.0000 0.0000 0.0000 -20.2402
#
#
#
# Elastic Compliance Matrix: (Units=1/GPa)
#
#
# Indices 1 2 3 4 5 6 
#
# 1 0.013297 -0.000715 -0.002103 0.000000 0.000000 0.000000
# 2 -0.000715 0.010998 -0.000735 0.000000 0.000000 0.000000
# 3 -0.002103 -0.000735 0.010402 0.000000 0.000000 0.000000
# 4 0.000000 0.000000 0.000000 0.038608 0.000000 0.000000
# 5 0.000000 0.000000 0.000000 0.000000 0.037156 0.000000
# 6 0.000000 0.000000 0.000000 0.000000 0.000000 -0.049407
#
#
# Mechanical properties :
#
#
# Convention : Reuss Voigt Hill
#
# Bulk Modulus (GPa) = 36.24225 36.68232 36.46228
# Shear Modulus (GPa) = 64.63363 22.49992 43.56678
#
# Velocity S-wave (km/s) = 5.56237 3.28187 4.56676
# Velocity P-wave (km/s) = 7.65522 5.64983 6.72766
#
# Compressibility (1/GPa) = 0.02759211
#
# Stress axis : x y z
#
# Youngs Moduli (GPa) = 75.20255 90.92200 96.13109
#
# Poissons Ratio (x) = 0.06500 0.20214
# Poissons Ratio (y) = 0.05376 0.07070
# Poissons Ratio (z) = 0.15813 0.06687
#
# Static dielectric constant tensor:
#      x y z
#    x 2.296450 0.000000 0.000000 
#    y 0.000000 1.727130 0.000000 
#    z 0.000000 0.000000 1.730420 
# 
# From -- ./inp_files/27246.got.cif
#   From: 2010.05.17/outbox.cif.g08.bks.cpg/sg48_14_cif.got.tgz:27246.got - 2010.06.03 20:39:00.
