data_PCOD9390227
_publ_section_title
;
Structure prediction by ZEFSAII (Michael W. Deem and Ramdas Pophale) SiO2 
 PCOD9390227
Probable space group: P N N N
;
_chemical_formula_sum "Si O2"
_cell_formula_units_Z 56
_cell_length_a 29.447267
_cell_length_b 17.395121
_cell_length_c 5.372174
_cell_angle_alpha 90.000000
_cell_angle_beta 90.000000
_cell_angle_gamma 90.000000
_cell_volume 2751.835816
_symmetry_space_group_name_H-M "P N N N"
_symmetry_group_IT_number 48
_space_group.IT_coordinate_system_code '2'
_symmetry_cell_setting 'orthorhombic'
loop_
_space_group_symop_operation_xyz
x,y,z
1/2-x,1/2-y,z
x,1/2-y,1/2-z
1/2-x,y,1/2-z
-x,-y,-z
1/2+x,1/2+y,-z
-x,1/2+y,1/2+z
1/2+x,-y,1/2+z
loop_
_atom_site_type_symbol
_atom_site_label
_atom_site_fract_x
_atom_site_fract_y
_atom_site_fract_z
Si Si1 0.980761 0.817880 0.950210
Si Si2 0.798326 0.521212 0.795802
Si Si3 0.398825 0.380726 0.748700
Si Si4 0.112888 0.961287 0.067788
Si Si5 0.959776 0.961075 0.645860
Si Si6 0.084374 0.704578 0.491585
Si Si7 0.299231 0.380451 0.794933
O O1 0.973848 0.750000 0.750000
O O2 0.983080 0.902412 0.831896
O O3 0.030488 0.806679 0.062576
O O4 0.936349 0.827469 0.120866
O O5 0.750000 0.481309 0.750000
O O6 0.841838 0.471346 0.729535
O O7 0.798964 0.588030 0.579823
O O8 0.799448 0.553772 0.076703
O O9 0.422626 0.407952 0.495365
O O10 0.348715 0.343806 0.745757
O O11 0.391281 0.463123 0.891313
O O12 0.069104 0.970963 0.239278
O O13 0.108700 0.876900 0.959077
O O14 0.000000 0.000000 0.500000
O O15 0.087117 0.750000 0.750000
O O16 0.102977 0.750000 0.250000
O O17 0.250000 0.341330 0.750000
#
# Coordination Sequence:
#
# PCOD9390227 Si02
#       7
#     8   8   8   8   8   8   8
#     4  10  24  38  53  81 119 158 197 235 288 350
#     4   9  17  31  54  84 115 145 180 238 298 343
#     4  10  20  34  57  85 114 152 193 240 297 340
#     4  10  21  36  55  85 117 148 194 245 288 349
#     4  11  21  33  59  84 115 149 193 242 291 333
#     4  11  26  40  57  80 116 160 199 235 289 347
#     4   9  17  31  52  84 119 141 181 239 295 345
#
# _framework density 20.350052000000002
#
# number of rings (size 3 to 8) (size 9 to 14) (size 15 to 20)
#    0.000    2.000    1.429    1.714   10.000    2.286 
#    0.000    0.000    0.000    0.429    0.000    4.000 
#    0.000    0.000    0.000    0.000    0.000    0.000 
#
# Total GULP energy -312077.990619 kJ/mol
# GULP energy per Si atom -5572.821261 kJ/mol
# Density = 2.030373 g / cm^3
# Si number density = 20.350052 Si / 1000 Ang^3
#
#
#
# Elastic Constant Matrix: (Units=GPa)
#
#
# Indices 1 2 3 4 5 6 
#
# 1 61.2824 34.5316 18.2305 0.0000 0.0000 0.0000
# 2 34.5316 84.0577 16.3327 0.0000 0.0000 0.0000
# 3 18.2305 16.3327 60.5754 0.0000 0.0000 0.0000
# 4 0.0000 0.0000 0.0000 19.1864 0.0000 0.0000
# 5 0.0000 0.0000 0.0000 0.0000 79.2286 0.0000
# 6 0.0000 0.0000 0.0000 0.0000 0.0000 16.3300
#
#
#
# Elastic Compliance Matrix: (Units=1/GPa)
#
#
# Indices 1 2 3 4 5 6 
#
# 1 0.022329 -0.008302 -0.004482 0.000000 0.000000 0.000000
# 2 -0.008302 0.015641 -0.001719 0.000000 0.000000 0.000000
# 3 -0.004482 -0.001719 0.018321 0.000000 0.000000 0.000000
# 4 0.000000 0.000000 0.000000 0.052120 0.000000 0.000000
# 5 0.000000 0.000000 0.000000 0.000000 0.012622 0.000000
# 6 0.000000 0.000000 0.000000 0.000000 0.000000 0.061237
#
#
# Mechanical properties :
#
#
# Convention : Reuss Voigt Hill
#
# Bulk Modulus (GPa) = 36.64898 38.23392 37.44145
# Shear Modulus (GPa) = 22.68908 32.07038 27.37973
#
# Velocity S-wave (km/s) = 3.34269 3.97411 3.67200
# Velocity P-wave (km/s) = 5.73990 6.31562 6.03463
#
# Compressibility (1/GPa) = 0.02728589
#
# Stress axis : x y z
#
# Youngs Moduli (GPa) = 44.78419 63.93381 54.58356
#
# Poissons Ratio (x) = 0.53080 0.24462
# Poissons Ratio (y) = 0.37181 0.09381
# Poissons Ratio (z) = 0.20071 0.10988
#
# Static dielectric constant tensor:
#      x y z
#    x 66.489820 0.000000 0.000000 
#    y 0.000000 1.717110 0.000000 
#    z 0.000000 0.000000 1.835970 
# 
# From -- ./inp_files/7055.got.cif
#   From: 2010.05.17/outbox.cif.g08.bks.cpg/sg48_4_cif.got.tgz:7055.got - 2010.06.03 20:39:00.
