data_PCOD9390277
_publ_section_title
;
Structure prediction by ZEFSAII (Michael W. Deem and Ramdas Pophale) SiO2 
 PCOD9390277
Probable space group: P N N N
;
_chemical_formula_sum "Si O2"
_cell_formula_units_Z 40
_cell_length_a 5.070084
_cell_length_b 20.855667
_cell_length_c 18.394896
_cell_angle_alpha 90.000000
_cell_angle_beta 90.000000
_cell_angle_gamma 90.000000
_cell_volume 1945.076001
_symmetry_space_group_name_H-M "P N N N"
_symmetry_group_IT_number 48
_space_group.IT_coordinate_system_code '2'
_symmetry_cell_setting 'orthorhombic'
loop_
_space_group_symop_operation_xyz
x,y,z
1/2-x,1/2-y,z
x,1/2-y,1/2-z
1/2-x,y,1/2-z
-x,-y,-z
1/2+x,1/2+y,-z
-x,1/2+y,1/2+z
1/2+x,-y,1/2+z
loop_
_atom_site_type_symbol
_atom_site_label
_atom_site_fract_x
_atom_site_fract_y
_atom_site_fract_z
Si Si1 0.494772 0.206986 0.450886
Si Si2 0.351988 0.596404 0.540584
Si Si3 0.285196 0.970919 0.334459
Si Si4 0.273181 0.379914 0.334232
Si Si5 0.733683 0.547602 0.429238
O O1 0.750000 0.250000 0.434693
O O2 0.644165 0.147314 0.489795
O O3 0.377096 0.173504 0.379739
O O4 0.250000 0.250000 0.481622
O O5 0.446855 0.613164 0.622828
O O6 0.619769 0.592703 0.492963
O O7 0.238451 0.524521 0.538247
O O8 0.250000 0.954077 0.250000
O O9 0.515967 0.937269 0.379780
O O10 0.012140 0.958196 0.374408
O O11 0.341005 0.047611 0.338767
O O12 0.250000 0.363090 0.250000
#
# Coordination Sequence:
#
# PCOD9390277 Si02
#       5
#     8   8   8   8   8
#     4  12  24  40  54  75 110 153 202 259 294 343
#     4  10  22  38  57  82 109 149 209 241 301 347
#     4  10  20  35  57  87 116 148 185 237 307 367
#     4  10  22  39  56  76 113 156 203 248 292 342
#     4  10  21  34  62  81 111 150 190 248 291 366
#
# _framework density 20.564751000000001
#
# number of rings (size 3 to 8) (size 9 to 14) (size 15 to 20)
#    0.000    1.600    4.000    0.600    2.800    3.600 
#    3.600    0.000    0.000    0.000    0.000    0.000 
#    0.000    0.800    8.000    0.200    2.000    0.200 
#
# Total GULP energy -223148.149804 kJ/mol
# GULP energy per Si atom -5578.703745 kJ/mol
# Density = 2.051794 g / cm^3
# Si number density = 20.564751 Si / 1000 Ang^3
#
#
#
# Elastic Constant Matrix: (Units=GPa)
#
#
# Indices 1 2 3 4 5 6 
#
# 1 140.0778 53.3679 43.2863 0.0000 0.0000 0.0000
# 2 53.3679 66.7657 31.5355 0.0000 0.0000 0.0000
# 3 43.2863 31.5355 97.6932 0.0000 0.0000 0.0000
# 4 0.0000 0.0000 0.0000 13.9097 0.0000 0.0000
# 5 0.0000 0.0000 0.0000 0.0000 22.1053 0.0000
# 6 0.0000 0.0000 0.0000 0.0000 0.0000 40.9605
#
#
#
# Elastic Compliance Matrix: (Units=1/GPa)
#
#
# Indices 1 2 3 4 5 6 
#
# 1 0.010698 -0.007448 -0.002336 0.000000 0.000000 0.000000
# 2 -0.007448 0.022858 -0.004078 0.000000 0.000000 0.000000
# 3 -0.002336 -0.004078 0.012588 0.000000 0.000000 0.000000
# 4 0.000000 0.000000 0.000000 0.071892 0.000000 0.000000
# 5 0.000000 0.000000 0.000000 0.000000 0.045238 0.000000
# 6 0.000000 0.000000 0.000000 0.000000 0.000000 0.024414
#
#
# Mechanical properties :
#
#
# Convention : Reuss Voigt Hill
#
# Bulk Modulus (GPa) = 54.29266 62.32401 58.30833
# Shear Modulus (GPa) = 22.56804 27.15158 24.85981
#
# Velocity S-wave (km/s) = 3.31632 3.63753 3.48063
# Velocity P-wave (km/s) = 6.41265 6.92923 6.67594
#
# Compressibility (1/GPa) = 0.01841870
#
# Stress axis : x y z
#
# Youngs Moduli (GPa) = 93.47161 43.74898 79.44294
#
# Poissons Ratio (x) = 0.32585 0.18558
# Poissons Ratio (y) = 0.69620 0.32399
# Poissons Ratio (z) = 0.21835 0.17842
#
# Static dielectric constant tensor:
#      x y z
#    x 1.821960 0.000000 0.000000 
#    y 0.000000 1.835010 0.000000 
#    z 0.000000 0.000000 1.750070 
# 
# From -- ./inp_files/29418.got.cif
#   From: 2010.05.17/outbox.cif.g08.bks.cpg/sg48_15_cif.got.tgz:29418.got - 2010.06.03 20:39:00.
