data_PCOD9390480
_publ_section_title
;
Structure prediction by ZEFSAII (Michael W. Deem and Ramdas Pophale) SiO2 
 PCOD9390480
Probable space group: P N N N
;
_chemical_formula_sum "Si O2"
_cell_formula_units_Z 32
_cell_length_a 6.046894
_cell_length_b 34.271311
_cell_length_c 7.373188
_cell_angle_alpha 90.000000
_cell_angle_beta 90.000000
_cell_angle_gamma 90.000000
_cell_volume 1527.982504
_symmetry_space_group_name_H-M "P N N N"
_symmetry_group_IT_number 48
_space_group.IT_coordinate_system_code '2'
_symmetry_cell_setting 'orthorhombic'
loop_
_space_group_symop_operation_xyz
x,y,z
1/2-x,1/2-y,z
x,1/2-y,1/2-z
1/2-x,y,1/2-z
-x,-y,-z
1/2+x,1/2+y,-z
-x,1/2+y,1/2+z
1/2+x,-y,1/2+z
loop_
_atom_site_type_symbol
_atom_site_label
_atom_site_fract_x
_atom_site_fract_y
_atom_site_fract_z
Si Si1 0.995742 0.236591 0.460894
Si Si2 0.402049 0.538902 0.085811
Si Si3 0.250000 0.099945 0.750000
Si Si4 0.250000 0.589029 0.750000
Si Si5 0.089395 0.149997 0.408919
O O1 0.750000 0.250000 0.533437
O O2 0.994751 0.250000 0.250000
O O3 0.250000 0.250000 0.526532
O O4 0.980040 0.189761 0.476289
O O5 0.250000 0.525584 0.250000
O O6 0.564110 0.570580 0.175967
O O7 0.500000 0.500000 0.000000
O O8 0.286511 0.561955 0.923186
O O9 0.185761 0.127407 0.581801
O O10 0.445569 0.618031 0.696694
O O11 0.250000 0.164376 0.250000
#
# Coordination Sequence:
#
# PCOD9390480 Si02
#       5
#     8   8   4   4   8
#     4  10  20  38  68 105 140 192 248 289 361 448
#     4  12  28  46  70 102 140 186 242 302 367 449
#     4  12  27  46  69 110 142 176 252 298 367 442
#     4  12  25  44  73 100 138 190 238 300 373 434
#     4  12  24  43  74 102 145 191 236 306 368 433
#
# _framework density 20.942646
#
# number of rings (size 3 to 8) (size 9 to 14) (size 15 to 20)
#    0.000    0.500    7.500    2.250    3.500    2.000 
#    0.000    0.625    0.000    3.000    0.000    0.000 
#    0.000    0.000    0.000    0.000    0.000    0.000 
#
# Total GULP energy -178417.122657 kJ/mol
# GULP energy per Si atom -5575.535083 kJ/mol
# Density = 2.089498 g / cm^3
# Si number density = 20.942646 Si / 1000 Ang^3
#
#
#
# Elastic Constant Matrix: (Units=GPa)
#
#
# Indices 1 2 3 4 5 6 
#
# 1 96.7062 42.7133 42.1722 0.0000 0.0000 0.0000
# 2 42.7133 155.9840 39.3355 0.0000 0.0000 0.0000
# 3 42.1722 39.3355 128.1911 0.0000 0.0000 0.0000
# 4 0.0000 0.0000 0.0000 -48.8181 0.0000 0.0000
# 5 0.0000 0.0000 0.0000 0.0000 27.6801 0.0000
# 6 0.0000 0.0000 0.0000 0.0000 0.0000 54.0409
#
#
#
# Elastic Compliance Matrix: (Units=1/GPa)
#
#
# Indices 1 2 3 4 5 6 
#
# 1 0.013042 -0.002698 -0.003463 0.000000 0.000000 0.000000
# 2 -0.002698 0.007507 -0.001416 0.000000 0.000000 0.000000
# 3 -0.003463 -0.001416 0.009374 0.000000 0.000000 0.000000
# 4 0.000000 0.000000 0.000000 -0.020484 0.000000 0.000000
# 5 0.000000 0.000000 0.000000 0.000000 0.036127 0.000000
# 6 0.000000 0.000000 0.000000 0.000000 0.000000 0.018504
#
#
# Mechanical properties :
#
#
# Convention : Reuss Voigt Hill
#
# Bulk Modulus (GPa) = 67.70402 69.92480 68.81441
# Shear Modulus (GPa) = 59.41923 23.69128 41.55525
#
# Velocity S-wave (km/s) = 5.33235 3.36705 4.45931
# Velocity P-wave (km/s) = 8.38513 6.96974 7.70998
#
# Compressibility (1/GPa) = 0.01477017
#
# Stress axis : x y z
#
# Youngs Moduli (GPa) = 76.67305 133.21263 106.67273
#
# Poissons Ratio (x) = 0.35943 0.36938
# Poissons Ratio (y) = 0.20688 0.15103
# Poissons Ratio (z) = 0.26550 0.18860
#
# Static dielectric constant tensor:
#      x y z
#    x 1.835350 0.000000 0.000000 
#    y 0.000000 1.738550 0.000000 
#    z 0.000000 0.000000 1.677810 
# 
# From -- ./inp_files/7587.got.cif
#   From: 2010.05.17/outbox.cif.g08.bks.cpg/sg48_4_cif.got.tgz:7587.got - 2010.06.03 20:39:00.
