data_PCOD9390446
_publ_section_title
;
Structure prediction by ZEFSAII (Michael W. Deem and Ramdas Pophale) SiO2 
 PCOD9390446
Probable space group: P N N N
;
_chemical_formula_sum "Si O2"
_cell_formula_units_Z 48
_cell_length_a 5.596094
_cell_length_b 23.445254
_cell_length_c 17.419263
_cell_angle_alpha 90.000000
_cell_angle_beta 90.000000
_cell_angle_gamma 90.000000
_cell_volume 2285.439448
_symmetry_space_group_name_H-M "P N N N"
_symmetry_group_IT_number 48
_space_group.IT_coordinate_system_code '2'
_symmetry_cell_setting 'orthorhombic'
loop_
_space_group_symop_operation_xyz
x,y,z
1/2-x,1/2-y,z
x,1/2-y,1/2-z
1/2-x,y,1/2-z
-x,-y,-z
1/2+x,1/2+y,-z
-x,1/2+y,1/2+z
1/2+x,-y,1/2+z
loop_
_atom_site_type_symbol
_atom_site_label
_atom_site_fract_x
_atom_site_fract_y
_atom_site_fract_z
Si Si1 0.750000 0.750000 0.383317
Si Si2 0.942619 0.474945 0.815485
Si Si3 0.504753 0.106308 0.208939
Si Si4 0.755513 0.875969 0.116825
Si Si5 0.853638 0.451738 0.541568
Si Si6 0.441232 0.863416 0.961398
Si Si7 0.250000 0.750000 0.477924
O O1 0.749243 0.686919 0.345762
O O2 0.497292 0.753940 0.429703
O O3 0.750000 0.459737 0.750000
O O4 0.817784 0.481457 0.897935
O O5 0.037237 0.537575 0.796499
O O6 0.123938 0.423116 0.831198
O O7 0.750000 0.127771 0.250000
O O8 0.468226 0.132657 0.124492
O O9 0.250000 0.115698 0.250000
O O10 0.004191 0.904623 0.091927
O O11 0.624254 0.867268 0.033563
O O12 0.721726 0.418072 0.475177
O O13 0.000000 0.500000 0.500000
O O14 0.285836 0.806756 0.973085
#
# Coordination Sequence:
#
# PCOD9390446 Si02
#       7
#     4   8   8   8   8   8   4
#     4  10  20  38  62  97 125 158 218 262 326 362
#     4  10  24  39  58  94 129 172 207 259 329 386
#     4  11  26  41  62  92 130 174 208 259 325 390
#     4  10  21  37  64  93 124 167 211 274 311 385
#     4  11  21  35  65  95 124 158 215 267 315 373
#     4  10  22  39  61  95 126 162 218 265 319 377
#     4  10  20  38  65  94 123 166 208 270 320 372
#
# _framework density 21.002524999999999
#
# number of rings (size 3 to 8) (size 9 to 14) (size 15 to 20)
#    0.000    1.667    1.667    2.000   11.667    2.667 
#    0.000    0.417    0.000    4.000    0.000    0.000 
#    0.000    0.000    0.000    0.000    0.000    0.000 
#
# Total GULP energy -267755.949871 kJ/mol
# GULP energy per Si atom -5578.248956 kJ/mol
# Density = 2.095472 g / cm^3
# Si number density = 21.002525 Si / 1000 Ang^3
#
#
#
# Elastic Constant Matrix: (Units=GPa)
#
#
# Indices 1 2 3 4 5 6 
#
# 1 86.2020 19.8556 32.0454 0.0000 0.0000 0.0000
# 2 19.8556 20.0154 14.5390 0.0000 0.0000 0.0000
# 3 32.0454 14.5390 91.7641 0.0000 0.0000 0.0000
# 4 0.0000 0.0000 0.0000 18.8139 0.0000 0.0000
# 5 0.0000 0.0000 0.0000 0.0000 21.5847 0.0000
# 6 0.0000 0.0000 0.0000 0.0000 0.0000 27.0632
#
#
#
# Elastic Compliance Matrix: (Units=1/GPa)
#
#
# Indices 1 2 3 4 5 6 
#
# 1 0.015954 -0.013312 -0.003462 0.000000 0.000000 0.000000
# 2 -0.013312 0.067566 -0.006056 0.000000 0.000000 0.000000
# 3 -0.003462 -0.006056 0.013066 0.000000 0.000000 0.000000
# 4 0.000000 0.000000 0.000000 0.053152 0.000000 0.000000
# 5 0.000000 0.000000 0.000000 0.000000 0.046329 0.000000
# 6 0.000000 0.000000 0.000000 0.000000 0.000000 0.036951
#
#
# Mechanical properties :
#
#
# Convention : Reuss Voigt Hill
#
# Bulk Modulus (GPa) = 19.63647 36.76236 28.19942
# Shear Modulus (GPa) = 16.91165 22.26179 19.58672
#
# Velocity S-wave (km/s) = 2.84072 3.25923 3.05714
# Velocity P-wave (km/s) = 4.48659 5.63074 5.09091
#
# Compressibility (1/GPa) = 0.05092564
#
# Stress axis : x y z
#
# Youngs Moduli (GPa) = 62.68063 14.80029 76.53355
#
# Poissons Ratio (x) = 0.19701 0.26498
# Poissons Ratio (y) = 0.83438 0.46353
# Poissons Ratio (z) = 0.21702 0.08964
#
# Static dielectric constant tensor:
#      x y z
#    x 1.790980 0.000000 0.000000 
#    y 0.000000 1.780790 0.000000 
#    z 0.000000 0.000000 1.711360 
# 
# From -- ./inp_files/24449.got.cif
#   From: 2010.05.17/outbox.cif.g08.bks.cpg/sg48_13_cif.got.tgz:24449.got - 2010.06.03 20:39:00.
