data_PCOD9390344
_publ_section_title
;
Structure prediction by ZEFSAII (Michael W. Deem and Ramdas Pophale) SiO2 
 PCOD9390344
Probable space group: P N N N
;
_chemical_formula_sum "Si O2"
_cell_formula_units_Z 40
_cell_length_a 19.044754
_cell_length_b 9.142408
_cell_length_c 10.352837
_cell_angle_alpha 90.000000
_cell_angle_beta 90.000000
_cell_angle_gamma 90.000000
_cell_volume 1802.583296
_symmetry_space_group_name_H-M "P N N N"
_symmetry_group_IT_number 48
_space_group.IT_coordinate_system_code '2'
_symmetry_cell_setting 'orthorhombic'
loop_
_space_group_symop_operation_xyz
x,y,z
1/2-x,1/2-y,z
x,1/2-y,1/2-z
1/2-x,y,1/2-z
-x,-y,-z
1/2+x,1/2+y,-z
-x,1/2+y,1/2+z
1/2+x,-y,1/2+z
loop_
_atom_site_type_symbol
_atom_site_label
_atom_site_fract_x
_atom_site_fract_y
_atom_site_fract_z
Si Si1 0.030575 0.202544 0.471061
Si Si2 0.250000 0.250000 0.250000
Si Si3 0.250000 0.750000 0.750000
Si Si4 0.651763 0.976905 0.843157
Si Si5 0.505905 0.750000 0.250000
Si Si6 0.633329 0.290193 0.448360
Si Si7 0.591365 0.476440 0.911620
O O1 0.043340 0.178931 0.625428
O O2 0.052937 0.371672 0.443404
O O3 0.949588 0.172742 0.431175
O O4 0.079006 0.097096 0.387872
O O5 0.206710 0.348457 0.149064
O O6 0.307226 0.672700 0.656044
O O7 0.652161 0.000480 0.690692
O O8 0.657774 0.124836 0.923020
O O9 0.459455 0.631347 0.171678
O O10 0.624480 0.115732 0.471565
#
# Coordination Sequence:
#
# PCOD9390344 Si02
#       7
#     8   2   2   8   4   8   8
#     4  11  23  41  74 104 136 175 233 296 346 414
#     4  12  28  42  66 102 136 174 246 288 338 418
#     4  12  32  42  66 102 144 190 228 284 352 418
#     4  12  24  44  72  98 133 183 231 291 351 401
#     4  10  20  36  64 108 134 172 218 282 350 400
#     4  11  26  46  66 100 140 181 230 279 351 427
#     4  11  21  43  70 102 131 178 230 285 344 405
#
# _framework density 22.190377000000002
#
# number of rings (size 3 to 8) (size 9 to 14) (size 15 to 20)
#    0.000    0.800    6.000    3.000    5.600    1.600 
#    0.000    0.000    0.000    1.200    0.000    0.000 
#    0.000    0.000    0.000    0.000    0.000    0.000 
#
# Total GULP energy -222871.360449 kJ/mol
# GULP energy per Si atom -5571.784011 kJ/mol
# Density = 2.213987 g / cm^3
# Si number density = 22.190377 Si / 1000 Ang^3
#
#
#
# Elastic Constant Matrix: (Units=GPa)
#
#
# Indices 1 2 3 4 5 6 
#
# 1 90.6308 9.5779 34.8747 0.0000 0.0000 0.0000
# 2 9.5779 96.6238 9.2059 0.0000 0.0000 0.0000
# 3 34.8747 9.2059 80.7665 0.0000 0.0000 0.0000
# 4 0.0000 0.0000 0.0000 38.7195 0.0000 0.0000
# 5 0.0000 0.0000 0.0000 0.0000 21.8400 0.0000
# 6 0.0000 0.0000 0.0000 0.0000 0.0000 22.7111
#
#
#
# Elastic Compliance Matrix: (Units=1/GPa)
#
#
# Indices 1 2 3 4 5 6 
#
# 1 0.013290 -0.000779 -0.005650 0.000000 0.000000 0.000000
# 2 -0.000779 0.010509 -0.000861 0.000000 0.000000 0.000000
# 3 -0.005650 -0.000861 0.014919 0.000000 0.000000 0.000000
# 4 0.000000 0.000000 0.000000 0.025827 0.000000 0.000000
# 5 0.000000 0.000000 0.000000 0.000000 0.045787 0.000000
# 6 0.000000 0.000000 0.000000 0.000000 0.000000 0.044031
#
#
# Mechanical properties :
#
#
# Convention : Reuss Voigt Hill
#
# Bulk Modulus (GPa) = 41.42958 41.70424 41.56691
# Shear Modulus (GPa) = 28.25018 30.94497 29.59757
#
# Velocity S-wave (km/s) = 3.57190 3.73838 3.65609
# Velocity P-wave (km/s) = 5.97678 6.12116 6.04940
#
# Compressibility (1/GPa) = 0.02413734
#
# Stress axis : x y z
#
# Youngs Moduli (GPa) = 75.24363 95.15911 67.02805
#
# Poissons Ratio (x) = 0.07414 0.37870
# Poissons Ratio (y) = 0.05862 0.05774
# Poissons Ratio (z) = 0.42511 0.08197
#
# Static dielectric constant tensor:
#      x y z
#    x 1.897400 0.000000 0.000000 
#    y 0.000000 1.948070 0.000000 
#    z 0.000000 0.000000 1.914090 
# 
# From -- ./inp_files/22761.got.cif
#   From: 2010.05.17/outbox.cif.g08.bks.cpg/sg48_12_cif.got.tgz:22761.got - 2010.06.03 20:39:00.
