data_PCOD9390345
_publ_section_title
;
Structure prediction by ZEFSAII (Michael W. Deem and Ramdas Pophale) SiO2 
 PCOD9390345
Probable space group: P N N N
;
_chemical_formula_sum "Si O2"
_cell_formula_units_Z 64
_cell_length_a 11.351037
_cell_length_b 11.323953
_cell_length_c 24.138345
_cell_angle_alpha 90.000000
_cell_angle_beta 90.000000
_cell_angle_gamma 90.000000
_cell_volume 3102.709302
_symmetry_space_group_name_H-M "P N N N"
_symmetry_group_IT_number 48
_space_group.IT_coordinate_system_code '2'
_symmetry_cell_setting 'orthorhombic'
loop_
_space_group_symop_operation_xyz
x,y,z
1/2-x,1/2-y,z
x,1/2-y,1/2-z
1/2-x,y,1/2-z
-x,-y,-z
1/2+x,1/2+y,-z
-x,1/2+y,1/2+z
1/2+x,-y,1/2+z
loop_
_atom_site_type_symbol
_atom_site_label
_atom_site_fract_x
_atom_site_fract_y
_atom_site_fract_z
Si Si1 0.506976 0.370731 0.675054
Si Si2 0.495862 0.274381 0.434438
Si Si3 0.656776 0.016784 0.098700
Si Si4 0.568045 0.464966 0.119073
Si Si5 0.741045 0.113002 0.890318
Si Si6 0.712546 0.919169 0.981251
Si Si7 0.963457 0.625105 0.474567
Si Si8 0.550034 0.100695 0.698792
O O1 0.392795 0.432442 0.647472
O O2 0.608853 0.401207 0.631507
O O3 0.496803 0.230028 0.684515
O O4 0.556603 0.409484 0.735057
O O5 0.584167 0.362580 0.404981
O O6 0.498061 0.149437 0.402419
O O7 0.373021 0.342266 0.442645
O O8 0.532306 0.231655 0.496931
O O9 0.794361 0.046232 0.106778
O O10 0.644739 0.960150 0.036989
O O11 0.530443 0.588743 0.088726
O O12 0.535262 0.494522 0.180987
O O13 0.750000 0.250000 0.906340
O O14 0.757219 0.027110 0.942669
O O15 0.829987 0.091388 0.838074
O O16 0.828649 0.857667 0.006497
O O17 0.000000 0.500000 0.500000
#
# Coordination Sequence:
#
# PCOD9390345 Si02
#       8
#     8   8   8   8   8   8   8   8
#     4  10  22  41  64  93 123 163 215 278 314 383
#     4  11  21  38  60  87 129 164 212 253 317 388
#     4  11  24  40  59  93 131 166 214 258 325 384
#     4  10  23  40  60  89 124 171 209 262 313 384
#     4  10  20  36  64  96 126 159 207 263 326 384
#     4  11  22  36  60  94 128 171 201 260 320 390
#     4   9  20  35  54  85 124 165 203 243 303 376
#     4  10  22  41  66  89 123 166 219 268 327 370
#
# _framework density 20.627133000000001
#
# number of rings (size 3 to 8) (size 9 to 14) (size 15 to 20)
#    0.000    1.750    1.250    3.000    1.750    6.500 
#    0.000    1.875    0.000    1.500    0.000    0.000 
#    0.000    0.000    0.000    0.000    0.000    0.000 
#
# Total GULP energy -356751.096562 kJ/mol
# GULP energy per Si atom -5574.235884 kJ/mol
# Density = 2.058018 g / cm^3
# Si number density = 20.627133 Si / 1000 Ang^3
#
#
#
# Elastic Constant Matrix: (Units=GPa)
#
#
# Indices 1 2 3 4 5 6 
#
# 1 55.8301 20.8418 14.3302 0.0000 0.0000 0.0000
# 2 20.8418 63.7486 28.7368 0.0000 0.0000 0.0000
# 3 14.3302 28.7368 75.0266 0.0000 0.0000 0.0000
# 4 0.0000 0.0000 0.0000 32.0198 0.0000 0.0000
# 5 0.0000 0.0000 0.0000 0.0000 26.7898 0.0000
# 6 0.0000 0.0000 0.0000 0.0000 0.0000 28.7366
#
#
#
# Elastic Compliance Matrix: (Units=1/GPa)
#
#
# Indices 1 2 3 4 5 6 
#
# 1 0.020566 -0.005987 -0.001635 0.000000 0.000000 0.000000
# 2 -0.005987 0.020703 -0.006786 0.000000 0.000000 0.000000
# 3 -0.001635 -0.006786 0.016240 0.000000 0.000000 0.000000
# 4 0.000000 0.000000 0.000000 0.031231 0.000000 0.000000
# 5 0.000000 0.000000 0.000000 0.000000 0.037328 0.000000
# 6 0.000000 0.000000 0.000000 0.000000 0.000000 0.034799
#
#
# Mechanical properties :
#
#
# Convention : Reuss Voigt Hill
#
# Bulk Modulus (GPa) = 34.85154 35.82476 35.33815
# Shear Modulus (GPa) = 25.09449 26.22235 25.65842
#
# Velocity S-wave (km/s) = 3.49173 3.56933 3.53075
# Velocity P-wave (km/s) = 5.76098 5.86450 5.81297
#
# Compressibility (1/GPa) = 0.02869314
#
# Stress axis : x y z
#
# Youngs Moduli (GPa) = 48.62381 48.30212 61.57563
#
# Poissons Ratio (x) = 0.28917 0.10068
# Poissons Ratio (y) = 0.29110 0.41787
# Poissons Ratio (z) = 0.07951 0.32779
#
# Static dielectric constant tensor:
#      x y z
#    x 1.784300 0.000000 0.000000 
#    y 0.000000 1.759130 0.000000 
#    z 0.000000 0.000000 1.829380 
# 
# From -- ./inp_files/36385.got.cif
#   From: 2010.05.17/outbox.cif.g08.bks.cpg/sg48_19_cif.got.tgz:36385.got - 2010.06.03 20:39:00.
