data_PCOD9390281
_publ_section_title
;
Structure prediction by ZEFSAII (Michael W. Deem and Ramdas Pophale) SiO2 
 PCOD9390281
Probable space group: P N N N
;
_chemical_formula_sum "Si O2"
_cell_formula_units_Z 32
_cell_length_a 13.659405
_cell_length_b 8.040471
_cell_length_c 12.734897
_cell_angle_alpha 90.000000
_cell_angle_beta 90.000000
_cell_angle_gamma 90.000000
_cell_volume 1398.648902
_symmetry_space_group_name_H-M "P N N N"
_symmetry_group_IT_number 48
_space_group.IT_coordinate_system_code '2'
_symmetry_cell_setting 'orthorhombic'
loop_
_space_group_symop_operation_xyz
x,y,z
1/2-x,1/2-y,z
x,1/2-y,1/2-z
1/2-x,y,1/2-z
-x,-y,-z
1/2+x,1/2+y,-z
-x,1/2+y,1/2+z
1/2+x,-y,1/2+z
loop_
_atom_site_type_symbol
_atom_site_label
_atom_site_fract_x
_atom_site_fract_y
_atom_site_fract_z
Si Si1 0.060962 0.915689 0.877154
Si Si2 0.750000 0.250000 0.430549
Si Si3 0.981025 0.758683 0.421023
Si Si4 0.143280 0.009532 0.425048
Si Si5 0.614588 0.750000 0.750000
O O1 0.160607 0.814735 0.859576
O O2 0.963232 0.857925 0.817910
O O3 0.072746 0.112791 0.858386
O O4 0.042587 0.853235 0.996659
O O5 0.780353 0.099744 0.509680
O O6 0.061328 0.884676 0.376203
O O7 0.908408 0.874197 0.487553
O O8 0.171480 0.130010 0.330205
#
# Coordination Sequence:
#
# PCOD9390281 Si02
#       5
#     8   4   8   8   4
#     4   9  18  33  57  82 109 146 188 234 280 334
#     4  10  20  35  58  85 116 150 190 236 284 338
#     4   8  16  34  57  76 103 154 194 210 274 372
#     4   9  18  34  58  83 110 150 196 236 278 335
#     4  10  20  35  58  85 116 150 190 236 284 338
#
# _framework density 22.879223
#
# number of rings (size 3 to 8) (size 9 to 14) (size 15 to 20)
#    0.000    3.000    0.000    1.500    0.000    2.500 
#    0.000    0.000    0.000   81.000    0.000    0.000 
#    0.000    0.000    0.000    0.000    0.000    0.000 
#
# Total GULP energy -178246.578992 kJ/mol
# GULP energy per Si atom -5570.205594 kJ/mol
# Density = 2.282715 g / cm^3
# Si number density = 22.879223 Si / 1000 Ang^3
#
#
#
# Elastic Constant Matrix: (Units=GPa)
#
#
# Indices 1 2 3 4 5 6 
#
# 1 59.9464 37.6571 18.8477 0.0000 0.0000 0.0000
# 2 37.6571 161.4882 41.5315 0.0000 0.0000 0.0000
# 3 18.8477 41.5315 59.5937 0.0000 0.0000 0.0000
# 4 0.0000 0.0000 0.0000 10.9113 0.0000 0.0000
# 5 0.0000 0.0000 0.0000 0.0000 6.5179 0.0000
# 6 0.0000 0.0000 0.0000 0.0000 0.0000 29.2151
#
#
#
# Elastic Compliance Matrix: (Units=1/GPa)
#
#
# Indices 1 2 3 4 5 6 
#
# 1 0.020223 -0.003741 -0.003788 0.000000 0.000000 0.000000
# 2 -0.003741 0.008237 -0.004557 0.000000 0.000000 0.000000
# 3 -0.003788 -0.004557 0.021154 0.000000 0.000000 0.000000
# 4 0.000000 0.000000 0.000000 0.091648 0.000000 0.000000
# 5 0.000000 0.000000 0.000000 0.000000 0.153425 0.000000
# 6 0.000000 0.000000 0.000000 0.000000 0.000000 0.034229
#
#
# Mechanical properties :
#
#
# Convention : Reuss Voigt Hill
#
# Bulk Modulus (GPa) = 39.30780 53.01122 46.15951
# Shear Modulus (GPa) = 13.82860 21.52833 17.67847
#
# Velocity S-wave (km/s) = 2.46116 3.07083 2.78274
# Velocity P-wave (km/s) = 5.02934 5.98278 5.52666
#
# Compressibility (1/GPa) = 0.02544025
#
# Stress axis : x y z
#
# Youngs Moduli (GPa) = 49.44861 121.40583 47.27163
#
# Poissons Ratio (x) = 0.45423 0.17909
# Poissons Ratio (y) = 0.18501 0.21542
# Poissons Ratio (z) = 0.18734 0.55325
#
# Static dielectric constant tensor:
#      x y z
#    x 1.944130 0.000000 0.000000 
#    y 0.000000 1.897130 0.000000 
#    z 0.000000 0.000000 1.884560 
# 
# From -- ./inp_files/12138.got.cif
#   From: 2010.05.17/outbox.cif.g08.bks.cpg/sg48_7_cif.got.tgz:12138.got - 2010.06.03 20:39:00.
