data_PCOD9390979
_publ_section_title
;
Structure prediction by ZEFSAII (Michael W. Deem and Ramdas Pophale) SiO2 
 PCOD9390979
Probable space group: P N N N
;
_chemical_formula_sum "Si O2"
_cell_formula_units_Z 48
_cell_length_a 26.090761
_cell_length_b 8.450693
_cell_length_c 11.390937
_cell_angle_alpha 90.000000
_cell_angle_beta 90.000000
_cell_angle_gamma 90.000000
_cell_volume 2511.530874
_symmetry_space_group_name_H-M "P N N N"
_symmetry_group_IT_number 48
_space_group.IT_coordinate_system_code '2'
_symmetry_cell_setting 'orthorhombic'
loop_
_space_group_symop_operation_xyz
x,y,z
1/2-x,1/2-y,z
x,1/2-y,1/2-z
1/2-x,y,1/2-z
-x,-y,-z
1/2+x,1/2+y,-z
-x,1/2+y,1/2+z
1/2+x,-y,1/2+z
loop_
_atom_site_type_symbol
_atom_site_label
_atom_site_fract_x
_atom_site_fract_y
_atom_site_fract_z
Si Si1 0.880094 0.333105 0.142186
Si Si2 0.569700 0.565864 0.779919
Si Si3 0.309643 0.075089 0.717334
Si Si4 0.547848 0.402230 0.542154
Si Si5 0.520184 0.632823 0.138793
Si Si6 0.122725 0.504704 0.516797
O O1 0.909239 0.250000 0.250000
O O2 0.836875 0.434470 0.208324
O O3 0.871152 0.189666 0.051058
O O4 0.913729 0.442673 0.062738
O O5 0.573266 0.750000 0.750000
O O6 0.573267 0.459463 0.662908
O O7 0.512682 0.520280 0.824381
O O8 0.610993 0.522356 0.880294
O O9 0.328285 0.250000 0.750000
O O10 0.250000 0.065612 0.750000
O O11 0.326353 0.060508 0.581233
O O12 0.500000 0.500000 0.500000
O O13 0.521914 0.229493 0.560561
O O14 0.529461 0.750000 0.250000
O O15 0.573347 0.578194 0.080604
#
# Coordination Sequence:
#
# PCOD9390979 Si02
#       6
#     8   8   8   8   8   8
#     4  10  24  38  62  89 122 162 206 263 319 378
#     4  11  24  35  56  87 128 174 211 257 308 382
#     4  10  24  44  69  95 120 153 209 277 340 388
#     4  11  24  36  55  86 128 179 213 254 305 382
#     4  10  22  36  53  84 128 171 214 248 299 378
#     4  11  22  38  61  89 126 166 211 265 318 384
#
# _framework density 19.11185
#
# number of rings (size 3 to 8) (size 9 to 14) (size 15 to 20)
#    0.000    1.500    1.667    2.000   16.333    3.000 
#    0.000    0.000    0.000    1.000    0.000    4.667 
#    0.000    0.000    0.000    0.000    0.000    0.000 
#
# Total GULP energy -267339.005462 kJ/mol
# GULP energy per Si atom -5569.562614 kJ/mol
# Density = 1.906835 g / cm^3
# Si number density = 19.111850 Si / 1000 Ang^3
#
#
#
# Elastic Constant Matrix: (Units=GPa)
#
#
# Indices 1 2 3 4 5 6 
#
# 1 65.4365 18.2694 51.0974 0.0000 0.0000 0.0000
# 2 18.2694 96.1345 33.1410 0.0000 0.0000 0.0000
# 3 51.0974 33.1410 130.8072 0.0000 0.0000 0.0000
# 4 0.0000 0.0000 0.0000 32.0946 0.0000 0.0000
# 5 0.0000 0.0000 0.0000 0.0000 23.5059 0.0000
# 6 0.0000 0.0000 0.0000 0.0000 0.0000 17.4305
#
#
#
# Elastic Compliance Matrix: (Units=1/GPa)
#
#
# Indices 1 2 3 4 5 6 
#
# 1 0.022147 -0.001344 -0.008311 0.000000 0.000000 0.000000
# 2 -0.001344 0.011479 -0.002383 0.000000 0.000000 0.000000
# 3 -0.008311 -0.002383 0.011495 0.000000 0.000000 0.000000
# 4 0.000000 0.000000 0.000000 0.031158 0.000000 0.000000
# 5 0.000000 0.000000 0.000000 0.000000 0.042543 0.000000
# 6 0.000000 0.000000 0.000000 0.000000 0.000000 0.057371
#
#
# Mechanical properties :
#
#
# Convention : Reuss Voigt Hill
#
# Bulk Modulus (GPa) = 47.51687 55.26600 51.39143
# Shear Modulus (GPa) = 24.12160 27.26422 25.69291
#
# Velocity S-wave (km/s) = 3.55650 3.78108 3.67051
# Velocity P-wave (km/s) = 6.46385 6.93124 6.70162
#
# Compressibility (1/GPa) = 0.02104516
#
# Stress axis : x y z
#
# Youngs Moduli (GPa) = 45.15324 87.11481 86.99328
#
# Poissons Ratio (x) = 0.11706 0.72298
# Poissons Ratio (y) = 0.06068 0.20734
# Poissons Ratio (z) = 0.37526 0.20763
#
# Static dielectric constant tensor:
#      x y z
#    x 1.661800 0.000000 0.000000 
#    y 0.000000 1.795560 0.000000 
#    z 0.000000 0.000000 1.782820 
# 
# From -- ./inp_files/23260.got.cif
#   From: 2010.05.17/outbox.cif.g08.bks.cpg/sg48_12_cif.got.tgz:23260.got - 2010.06.03 20:39:00.
