data_PCOD9390433
_publ_section_title
;
Structure prediction by ZEFSAII (Michael W. Deem and Ramdas Pophale) SiO2 
 PCOD9390433
Probable space group: P N N N
;
_chemical_formula_sum "Si O2"
_cell_formula_units_Z 64
_cell_length_a 22.989822
_cell_length_b 8.986281
_cell_length_c 15.897421
_cell_angle_alpha 90.000000
_cell_angle_beta 90.000000
_cell_angle_gamma 90.000000
_cell_volume 3284.295907
_symmetry_space_group_name_H-M "P N N N"
_symmetry_group_IT_number 48
_space_group.IT_coordinate_system_code '2'
_symmetry_cell_setting 'orthorhombic'
loop_
_space_group_symop_operation_xyz
x,y,z
1/2-x,1/2-y,z
x,1/2-y,1/2-z
1/2-x,y,1/2-z
-x,-y,-z
1/2+x,1/2+y,-z
-x,1/2+y,1/2+z
1/2+x,-y,1/2+z
loop_
_atom_site_type_symbol
_atom_site_label
_atom_site_fract_x
_atom_site_fract_y
_atom_site_fract_z
Si Si1 0.972394 0.370848 0.056304
Si Si2 0.426407 0.066503 0.668880
Si Si3 0.728523 0.091744 0.583083
Si Si4 0.195493 0.352948 0.997708
Si Si5 0.458456 0.404137 0.130177
Si Si6 0.895217 0.108085 0.005638
Si Si7 0.100130 0.105712 0.647685
Si Si8 0.332916 0.331978 0.167033
O O1 0.925423 0.268235 0.008848
O O2 0.937911 0.463058 0.125573
O O3 0.017478 0.252580 0.095174
O O4 0.000000 0.500000 0.000000
O O5 0.434562 0.237883 0.640777
O O6 0.388136 0.080411 0.753305
O O7 0.489275 0.987923 0.677923
O O8 0.395897 0.970034 0.596651
O O9 0.750000 0.250000 0.614658
O O10 0.669801 0.113361 0.528756
O O11 0.778082 0.008931 0.529056
O O12 0.707976 0.973017 0.651644
O O13 0.250000 0.250000 0.970544
O O14 0.151163 0.376140 0.921020
O O15 0.169986 0.266402 0.080474
O O16 0.399531 0.380519 0.181033
O O17 0.436433 0.505130 0.052434
O O18 0.313956 0.250000 0.250000
#
# Coordination Sequence:
#
# PCOD9390433 Si02
#       8
#     8   8   8   8   8   8   8   8
#     4  11  20  32  58  85 117 154 199 238 297 368
#     4  10  21  37  56  84 126 159 199 245 302 358
#     4  10  21  39  64  89 119 155 198 257 311 354
#     4  10  21  40  62  85 116 161 213 252 308 366
#     4  10  21  36  60  84 121 158 193 241 307 368
#     4  10  20  38  60  87 119 161 201 247 304 367
#     4  11  22  36  56  87 119 161 204 253 292 359
#     4  10  22  39  64  88 118 154 206 252 305 384
#
# _framework density 19.486674000000001
#
# number of rings (size 3 to 8) (size 9 to 14) (size 15 to 20)
#    0.000    1.750    0.000    6.750    1.750    3.750 
#    0.000    5.625    0.000    0.750    0.000    0.000 
#    0.000    0.000    0.000    0.000    0.000    0.000 
#
# Total GULP energy -357156.692558 kJ/mol
# GULP energy per Si atom -5580.573321 kJ/mol
# Density = 1.944232 g / cm^3
# Si number density = 19.486674 Si / 1000 Ang^3
#
#
#
# Elastic Constant Matrix: (Units=GPa)
#
#
# Indices 1 2 3 4 5 6 
#
# 1 91.4552 47.2616 48.9566 0.0000 0.0000 0.0000
# 2 47.2616 153.0297 55.5137 0.0000 0.0000 0.0000
# 3 48.9566 55.5137 107.5942 0.0000 0.0000 0.0000
# 4 0.0000 0.0000 0.0000 26.7011 0.0000 0.0000
# 5 0.0000 0.0000 0.0000 0.0000 5.3326 0.0000
# 6 0.0000 0.0000 0.0000 0.0000 0.0000 21.8748
#
#
#
# Elastic Compliance Matrix: (Units=1/GPa)
#
#
# Indices 1 2 3 4 5 6 
#
# 1 0.015317 -0.002709 -0.005571 0.000000 0.000000 0.000000
# 2 -0.002709 0.008519 -0.003162 0.000000 0.000000 0.000000
# 3 -0.005571 -0.003162 0.013461 0.000000 0.000000 0.000000
# 4 0.000000 0.000000 0.000000 0.037452 0.000000 0.000000
# 5 0.000000 0.000000 0.000000 0.000000 0.187525 0.000000
# 6 0.000000 0.000000 0.000000 0.000000 0.000000 0.045715
#
#
# Mechanical properties :
#
#
# Convention : Reuss Voigt Hill
#
# Bulk Modulus (GPa) = 69.39641 72.83810 71.11726
# Shear Modulus (GPa) = 14.89522 24.13817 19.51670
#
# Velocity S-wave (km/s) = 2.76774 3.52334 3.16815
# Velocity P-wave (km/s) = 6.77521 7.34925 7.06806
#
# Compressibility (1/GPa) = 0.01440997
#
# Stress axis : x y z
#
# Youngs Moduli (GPa) = 65.28744 117.38946 74.28896
#
# Poissons Ratio (x) = 0.31805 0.41390
# Poissons Ratio (y) = 0.17689 0.23494
# Poissons Ratio (z) = 0.36375 0.37124
#
# Static dielectric constant tensor:
#      x y z
#    x 1.692890 0.000000 0.000000 
#    y 0.000000 1.685240 0.000000 
#    z 0.000000 0.000000 1.776700 
# 
# From -- ./inp_files/28662.got.cif
#   From: 2010.05.17/outbox.cif.g08.bks.cpg/sg48_15_cif.got.tgz:28662.got - 2010.06.03 20:39:00.
