data_PCOD9390671
_publ_section_title
;
Structure prediction by ZEFSAII (Michael W. Deem and Ramdas Pophale) SiO2 
 PCOD9390671
Probable space group: P N N N
;
_chemical_formula_sum "Si O2"
_cell_formula_units_Z 44
_cell_length_a 8.371417
_cell_length_b 8.399839
_cell_length_c 28.720677
_cell_angle_alpha 90.000000
_cell_angle_beta 90.000000
_cell_angle_gamma 90.000000
_cell_volume 2019.596505
_symmetry_space_group_name_H-M "P N N N"
_symmetry_group_IT_number 48
_space_group.IT_coordinate_system_code '2'
_symmetry_cell_setting 'orthorhombic'
loop_
_space_group_symop_operation_xyz
x,y,z
1/2-x,1/2-y,z
x,1/2-y,1/2-z
1/2-x,y,1/2-z
-x,-y,-z
1/2+x,1/2+y,-z
-x,1/2+y,1/2+z
1/2+x,-y,1/2+z
loop_
_atom_site_type_symbol
_atom_site_label
_atom_site_fract_x
_atom_site_fract_y
_atom_site_fract_z
Si Si1 0.000250 0.157700 0.822599
Si Si2 0.484186 0.583510 0.071484
Si Si3 0.342426 0.500606 0.318237
Si Si4 0.250000 0.250000 0.750000
Si Si5 0.936408 0.258666 0.478946
Si Si6 0.659361 0.581975 0.579048
Si Si7 0.250000 0.250000 0.250000
O O1 0.041217 0.140862 0.877740
O O2 0.847821 0.041447 0.817253
O O3 0.932328 0.334003 0.811638
O O4 0.142310 0.143468 0.785398
O O5 0.545410 0.409486 0.056210
O O6 0.291030 0.555565 0.072930
O O7 0.520044 0.697341 0.027909
O O8 0.393699 0.434700 0.368103
O O9 0.360196 0.363562 0.280987
O O10 0.750000 0.250000 0.486771
O O11 0.013208 0.103008 0.455695
O O12 0.750000 0.750000 0.573227
#
# Coordination Sequence:
#
# PCOD9390671 Si02
#       7
#     8   8   8   2   8   8   2
#     4  10  23  43  66  88 126 170 218 265 323 398
#     4   9  21  41  59  89 128 174 214 262 321 399
#     4  10  21  39  67  93 117 169 220 261 320 392
#     4  12  24  42  60  92 124 154 212 282 328 372
#     4  10  21  36  61  95 129 166 216 271 327 382
#     4   9  18  37  59  87 125 162 210 264 312 384
#     4  12  20  34  68  96 112 146 224 282 308 360
#
# _framework density 21.786529999999999
#
# number of rings (size 3 to 8) (size 9 to 14) (size 15 to 20)
#    0.000    2.182    0.909    1.091    5.091    3.636 
#    8.182    0.000    0.000    2.182    0.000    0.000 
#    0.000    0.000    0.000    0.000    0.000    0.000 
#
# Total GULP energy -245592.674597 kJ/mol
# GULP energy per Si atom -5581.651695 kJ/mol
# Density = 2.173694 g / cm^3
# Si number density = 21.786530 Si / 1000 Ang^3
#
#
#
# Elastic Constant Matrix: (Units=GPa)
#
#
# Indices 1 2 3 4 5 6 
#
# 1 48.9581 9.3124 43.0358 0.0000 0.0000 0.0000
# 2 9.3124 69.8805 62.4559 0.0000 0.0000 0.0000
# 3 43.0358 62.4559 180.0722 0.0000 0.0000 0.0000
# 4 0.0000 0.0000 0.0000 35.6265 0.0000 0.0000
# 5 0.0000 0.0000 0.0000 0.0000 17.8094 0.0000
# 6 0.0000 0.0000 0.0000 0.0000 0.0000 14.2909
#
#
#
# Elastic Compliance Matrix: (Units=1/GPa)
#
#
# Indices 1 2 3 4 5 6 
#
# 1 0.026302 0.003062 -0.007348 0.000000 0.000000 0.000000
# 2 0.003062 0.021096 -0.008049 0.000000 0.000000 0.000000
# 3 -0.007348 -0.008049 0.010101 0.000000 0.000000 0.000000
# 4 0.000000 0.000000 0.000000 0.028069 0.000000 0.000000
# 5 0.000000 0.000000 0.000000 0.000000 0.056150 0.000000
# 6 0.000000 0.000000 0.000000 0.000000 0.000000 0.069975
#
#
# Mechanical properties :
#
#
# Convention : Reuss Voigt Hill
#
# Bulk Modulus (GPa) = 30.45979 58.72433 44.59206
# Shear Modulus (GPa) = 20.21795 25.81915 23.01855
#
# Velocity S-wave (km/s) = 3.04962 3.44626 3.25399
# Velocity P-wave (km/s) = 5.13922 6.54588 5.88473
#
# Compressibility (1/GPa) = 0.03283017
#
# Stress axis : x y z
#
# Youngs Moduli (GPa) = 38.01922 47.40339 98.99935
#
# Poissons Ratio (x) = -0.14517 0.72747
# Poissons Ratio (y) = -0.11643 0.79681
# Poissons Ratio (z) = 0.27937 0.38153
#
# Static dielectric constant tensor:
#      x y z
#    x 1.844340 0.000000 0.000000 
#    y 0.000000 1.787540 0.000000 
#    z 0.000000 0.000000 1.844180 
# 
# From -- ./inp_files/38639.got.cif
#   From: 2010.05.17/outbox.cif.g08.bks.cpg/sg48_20_cif.got.tgz:38639.got - 2010.06.03 20:39:00.
