data_PCOD9390913
_publ_section_title
;
Structure prediction by ZEFSAII (Michael W. Deem and Ramdas Pophale) SiO2 
 PCOD9390913
Probable space group: P N N N
;
_chemical_formula_sum "Si O2"
_cell_formula_units_Z 40
_cell_length_a 8.995996
_cell_length_b 8.176560
_cell_length_c 23.641839
_cell_angle_alpha 90.000000
_cell_angle_beta 90.000000
_cell_angle_gamma 90.000000
_cell_volume 1739.006227
_symmetry_space_group_name_H-M "P N N N"
_symmetry_group_IT_number 48
_space_group.IT_coordinate_system_code '2'
_symmetry_cell_setting 'orthorhombic'
loop_
_space_group_symop_operation_xyz
x,y,z
1/2-x,1/2-y,z
x,1/2-y,1/2-z
1/2-x,y,1/2-z
-x,-y,-z
1/2+x,1/2+y,-z
-x,1/2+y,1/2+z
1/2+x,-y,1/2+z
loop_
_atom_site_type_symbol
_atom_site_label
_atom_site_fract_x
_atom_site_fract_y
_atom_site_fract_z
Si Si1 0.552720 0.887717 0.080059
Si Si2 0.421806 0.698800 0.187317
Si Si3 0.888481 0.414929 0.285113
Si Si4 0.574557 0.770805 0.957382
Si Si5 0.672471 0.411251 0.086308
O O1 0.509845 0.784317 0.135597
O O2 0.471977 0.066861 0.078910
O O3 0.727032 0.933625 0.074288
O O4 0.516116 0.801966 0.020965
O O5 0.250000 0.750000 0.180757
O O6 0.473274 0.750000 0.250000
O O7 0.461698 0.509076 0.196269
O O8 0.920673 0.250000 0.250000
O O9 0.750000 0.495653 0.250000
O O10 0.821167 0.392649 0.346831
O O11 0.750000 0.750000 0.955511
O O12 0.494718 0.607935 0.934280
O O13 0.750000 0.250000 0.060272
#
# Coordination Sequence:
#
# PCOD9390913 Si02
#       5
#     8   8   8   8   8
#     4  10  24  45  69 102 151 195 248 311 381 452
#     4  11  27  46  69 107 149 193 243 308 380 448
#     4  11  23  44  76 108 139 192 248 311 370 452
#     4  10  24  42  70 105 143 199 252 312 377 445
#     4  10  21  41  69 102 138 187 252 302 369 447
#
# _framework density 23.001643000000001
#
# number of rings (size 3 to 8) (size 9 to 14) (size 15 to 20)
#    0.000    1.600    2.000    1.200    8.400    6.800 
#    0.000    2.000    0.000    0.000    0.000    0.000 
#    0.000    0.000    0.000    0.000    0.000    0.000 
#
# Total GULP energy -222969.596234 kJ/mol
# GULP energy per Si atom -5574.239906 kJ/mol
# Density = 2.294929 g / cm^3
# Si number density = 23.001643 Si / 1000 Ang^3
#
#
#
# Elastic Constant Matrix: (Units=GPa)
#
#
# Indices 1 2 3 4 5 6 
#
# 1 136.5873 47.0090 39.5095 0.0000 0.0000 0.0000
# 2 47.0090 94.3885 37.7336 0.0000 0.0000 0.0000
# 3 39.5095 37.7336 143.0787 0.0000 0.0000 0.0000
# 4 0.0000 0.0000 0.0000 35.0381 0.0000 0.0000
# 5 0.0000 0.0000 0.0000 0.0000 -194.2409 0.0000
# 6 0.0000 0.0000 0.0000 0.0000 0.0000 31.9422
#
#
#
# Elastic Compliance Matrix: (Units=1/GPa)
#
#
# Indices 1 2 3 4 5 6 
#
# 1 0.009106 -0.003946 -0.001474 0.000000 0.000000 0.000000
# 2 -0.003946 0.013553 -0.002485 0.000000 0.000000 0.000000
# 3 -0.001474 -0.002485 0.008051 0.000000 0.000000 0.000000
# 4 0.000000 0.000000 0.000000 0.028540 0.000000 0.000000
# 5 0.000000 0.000000 0.000000 0.000000 -0.005148 0.000000
# 6 0.000000 0.000000 0.000000 0.000000 0.000000 0.031307
#
#
# Mechanical properties :
#
#
# Convention : Reuss Voigt Hill
#
# Bulk Modulus (GPa) = 67.10748 69.17319 68.14033
# Shear Modulus (GPa) = 47.08791 -8.79863 19.14464
#
# Velocity S-wave (km/s) = 4.52946 -1.95794 2.88812
# Velocity P-wave (km/s) = 7.52284 5.00271 6.38828
#
# Compressibility (1/GPa) = 0.01490147
#
# Stress axis : x y z
#
# Youngs Moduli (GPa) = 109.82187 73.78466 124.20170
#
# Poissons Ratio (x) = 0.29114 0.18305
# Poissons Ratio (y) = 0.43333 0.30860
# Poissons Ratio (z) = 0.16186 0.18333
#
# Static dielectric constant tensor:
#      x y z
#    x 1.922400 0.000000 0.000000 
#    y 0.000000 2.137650 0.000000 
#    z 0.000000 0.000000 1.864450 
# 
# From -- ./inp_files/35691.got.cif
#   From: 2010.05.17/outbox.cif.g08.bks.cpg/sg48_18_cif.got.tgz:35691.got - 2010.06.03 20:39:00.
