data_PCOD9390089
_publ_section_title
;
Structure prediction by ZEFSAII (Michael W. Deem and Ramdas Pophale) SiO2 
 PCOD9390089
Probable space group: P N N N
;
_chemical_formula_sum "Si O2"
_cell_formula_units_Z 52
_cell_length_a 12.981806
_cell_length_b 25.284011
_cell_length_c 8.048202
_cell_angle_alpha 90.000000
_cell_angle_beta 90.000000
_cell_angle_gamma 90.000000
_cell_volume 2641.678451
_symmetry_space_group_name_H-M "P N N N"
_symmetry_group_IT_number 48
_space_group.IT_coordinate_system_code '2'
_symmetry_cell_setting 'orthorhombic'
loop_
_space_group_symop_operation_xyz
x,y,z
1/2-x,1/2-y,z
x,1/2-y,1/2-z
1/2-x,y,1/2-z
-x,-y,-z
1/2+x,1/2+y,-z
-x,1/2+y,1/2+z
1/2+x,-y,1/2+z
loop_
_atom_site_type_symbol
_atom_site_label
_atom_site_fract_x
_atom_site_fract_y
_atom_site_fract_z
Si Si1 0.221068 0.013194 0.520247
Si Si2 0.136673 0.189612 0.304855
Si Si3 0.869187 0.692305 0.199793
Si Si4 0.469076 0.894378 0.805234
Si Si5 0.250000 0.913957 0.750000
Si Si6 0.584902 0.508818 0.813655
Si Si7 0.045028 0.083209 0.683377
O O1 0.154102 0.011756 0.352761
O O2 0.337835 0.024986 0.461558
O O3 0.152051 0.051720 0.637548
O O4 0.231839 0.955325 0.599726
O O5 0.123408 0.250000 0.250000
O O6 0.250000 0.171275 0.250000
O O7 0.131252 0.189160 0.502181
O O8 0.049505 0.149706 0.246834
O O9 0.910495 0.750000 0.250000
O O10 0.750000 0.689716 0.250000
O O11 0.927677 0.640066 0.260407
O O12 0.353350 0.880182 0.756830
O O13 0.495949 0.948414 0.710773
O O14 0.489884 0.906181 0.002517
O O15 0.528909 0.452221 0.798584
#
# Coordination Sequence:
#
# PCOD9390089 Si02
#       7
#     8   8   8   8   4   8   8
#     4  10  21  33  57  80 117 153 186 237 277 358
#     4  10  21  39  60  84 114 147 191 239 297 352
#     4  10  21  36  56  83 110 148 185 238 294 337
#     4  10  21  34  59  82 118 154 186 236 291 340
#     4  12  20  38  49  86 123 142 194 234 278 336
#     4  10  19  38  55  83 111 158 196 214 301 344
#     4  10  19  38  57  81 120 156 187 237 297 345
#
# _framework density 19.684453999999999
#
# number of rings (size 3 to 8) (size 9 to 14) (size 15 to 20)
#    0.000    1.846    3.077    2.769    7.538    0.615 
#    5.538    0.385    0.000    0.000    0.000    2.154 
#    0.000    0.000    0.000    0.000    0.000    0.000 
#
# Total GULP energy -290189.091992 kJ/mol
# GULP energy per Si atom -5580.559461 kJ/mol
# Density = 1.963965 g / cm^3
# Si number density = 19.684454 Si / 1000 Ang^3
#
#
#
# Elastic Constant Matrix: (Units=GPa)
#
#
# Indices 1 2 3 4 5 6 
#
# 1 139.3230 63.1519 17.2220 0.0000 0.0000 0.0000
# 2 63.1519 104.5065 0.8722 0.0000 0.0000 0.0000
# 3 17.2220 0.8722 38.3483 0.0000 0.0000 0.0000
# 4 0.0000 0.0000 0.0000 4.0734 0.0000 0.0000
# 5 0.0000 0.0000 0.0000 0.0000 19.7206 0.0000
# 6 0.0000 0.0000 0.0000 0.0000 0.0000 38.2714
#
#
#
# Elastic Compliance Matrix: (Units=1/GPa)
#
#
# Indices 1 2 3 4 5 6 
#
# 1 0.010651 -0.006397 -0.004638 0.000000 0.000000 0.000000
# 2 -0.006397 0.013413 0.002568 0.000000 0.000000 0.000000
# 3 -0.004638 0.002568 0.028101 0.000000 0.000000 0.000000
# 4 0.000000 0.000000 0.000000 0.245497 0.000000 0.000000
# 5 0.000000 0.000000 0.000000 0.000000 0.050708 0.000000
# 6 0.000000 0.000000 0.000000 0.000000 0.000000 0.026129
#
#
# Mechanical properties :
#
#
# Convention : Reuss Voigt Hill
#
# Bulk Modulus (GPa) = 28.38422 49.40777 38.89600
# Shear Modulus (GPa) = 12.40150 25.80852 19.10501
#
# Velocity S-wave (km/s) = 2.51273 3.62486 3.11877
# Velocity P-wave (km/s) = 4.78219 6.53252 5.72465
#
# Compressibility (1/GPa) = 0.03523084
#
# Stress axis : x y z
#
# Youngs Moduli (GPa) = 93.89167 74.55372 35.58584
#
# Poissons Ratio (x) = 0.47694 0.16503
# Poissons Ratio (y) = 0.60065 -0.09138
# Poissons Ratio (z) = 0.43543 -0.19145
#
# Static dielectric constant tensor:
#      x y z
#    x 1.740410 0.000000 0.000000 
#    y 0.000000 1.716480 0.000000 
#    z 0.000000 0.000000 1.740250 
# 
# From -- ./inp_files/11403.got.cif
#   From: 2010.05.17/outbox.cif.g08.bks.cpg/sg48_6_cif.got.tgz:11403.got - 2010.06.03 20:39:00.
