data_PCOD9390628
_publ_section_title
;
Structure prediction by ZEFSAII (Michael W. Deem and Ramdas Pophale) SiO2 
 PCOD9390628
Probable space group: P N N N
;
_chemical_formula_sum "Si O2"
_cell_formula_units_Z 52
_cell_length_a 14.229117
_cell_length_b 9.065603
_cell_length_c 23.549703
_cell_angle_alpha 90.000000
_cell_angle_beta 90.000000
_cell_angle_gamma 90.000000
_cell_volume 3037.806320
_symmetry_space_group_name_H-M "P N N N"
_symmetry_group_IT_number 48
_space_group.IT_coordinate_system_code '2'
_symmetry_cell_setting 'orthorhombic'
loop_
_space_group_symop_operation_xyz
x,y,z
1/2-x,1/2-y,z
x,1/2-y,1/2-z
1/2-x,y,1/2-z
-x,-y,-z
1/2+x,1/2+y,-z
-x,1/2+y,1/2+z
1/2+x,-y,1/2+z
loop_
_atom_site_type_symbol
_atom_site_label
_atom_site_fract_x
_atom_site_fract_y
_atom_site_fract_z
Si Si1 0.750000 0.250000 0.669994
Si Si2 0.421490 0.907862 0.031706
Si Si3 0.646496 0.998611 0.729395
Si Si4 0.428673 0.896569 0.534124
Si Si5 0.892976 0.488539 0.854916
Si Si6 0.908461 0.830419 0.883410
Si Si7 0.227629 0.082827 0.012417
O O1 0.671269 0.159437 0.704391
O O2 0.800841 0.115434 0.639574
O O3 0.454821 0.908166 0.097520
O O4 0.323190 0.994796 0.024869
O O5 0.412205 0.748872 0.003537
O O6 0.500000 0.000000 0.000000
O O7 0.750000 0.940098 0.750000
O O8 0.587499 0.007525 0.787538
O O9 0.605442 0.905636 0.677794
O O10 0.486770 0.852622 0.590703
O O11 0.500000 0.000000 0.500000
O O12 0.332972 0.990671 0.533518
O O13 0.885909 0.657730 0.874479
O O14 0.836103 0.896103 0.930339
O O15 0.250000 0.250000 0.993693
#
# Coordination Sequence:
#
# PCOD9390628 Si02
#       7
#     4   8   8   8   8   8   8
#     4  10  23  34  48  82 116 150 198 219 272 347
#     4  12  22  36  55  81 115 146 193 245 283 339
#     4  10  21  35  52  81 115 154 188 226 278 354
#     4  10  23  39  52  81 112 154 194 236 287 339
#     4  11  21  34  53  78 112 153 188 231 285 336
#     4  11  22  38  55  82 121 150 191 233 280 360
#     4  11  21  37  58  80 111 152 192 233 288 341
#
# _framework density 17.117615000000001
#
# number of rings (size 3 to 8) (size 9 to 14) (size 15 to 20)
#    0.000    1.231    3.077    5.769    6.462    1.846 
#    0.000    0.000    0.000    0.000    0.000    1.077 
#    0.000    3.692    0.000    0.000    0.000    0.000 
#
# Total GULP energy -289540.988072 kJ/mol
# GULP energy per Si atom -5568.095924 kJ/mol
# Density = 1.707865 g / cm^3
# Si number density = 17.117615 Si / 1000 Ang^3
#
#
#
# Elastic Constant Matrix: (Units=GPa)
#
#
# Indices 1 2 3 4 5 6 
#
# 1 70.2019 44.7267 45.2196 0.0000 0.0000 0.0000
# 2 44.7267 138.4523 51.8056 0.0000 0.0000 0.0000
# 3 45.2196 51.8056 119.2863 0.0000 0.0000 0.0000
# 4 0.0000 0.0000 0.0000 34.3700 0.0000 0.0000
# 5 0.0000 0.0000 0.0000 0.0000 30.9514 0.0000
# 6 0.0000 0.0000 0.0000 0.0000 0.0000 23.1751
#
#
#
# Elastic Compliance Matrix: (Units=1/GPa)
#
#
# Indices 1 2 3 4 5 6 
#
# 1 0.020994 -0.004542 -0.005986 0.000000 0.000000 0.000000
# 2 -0.004542 0.009607 -0.002450 0.000000 0.000000 0.000000
# 3 -0.005986 -0.002450 0.011717 0.000000 0.000000 0.000000
# 4 0.000000 0.000000 0.000000 0.029095 0.000000 0.000000
# 5 0.000000 0.000000 0.000000 0.000000 0.032309 0.000000
# 6 0.000000 0.000000 0.000000 0.000000 0.000000 0.043150
#
#
# Mechanical properties :
#
#
# Convention : Reuss Voigt Hill
#
# Bulk Modulus (GPa) = 61.12233 67.93826 64.53030
# Shear Modulus (GPa) = 28.04542 30.11188 29.07865
#
# Velocity S-wave (km/s) = 4.05210 4.19873 4.12607
# Velocity P-wave (km/s) = 7.59457 7.95494 7.77684
#
# Compressibility (1/GPa) = 0.01636063
#
# Stress axis : x y z
#
# Youngs Moduli (GPa) = 47.63179 104.09105 85.34967
#
# Poissons Ratio (x) = 0.47282 0.51089
# Poissons Ratio (y) = 0.21636 0.20913
# Poissons Ratio (z) = 0.28512 0.25506
#
# Static dielectric constant tensor:
#      x y z
#    x 1.613500 0.000000 0.000000 
#    y 0.000000 1.628900 0.000000 
#    z 0.000000 0.000000 1.686290 
# 
# From -- ./inp_files/36527.got.cif
#   From: 2010.05.17/outbox.cif.g08.bks.cpg/sg48_19_cif.got.tgz:36527.got - 2010.06.03 20:39:00.
