data_PCOD9390361
_publ_section_title
;
Structure prediction by ZEFSAII (Michael W. Deem and Ramdas Pophale) SiO2 
 PCOD9390361
Probable space group: P N N N
;
_chemical_formula_sum "Si O2"
_cell_formula_units_Z 56
_cell_length_a 21.159845
_cell_length_b 8.876663
_cell_length_c 15.611274
_cell_angle_alpha 90.000000
_cell_angle_beta 90.000000
_cell_angle_gamma 90.000000
_cell_volume 2932.247068
_symmetry_space_group_name_H-M "P N N N"
_symmetry_group_IT_number 48
_space_group.IT_coordinate_system_code '2'
_symmetry_cell_setting 'orthorhombic'
loop_
_space_group_symop_operation_xyz
x,y,z
1/2-x,1/2-y,z
x,1/2-y,1/2-z
1/2-x,y,1/2-z
-x,-y,-z
1/2+x,1/2+y,-z
-x,1/2+y,1/2+z
1/2+x,-y,1/2+z
loop_
_atom_site_type_symbol
_atom_site_label
_atom_site_fract_x
_atom_site_fract_y
_atom_site_fract_z
Si Si1 0.687527 0.960056 0.196487
Si Si2 0.687974 0.411309 0.795588
Si Si3 0.058119 0.106655 0.801639
Si Si4 0.437679 0.385971 0.184538
Si Si5 0.750000 0.750000 0.440735
Si Si6 0.750000 0.250000 0.369513
Si Si7 0.691187 0.455669 0.987769
Si Si8 0.935438 0.912404 0.004087
O O1 0.750000 0.920800 0.250000
O O2 0.623384 0.938128 0.251291
O O3 0.699098 0.847338 0.115823
O O4 0.700305 0.137405 0.176352
O O5 0.676898 0.250000 0.750000
O O6 0.750000 0.480997 0.750000
O O7 0.624055 0.510397 0.796081
O O8 0.707539 0.394297 0.894966
O O9 0.032830 0.250000 0.750000
O O10 0.071870 0.152977 0.900577
O O11 0.003060 0.980780 0.805406
O O12 0.438762 0.250000 0.250000
O O13 0.431455 0.324960 0.086180
O O14 0.785225 0.626240 0.498005
O O15 0.714511 0.136827 0.431900
O O16 0.616664 0.459284 0.994662
O O17 0.000000 0.000000 0.000000
#
# Coordination Sequence:
#
# PCOD9390361 Si02
#       8
#     8   8   8   8   4   4   8   8
#     4  11  21  33  53  83 118 155 194 235 279 339
#     4  10  21  39  61  84 110 146 190 242 299 352
#     4  11  21  38  61  84 116 158 195 235 291 355
#     4  10  23  40  60  86 115 149 194 244 294 346
#     4  10  21  36  55  82 116 154 195 232 284 354
#     4  10  21  34  53  86 118 150 194 242 289 340
#     4  10  20  37  58  81 114 152 191 240 293 348
#     4   9  20  37  57  79 110 149 187 228 284 346
#
# _framework density 19.097981999999998
#
# number of rings (size 3 to 8) (size 9 to 14) (size 15 to 20)
#    0.000    1.857    0.000    5.143    0.000    6.000 
#    0.000    2.143    0.000    0.000    0.000    0.000 
#    0.000    0.000    0.000    0.000    0.000    0.000 
#
# Total GULP energy -311788.903223 kJ/mol
# GULP energy per Si atom -5567.658986 kJ/mol
# Density = 1.905451 g / cm^3
# Si number density = 19.097982 Si / 1000 Ang^3
#
#
#
# Elastic Constant Matrix: (Units=GPa)
#
#
# Indices 1 2 3 4 5 6 
#
# 1 129.8131 29.9589 37.6283 0.0000 0.0000 0.0000
# 2 29.9589 107.5169 59.3866 0.0000 0.0000 0.0000
# 3 37.6283 59.3866 152.9443 0.0000 0.0000 0.0000
# 4 0.0000 0.0000 0.0000 24.7220 0.0000 0.0000
# 5 0.0000 0.0000 0.0000 0.0000 24.0138 0.0000
# 6 0.0000 0.0000 0.0000 0.0000 0.0000 18.5434
#
#
#
# Elastic Compliance Matrix: (Units=1/GPa)
#
#
# Indices 1 2 3 4 5 6 
#
# 1 0.008491 -0.001543 -0.001490 0.000000 0.000000 0.000000
# 2 -0.001543 0.012121 -0.004327 0.000000 0.000000 0.000000
# 3 -0.001490 -0.004327 0.008585 0.000000 0.000000 0.000000
# 4 0.000000 0.000000 0.000000 0.040450 0.000000 0.000000
# 5 0.000000 0.000000 0.000000 0.000000 0.041643 0.000000
# 6 0.000000 0.000000 0.000000 0.000000 0.000000 0.053928
#
#
# Mechanical properties :
#
#
# Convention : Reuss Voigt Hill
#
# Bulk Modulus (GPa) = 69.07267 71.58022 70.32644
# Shear Modulus (GPa) = 27.06178 31.00920 29.03549
#
# Velocity S-wave (km/s) = 3.76839 4.03387 3.90339
# Velocity P-wave (km/s) = 7.42835 7.69793 7.56434
#
# Compressibility (1/GPa) = 0.01447751
#
# Stress axis : x y z
#
# Youngs Moduli (GPa) = 117.76639 82.50372 116.48365
#
# Poissons Ratio (x) = 0.12731 0.17355
# Poissons Ratio (y) = 0.18173 0.50399
# Poissons Ratio (z) = 0.17546 0.35697
#
# Static dielectric constant tensor:
#      x y z
#    x 1.681850 0.000000 0.000000 
#    y 0.000000 1.723230 0.000000 
#    z 0.000000 0.000000 1.812200 
# 
# From -- ./inp_files/28386.got.cif
#   From: 2010.05.17/outbox.cif.g08.bks.cpg/sg48_15_cif.got.tgz:28386.got - 2010.06.03 20:39:00.
