data_PCOD9390457
_publ_section_title
;
Structure prediction by ZEFSAII (Michael W. Deem and Ramdas Pophale) SiO2 
 PCOD9390457
Probable space group: P N N N
;
_chemical_formula_sum "Si O2"
_cell_formula_units_Z 38
_cell_length_a 16.956794
_cell_length_b 19.561019
_cell_length_c 4.928571
_cell_angle_alpha 90.000000
_cell_angle_beta 90.000000
_cell_angle_gamma 90.000000
_cell_volume 1634.768408
_symmetry_space_group_name_H-M "P N N N"
_symmetry_group_IT_number 48
_space_group.IT_coordinate_system_code '2'
_symmetry_cell_setting 'orthorhombic'
loop_
_space_group_symop_operation_xyz
x,y,z
1/2-x,1/2-y,z
x,1/2-y,1/2-z
1/2-x,y,1/2-z
-x,-y,-z
1/2+x,1/2+y,-z
-x,1/2+y,1/2+z
1/2+x,-y,1/2+z
loop_
_atom_site_type_symbol
_atom_site_label
_atom_site_fract_x
_atom_site_fract_y
_atom_site_fract_z
Si Si1 0.125537 0.642804 0.365416
Si Si2 0.501695 0.750000 0.250000
Si Si3 0.607826 0.814269 0.734486
Si Si4 0.155074 0.099764 0.743238
Si Si5 0.840679 0.442239 0.151116
Si Si6 0.250000 0.750000 0.250000
O O1 0.108136 0.605201 0.646569
O O2 0.193463 0.699492 0.416500
O O3 0.056118 0.684972 0.221691
O O4 0.153483 0.586390 0.151148
O O5 0.548395 0.771146 0.522060
O O6 0.667417 0.750000 0.750000
O O7 0.627903 0.877346 0.538890
O O8 0.611575 0.851685 0.026063
O O9 0.250000 0.108220 0.750000
O O10 0.136800 0.021160 0.677000
O O11 0.750000 0.436176 0.250000
#
# Coordination Sequence:
#
# PCOD9390457 Si02
#       6
#     8   4   8   8   8   2
#     4  11  24  39  69  99 141 185 236 278 349 397
#     4  11  28  45  67  98 143 190 234 288 335 418
#     4  12  24  46  69  94 140 171 229 290 346 407
#     4  11  25  43  73 102 131 173 226 289 362 414
#     4  11  22  43  66 102 142 174 223 295 352 413
#     4  10  20  38  64 106 126 182 228 286 326 402
#
# _framework density 23.244886000000001
#
# number of rings (size 3 to 8) (size 9 to 14) (size 15 to 20)
#    0.000    0.842    4.211    1.895    2.947    9.263 
#    0.000    6.316    0.000    0.000    0.000    0.000 
#    0.000    0.000    0.000    0.000    0.000    0.000 
#
# Total GULP energy -211760.529467 kJ/mol
# GULP energy per Si atom -5572.645512 kJ/mol
# Density = 2.319198 g / cm^3
# Si number density = 23.244886 Si / 1000 Ang^3
#
#
#
# Elastic Constant Matrix: (Units=GPa)
#
#
# Indices 1 2 3 4 5 6 
#
# 1 65.3410 17.0602 4.5306 0.0000 0.0000 0.0000
# 2 17.0602 146.9180 20.2712 0.0000 0.0000 0.0000
# 3 4.5306 20.2712 130.8162 0.0000 0.0000 0.0000
# 4 0.0000 0.0000 0.0000 40.5339 0.0000 0.0000
# 5 0.0000 0.0000 0.0000 0.0000 -21.2078 0.0000
# 6 0.0000 0.0000 0.0000 0.0000 0.0000 15.1382
#
#
#
# Elastic Compliance Matrix: (Units=1/GPa)
#
#
# Indices 1 2 3 4 5 6 
#
# 1 0.015792 -0.001797 -0.000269 0.000000 0.000000 0.000000
# 2 -0.001797 0.007160 -0.001047 0.000000 0.000000 0.000000
# 3 -0.000269 -0.001047 0.007816 0.000000 0.000000 0.000000
# 4 0.000000 0.000000 0.000000 0.024671 0.000000 0.000000
# 5 0.000000 0.000000 0.000000 0.000000 -0.047153 0.000000
# 6 0.000000 0.000000 0.000000 0.000000 0.000000 0.066058
#
#
# Mechanical properties :
#
#
# Convention : Reuss Voigt Hill
#
# Bulk Modulus (GPa) = 40.74538 47.42212 44.08375
# Shear Modulus (GPa) = 56.33838 26.97375 41.65606
#
# Velocity S-wave (km/s) = 4.92844 3.41018 4.23786
# Velocity P-wave (km/s) = 7.06773 5.99593 6.55378
#
# Compressibility (1/GPa) = 0.02454266
#
# Stress axis : x y z
#
# Youngs Moduli (GPa) = 63.32293 139.67164 127.94450
#
# Poissons Ratio (x) = 0.25095 0.03435
# Poissons Ratio (y) = 0.11377 0.13399
# Poissons Ratio (z) = 0.01700 0.14627
#
# Static dielectric constant tensor:
#      x y z
#    x 1.867200 0.000000 0.000000 
#    y 0.000000 2.124870 0.000000 
#    z 0.000000 0.000000 1.960700 
# 
# From -- ./inp_files/4355.got.cif
#   From: 2010.05.17/outbox.cif.g08.bks.cpg/sg48_3_cif.got.tgz:4355.got - 2010.06.03 20:39:00.
