data_PCOD9390201
_publ_section_title
;
Structure prediction by ZEFSAII (Michael W. Deem and Ramdas Pophale) SiO2 
 PCOD9390201
Probable space group: P N N N
;
_chemical_formula_sum "Si O2"
_cell_formula_units_Z 52
_cell_length_a 17.777635
_cell_length_b 8.733877
_cell_length_c 15.253811
_cell_angle_alpha 90.000000
_cell_angle_beta 90.000000
_cell_angle_gamma 90.000000
_cell_volume 2368.423806
_symmetry_space_group_name_H-M "P N N N"
_symmetry_group_IT_number 48
_space_group.IT_coordinate_system_code '2'
_symmetry_cell_setting 'orthorhombic'
loop_
_space_group_symop_operation_xyz
x,y,z
1/2-x,1/2-y,z
x,1/2-y,1/2-z
1/2-x,y,1/2-z
-x,-y,-z
1/2+x,1/2+y,-z
-x,1/2+y,1/2+z
1/2+x,-y,1/2+z
loop_
_atom_site_type_symbol
_atom_site_label
_atom_site_fract_x
_atom_site_fract_y
_atom_site_fract_z
Si Si1 0.377207 0.197715 0.494004
Si Si2 0.679344 0.080351 0.791040
Si Si3 0.456101 0.765984 0.037268
Si Si4 0.109999 0.569306 0.623741
Si Si5 0.750000 0.250000 0.122586
Si Si6 0.557010 0.997755 0.668921
Si Si7 0.327256 0.975542 0.015860
O O1 0.455737 0.266725 0.528122
O O2 0.400475 0.111490 0.402945
O O3 0.322707 0.342196 0.486353
O O4 0.357879 0.078079 0.571316
O O5 0.676271 0.250000 0.750000
O O6 0.750000 0.993155 0.750000
O O7 0.701924 0.086066 0.891834
O O8 0.602524 0.999606 0.759680
O O9 0.438640 0.666071 0.123730
O O10 0.414096 0.924581 0.027947
O O11 0.422663 0.668087 0.956977
O O12 0.179687 0.660154 0.666473
O O13 0.032660 0.537271 0.677245
O O14 0.711282 0.119543 0.061365
#
# Coordination Sequence:
#
# PCOD9390201 Si02
#       7
#     8   8   8   8   4   8   8
#     4   9  18  30  50  74 100 132 175 231 272 308
#     4  11  22  33  49  70 108 159 191 208 248 341
#     4   8  15  31  51  70  95 137 175 219 268 325
#     4   8  17  32  54  71 100 138 174 237 277 331
#     4  10  20  34  51  78 102 147 184 220 302 326
#     4   9  17  35  50  68 101 148 188 216 270 315
#     4  11  20  30  49  74 108 140 178 221 262 332
#
# _framework density 21.955528999999999
#
# number of rings (size 3 to 8) (size 9 to 14) (size 15 to 20)
#    0.000    2.615    1.538    3.231    4.308    1.231 
#    0.000    0.769    0.000    0.000    0.000    0.000 
#    0.000   39.385   17.846    0.000    0.000    0.000 
#
# Total GULP energy -289564.368174 kJ/mol
# GULP energy per Si atom -5568.545542 kJ/mol
# Density = 2.190556 g / cm^3
# Si number density = 21.955529 Si / 1000 Ang^3
#
#
#
# Elastic Constant Matrix: (Units=GPa)
#
#
# Indices 1 2 3 4 5 6 
#
# 1 107.7509 35.5959 9.0017 0.0000 0.0000 0.0000
# 2 35.5959 118.2558 9.2088 0.0000 0.0000 0.0000
# 3 9.0017 9.2088 26.0604 0.0000 0.0000 0.0000
# 4 0.0000 0.0000 0.0000 14.2165 0.0000 0.0000
# 5 0.0000 0.0000 0.0000 0.0000 -4.3170 0.0000
# 6 0.0000 0.0000 0.0000 0.0000 0.0000 35.0418
#
#
#
# Elastic Compliance Matrix: (Units=1/GPa)
#
#
# Indices 1 2 3 4 5 6 
#
# 1 0.010471 -0.002951 -0.002574 0.000000 0.000000 0.000000
# 2 -0.002951 0.009527 -0.002347 0.000000 0.000000 0.000000
# 3 -0.002574 -0.002347 0.040091 0.000000 0.000000 0.000000
# 4 0.000000 0.000000 0.000000 0.070341 0.000000 0.000000
# 5 0.000000 0.000000 0.000000 0.000000 -0.231641 0.000000
# 6 0.000000 0.000000 0.000000 0.000000 0.000000 0.028537
#
#
# Mechanical properties :
#
#
# Convention : Reuss Voigt Hill
#
# Bulk Modulus (GPa) = 22.55089 39.96445 31.25767
# Shear Modulus (GPa) = -118.62973 22.20563 -48.21205
#
# Velocity S-wave (km/s) = -7.35861 3.18369 -4.69112
# Velocity P-wave (km/s) = 7.86800 5.63529 3.88258
#
# Compressibility (1/GPa) = 0.04434416
#
# Stress axis : x y z
#
# Youngs Moduli (GPa) = 95.50484 104.96048 24.94335
#
# Poissons Ratio (x) = 0.30977 0.06420
# Poissons Ratio (y) = 0.28187 0.05855
# Poissons Ratio (z) = 0.24581 0.24636
#
# Static dielectric constant tensor:
#      x y z
#    x 1.647410 0.000000 0.000000 
#    y 0.000000 1.860060 0.000000 
#    z 0.000000 0.000000 1.838880 
# 
# From -- ./inp_files/31974.got.cif
#   From: 2010.05.17/outbox.cif.g08.bks.cpg/sg48_16_cif.got.tgz:31974.got - 2010.06.03 20:39:00.
