data_PCOD9390799
_publ_section_title
;
Structure prediction by ZEFSAII (Michael W. Deem and Ramdas Pophale) SiO2 
 PCOD9390799
Probable space group: P N N N
;
_chemical_formula_sum "Si O2"
_cell_formula_units_Z 64
_cell_length_a 9.106327
_cell_length_b 15.554963
_cell_length_c 21.666408
_cell_angle_alpha 90.000000
_cell_angle_beta 90.000000
_cell_angle_gamma 90.000000
_cell_volume 3069.015917
_symmetry_space_group_name_H-M "P N N N"
_symmetry_group_IT_number 48
_space_group.IT_coordinate_system_code '2'
_symmetry_cell_setting 'orthorhombic'
loop_
_space_group_symop_operation_xyz
x,y,z
1/2-x,1/2-y,z
x,1/2-y,1/2-z
1/2-x,y,1/2-z
-x,-y,-z
1/2+x,1/2+y,-z
-x,1/2+y,1/2+z
1/2+x,-y,1/2+z
loop_
_atom_site_type_symbol
_atom_site_label
_atom_site_fract_x
_atom_site_fract_y
_atom_site_fract_z
Si Si1 0.172452 0.169835 0.316553
Si Si2 0.338184 0.835965 0.029241
Si Si3 0.679087 0.843653 0.046346
Si Si4 0.141528 0.396825 0.809469
Si Si5 0.356102 0.490289 0.168201
Si Si6 0.339247 0.496414 0.024776
Si Si7 0.683163 0.158097 0.822735
Si Si8 0.411842 0.585825 0.731695
O O1 0.250000 0.250000 0.350616
O O2 0.250000 0.171302 0.250000
O O3 0.220948 0.076325 0.337344
O O4 0.000643 0.160991 0.303589
O O5 0.250000 0.750000 0.009778
O O6 0.512827 0.835979 0.020267
O O7 0.328222 0.843243 0.103224
O O8 0.259674 0.921883 0.005437
O O9 0.750000 0.750000 0.042469
O O10 0.686886 0.870509 0.120114
O O11 0.760685 0.912279 0.002781
O O12 0.250000 0.378788 0.750000
O O13 0.115113 0.499699 0.808269
O O14 0.982192 0.354412 0.798638
O O15 0.382567 0.501946 0.096764
O O16 0.295536 0.580834 0.192141
O O17 0.485161 0.449123 0.210749
O O18 0.500000 0.500000 0.000000
O O19 0.750000 0.250000 0.808820
O O20 0.250000 0.615525 0.750000
#
# Coordination Sequence:
#
# PCOD9390799 Si02
#       8
#     8   8   8   8   8   8   8   8
#     4   9  18  37  66  90 119 161 204 255 315 384
#     4   9  19  41  66  92 126 171 220 274 326 388
#     4  11  24  43  65  95 137 177 221 276 333 395
#     4  10  22  40  63  94 134 174 220 277 333 389
#     4  10  21  40  62  90 129 167 219 265 318 400
#     4  11  24  39  67  93 126 172 219 267 336 393
#     4   9  18  37  62  89 128 178 218 262 322 396
#     4  10  21  39  64  94 133 167 207 272 334 381
#
# _framework density 20.853590000000001
#
# number of rings (size 3 to 8) (size 9 to 14) (size 15 to 20)
#    0.000    2.125    1.250    1.125    3.500    1.750 
#    2.250    5.625    0.000    0.000    0.000    0.000 
#    0.000    0.000    0.000    0.000    0.000    0.000 
#
# Total GULP energy -356364.505673 kJ/mol
# GULP energy per Si atom -5568.195401 kJ/mol
# Density = 2.080613 g / cm^3
# Si number density = 20.853590 Si / 1000 Ang^3
#
#
#
# Elastic Constant Matrix: (Units=GPa)
#
#
# Indices 1 2 3 4 5 6 
#
# 1 174.4402 78.1418 34.4718 0.0000 0.0000 0.0000
# 2 78.1418 141.3120 36.5234 0.0000 0.0000 0.0000
# 3 34.4718 36.5234 66.5776 0.0000 0.0000 0.0000
# 4 0.0000 0.0000 0.0000 31.8867 0.0000 0.0000
# 5 0.0000 0.0000 0.0000 0.0000 13.5872 0.0000
# 6 0.0000 0.0000 0.0000 0.0000 0.0000 17.0124
#
#
#
# Elastic Compliance Matrix: (Units=1/GPa)
#
#
# Indices 1 2 3 4 5 6 
#
# 1 0.007833 -0.003826 -0.001957 0.000000 0.000000 0.000000
# 2 -0.003826 0.010114 -0.003568 0.000000 0.000000 0.000000
# 3 -0.001957 -0.003568 0.017991 0.000000 0.000000 0.000000
# 4 0.000000 0.000000 0.000000 0.031361 0.000000 0.000000
# 5 0.000000 0.000000 0.000000 0.000000 0.073599 0.000000
# 6 0.000000 0.000000 0.000000 0.000000 0.000000 0.058781
#
#
# Mechanical properties :
#
#
# Convention : Reuss Voigt Hill
#
# Bulk Modulus (GPa) = 58.01456 75.62266 66.81861
# Shear Modulus (GPa) = 22.30905 28.04345 25.17625
#
# Velocity S-wave (km/s) = 3.27432 3.67110 3.47837
# Velocity P-wave (km/s) = 6.49425 7.36964 6.94575
#
# Compressibility (1/GPa) = 0.01723705
#
# Stress axis : x y z
#
# Youngs Moduli (GPa) = 127.66334 98.87160 55.58483
#
# Poissons Ratio (x) = 0.37825 0.10878
# Poissons Ratio (y) = 0.48840 0.19831
# Poissons Ratio (z) = 0.24984 0.35274
#
# Static dielectric constant tensor:
#      x y z
#    x 1.751200 0.000000 0.000000 
#    y 0.000000 1.448170 0.000000 
#    z 0.000000 0.000000 1.580470 
# 
# From -- ./inp_files/35999.got.cif
#   From: 2010.05.17/outbox.cif.g08.bks.cpg/sg48_18_cif.got.tgz:35999.got - 2010.06.03 20:39:00.
