data_PCOD9390225
_publ_section_title
;
Structure prediction by ZEFSAII (Michael W. Deem and Ramdas Pophale) SiO2 
 PCOD9390225
Probable space group: P N N N
;
_chemical_formula_sum "Si O2"
_cell_formula_units_Z 64
_cell_length_a 24.305996
_cell_length_b 22.471030
_cell_length_c 5.755402
_cell_angle_alpha 90.000000
_cell_angle_beta 90.000000
_cell_angle_gamma 90.000000
_cell_volume 3143.489869
_symmetry_space_group_name_H-M "P N N N"
_symmetry_group_IT_number 48
_space_group.IT_coordinate_system_code '2'
_symmetry_cell_setting 'orthorhombic'
loop_
_space_group_symop_operation_xyz
x,y,z
1/2-x,1/2-y,z
x,1/2-y,1/2-z
1/2-x,y,1/2-z
-x,-y,-z
1/2+x,1/2+y,-z
-x,1/2+y,1/2+z
1/2+x,-y,1/2+z
loop_
_atom_site_type_symbol
_atom_site_label
_atom_site_fract_x
_atom_site_fract_y
_atom_site_fract_z
Si Si1 0.180150 0.218250 0.497849
Si Si2 0.302370 0.086437 0.900638
Si Si3 0.953288 0.316539 0.255225
Si Si4 0.002118 0.096863 0.869283
Si Si5 0.603845 0.527443 0.122733
Si Si6 0.813221 0.479639 0.754769
Si Si7 0.086484 0.570231 0.005656
Si Si8 0.052771 0.197266 0.571538
O O1 0.190624 0.250000 0.750000
O O2 0.207059 0.153477 0.516690
O O3 0.114881 0.206734 0.497321
O O4 0.192536 0.250000 0.250000
O O5 0.250000 0.066798 0.750000
O O6 0.356785 0.076652 0.745199
O O7 0.309907 0.043425 0.118035
O O8 0.927648 0.250000 0.250000
O O9 0.966552 0.355441 0.483902
O O10 0.922435 0.363899 0.093446
O O11 0.012983 0.305373 0.145344
O O12 0.049544 0.057280 0.993959
O O13 0.039867 0.136226 0.700465
O O14 0.958164 0.061985 0.710978
O O15 0.579884 0.480772 0.310770
O O16 0.648723 0.491705 0.969592
O O17 0.750000 0.458793 0.750000
O O18 0.851521 0.437114 0.906679
O O19 0.037743 0.250000 0.750000
#
# Coordination Sequence:
#
# PCOD9390225 Si02
#       8
#     8   8   8   8   8   8   8   8
#     4  11  26  41  64  94 134 184 242 298 351 405
#     4  11  24  42  64  92 124 171 237 292 350 411
#     4  11  22  37  62  92 134 177 214 265 331 424
#     4  11  22  38  63  96 137 176 214 277 343 418
#     4  11  23  42  65  95 131 174 222 283 348 411
#     4  11  24  42  69  93 125 171 225 293 350 415
#     4  10  25  40  61 100 130 168 223 279 349 423
#     4  10  20  34  56  90 128 173 229 268 324 402
#
# _framework density 20.359539000000002
#
# number of rings (size 3 to 8) (size 9 to 14) (size 15 to 20)
#    0.000    1.250    3.750    1.500    5.250    3.250 
#    0.000    0.625    0.000    0.000    0.000   12.250 
#    0.000    0.000    0.000    0.000    0.000    0.000 
#
# Total GULP energy -357004.275586 kJ/mol
# GULP energy per Si atom -5578.191806 kJ/mol
# Density = 2.031320 g / cm^3
# Si number density = 20.359539 Si / 1000 Ang^3
#
#
#
# Elastic Constant Matrix: (Units=GPa)
#
#
# Indices 1 2 3 4 5 6 
#
# 1 119.6748 48.9509 27.3448 0.0000 0.0000 0.0000
# 2 48.9509 81.7009 27.8039 0.0000 0.0000 0.0000
# 3 27.3448 27.8039 78.2254 0.0000 0.0000 0.0000
# 4 0.0000 0.0000 0.0000 10.3754 0.0000 0.0000
# 5 0.0000 0.0000 0.0000 0.0000 45.3023 0.0000
# 6 0.0000 0.0000 0.0000 0.0000 0.0000 28.1845
#
#
#
# Elastic Compliance Matrix: (Units=1/GPa)
#
#
# Indices 1 2 3 4 5 6 
#
# 1 0.011276 -0.006160 -0.001752 0.000000 0.000000 0.000000
# 2 -0.006160 0.017289 -0.003992 0.000000 0.000000 0.000000
# 3 -0.001752 -0.003992 0.014815 0.000000 0.000000 0.000000
# 4 0.000000 0.000000 0.000000 0.096382 0.000000 0.000000
# 5 0.000000 0.000000 0.000000 0.000000 0.022074 0.000000
# 6 0.000000 0.000000 0.000000 0.000000 0.000000 0.035481
#
#
# Mechanical properties :
#
#
# Convention : Reuss Voigt Hill
#
# Bulk Modulus (GPa) = 51.09314 54.20005 52.64659
# Shear Modulus (GPa) = 21.96382 28.47254 25.21818
#
# Velocity S-wave (km/s) = 3.28807 3.74369 3.52325
# Velocity P-wave (km/s) = 6.29008 6.73544 6.51657
#
# Compressibility (1/GPa) = 0.01957210
#
# Stress axis : x y z
#
# Youngs Moduli (GPa) = 88.68525 57.84116 67.49945
#
# Poissons Ratio (x) = 0.35628 0.11828
# Poissons Ratio (y) = 0.54626 0.26945
# Poissons Ratio (z) = 0.15540 0.23089
#
# Static dielectric constant tensor:
#      x y z
#    x 1.707720 0.000000 0.000000 
#    y 0.000000 1.774540 0.000000 
#    z 0.000000 0.000000 1.810070 
# 
# From -- ./inp_files/6661.got.cif
#   From: 2010.05.17/outbox.cif.g08.bks.cpg/sg48_4_cif.got.tgz:6661.got - 2010.06.03 20:39:00.
