data_PCOD9390088
_publ_section_title
;
Structure prediction by ZEFSAII (Michael W. Deem and Ramdas Pophale) SiO2 
 PCOD9390088
Probable space group: P N N N
;
_chemical_formula_sum "Si O2"
_cell_formula_units_Z 44
_cell_length_a 10.497341
_cell_length_b 19.441346
_cell_length_c 12.458558
_cell_angle_alpha 90.000000
_cell_angle_beta 90.000000
_cell_angle_gamma 90.000000
_cell_volume 2542.572896
_symmetry_space_group_name_H-M "P N N N"
_symmetry_group_IT_number 48
_space_group.IT_coordinate_system_code '2'
_symmetry_cell_setting 'orthorhombic'
loop_
_space_group_symop_operation_xyz
x,y,z
1/2-x,1/2-y,z
x,1/2-y,1/2-z
1/2-x,y,1/2-z
-x,-y,-z
1/2+x,1/2+y,-z
-x,1/2+y,1/2+z
1/2+x,-y,1/2+z
loop_
_atom_site_type_symbol
_atom_site_label
_atom_site_fract_x
_atom_site_fract_y
_atom_site_fract_z
Si Si1 0.616983 0.446122 0.379225
Si Si2 0.122951 0.338089 0.438455
Si Si3 0.750000 0.750000 0.750000
Si Si4 0.750000 0.250000 0.250000
Si Si5 0.870270 0.118418 0.145563
Si Si6 0.901833 0.737366 0.132325
Si Si7 0.617052 0.595913 0.473906
O O1 0.613907 0.425786 0.254452
O O2 0.747417 0.409403 0.417631
O O3 0.628815 0.526495 0.405204
O O4 0.490218 0.418111 0.436434
O O5 0.165298 0.295827 0.331763
O O6 0.071723 0.286784 0.531396
O O7 0.248094 0.379226 0.477044
O O8 0.003499 0.385326 0.413085
O O9 0.836255 0.197043 0.181103
O O10 0.750000 0.750000 0.142208
O O11 0.958901 0.750000 0.250000
O O12 0.926848 0.659576 0.098372
#
# Coordination Sequence:
#
# PCOD9390088 Si02
#       7
#     8   8   2   2   8   8   8
#     4   9  21  36  54  77 115 153 183 216 287 354
#     4  11  21  32  60  88 115 137 186 253 277 328
#     4  12  18  32  54  98 114 132 176 250 306 312
#     4   8  18  32  52  78 124 148 162 234 286 370
#     4  10  21  34  54  89 109 148 187 231 292 335
#     4   9  19  34  54  82 106 146 188 222 278 327
#     4  10  19  38  55  77 111 154 183 231 274 335
#
# _framework density 17.305304
#
# number of rings (size 3 to 8) (size 9 to 14) (size 15 to 20)
#    0.000    2.364    2.727    1.636    5.091    6.545 
#    0.000    0.000    0.000    4.364    0.000    0.000 
#    0.000    0.000    0.000    0.000    0.000    0.000 
#
# Total GULP energy -244987.118704 kJ/mol
# GULP energy per Si atom -5567.889061 kJ/mol
# Density = 1.726592 g / cm^3
# Si number density = 17.305304 Si / 1000 Ang^3
#
#
#
# Elastic Constant Matrix: (Units=GPa)
#
#
# Indices 1 2 3 4 5 6 
#
# 1 96.8233 50.4387 35.2079 0.0000 0.0000 0.0000
# 2 50.4387 123.5883 52.9861 0.0000 0.0000 0.0000
# 3 35.2079 52.9861 92.1184 0.0000 0.0000 0.0000
# 4 0.0000 0.0000 0.0000 -1.2089 0.0000 0.0000
# 5 0.0000 0.0000 0.0000 0.0000 -2.3938 0.0000
# 6 0.0000 0.0000 0.0000 0.0000 0.0000 -10.4242
#
#
#
# Elastic Compliance Matrix: (Units=1/GPa)
#
#
# Indices 1 2 3 4 5 6 
#
# 1 0.013591 -0.004406 -0.002660 0.000000 0.000000 0.000000
# 2 -0.004406 0.012168 -0.005315 0.000000 0.000000 0.000000
# 3 -0.002660 -0.005315 0.014929 0.000000 0.000000 0.000000
# 4 0.000000 0.000000 0.000000 -0.827223 0.000000 0.000000
# 5 0.000000 0.000000 0.000000 0.000000 -0.417739 0.000000
# 6 0.000000 0.000000 0.000000 0.000000 0.000000 -0.095930
#
#
# Mechanical properties :
#
#
# Convention : Reuss Voigt Hill
#
# Bulk Modulus (GPa) = 62.79066 65.53284 64.16175
# Shear Modulus (GPa) = -3.93660 8.78777 2.42559
#
# Velocity S-wave (km/s) = -1.50988 2.25590 1.18519
# Velocity P-wave (km/s) = 5.77262 6.68852 6.24738
#
# Compressibility (1/GPa) = 0.01592593
#
# Stress axis : x y z
#
# Youngs Moduli (GPa) = 73.57982 82.18004 66.98152
#
# Poissons Ratio (x) = 0.36210 0.17817
# Poissons Ratio (y) = 0.32421 0.35602
# Poissons Ratio (z) = 0.19572 0.43680
#
# Static dielectric constant tensor:
#      x y z
#    x 1.599770 0.000000 0.000000 
#    y 0.000000 1.584360 0.000000 
#    z 0.000000 0.000000 1.642440 
# 
# From -- ./inp_files/20028.got.cif
#   From: 2010.05.17/outbox.cif.g08.bks.cpg/sg48_11_cif.got.tgz:20028.got - 2010.06.03 20:39:00.
