data_PCOD9390725
_publ_section_title
;
Structure prediction by ZEFSAII (Michael W. Deem and Ramdas Pophale) SiO2 
 PCOD9390725
Probable space group: P N N N
;
_chemical_formula_sum "Si O2"
_cell_formula_units_Z 30
_cell_length_a 11.149404
_cell_length_b 20.476825
_cell_length_c 5.230745
_cell_angle_alpha 90.000000
_cell_angle_beta 90.000000
_cell_angle_gamma 90.000000
_cell_volume 1194.202070
_symmetry_space_group_name_H-M "P N N N"
_symmetry_group_IT_number 48
_space_group.IT_coordinate_system_code '2'
_symmetry_cell_setting 'orthorhombic'
loop_
_space_group_symop_operation_xyz
x,y,z
1/2-x,1/2-y,z
x,1/2-y,1/2-z
1/2-x,y,1/2-z
-x,-y,-z
1/2+x,1/2+y,-z
-x,1/2+y,1/2+z
1/2+x,-y,1/2+z
loop_
_atom_site_type_symbol
_atom_site_label
_atom_site_fract_x
_atom_site_fract_y
_atom_site_fract_z
Si Si1 0.607739 0.122707 0.052651
Si Si2 0.250000 0.986777 0.750000
Si Si3 0.750000 0.250000 0.250000
Si Si4 0.051246 0.410881 0.559990
Si Si5 0.118248 0.277106 0.501377
O O1 0.671381 0.194222 0.091661
O O2 0.530955 0.099506 0.305332
O O3 0.704582 0.064265 0.037534
O O4 0.525862 0.111936 0.804504
O O5 0.362615 0.028813 0.637168
O O6 0.142111 0.352715 0.508952
O O7 0.250000 0.250000 0.501493
O O8 0.053520 0.250000 0.750000
O O9 0.056667 0.250000 0.250000
#
# Coordination Sequence:
#
# PCOD9390725 Si02
#       5
#     8   4   2   8   8
#     4  11  28  48  77 107 148 206 252 300 382 445
#     4  11  26  51  75 110 157 190 264 312 371 438
#     4  10  28  54  72 108 150 198 246 318 354 472
#     4  12  26  45  75 111 146 197 250 312 372 446
#     4  10  21  38  61 100 145 186 229 293 372 428
#
# _framework density 25.121378
#
# number of rings (size 3 to 8) (size 9 to 14) (size 15 to 20)
#    0.000    1.067    0.000    4.800    5.600   10.667 
#    0.000    0.000    0.000    0.000    0.000    0.000 
#    0.000    0.000    0.000    0.000    0.000    0.000 
#
# Total GULP energy -167081.902046 kJ/mol
# GULP energy per Si atom -5569.396735 kJ/mol
# Density = 2.506420 g / cm^3
# Si number density = 25.121378 Si / 1000 Ang^3
#
#
#
# Elastic Constant Matrix: (Units=GPa)
#
#
# Indices 1 2 3 4 5 6 
#
# 1 104.4579 47.3949 36.1315 0.0000 0.0000 0.0000
# 2 47.3949 215.8985 27.4018 0.0000 0.0000 0.0000
# 3 36.1315 27.4018 200.8348 0.0000 0.0000 0.0000
# 4 0.0000 0.0000 0.0000 3.2307 0.0000 0.0000
# 5 0.0000 0.0000 0.0000 0.0000 18.5800 0.0000
# 6 0.0000 0.0000 0.0000 0.0000 0.0000 71.4265
#
#
#
# Elastic Compliance Matrix: (Units=1/GPa)
#
#
# Indices 1 2 3 4 5 6 
#
# 1 0.011178 -0.002237 -0.001706 0.000000 0.000000 0.000000
# 2 -0.002237 0.005161 -0.000302 0.000000 0.000000 0.000000
# 3 -0.001706 -0.000302 0.005327 0.000000 0.000000 0.000000
# 4 0.000000 0.000000 0.000000 0.309529 0.000000 0.000000
# 5 0.000000 0.000000 0.000000 0.000000 0.053821 0.000000
# 6 0.000000 0.000000 0.000000 0.000000 0.000000 0.014000
#
#
# Mechanical properties :
#
#
# Convention : Reuss Voigt Hill
#
# Bulk Modulus (GPa) = 75.88893 82.56083 79.22488
# Shear Modulus (GPa) = 12.13888 45.99831 29.06860
#
# Velocity S-wave (km/s) = 2.20059 4.28371 3.40535
# Velocity P-wave (km/s) = 6.06063 7.57648 6.86055
#
# Compressibility (1/GPa) = 0.01317715
#
# Stress axis : x y z
#
# Youngs Moduli (GPa) = 89.45797 193.75102 187.71370
#
# Poissons Ratio (x) = 0.43350 0.32020
# Poissons Ratio (y) = 0.20016 0.05663
# Poissons Ratio (z) = 0.15260 0.05845
#
# Static dielectric constant tensor:
#      x y z
#    x 2.052160 0.000000 0.000000 
#    y 0.000000 2.057730 0.000000 
#    z 0.000000 0.000000 2.139850 
# 
# From -- ./inp_files/1839.got.cif
#   From: 2010.05.17/outbox.cif.g08.bks.cpg/sg48_1_cif.got.tgz:1839.got - 2010.06.03 20:39:00.
