data_PCOD9390650
_publ_section_title
;
Structure prediction by ZEFSAII (Michael W. Deem and Ramdas Pophale) SiO2 
 PCOD9390650
Probable space group: P N N N
;
_chemical_formula_sum "Si O2"
_cell_formula_units_Z 44
_cell_length_a 13.695065
_cell_length_b 18.548823
_cell_length_c 8.617326
_cell_angle_alpha 90.000000
_cell_angle_beta 90.000000
_cell_angle_gamma 90.000000
_cell_volume 2189.036373
_symmetry_space_group_name_H-M "P N N N"
_symmetry_group_IT_number 48
_space_group.IT_coordinate_system_code '2'
_symmetry_cell_setting 'orthorhombic'
loop_
_space_group_symop_operation_xyz
x,y,z
1/2-x,1/2-y,z
x,1/2-y,1/2-z
1/2-x,y,1/2-z
-x,-y,-z
1/2+x,1/2+y,-z
-x,1/2+y,1/2+z
1/2+x,-y,1/2+z
loop_
_atom_site_type_symbol
_atom_site_label
_atom_site_fract_x
_atom_site_fract_y
_atom_site_fract_z
Si Si1 0.662800 0.645529 0.000245
Si Si2 0.344646 0.616782 0.643309
Si Si3 0.366938 0.751429 0.073063
Si Si4 0.444211 0.898587 0.551261
Si Si5 0.250000 0.250000 0.750000
Si Si6 0.227739 0.993158 0.068046
Si Si7 0.250000 0.250000 0.250000
O O1 0.555863 0.611035 0.993953
O O2 0.731648 0.575414 0.989617
O O3 0.683815 0.697876 0.855087
O O4 0.684677 0.696866 0.145335
O O5 0.250000 0.639737 0.750000
O O6 0.387219 0.679962 0.535555
O O7 0.424302 0.589470 0.766287
O O8 0.302024 0.555414 0.531233
O O9 0.250000 0.750000 0.084652
O O10 0.405849 0.750000 0.250000
O O11 0.400189 0.679401 0.989771
O O12 0.378715 0.957140 0.461841
O O13 0.250000 0.989737 0.250000
#
# Coordination Sequence:
#
# PCOD9390650 Si02
#       7
#     8   8   8   8   2   8   2
#     4  11  25  48  71  93 126 172 236 279 326 387
#     4  10  21  35  59  97 135 175 205 257 338 400
#     4  11  20  34  57  94 139 175 205 255 330 405
#     4  11  24  37  68 102 133 167 222 272 323 405
#     4  10  28  50  76  90 122 180 228 290 336 378
#     4  11  22  43  66  96 140 177 210 267 344 398
#     4  10  24  50  68  90 118 184 224 278 340 366
#
# _framework density 20.100169000000001
#
# number of rings (size 3 to 8) (size 9 to 14) (size 15 to 20)
#    0.000    1.273    4.545    2.182    7.636    0.000 
#    0.000    0.909    0.000    0.000    0.000    0.000 
#    0.000    0.000    0.000    0.000    0.000    0.000 
#
# Total GULP energy -245669.544960 kJ/mol
# GULP energy per Si atom -5583.398749 kJ/mol
# Density = 2.005442 g / cm^3
# Si number density = 20.100169 Si / 1000 Ang^3
#
#
#
# Elastic Constant Matrix: (Units=GPa)
#
#
# Indices 1 2 3 4 5 6 
#
# 1 54.1117 30.8362 34.3504 0.0000 0.0000 0.0000
# 2 30.8362 167.4392 68.8463 0.0000 0.0000 0.0000
# 3 34.3504 68.8463 150.5908 0.0000 0.0000 0.0000
# 4 0.0000 0.0000 0.0000 14.9682 0.0000 0.0000
# 5 0.0000 0.0000 0.0000 0.0000 6.3488 0.0000
# 6 0.0000 0.0000 0.0000 0.0000 0.0000 14.2178
#
#
#
# Elastic Compliance Matrix: (Units=1/GPa)
#
#
# Indices 1 2 3 4 5 6 
#
# 1 0.022426 -0.002496 -0.003974 0.000000 0.000000 0.000000
# 2 -0.002496 0.007633 -0.002920 0.000000 0.000000 0.000000
# 3 -0.003974 -0.002920 0.008882 0.000000 0.000000 0.000000
# 4 0.000000 0.000000 0.000000 0.066808 0.000000 0.000000
# 5 0.000000 0.000000 0.000000 0.000000 0.157509 0.000000
# 6 0.000000 0.000000 0.000000 0.000000 0.000000 0.070334
#
#
# Mechanical properties :
#
#
# Convention : Reuss Voigt Hill
#
# Bulk Modulus (GPa) = 49.60406 71.13418 60.36912
# Shear Modulus (GPa) = 13.92399 22.98088 18.45244
#
# Velocity S-wave (km/s) = 2.63483 3.38497 3.03318
# Velocity P-wave (km/s) = 5.82996 7.12348 6.50893
#
# Compressibility (1/GPa) = 0.02015964
#
# Stress axis : x y z
#
# Youngs Moduli (GPa) = 44.59207 131.01625 112.58619
#
# Poissons Ratio (x) = 0.32699 0.44745
# Poissons Ratio (y) = 0.11129 0.32877
# Poissons Ratio (z) = 0.17722 0.38259
#
# Static dielectric constant tensor:
#      x y z
#    x -3.075990 0.000000 0.000000 
#    y 0.000000 1.700630 0.000000 
#    z 0.000000 0.000000 1.735450 
# 
# From -- ./inp_files/12702.got.cif
#   From: 2010.05.17/outbox.cif.g08.bks.cpg/sg48_7_cif.got.tgz:12702.got - 2010.06.03 20:39:00.
