data_PCOD9390391
_publ_section_title
;
Structure prediction by ZEFSAII (Michael W. Deem and Ramdas Pophale) SiO2 
 PCOD9390391
Probable space group: P N N N
;
_chemical_formula_sum "Si O2"
_cell_formula_units_Z 36
_cell_length_a 13.791609
_cell_length_b 22.144199
_cell_length_c 5.303476
_cell_angle_alpha 90.000000
_cell_angle_beta 90.000000
_cell_angle_gamma 90.000000
_cell_volume 1619.703496
_symmetry_space_group_name_H-M "P N N N"
_symmetry_group_IT_number 48
_space_group.IT_coordinate_system_code '2'
_symmetry_cell_setting 'orthorhombic'
loop_
_space_group_symop_operation_xyz
x,y,z
1/2-x,1/2-y,z
x,1/2-y,1/2-z
1/2-x,y,1/2-z
-x,-y,-z
1/2+x,1/2+y,-z
-x,1/2+y,1/2+z
1/2+x,-y,1/2+z
loop_
_atom_site_type_symbol
_atom_site_label
_atom_site_fract_x
_atom_site_fract_y
_atom_site_fract_z
Si Si1 0.389925 0.818416 0.195788
Si Si2 0.615327 0.112958 0.294120
Si Si3 0.070713 0.127387 0.501120
Si Si4 0.750000 0.593077 0.750000
Si Si5 0.896650 0.519916 0.385516
O O1 0.363279 0.750000 0.250000
O O2 0.365738 0.859890 0.433257
O O3 0.506907 0.824158 0.152696
O O4 0.346897 0.846507 0.938488
O O5 0.643498 0.043320 0.278472
O O6 0.499233 0.116680 0.238980
O O7 0.179511 0.135605 0.412500
O O8 0.077464 0.066932 0.666774
O O9 0.819316 0.550910 0.575409
O O10 0.000000 0.500000 0.500000
#
# Coordination Sequence:
#
# PCOD9390391 Si02
#       5
#     8   8   8   4   8
#     4  10  20  37  62  91 122 165 216 255 306 378
#     4  10  21  35  64  87 123 161 209 261 322 362
#     4  10  22  36  60  88 132 163 208 256 320 382
#     4  12  24  34  60  91 137 166 212 254 340 398
#     4  12  20  39  59  92 126 168 203 272 323 389
#
# _framework density 22.226288
#
# number of rings (size 3 to 8) (size 9 to 14) (size 15 to 20)
#    1.333    0.000    4.444    2.000    3.111    0.000 
#    0.000    0.000    0.000   18.667    0.000    0.778 
#    0.000    0.000    0.000    0.000    0.000    0.000 
#
# Total GULP energy -200838.458543 kJ/mol
# GULP energy per Si atom -5578.846071 kJ/mol
# Density = 2.217570 g / cm^3
# Si number density = 22.226288 Si / 1000 Ang^3
#
#
#
# Elastic Constant Matrix: (Units=GPa)
#
#
# Indices 1 2 3 4 5 6 
#
# 1 148.7112 -3.7418 7.9656 0.0000 0.0000 0.0000
# 2 -3.7418 70.9288 0.8372 0.0000 0.0000 0.0000
# 3 7.9656 0.8372 84.4874 0.0000 0.0000 0.0000
# 4 0.0000 0.0000 0.0000 28.9398 0.0000 0.0000
# 5 0.0000 0.0000 0.0000 0.0000 19.3962 0.0000
# 6 0.0000 0.0000 0.0000 0.0000 0.0000 -5.4540
#
#
#
# Elastic Compliance Matrix: (Units=1/GPa)
#
#
# Indices 1 2 3 4 5 6 
#
# 1 0.006768 0.000365 -0.000642 0.000000 0.000000 0.000000
# 2 0.000365 0.014120 -0.000174 0.000000 0.000000 0.000000
# 3 -0.000642 -0.000174 0.011898 0.000000 0.000000 0.000000
# 4 0.000000 0.000000 0.000000 0.034555 0.000000 0.000000
# 5 0.000000 0.000000 0.000000 0.000000 0.051556 0.000000
# 6 0.000000 0.000000 0.000000 0.000000 0.000000 -0.183351
#
#
# Mechanical properties :
#
#
# Convention : Reuss Voigt Hill
#
# Bulk Modulus (GPa) = 31.36424 34.91661 33.14042
# Shear Modulus (GPa) = -94.47674 28.51416 -32.98129
#
# Velocity S-wave (km/s) = -6.52679 3.58565 -3.85630
# Velocity P-wave (km/s) = 6.53121 5.73465 2.21027
#
# Compressibility (1/GPa) = 0.03188345
#
# Stress axis : x y z
#
# Youngs Moduli (GPa) = 147.75431 70.82188 84.04555
#
# Poissons Ratio (x) = -0.02582 0.05393
# Poissons Ratio (y) = -0.05387 0.01465
# Poissons Ratio (z) = 0.09482 0.01234
#
# Static dielectric constant tensor:
#      x y z
#    x 1.933190 0.000000 0.000000 
#    y 0.000000 1.821810 0.000000 
#    z 0.000000 0.000000 1.847630 
# 
# From -- ./inp_files/3322.got.cif
#   From: 2010.05.17/outbox.cif.g08.bks.cpg/sg48_2_cif.got.tgz:3322.got - 2010.06.03 20:39:00.
