data_PCOD9390087
_publ_section_title
;
Structure prediction by ZEFSAII (Michael W. Deem and Ramdas Pophale) SiO2 
 PCOD9390087
Probable space group: P N N N
;
_chemical_formula_sum "Si O2"
_cell_formula_units_Z 46
_cell_length_a 16.253475
_cell_length_b 16.931964
_cell_length_c 8.588895
_cell_angle_alpha 90.000000
_cell_angle_beta 90.000000
_cell_angle_gamma 90.000000
_cell_volume 2363.691849
_symmetry_space_group_name_H-M "P N N N"
_symmetry_group_IT_number 48
_space_group.IT_coordinate_system_code '2'
_symmetry_cell_setting 'orthorhombic'
loop_
_space_group_symop_operation_xyz
x,y,z
1/2-x,1/2-y,z
x,1/2-y,1/2-z
1/2-x,y,1/2-z
-x,-y,-z
1/2+x,1/2+y,-z
-x,1/2+y,1/2+z
1/2+x,-y,1/2+z
loop_
_atom_site_type_symbol
_atom_site_label
_atom_site_fract_x
_atom_site_fract_y
_atom_site_fract_z
Si Si1 0.250000 0.750000 0.250000
Si Si2 0.307523 0.026404 0.601890
Si Si3 0.853225 0.138899 0.982960
Si Si4 0.967190 0.870054 0.156399
Si Si5 0.720576 0.832546 0.926041
Si Si6 0.959118 0.798926 0.492780
Si Si7 0.588478 0.250000 0.250000
O O1 0.192999 0.694966 0.359566
O O2 0.250000 0.013507 0.750000
O O3 0.398619 0.061772 0.640324
O O4 0.262301 0.094654 0.507873
O O5 0.310607 0.944388 0.511074
O O6 0.861670 0.187415 0.145406
O O7 0.944241 0.116537 0.920910
O O8 0.980563 0.847411 0.337294
O O9 0.938690 0.789862 0.067613
O O10 0.750000 0.750000 0.001168
O O11 0.750000 0.832022 0.750000
O O12 0.622646 0.834894 0.934125
O O13 0.030157 0.792718 0.621815
#
# Coordination Sequence:
#
# PCOD9390087 Si02
#       7
#     2   8   8   8   8   8   4
#     4  12  28  54  76  92 124 186 228 300 344 394
#     4  12  25  42  66 103 144 180 218 282 337 405
#     4  11  27  46  72  96 130 177 235 285 346 399
#     4  10  21  43  66  97 138 182 222 275 334 406
#     4  11  22  36  62  98 141 181 214 267 324 410
#     4  10  19  37  67  96 132 181 231 256 337 400
#     4  10  22  43  69  98 126 174 236 296 319 401
#
# _framework density 19.461082000000001
#
# number of rings (size 3 to 8) (size 9 to 14) (size 15 to 20)
#    0.000    1.217    3.478    3.652    6.087    0.348 
#    0.000    0.870    0.000    0.000    0.000    0.000 
#    0.000    0.000    0.000    0.000    0.000    0.000 
#
# Total GULP energy -256912.101948 kJ/mol
# GULP energy per Si atom -5585.045695 kJ/mol
# Density = 1.941679 g / cm^3
# Si number density = 19.461082 Si / 1000 Ang^3
#
#
#
# Elastic Constant Matrix: (Units=GPa)
#
#
# Indices 1 2 3 4 5 6 
#
# 1 67.5217 45.2804 21.7565 0.0000 0.0000 0.0000
# 2 45.2804 134.6233 46.5560 0.0000 0.0000 0.0000
# 3 21.7565 46.5560 88.8544 0.0000 0.0000 0.0000
# 4 0.0000 0.0000 0.0000 19.9538 0.0000 0.0000
# 5 0.0000 0.0000 0.0000 0.0000 39.1680 0.0000
# 6 0.0000 0.0000 0.0000 0.0000 0.0000 22.2878
#
#
#
# Elastic Compliance Matrix: (Units=1/GPa)
#
#
# Indices 1 2 3 4 5 6 
#
# 1 0.019312 -0.005936 -0.001619 0.000000 0.000000 0.000000
# 2 -0.005936 0.010896 -0.004256 0.000000 0.000000 0.000000
# 3 -0.001619 -0.004256 0.013881 0.000000 0.000000 0.000000
# 4 0.000000 0.000000 0.000000 0.050116 0.000000 0.000000
# 5 0.000000 0.000000 0.000000 0.000000 0.025531 0.000000
# 6 0.000000 0.000000 0.000000 0.000000 0.000000 0.044868
#
#
# Mechanical properties :
#
#
# Convention : Reuss Voigt Hill
#
# Bulk Modulus (GPa) = 48.85521 57.57613 53.21567
# Shear Modulus (GPa) = 25.63484 28.10902 26.87193
#
# Velocity S-wave (km/s) = 3.63331 3.80461 3.71995
# Velocity P-wave (km/s) = 6.53910 6.99640 6.77161
#
# Compressibility (1/GPa) = 0.02046864
#
# Stress axis : x y z
#
# Youngs Moduli (GPa) = 51.78066 91.77308 72.04320
#
# Poissons Ratio (x) = 0.54476 0.11661
# Poissons Ratio (y) = 0.30737 0.30660
# Poissons Ratio (z) = 0.08381 0.39057
#
# Static dielectric constant tensor:
#      x y z
#    x 1.702460 0.000000 0.000000 
#    y 0.000000 1.670980 0.000000 
#    z 0.000000 0.000000 1.663860 
# 
# From -- ./inp_files/12692.got.cif
#   From: 2010.05.17/outbox.cif.g08.bks.cpg/sg48_7_cif.got.tgz:12692.got - 2010.06.03 20:39:00.
