data_PCOD9390194
_publ_section_title
;
Structure prediction by ZEFSAII (Michael W. Deem and Ramdas Pophale) SiO2 
 PCOD9390194
Probable space group: P N N N
;
_chemical_formula_sum "Si O2"
_cell_formula_units_Z 40
_cell_length_a 20.452828
_cell_length_b 17.807799
_cell_length_c 5.490277
_cell_angle_alpha 90.000000
_cell_angle_beta 90.000000
_cell_angle_gamma 90.000000
_cell_volume 1999.667865
_symmetry_space_group_name_H-M "P N N N"
_symmetry_group_IT_number 48
_space_group.IT_coordinate_system_code '2'
_symmetry_cell_setting 'orthorhombic'
loop_
_space_group_symop_operation_xyz
x,y,z
1/2-x,1/2-y,z
x,1/2-y,1/2-z
1/2-x,y,1/2-z
-x,-y,-z
1/2+x,1/2+y,-z
-x,1/2+y,1/2+z
1/2+x,-y,1/2+z
loop_
_atom_site_type_symbol
_atom_site_label
_atom_site_fract_x
_atom_site_fract_y
_atom_site_fract_z
Si Si1 0.461889 0.438144 0.844416
Si Si2 0.070089 0.224327 0.003843
Si Si3 0.320510 0.623265 0.288379
Si Si4 0.950909 0.160894 0.505853
Si Si5 0.363921 0.562429 0.780047
O O1 0.442111 0.364132 0.994798
O O2 0.580162 0.372599 0.258818
O O3 0.508066 0.406400 0.631198
O O4 0.398289 0.482267 0.753530
O O5 0.104698 0.250000 0.250000
O O6 0.101851 0.250000 0.750000
O O7 0.001127 0.270926 0.006821
O O8 0.250000 0.660299 0.250000
O O9 0.385479 0.672269 0.334475
O O10 0.318772 0.577152 0.543917
O O11 0.334551 0.574596 0.046619
O O12 0.500000 0.500000 0.000000
#
# Coordination Sequence:
#
# PCOD9390194 Si02
#       5
#     8   8   8   8   8
#     4  11  18  35  55  85 114 148 183 235 294 348
#     4  10  22  33  50  79 114 148 178 220 283 347
#     4  10  21  35  56  81 110 152 201 233 270 326
#     4   9  21  33  56  80 118 144 185 226 288 337
#     4  10  20  33  57  81 113 149 190 237 284 331
#
# _framework density 20.003319999999999
#
# number of rings (size 3 to 8) (size 9 to 14) (size 15 to 20)
#    1.200    0.800    2.000    2.400    2.800    4.800 
#    0.000    0.000    0.000    5.400    0.000    0.000 
#    0.000   63.200    0.000    0.000    0.000    0.000 
#
# Total GULP energy -222725.275323 kJ/mol
# GULP energy per Si atom -5568.131883 kJ/mol
# Density = 1.995779 g / cm^3
# Si number density = 20.003320 Si / 1000 Ang^3
#
#
#
# Elastic Constant Matrix: (Units=GPa)
#
#
# Indices 1 2 3 4 5 6 
#
# 1 43.9201 7.1015 -1.8815 0.0000 0.0000 0.0000
# 2 7.1015 109.0471 21.3371 0.0000 0.0000 0.0000
# 3 -1.8815 21.3371 130.7375 0.0000 0.0000 0.0000
# 4 0.0000 0.0000 0.0000 19.3349 0.0000 0.0000
# 5 0.0000 0.0000 0.0000 0.0000 16.6093 0.0000
# 6 0.0000 0.0000 0.0000 0.0000 0.0000 1.3941
#
#
#
# Elastic Compliance Matrix: (Units=1/GPa)
#
#
# Indices 1 2 3 4 5 6 
#
# 1 0.023056 -0.001618 0.000596 0.000000 0.000000 0.000000
# 2 -0.001618 0.009586 -0.001588 0.000000 0.000000 0.000000
# 3 0.000596 -0.001588 0.007917 0.000000 0.000000 0.000000
# 4 0.000000 0.000000 0.000000 0.051720 0.000000 0.000000
# 5 0.000000 0.000000 0.000000 0.000000 0.060207 0.000000
# 6 0.000000 0.000000 0.000000 0.000000 0.000000 0.717318
#
#
# Mechanical properties :
#
#
# Convention : Reuss Voigt Hill
#
# Bulk Modulus (GPa) = 28.29755 37.42434 32.86095
# Shear Modulus (GPa) = 5.63822 24.61082 15.12452
#
# Velocity S-wave (km/s) = 1.68070 3.51142 2.75271
# Velocity P-wave (km/s) = 4.23598 5.93210 5.15428
#
# Compressibility (1/GPa) = 0.03533875
#
# Stress axis : x y z
#
# Youngs Moduli (GPa) = 43.37310 104.31432 126.31635
#
# Poissons Ratio (x) = 0.16879 -0.07527
# Poissons Ratio (y) = 0.07018 0.20057
# Poissons Ratio (z) = -0.02585 0.16563
#
# Static dielectric constant tensor:
#      x y z
#    x 1.713990 0.000000 0.000000 
#    y 0.000000 1.696240 0.000000 
#    z 0.000000 0.000000 1.823180 
# 
# From -- ./inp_files/3333.got.cif
#   From: 2010.05.17/outbox.cif.g08.bks.cpg/sg48_2_cif.got.tgz:3333.got - 2010.06.03 20:39:00.
