data_PCOD9390213
_publ_section_title
;
Structure prediction by ZEFSAII (Michael W. Deem and Ramdas Pophale) SiO2 
 PCOD9390213
Probable space group: P N N N
;
_chemical_formula_sum "Si O2"
_cell_formula_units_Z 44
_cell_length_a 14.230684
_cell_length_b 27.598364
_cell_length_c 5.286665
_cell_angle_alpha 90.000000
_cell_angle_beta 90.000000
_cell_angle_gamma 90.000000
_cell_volume 2076.303828
_symmetry_space_group_name_H-M "P N N N"
_symmetry_group_IT_number 48
_space_group.IT_coordinate_system_code '2'
_symmetry_cell_setting 'orthorhombic'
loop_
_space_group_symop_operation_xyz
x,y,z
1/2-x,1/2-y,z
x,1/2-y,1/2-z
1/2-x,y,1/2-z
-x,-y,-z
1/2+x,1/2+y,-z
-x,1/2+y,1/2+z
1/2+x,-y,1/2+z
loop_
_atom_site_type_symbol
_atom_site_label
_atom_site_fract_x
_atom_site_fract_y
_atom_site_fract_z
Si Si1 0.135886 0.963172 0.251373
Si Si2 0.483190 0.335956 0.176418
Si Si3 0.891673 0.697971 0.154244
Si Si4 0.250000 0.118499 0.750000
Si Si5 0.856872 0.928501 0.853117
Si Si6 0.863013 0.095297 0.246679
O O1 0.250000 0.964906 0.250000
O O2 0.107851 0.934508 0.503003
O O3 0.106800 0.018992 0.222675
O O4 0.106871 0.934165 0.002668
O O5 0.450476 0.299851 0.396406
O O6 0.426419 0.386222 0.223837
O O7 0.589715 0.352329 0.220498
O O8 0.453897 0.320476 0.893737
O O9 0.856863 0.750000 0.250000
O O10 0.809404 0.659065 0.096318
O O11 0.330757 0.082733 0.645079
O O12 0.750000 0.922622 0.750000
O O13 0.750000 0.098406 0.250000
#
# Coordination Sequence:
#
# PCOD9390213 Si02
#       6
#     8   8   8   4   8   8
#     4   9  20  32  56  81 116 156 192 240 270 333
#     4  11  23  38  61  83 115 153 191 243 293 348
#     4  11  23  40  61  88 115 149 193 242 298 354
#     4  10  21  36  58  84 124 160 190 226 285 352
#     4  10  20  34  54  83 122 156 194 227 282 336
#     4  10  21  39  56  84 112 154 200 237 290 333
#
# _framework density 21.191503000000001
#
# number of rings (size 3 to 8) (size 9 to 14) (size 15 to 20)
#    0.000    1.818    1.818    1.909    6.364    1.455 
#    0.000    1.818    0.000    3.273    0.000    0.000 
#    0.000    0.000    0.000    0.000    0.000    0.000 
#
# Total GULP energy -245253.370896 kJ/mol
# GULP energy per Si atom -5573.940248 kJ/mol
# Density = 2.114327 g / cm^3
# Si number density = 21.191503 Si / 1000 Ang^3
#
#
#
# Elastic Constant Matrix: (Units=GPa)
#
#
# Indices 1 2 3 4 5 6 
#
# 1 46.7025 19.8751 20.7995 0.0000 0.0000 0.0000
# 2 19.8751 62.8721 30.9801 0.0000 0.0000 0.0000
# 3 20.7995 30.9801 112.3865 0.0000 0.0000 0.0000
# 4 0.0000 0.0000 0.0000 28.8186 0.0000 0.0000
# 5 0.0000 0.0000 0.0000 0.0000 12.3482 0.0000
# 6 0.0000 0.0000 0.0000 0.0000 0.0000 20.0499
#
#
#
# Elastic Compliance Matrix: (Units=1/GPa)
#
#
# Indices 1 2 3 4 5 6 
#
# 1 0.025528 -0.006644 -0.002893 0.000000 0.000000 0.000000
# 2 -0.006644 0.020135 -0.004321 0.000000 0.000000 0.000000
# 3 -0.002893 -0.004321 0.010624 0.000000 0.000000 0.000000
# 4 0.000000 0.000000 0.000000 0.034700 0.000000 0.000000
# 5 0.000000 0.000000 0.000000 0.000000 0.080984 0.000000
# 6 0.000000 0.000000 0.000000 0.000000 0.000000 0.049876
#
#
# Mechanical properties :
#
#
# Convention : Reuss Voigt Hill
#
# Bulk Modulus (GPa) = 35.00028 40.58563 37.79295
# Shear Modulus (GPa) = 19.29861 22.26374 20.78118
#
# Velocity S-wave (km/s) = 3.02102 3.24481 3.13491
# Velocity P-wave (km/s) = 5.35918 5.76470 5.56563
#
# Compressibility (1/GPa) = 0.02857120
#
# Stress axis : x y z
#
# Youngs Moduli (GPa) = 39.17231 49.66550 94.12417
#
# Poissons Ratio (x) = 0.33000 0.27230
# Poissons Ratio (y) = 0.26028 0.40667
# Poissons Ratio (z) = 0.11332 0.21458
#
# Static dielectric constant tensor:
#      x y z
#    x 1.817180 0.000000 0.000000 
#    y 0.000000 1.750270 0.000000 
#    z 0.000000 0.000000 2.023310 
# 
# From -- ./inp_files/3476.got.cif
#   From: 2010.05.17/outbox.cif.g08.bks.cpg/sg48_2_cif.got.tgz:3476.got - 2010.06.03 20:39:00.
