data_PCOD9390016
_publ_section_title
;
Structure prediction by ZEFSAII (Michael W. Deem and Ramdas Pophale) SiO2 
 PCOD9390016
Probable space group: P N N N
;
_chemical_formula_sum "Si O2"
_cell_formula_units_Z 38
_cell_length_a 9.051606
_cell_length_b 10.122690
_cell_length_c 18.910608
_cell_angle_alpha 90.000000
_cell_angle_beta 90.000000
_cell_angle_gamma 90.000000
_cell_volume 1732.714744
_symmetry_space_group_name_H-M "P N N N"
_symmetry_group_IT_number 48
_space_group.IT_coordinate_system_code '2'
_symmetry_cell_setting 'orthorhombic'
loop_
_space_group_symop_operation_xyz
x,y,z
1/2-x,1/2-y,z
x,1/2-y,1/2-z
1/2-x,y,1/2-z
-x,-y,-z
1/2+x,1/2+y,-z
-x,1/2+y,1/2+z
1/2+x,-y,1/2+z
loop_
_atom_site_type_symbol
_atom_site_label
_atom_site_fract_x
_atom_site_fract_y
_atom_site_fract_z
Si Si1 0.250000 0.535302 0.750000
Si Si2 0.053996 0.980869 0.626463
Si Si3 0.710958 0.403610 0.020441
Si Si4 0.015432 0.832906 0.850795
Si Si5 0.750000 0.250000 0.750000
Si Si6 0.284495 0.537431 0.139202
O O1 0.340761 0.463497 0.688383
O O2 0.371353 0.621989 0.790632
O O3 0.149715 0.983647 0.554049
O O4 0.024697 0.823823 0.639411
O O5 0.893157 0.042967 0.632946
O O6 0.750000 0.250000 0.015000
O O7 0.584222 0.401045 0.079279
O O8 0.669423 0.443309 0.941922
O O9 0.856649 0.898755 0.837092
O O10 0.668339 0.350708 0.804274
#
# Coordination Sequence:
#
# PCOD9390016 Si02
#       6
#     4   8   8   8   2   8
#     4  10  19  36  54  83 116 137 182 238 315 352
#     4  10  20  35  63  89 112 147 191 259 297 331
#     4   9  19  38  61  87 117 154 193 239 300 354
#     4  10  20  35  63  89 112 147 191 259 297 331
#     4  12  28  36  54  78 128 178 180 228 284 368
#     4  12  22  39  55  86 120 157 204 230 286 357
#
# _framework density 21.930904999999999
#
# number of rings (size 3 to 8) (size 9 to 14) (size 15 to 20)
#    0.000    1.684    1.053    6.316    0.000    0.000 
#    0.000    3.158    0.000   21.474    0.000    0.000 
#    0.000    0.000    0.000    0.000    0.000    0.000 
#
# Total GULP energy -211896.085603 kJ/mol
# GULP energy per Si atom -5576.212779 kJ/mol
# Density = 2.188099 g / cm^3
# Si number density = 21.930905 Si / 1000 Ang^3
#
#
#
# Elastic Constant Matrix: (Units=GPa)
#
#
# Indices 1 2 3 4 5 6 
#
# 1 69.6952 16.2153 21.3695 0.0000 0.0000 0.0000
# 2 16.2153 24.4641 20.6345 0.0000 0.0000 0.0000
# 3 21.3695 20.6345 149.3823 0.0000 0.0000 0.0000
# 4 0.0000 0.0000 0.0000 33.5822 0.0000 0.0000
# 5 0.0000 0.0000 0.0000 0.0000 -0.6630 0.0000
# 6 0.0000 0.0000 0.0000 0.0000 0.0000 24.6148
#
#
#
# Elastic Compliance Matrix: (Units=1/GPa)
#
#
# Indices 1 2 3 4 5 6 
#
# 1 0.017094 -0.010490 -0.000996 0.000000 0.000000 0.000000
# 2 -0.010490 0.052704 -0.005779 0.000000 0.000000 0.000000
# 3 -0.000996 -0.005779 0.007635 0.000000 0.000000 0.000000
# 4 0.000000 0.000000 0.000000 0.029778 0.000000 0.000000
# 5 0.000000 0.000000 0.000000 0.000000 -1.508218 0.000000
# 6 0.000000 0.000000 0.000000 0.000000 0.000000 0.040626
#
#
# Mechanical properties :
#
#
# Convention : Reuss Voigt Hill
#
# Bulk Modulus (GPa) = 23.30915 39.99779 31.65347
# Shear Modulus (GPa) = -3.81229 23.86162 10.02467
#
# Velocity S-wave (km/s) = -1.31988 3.30212 2.14031
# Velocity P-wave (km/s) = 2.88595 5.72855 4.53570
#
# Compressibility (1/GPa) = 0.04290162
#
# Stress axis : x y z
#
# Youngs Moduli (GPa) = 58.49899 18.97386 130.97407
#
# Poissons Ratio (x) = 0.19904 0.13050
# Poissons Ratio (y) = 0.61366 0.75696
# Poissons Ratio (z) = 0.05829 0.10966
#
# Static dielectric constant tensor:
#      x y z
#    x 1.822220 0.000000 0.000000 
#    y 0.000000 1.760670 0.000000 
#    z 0.000000 0.000000 1.893150 
# 
# From -- ./inp_files/13836.got.cif
#   From: 2010.05.17/outbox.cif.g08.bks.cpg/sg48_7_cif.got.tgz:13836.got - 2010.06.03 20:39:00.
