data_PCOD9390841
_publ_section_title
;
Structure prediction by ZEFSAII (Michael W. Deem and Ramdas Pophale) SiO2 
 PCOD9390841
Probable space group: P N N N
;
_chemical_formula_sum "Si O2"
_cell_formula_units_Z 58
_cell_length_a 10.248373
_cell_length_b 15.393000
_cell_length_c 17.106808
_cell_angle_alpha 90.000000
_cell_angle_beta 90.000000
_cell_angle_gamma 90.000000
_cell_volume 2698.653799
_symmetry_space_group_name_H-M "P N N N"
_symmetry_group_IT_number 48
_space_group.IT_coordinate_system_code '2'
_symmetry_cell_setting 'orthorhombic'
loop_
_space_group_symop_operation_xyz
x,y,z
1/2-x,1/2-y,z
x,1/2-y,1/2-z
1/2-x,y,1/2-z
-x,-y,-z
1/2+x,1/2+y,-z
-x,1/2+y,1/2+z
1/2+x,-y,1/2+z
loop_
_atom_site_type_symbol
_atom_site_label
_atom_site_fract_x
_atom_site_fract_y
_atom_site_fract_z
Si Si1 0.168479 0.124348 0.173725
Si Si2 0.250000 0.750000 0.750000
Si Si3 0.407680 0.351303 0.755786
Si Si4 0.555959 0.042542 0.616798
Si Si5 0.890023 0.885755 0.550989
Si Si6 0.434407 0.755497 0.624736
Si Si7 0.080089 0.030581 0.605330
Si Si8 0.327379 0.577546 0.953610
O O1 0.250000 0.146586 0.250000
O O2 0.256257 0.134196 0.095705
O O3 0.043360 0.185484 0.167159
O O4 0.128641 0.023507 0.174951
O O5 0.349381 0.705615 0.690280
O O6 0.447273 0.250000 0.750000
O O7 0.250000 0.352395 0.750000
O O8 0.475754 0.386420 0.834680
O O9 0.440113 0.420588 0.686907
O O10 0.654410 0.073111 0.547836
O O11 0.446602 0.981140 0.577415
O O12 0.884863 0.896228 0.458675
O O13 0.991198 0.811181 0.571376
O O14 0.950974 0.975871 0.583591
O O15 0.351191 0.824795 0.575527
O O16 0.199681 0.963687 0.587269
#
# Coordination Sequence:
#
# PCOD9390841 Si02
#       8
#     8   2   8   8   8   8   8   8
#     4  11  22  41  66  95 131 173 220 274 343 410
#     4  12  24  44  58 100 132 170 206 262 352 396
#     4  11  24  41  67 103 132 175 229 298 346 403
#     4  10  21  40  63  95 132 173 223 271 344 414
#     4  11  24  42  65  99 132 183 225 278 346 402
#     4  11  25  39  67  98 134 170 219 283 329 416
#     4  11  23  44  67  93 140 177 229 283 345 416
#     4  10  21  40  66  94 128 180 219 271 343 419
#
# _framework density 21.492197000000001
#
# number of rings (size 3 to 8) (size 9 to 14) (size 15 to 20)
#    0.000    1.241    2.759    2.897    1.931    3.862 
#    3.724    0.000    0.000    3.724    0.000    0.000 
#    0.000    0.000    0.000    0.000    0.000    0.000 
#
# Total GULP energy -323670.316006 kJ/mol
# GULP energy per Si atom -5580.522690 kJ/mol
# Density = 2.144328 g / cm^3
# Si number density = 21.492197 Si / 1000 Ang^3
#
#
#
# Elastic Constant Matrix: (Units=GPa)
#
#
# Indices 1 2 3 4 5 6 
#
# 1 69.6844 21.9653 21.3600 0.0000 0.0000 0.0000
# 2 21.9653 104.5446 45.3376 0.0000 0.0000 0.0000
# 3 21.3600 45.3376 92.2429 0.0000 0.0000 0.0000
# 4 0.0000 0.0000 0.0000 -33.9910 0.0000 0.0000
# 5 0.0000 0.0000 0.0000 0.0000 24.5887 0.0000
# 6 0.0000 0.0000 0.0000 0.0000 0.0000 32.3293
#
#
#
# Elastic Compliance Matrix: (Units=1/GPa)
#
#
# Indices 1 2 3 4 5 6 
#
# 1 0.015838 -0.002208 -0.002582 0.000000 0.000000 0.000000
# 2 -0.002208 0.012464 -0.005615 0.000000 0.000000 0.000000
# 3 -0.002582 -0.005615 0.014199 0.000000 0.000000 0.000000
# 4 0.000000 0.000000 0.000000 -0.029420 0.000000 0.000000
# 5 0.000000 0.000000 0.000000 0.000000 0.040669 0.000000
# 6 0.000000 0.000000 0.000000 0.000000 0.000000 0.030932
#
#
# Mechanical properties :
#
#
# Convention : Reuss Voigt Hill
#
# Bulk Modulus (GPa) = 46.10276 49.31085 47.70680
# Shear Modulus (GPa) = 44.35680 16.43932 30.39806
#
# Velocity S-wave (km/s) = 4.54790 2.76868 3.76490
# Velocity P-wave (km/s) = 7.00538 5.76317 6.41442
#
# Compressibility (1/GPa) = 0.02169067
#
# Stress axis : x y z
#
# Youngs Moduli (GPa) = 63.13986 80.22994 70.42903
#
# Poissons Ratio (x) = 0.17712 0.18187
# Poissons Ratio (y) = 0.13939 0.39546
# Poissons Ratio (z) = 0.16305 0.45049
#
# Static dielectric constant tensor:
#      x y z
#    x 1.829090 0.000000 0.000000 
#    y 0.000000 1.765180 0.000000 
#    z 0.000000 0.000000 1.804400 
# 
# From -- ./inp_files/31144.got.cif
#   From: 2010.05.17/outbox.cif.g08.bks.cpg/sg48_16_cif.got.tgz:31144.got - 2010.06.03 20:39:00.
