data_PCOD9390511
_publ_section_title
;
Structure prediction by ZEFSAII (Michael W. Deem and Ramdas Pophale) SiO2 
 PCOD9390511
Probable space group: P N N N
;
_chemical_formula_sum "Si O2"
_cell_formula_units_Z 56
_cell_length_a 7.687516
_cell_length_b 13.746939
_cell_length_c 22.076662
_cell_angle_alpha 90.000000
_cell_angle_beta 90.000000
_cell_angle_gamma 90.000000
_cell_volume 2333.057523
_symmetry_space_group_name_H-M "P N N N"
_symmetry_group_IT_number 48
_space_group.IT_coordinate_system_code '2'
_symmetry_cell_setting 'orthorhombic'
loop_
_space_group_symop_operation_xyz
x,y,z
1/2-x,1/2-y,z
x,1/2-y,1/2-z
1/2-x,y,1/2-z
-x,-y,-z
1/2+x,1/2+y,-z
-x,1/2+y,1/2+z
1/2+x,-y,1/2+z
loop_
_atom_site_type_symbol
_atom_site_label
_atom_site_fract_x
_atom_site_fract_y
_atom_site_fract_z
Si Si1 0.955457 0.970809 0.736558
Si Si2 0.435824 0.212263 0.568846
Si Si3 0.039556 0.435860 0.057033
Si Si4 0.422252 0.143890 0.439518
Si Si5 0.078066 0.802014 0.645662
Si Si6 0.503568 0.538806 0.138273
Si Si7 0.615665 0.113890 0.857038
O O1 0.750000 0.955586 0.750000
O O2 0.010099 0.877730 0.696146
O O3 0.050628 0.982114 0.800864
O O4 0.968751 0.079155 0.706274
O O5 0.250000 0.250000 0.550245
O O6 0.509912 0.175022 0.503739
O O7 0.379914 0.123954 0.612966
O O8 0.547585 0.293178 0.605555
O O9 0.215652 0.373846 0.050937
O O10 0.073413 0.517955 0.105683
O O11 0.891134 0.367721 0.085139
O O12 0.000000 0.500000 0.000000
O O13 0.456577 0.217733 0.383374
O O14 0.483654 0.039363 0.414921
O O15 0.250000 0.750000 0.667579
O O16 0.324176 0.600904 0.149098
#
# Coordination Sequence:
#
# PCOD9390511 Si02
#       7
#     8   8   8   8   8   8   8
#     4   9  21  45  72  95 127 177 231 278 330 403
#     4  12  24  39  63  97 134 170 215 276 344 404
#     4  10  20  39  65  95 136 184 229 274 330 404
#     4  11  24  42  65  96 134 181 224 269 338 412
#     4  11  24  41  68 105 139 174 224 287 346 406
#     4  10  23  43  67  91 123 170 224 276 330 400
#     4   9  20  39  65  93 119 164 225 276 325 391
#
# _framework density 24.002838000000001
#
# number of rings (size 3 to 8) (size 9 to 14) (size 15 to 20)
#    0.000    1.714    0.000    4.714    0.000    8.000 
#    0.000   10.000    0.000    1.714    0.000    0.000 
#    0.000    0.000    0.000    0.000    0.000    0.000 
#
# Total GULP energy -312288.303036 kJ/mol
# GULP energy per Si atom -5576.576840 kJ/mol
# Density = 2.394821 g / cm^3
# Si number density = 24.002838 Si / 1000 Ang^3
#
#
#
# Elastic Constant Matrix: (Units=GPa)
#
#
# Indices 1 2 3 4 5 6 
#
# 1 33.6535 43.3152 25.0812 0.0000 0.0000 0.0000
# 2 43.3152 160.2626 76.6078 0.0000 0.0000 0.0000
# 3 25.0812 76.6078 124.0282 0.0000 0.0000 0.0000
# 4 0.0000 0.0000 0.0000 -92.0876 0.0000 0.0000
# 5 0.0000 0.0000 0.0000 0.0000 22.2886 0.0000
# 6 0.0000 0.0000 0.0000 0.0000 0.0000 24.9965
#
#
#
# Elastic Compliance Matrix: (Units=1/GPa)
#
#
# Indices 1 2 3 4 5 6 
#
# 1 0.046025 -0.011338 -0.002304 0.000000 0.000000 0.000000
# 2 -0.011338 0.011647 -0.004901 0.000000 0.000000 0.000000
# 3 -0.002304 -0.004901 0.011556 0.000000 0.000000 0.000000
# 4 0.000000 0.000000 0.000000 -0.010859 0.000000 0.000000
# 5 0.000000 0.000000 0.000000 0.000000 0.044866 0.000000
# 6 0.000000 0.000000 0.000000 0.000000 0.000000 0.040006
#
#
# Mechanical properties :
#
#
# Convention : Reuss Voigt Hill
#
# Bulk Modulus (GPa) = 31.11272 67.55031 49.33151
# Shear Modulus (GPa) = 26.17246 2.56885 14.37065
#
# Velocity S-wave (km/s) = 3.30569 1.03564 2.44950
# Velocity P-wave (km/s) = 5.24979 5.44369 5.34762
#
# Compressibility (1/GPa) = 0.03214120
#
# Stress axis : x y z
#
# Youngs Moduli (GPa) = 21.72733 85.85932 86.53606
#
# Poissons Ratio (x) = 0.97348 0.19939
# Poissons Ratio (y) = 0.24635 0.42412
# Poissons Ratio (z) = 0.05006 0.42081
#
# Static dielectric constant tensor:
#      x y z
#    x 1.964630 0.000000 0.000000 
#    y 0.000000 1.908890 0.000000 
#    z 0.000000 0.000000 1.871120 
# 
# From -- ./inp_files/33601.got.cif
#   From: 2010.05.17/outbox.cif.g08.bks.cpg/sg48_17_cif.got.tgz:33601.got - 2010.06.03 20:39:00.
