data_PCOD9390060
_publ_section_title
;
Structure prediction by ZEFSAII (Michael W. Deem and Ramdas Pophale) SiO2 
 PCOD9390060
Probable space group: P N N N
;
_chemical_formula_sum "Si O2"
_cell_formula_units_Z 42
_cell_length_a 15.554351
_cell_length_b 8.796997
_cell_length_c 12.376031
_cell_angle_alpha 90.000000
_cell_angle_beta 90.000000
_cell_angle_gamma 90.000000
_cell_volume 1693.431865
_symmetry_space_group_name_H-M "P N N N"
_symmetry_group_IT_number 48
_space_group.IT_coordinate_system_code '2'
_symmetry_cell_setting 'orthorhombic'
loop_
_space_group_symop_operation_xyz
x,y,z
1/2-x,1/2-y,z
x,1/2-y,1/2-z
1/2-x,y,1/2-z
-x,-y,-z
1/2+x,1/2+y,-z
-x,1/2+y,1/2+z
1/2+x,-y,1/2+z
loop_
_atom_site_type_symbol
_atom_site_label
_atom_site_fract_x
_atom_site_fract_y
_atom_site_fract_z
Si Si1 0.283129 0.416318 0.953857
Si Si2 0.565902 0.520604 0.183360
Si Si3 0.873840 0.525591 0.912912
Si Si4 0.030506 0.144771 0.601737
Si Si5 0.864398 0.532359 0.675438
Si Si6 0.750000 0.250000 0.750000
O O1 0.250000 0.250000 0.910307
O O2 0.199321 0.499816 0.999782
O O3 0.330469 0.386642 0.068323
O O4 0.345360 0.517661 0.878180
O O5 0.573010 0.527425 0.312885
O O6 0.558521 0.692468 0.140399
O O7 0.468870 0.462558 0.162299
O O8 0.847414 0.591504 0.797506
O O9 0.929019 0.376770 0.884778
O O10 0.943723 0.621970 0.978790
O O11 0.811824 0.369181 0.683845
#
# Coordination Sequence:
#
# PCOD9390060 Si02
#       6
#     8   8   8   8   8   2
#     4  12  23  38  57  92 128 161 195 255 310 369
#     4  10  21  38  59  88 123 160 205 252 306 357
#     4  10  19  37  57  87 118 158 202 245 306 353
#     4   9  19  37  61  84 120 161 207 249 293 365
#     4  11  23  38  62  90 120 158 203 259 308 359
#     4  12  20  40  66  88 112 156 216 258 292 358
#
# _framework density 24.801705999999999
#
# number of rings (size 3 to 8) (size 9 to 14) (size 15 to 20)
#    0.000    1.524    3.810    2.857    0.000    2.286 
#    0.000    0.000    0.000    0.000    0.000    1.333 
#    0.000    0.000    0.000    0.000    0.000    0.000 
#
# Total GULP energy -233898.781498 kJ/mol
# GULP energy per Si atom -5569.018607 kJ/mol
# Density = 2.474526 g / cm^3
# Si number density = 24.801706 Si / 1000 Ang^3
#
#
#
# Elastic Constant Matrix: (Units=GPa)
#
#
# Indices 1 2 3 4 5 6 
#
# 1 137.9289 8.9418 48.7574 0.0000 0.0000 0.0000
# 2 8.9418 21.4746 12.2255 0.0000 0.0000 0.0000
# 3 48.7574 12.2255 107.8859 0.0000 0.0000 0.0000
# 4 0.0000 0.0000 0.0000 25.3487 0.0000 0.0000
# 5 0.0000 0.0000 0.0000 0.0000 54.3745 0.0000
# 6 0.0000 0.0000 0.0000 0.0000 0.0000 28.8325
#
#
#
# Elastic Compliance Matrix: (Units=1/GPa)
#
#
# Indices 1 2 3 4 5 6 
#
# 1 0.008672 -0.001475 -0.003752 0.000000 0.000000 0.000000
# 2 -0.001475 0.050029 -0.005003 0.000000 0.000000 0.000000
# 3 -0.003752 -0.005003 0.011532 0.000000 0.000000 0.000000
# 4 0.000000 0.000000 0.000000 0.039450 0.000000 0.000000
# 5 0.000000 0.000000 0.000000 0.000000 0.018391 0.000000
# 6 0.000000 0.000000 0.000000 0.000000 0.000000 0.034683
#
#
# Mechanical properties :
#
#
# Convention : Reuss Voigt Hill
#
# Bulk Modulus (GPa) = 20.09109 45.23765 32.66437
# Shear Modulus (GPa) = 25.02418 34.86877 29.94647
#
# Velocity S-wave (km/s) = 3.17987 3.75360 3.47859
# Velocity P-wave (km/s) = 4.64762 6.08813 5.41599
#
# Compressibility (1/GPa) = 0.04977331
#
# Stress axis : x y z
#
# Youngs Moduli (GPa) = 115.31259 19.98847 86.71795
#
# Poissons Ratio (x) = 0.02948 0.32537
# Poissons Ratio (y) = 0.17008 0.43382
# Poissons Ratio (z) = 0.43266 0.09999
#
# Static dielectric constant tensor:
#      x y z
#    x 2.151740 0.000000 0.000000 
#    y 0.000000 2.085060 0.000000 
#    z 0.000000 0.000000 2.006040 
# 
# From -- ./inp_files/22097.got.cif
#   From: 2010.05.17/outbox.cif.g08.bks.cpg/sg48_12_cif.got.tgz:22097.got - 2010.06.03 20:39:00.
