data_PCOD9390965
_publ_section_title
;
Structure prediction by ZEFSAII (Michael W. Deem and Ramdas Pophale) SiO2 
 PCOD9390965
Probable space group: P N N N
;
_chemical_formula_sum "Si O2"
_cell_formula_units_Z 48
_cell_length_a 7.238670
_cell_length_b 14.559037
_cell_length_c 18.490143
_cell_angle_alpha 90.000000
_cell_angle_beta 90.000000
_cell_angle_gamma 90.000000
_cell_volume 1948.640381
_symmetry_space_group_name_H-M "P N N N"
_symmetry_group_IT_number 48
_space_group.IT_coordinate_system_code '2'
_symmetry_cell_setting 'orthorhombic'
loop_
_space_group_symop_operation_xyz
x,y,z
1/2-x,1/2-y,z
x,1/2-y,1/2-z
1/2-x,y,1/2-z
-x,-y,-z
1/2+x,1/2+y,-z
-x,1/2+y,1/2+z
1/2+x,-y,1/2+z
loop_
_atom_site_type_symbol
_atom_site_label
_atom_site_fract_x
_atom_site_fract_y
_atom_site_fract_z
Si Si1 0.445538 0.081414 0.374247
Si Si2 0.627850 0.396788 0.427166
Si Si3 0.437981 0.280774 0.006471
Si Si4 0.949855 0.342617 0.786633
Si Si5 0.744010 0.398044 0.923873
Si Si6 0.452329 0.549413 0.725767
O O1 0.662514 0.091634 0.396599
O O2 0.359659 0.150714 0.431761
O O3 0.426006 0.094988 0.288699
O O4 0.368373 0.979773 0.386941
O O5 0.551892 0.297256 0.450745
O O6 0.651429 0.439984 0.506738
O O7 0.510251 0.429307 0.358093
O O8 0.250000 0.250000 0.966700
O O9 0.585100 0.331263 0.955210
O O10 0.031153 0.250000 0.750000
O O11 0.750000 0.349321 0.750000
O O12 0.891318 0.348020 0.871370
O O13 0.045970 0.438677 0.768938
O O14 0.250000 0.581569 0.750000
#
# Coordination Sequence:
#
# PCOD9390965 Si02
#       6
#     8   8   8   8   8   8
#     4  10  21  45  69  93 137 184 222 284 356 426
#     4  10  23  41  69  98 134 177 225 287 354 414
#     4  11  25  42  66 106 135 174 239 289 354 424
#     4  11  25  42  67  97 133 187 225 280 357 416
#     4  11  23  46  70  95 141 187 235 286 364 438
#     4  10  23  44  67 100 135 175 235 286 350 424
#
# _framework density 24.632560999999999
#
# number of rings (size 3 to 8) (size 9 to 14) (size 15 to 20)
#    0.000    1.500    1.667    4.000    7.000    1.667 
#    6.000    5.000    0.000    0.000    0.000    0.000 
#    0.000    0.000    0.000    0.000    0.000    0.000 
#
# Total GULP energy -267822.263672 kJ/mol
# GULP energy per Si atom -5579.630493 kJ/mol
# Density = 2.457650 g / cm^3
# Si number density = 24.632561 Si / 1000 Ang^3
#
#
#
# Elastic Constant Matrix: (Units=GPa)
#
#
# Indices 1 2 3 4 5 6 
#
# 1 92.4711 43.9574 46.3313 0.0000 0.0000 0.0000
# 2 43.9574 38.6653 -24.8468 0.0000 0.0000 0.0000
# 3 46.3313 -24.8468 127.3482 0.0000 0.0000 0.0000
# 4 0.0000 0.0000 0.0000 36.6486 0.0000 0.0000
# 5 0.0000 0.0000 0.0000 0.0000 7.1304 0.0000
# 6 0.0000 0.0000 0.0000 0.0000 0.0000 41.3150
#
#
#
# Elastic Compliance Matrix: (Units=1/GPa)
#
#
# Indices 1 2 3 4 5 6 
#
# 1 -0.134421 0.210658 0.090006 0.000000 0.000000 0.000000
# 2 0.210658 -0.300562 -0.135283 0.000000 0.000000 0.000000
# 3 0.090006 -0.135283 -0.051288 0.000000 0.000000 0.000000
# 4 0.000000 0.000000 0.000000 0.027286 0.000000 0.000000
# 5 0.000000 0.000000 0.000000 0.000000 0.140245 0.000000
# 6 0.000000 0.000000 0.000000 0.000000 0.000000 0.024204
#
#
# Mechanical properties :
#
#
# Convention : Reuss Voigt Hill
#
# Bulk Modulus (GPa) = -6.43048 43.26318 18.41635
# Shear Modulus (GPa) = -7.38408 29.88830 11.25211
#
# Velocity S-wave (km/s) = -1.73326 3.48712 2.13960
# Velocity P-wave (km/s) = 2.57329 5.81506 3.68735
#
# Compressibility (1/GPa) = -0.15550948
#
# Stress axis : x y z
#
# Youngs Moduli (GPa) = -7.43932 -3.32711 -19.49779
#
# Poissons Ratio (x) = 0.70088 1.75491
# Poissons Ratio (y) = 1.56715 -2.63772
# Poissons Ratio (z) = 0.66958 -0.45010
#
# Static dielectric constant tensor:
#      x y z
#    x 1.980720 0.000000 0.000000 
#    y 0.000000 1.979480 0.000000 
#    z 0.000000 0.000000 2.058280 
# 
# From -- ./inp_files/30240.got.cif
#   From: 2010.05.17/outbox.cif.g08.bks.cpg/sg48_16_cif.got.tgz:30240.got - 2010.06.03 20:39:00.
