data_PCOD9390499
_publ_section_title
;
Structure prediction by ZEFSAII (Michael W. Deem and Ramdas Pophale) SiO2 
 PCOD9390499
Probable space group: P N N N
;
_chemical_formula_sum "Si O2"
_cell_formula_units_Z 40
_cell_length_a 7.454056
_cell_length_b 12.338629
_cell_length_c 16.866058
_cell_angle_alpha 90.000000
_cell_angle_beta 90.000000
_cell_angle_gamma 90.000000
_cell_volume 1551.219111
_symmetry_space_group_name_H-M "P N N N"
_symmetry_group_IT_number 48
_space_group.IT_coordinate_system_code '2'
_symmetry_cell_setting 'orthorhombic'
loop_
_space_group_symop_operation_xyz
x,y,z
1/2-x,1/2-y,z
x,1/2-y,1/2-z
1/2-x,y,1/2-z
-x,-y,-z
1/2+x,1/2+y,-z
-x,1/2+y,1/2+z
1/2+x,-y,1/2+z
loop_
_atom_site_type_symbol
_atom_site_label
_atom_site_fract_x
_atom_site_fract_y
_atom_site_fract_z
Si Si1 0.592687 0.419993 0.376499
Si Si2 0.778425 0.628763 0.344500
Si Si3 0.849996 0.353875 0.501242
Si Si4 0.569504 0.969481 0.711499
Si Si5 0.719431 0.595463 0.940914
O O1 0.634413 0.548864 0.384710
O O2 0.769338 0.364733 0.411553
O O3 0.543262 0.415944 0.283215
O O4 0.428477 0.379239 0.430517
O O5 0.750000 0.750000 0.373131
O O6 0.750000 0.635138 0.250000
O O7 0.962050 0.559955 0.338529
O O8 0.750000 0.250000 0.537422
O O9 0.788458 0.467187 0.539577
O O10 0.066833 0.353691 0.497292
O O11 0.750000 0.019259 0.750000
O O12 0.643388 0.885666 0.647489
#
# Coordination Sequence:
#
# PCOD9390499 Si02
#       5
#     8   8   8   8   8
#     4  10  20  39  63  88 126 163 208 268 331 382
#     4   9  17  31  54  86 123 159 203 259 330 392
#     4  11  24  41  63  89 129 171 214 264 324 398
#     4   9  18  36  64  87 123 164 205 272 327 380
#     4  10  22  41  61  91 123 164 215 268 321 390
#
# _framework density 25.786169999999998
#
# number of rings (size 3 to 8) (size 9 to 14) (size 15 to 20)
#    0.000    2.200    2.000    0.600    0.000    2.400 
#    0.000   20.000    0.000    3.600    0.000    0.000 
#    0.000    0.000    0.000    0.000    0.000    0.000 
#
# Total GULP energy -223167.150204 kJ/mol
# GULP energy per Si atom -5579.178755 kJ/mol
# Density = 2.572748 g / cm^3
# Si number density = 25.786170 Si / 1000 Ang^3
#
#
#
# Elastic Constant Matrix: (Units=GPa)
#
#
# Indices 1 2 3 4 5 6 
#
# 1 169.4057 10.3622 16.3354 0.0000 0.0000 0.0000
# 2 10.3622 104.7876 4.7632 0.0000 0.0000 0.0000
# 3 16.3354 4.7632 96.3006 0.0000 0.0000 0.0000
# 4 0.0000 0.0000 0.0000 31.5799 0.0000 0.0000
# 5 0.0000 0.0000 0.0000 0.0000 34.8483 0.0000
# 6 0.0000 0.0000 0.0000 0.0000 0.0000 15.5699
#
#
#
# Elastic Compliance Matrix: (Units=1/GPa)
#
#
# Indices 1 2 3 4 5 6 
#
# 1 0.006033 -0.000551 -0.000996 0.000000 0.000000 0.000000
# 2 -0.000551 0.009615 -0.000382 0.000000 0.000000 0.000000
# 3 -0.000996 -0.000382 0.010572 0.000000 0.000000 0.000000
# 4 0.000000 0.000000 0.000000 0.031666 0.000000 0.000000
# 5 0.000000 0.000000 0.000000 0.000000 0.028696 0.000000
# 6 0.000000 0.000000 0.000000 0.000000 0.000000 0.064226
#
#
# Mechanical properties :
#
#
# Convention : Reuss Voigt Hill
#
# Bulk Modulus (GPa) = 44.72085 48.15728 46.43907
# Shear Modulus (GPa) = 30.84133 39.00183 34.92158
#
# Velocity S-wave (km/s) = 3.46214 3.89332 3.68404
# Velocity P-wave (km/s) = 5.77602 6.23913 6.01204
#
# Compressibility (1/GPa) = 0.02236093
#
# Stress axis : x y z
#
# Youngs Moduli (GPa) = 165.76163 104.00420 94.58943
#
# Poissons Ratio (x) = 0.05734 0.09422
# Poissons Ratio (y) = 0.09138 0.03614
# Poissons Ratio (z) = 0.16511 0.03974
#
# Static dielectric constant tensor:
#      x y z
#    x 2.080340 0.000000 0.000000 
#    y 0.000000 2.034810 0.000000 
#    z 0.000000 0.000000 2.165820 
# 
# From -- ./inp_files/33407.got.cif
#   From: 2010.05.17/outbox.cif.g08.bks.cpg/sg48_17_cif.got.tgz:33407.got - 2010.06.03 20:39:00.
