data_PCOD9390435
_publ_section_title
;
Structure prediction by ZEFSAII (Michael W. Deem and Ramdas Pophale) SiO2 
 PCOD9390435
Probable space group: P N N N
;
_chemical_formula_sum "Si O2"
_cell_formula_units_Z 58
_cell_length_a 18.178504
_cell_length_b 9.629158
_cell_length_c 16.845151
_cell_angle_alpha 90.000000
_cell_angle_beta 90.000000
_cell_angle_gamma 90.000000
_cell_volume 2948.637343
_symmetry_space_group_name_H-M "P N N N"
_symmetry_group_IT_number 48
_space_group.IT_coordinate_system_code '2'
_symmetry_cell_setting 'orthorhombic'
loop_
_space_group_symop_operation_xyz
x,y,z
1/2-x,1/2-y,z
x,1/2-y,1/2-z
1/2-x,y,1/2-z
-x,-y,-z
1/2+x,1/2+y,-z
-x,1/2+y,1/2+z
1/2+x,-y,1/2+z
loop_
_atom_site_type_symbol
_atom_site_label
_atom_site_fract_x
_atom_site_fract_y
_atom_site_fract_z
Si Si1 0.250000 0.250000 0.250000
Si Si2 0.263336 0.587362 0.843831
Si Si3 0.567922 0.033434 0.327442
Si Si4 0.470216 0.608626 0.297371
Si Si5 0.639410 0.928413 0.858915
Si Si6 0.534172 0.726925 0.065912
Si Si7 0.020409 0.803760 0.595994
Si Si8 0.857643 0.966892 0.458044
O O1 0.302567 0.162902 0.189801
O O2 0.250000 0.750000 0.865311
O O3 0.250000 0.576324 0.750000
O O4 0.346215 0.533502 0.847715
O O5 0.209470 0.499740 0.899617
O O6 0.548051 0.193599 0.340505
O O7 0.534426 0.986100 0.242213
O O8 0.536253 0.916257 0.386768
O O9 0.472624 0.750000 0.250000
O O10 0.388894 0.546595 0.298606
O O11 0.487966 0.658564 0.385672
O O12 0.558856 0.859854 0.876027
O O13 0.662584 0.976167 0.947868
O O14 0.610960 0.810759 0.055394
O O15 0.497242 0.711723 0.981334
O O16 0.078797 0.920569 0.567175
#
# Coordination Sequence:
#
# PCOD9390435 Si02
#       8
#     2   8   8   8   8   8   8   8
#     4  12  28  44  62 104 134 166 228 270 328 392
#     4  11  24  39  58  93 138 171 207 265 325 400
#     4  11  23  35  60  95 128 162 213 266 323 381
#     4  10  20  38  63  93 125 165 214 276 327 378
#     4  11  23  43  68  91 129 170 217 271 319 393
#     4  10  20  38  60  93 120 156 217 269 314 375
#     4  11  20  39  69  93 116 168 218 269 315 378
#     4  11  21  41  69  91 125 177 214 255 333 391
#
# _framework density 19.670103999999998
#
# number of rings (size 3 to 8) (size 9 to 14) (size 15 to 20)
#    0.000    1.241    4.138    2.897    0.000    2.759 
#    0.000    5.172    0.000    0.000    0.000    0.000 
#    0.000    0.000    0.000    0.000    0.000    0.000 
#
# Total GULP energy -323051.926060 kJ/mol
# GULP energy per Si atom -5569.860794 kJ/mol
# Density = 1.962533 g / cm^3
# Si number density = 19.670104 Si / 1000 Ang^3
#
#
#
# Elastic Constant Matrix: (Units=GPa)
#
#
# Indices 1 2 3 4 5 6 
#
# 1 92.5238 21.8441 38.7390 0.0000 0.0000 0.0000
# 2 21.8441 72.8783 29.8014 0.0000 0.0000 0.0000
# 3 38.7390 29.8014 86.9829 0.0000 0.0000 0.0000
# 4 0.0000 0.0000 0.0000 24.3882 0.0000 0.0000
# 5 0.0000 0.0000 0.0000 0.0000 16.2076 0.0000
# 6 0.0000 0.0000 0.0000 0.0000 0.0000 37.8051
#
#
#
# Elastic Compliance Matrix: (Units=1/GPa)
#
#
# Indices 1 2 3 4 5 6 
#
# 1 0.013496 -0.001846 -0.005378 0.000000 0.000000 0.000000
# 2 -0.001846 0.016210 -0.004731 0.000000 0.000000 0.000000
# 3 -0.005378 -0.004731 0.015513 0.000000 0.000000 0.000000
# 4 0.000000 0.000000 0.000000 0.041003 0.000000 0.000000
# 5 0.000000 0.000000 0.000000 0.000000 0.061699 0.000000
# 6 0.000000 0.000000 0.000000 0.000000 0.000000 0.026451
#
#
# Mechanical properties :
#
#
# Convention : Reuss Voigt Hill
#
# Bulk Modulus (GPa) = 46.93275 48.12822 47.53049
# Shear Modulus (GPa) = 24.34449 26.48023 25.41236
#
# Velocity S-wave (km/s) = 3.52183 3.67306 3.59824
# Velocity P-wave (km/s) = 6.35999 6.51992 6.44045
#
# Compressibility (1/GPa) = 0.02130708
#
# Stress axis : x y z
#
# Youngs Moduli (GPa) = 74.09847 61.69186 64.46317
#
# Poissons Ratio (x) = 0.11388 0.34668
# Poissons Ratio (y) = 0.13678 0.30501
# Poissons Ratio (z) = 0.39850 0.29190
#
# Static dielectric constant tensor:
#      x y z
#    x 1.775420 0.000000 0.000000 
#    y 0.000000 1.752200 0.000000 
#    z 0.000000 0.000000 1.707380 
# 
# From -- ./inp_files/32013.got.cif
#   From: 2010.05.17/outbox.cif.g08.bks.cpg/sg48_17_cif.got.tgz:32013.got - 2010.06.03 20:39:00.
