data_PCOD9390760
_publ_section_title
;
Structure prediction by ZEFSAII (Michael W. Deem and Ramdas Pophale) SiO2 
 PCOD9390760
Probable space group: P N N N
;
_chemical_formula_sum "Si O2"
_cell_formula_units_Z 56
_cell_length_a 24.576812
_cell_length_b 5.109299
_cell_length_c 20.353247
_cell_angle_alpha 90.000000
_cell_angle_beta 90.000000
_cell_angle_gamma 90.000000
_cell_volume 2555.762945
_symmetry_space_group_name_H-M "P N N N"
_symmetry_group_IT_number 48
_space_group.IT_coordinate_system_code '2'
_symmetry_cell_setting 'orthorhombic'
loop_
_space_group_symop_operation_xyz
x,y,z
1/2-x,1/2-y,z
x,1/2-y,1/2-z
1/2-x,y,1/2-z
-x,-y,-z
1/2+x,1/2+y,-z
-x,1/2+y,1/2+z
1/2+x,-y,1/2+z
loop_
_atom_site_type_symbol
_atom_site_label
_atom_site_fract_x
_atom_site_fract_y
_atom_site_fract_z
Si Si1 0.812310 0.789997 0.671733
Si Si2 0.867486 0.204113 0.889915
Si Si3 0.473502 0.007733 0.108495
Si Si4 0.812869 0.259974 0.467483
Si Si5 0.065697 0.000884 0.707640
Si Si6 0.045977 0.290262 0.510202
Si Si7 0.142965 0.264366 0.598824
O O1 0.750000 0.750000 0.649770
O O2 0.813972 0.750000 0.750000
O O3 0.849462 0.566473 0.641128
O O4 0.834235 0.068718 0.648029
O O5 0.931200 0.274780 0.878886
O O6 0.848960 0.203776 0.966283
O O7 0.511171 0.092936 0.168617
O O8 0.520532 0.931805 0.056608
O O9 0.438127 0.198795 0.062300
O O10 0.750000 0.250000 0.488422
O O11 0.817470 0.484953 0.410057
O O12 0.830979 0.981891 0.438040
O O13 0.047403 0.250000 0.750000
O O14 0.113636 0.133171 0.662512
O O15 0.084905 0.750000 0.750000
O O16 0.093914 0.384973 0.555765
O O17 0.000000 0.500000 0.500000
#
# Coordination Sequence:
#
# PCOD9390760 Si02
#       7
#     8   8   8   8   8   8   8
#     4  11  25  44  63  85 126 188 244 282 328 394
#     4  12  24  41  65 100 136 177 221 291 344 403
#     4  10  24  38  63  96 133 172 214 261 328 398
#     4  12  24  42  69 105 138 171 224 293 355 409
#     4  11  26  45  68  98 137 179 228 276 331 414
#     4  10  21  38  65  95 132 175 209 258 323 417
#     4  11  24  43  70  98 138 180 222 274 355 412
#
# _framework density 21.911263000000002
#
# number of rings (size 3 to 8) (size 9 to 14) (size 15 to 20)
#    0.000    1.000    1.429    4.714   10.000    2.857 
#    0.000    0.000    0.000    6.429    0.000    0.000 
#    0.000    0.000    0.000    0.000    0.000    0.000 
#
# Total GULP energy -312315.376483 kJ/mol
# GULP energy per Si atom -5577.060294 kJ/mol
# Density = 2.186139 g / cm^3
# Si number density = 21.911263 Si / 1000 Ang^3
#
#
#
# Elastic Constant Matrix: (Units=GPa)
#
#
# Indices 1 2 3 4 5 6 
#
# 1 57.6149 -1.8211 20.8716 0.0000 0.0000 0.0000
# 2 -1.8211 78.0179 34.5430 0.0000 0.0000 0.0000
# 3 20.8716 34.5430 67.9361 0.0000 0.0000 0.0000
# 4 0.0000 0.0000 0.0000 38.0934 0.0000 0.0000
# 5 0.0000 0.0000 0.0000 0.0000 29.1184 0.0000
# 6 0.0000 0.0000 0.0000 0.0000 0.0000 58.8100
#
#
#
# Elastic Compliance Matrix: (Units=1/GPa)
#
#
# Indices 1 2 3 4 5 6 
#
# 1 0.020557 0.004228 -0.008465 0.000000 0.000000 0.000000
# 2 0.004228 0.017411 -0.010152 0.000000 0.000000 0.000000
# 3 -0.008465 -0.010152 0.022482 0.000000 0.000000 0.000000
# 4 0.000000 0.000000 0.000000 0.026251 0.000000 0.000000
# 5 0.000000 0.000000 0.000000 0.000000 0.034343 0.000000
# 6 0.000000 0.000000 0.000000 0.000000 0.000000 0.017004
#
#
# Mechanical properties :
#
#
# Convention : Reuss Voigt Hill
#
# Bulk Modulus (GPa) = 31.57376 34.52843 33.05110
# Shear Modulus (GPa) = 28.18750 35.20272 31.69511
#
# Velocity S-wave (km/s) = 3.59059 4.01259 3.80744
# Velocity P-wave (km/s) = 5.62413 6.10413 5.86904
#
# Compressibility (1/GPa) = 0.03167187
#
# Stress axis : x y z
#
# Youngs Moduli (GPa) = 48.64544 57.43479 44.47951
#
# Poissons Ratio (x) = -0.24283 0.37653
# Poissons Ratio (y) = -0.20567 0.45155
# Poissons Ratio (z) = 0.41180 0.58307
#
# Static dielectric constant tensor:
#      x y z
#    x 1.906470 0.000000 0.000000 
#    y 0.000000 1.875000 0.000000 
#    z 0.000000 0.000000 8.911670 
# 
# From -- ./inp_files/34943.got.cif
#   From: 2010.05.17/outbox.cif.g08.bks.cpg/sg48_18_cif.got.tgz:34943.got - 2010.06.03 20:39:00.
