data_PCOD9390423
_publ_section_title
;
Structure prediction by ZEFSAII (Michael W. Deem and Ramdas Pophale) SiO2 
 PCOD9390423
Probable space group: P N N N
;
_chemical_formula_sum "Si O2"
_cell_formula_units_Z 64
_cell_length_a 15.450836
_cell_length_b 9.321427
_cell_length_c 21.612825
_cell_angle_alpha 90.000000
_cell_angle_beta 90.000000
_cell_angle_gamma 90.000000
_cell_volume 3112.762047
_symmetry_space_group_name_H-M "P N N N"
_symmetry_group_IT_number 48
_space_group.IT_coordinate_system_code '2'
_symmetry_cell_setting 'orthorhombic'
loop_
_space_group_symop_operation_xyz
x,y,z
1/2-x,1/2-y,z
x,1/2-y,1/2-z
1/2-x,y,1/2-z
-x,-y,-z
1/2+x,1/2+y,-z
-x,1/2+y,1/2+z
1/2+x,-y,1/2+z
loop_
_atom_site_type_symbol
_atom_site_label
_atom_site_fract_x
_atom_site_fract_y
_atom_site_fract_z
Si Si1 0.150871 0.783013 0.054897
Si Si2 0.177093 0.637238 0.824688
Si Si3 0.136348 0.565524 0.954316
Si Si4 0.464696 0.958605 0.112682
Si Si5 0.835396 0.836534 0.555599
Si Si6 0.073239 0.416024 0.763127
Si Si7 0.004742 0.668907 0.687023
Si Si8 0.437493 0.425456 0.050833
O O1 0.250000 0.750000 0.071476
O O2 0.082916 0.686851 0.092925
O O3 0.131275 0.948761 0.062970
O O4 0.134699 0.722411 0.985426
O O5 0.250000 0.750000 0.810912
O O6 0.191363 0.573982 0.892561
O O7 0.159398 0.504133 0.780318
O O8 0.087948 0.729419 0.824686
O O9 0.041330 0.508890 0.934116
O O10 0.177783 0.460485 0.004842
O O11 0.510367 0.934148 0.177709
O O12 0.390680 0.081354 0.108515
O O13 0.750000 0.750000 0.575922
O O14 0.894390 0.716272 0.522639
O O15 0.086446 0.250000 0.750000
O O16 0.030872 0.510269 0.709485
O O17 0.964716 0.750000 0.750000
O O18 0.966721 0.634476 0.618593
O O19 0.500000 0.500000 0.000000
#
# Coordination Sequence:
#
# PCOD9390423 Si02
#       8
#     8   8   8   8   8   8   8   8
#     4  11  21  34  57  88 122 156 195 251 315 368
#     4  10  21  39  60  85 123 163 201 248 308 373
#     4  10  20  38  58  81 117 165 204 239 302 380
#     4  10  20  39  60  81 117 165 207 249 307 372
#     4  11  22  35  55  87 125 157 196 256 316 365
#     4  10  21  39  64  89 113 156 214 263 303 361
#     4  10  22  39  61  87 118 163 210 250 306 375
#     4  12  22  36  60  91 120 154 205 255 301 371
#
# _framework density 20.56052
#
# number of rings (size 3 to 8) (size 9 to 14) (size 15 to 20)
#    0.000    1.500    0.000    8.625    0.000    4.250 
#    0.000    1.250    0.000   11.250    0.000    0.000 
#    0.000    0.000    0.000    0.000    0.000    0.000 
#
# Total GULP energy -356826.563060 kJ/mol
# GULP energy per Si atom -5575.415048 kJ/mol
# Density = 2.051372 g / cm^3
# Si number density = 20.560520 Si / 1000 Ang^3
#
#
#
# Elastic Constant Matrix: (Units=GPa)
#
#
# Indices 1 2 3 4 5 6 
#
# 1 83.6306 34.8594 31.2624 0.0000 0.0000 0.0000
# 2 34.8594 151.7499 33.3077 0.0000 0.0000 0.0000
# 3 31.2624 33.3077 91.4335 0.0000 0.0000 0.0000
# 4 0.0000 0.0000 0.0000 20.2866 0.0000 0.0000
# 5 0.0000 0.0000 0.0000 0.0000 10.5806 0.0000
# 6 0.0000 0.0000 0.0000 0.0000 0.0000 41.7336
#
#
#
# Elastic Compliance Matrix: (Units=1/GPa)
#
#
# Indices 1 2 3 4 5 6 
#
# 1 0.014494 -0.002437 -0.004068 0.000000 0.000000 0.000000
# 2 -0.002437 0.007572 -0.001925 0.000000 0.000000 0.000000
# 3 -0.004068 -0.001925 0.013029 0.000000 0.000000 0.000000
# 4 0.000000 0.000000 0.000000 0.049294 0.000000 0.000000
# 5 0.000000 0.000000 0.000000 0.000000 0.094513 0.000000
# 6 0.000000 0.000000 0.000000 0.000000 0.000000 0.023962
#
#
# Mechanical properties :
#
#
# Convention : Reuss Voigt Hill
#
# Bulk Modulus (GPa) = 54.83888 58.40812 56.62350
# Shear Modulus (GPa) = 22.14339 29.67911 25.91125
#
# Velocity S-wave (km/s) = 3.28531 3.80346 3.55384
# Velocity P-wave (km/s) = 6.41255 6.91072 6.66629
#
# Compressibility (1/GPa) = 0.01823524
#
# Stress axis : x y z
#
# Youngs Moduli (GPa) = 68.99579 132.06394 76.75085
#
# Poissons Ratio (x) = 0.32178 0.31222
# Poissons Ratio (y) = 0.16811 0.14777
# Poissons Ratio (z) = 0.28067 0.25426
#
# Static dielectric constant tensor:
#      x y z
#    x 1.818060 0.000000 0.000000 
#    y 0.000000 1.703490 0.000000 
#    z 0.000000 0.000000 1.795090 
# 
# From -- ./inp_files/36574.got.cif
#   From: 2010.05.17/outbox.cif.g08.bks.cpg/sg48_19_cif.got.tgz:36574.got - 2010.06.03 20:39:00.
