data_PCOD9390269
_publ_section_title
;
Structure prediction by ZEFSAII (Michael W. Deem and Ramdas Pophale) SiO2 
 PCOD9390269
Probable space group: P N N N
;
_chemical_formula_sum "Si O2"
_cell_formula_units_Z 24
_cell_length_a 11.182983
_cell_length_b 11.182981
_cell_length_c 7.253820
_cell_angle_alpha 90.000000
_cell_angle_beta 90.000000
_cell_angle_gamma 90.000000
_cell_volume 907.156102
_symmetry_space_group_name_H-M "P N N N"
_symmetry_group_IT_number 48
_space_group.IT_coordinate_system_code '2'
_symmetry_cell_setting 'orthorhombic'
loop_
_space_group_symop_operation_xyz
x,y,z
1/2-x,1/2-y,z
x,1/2-y,1/2-z
1/2-x,y,1/2-z
-x,-y,-z
1/2+x,1/2+y,-z
-x,1/2+y,1/2+z
1/2+x,-y,1/2+z
loop_
_atom_site_type_symbol
_atom_site_label
_atom_site_fract_x
_atom_site_fract_y
_atom_site_fract_z
Si Si1 0.873437 0.503328 0.399055
Si Si2 0.996672 0.626563 0.100945
Si Si3 0.938715 0.250000 0.250000
Si Si4 0.750000 0.061285 0.750000
O O1 0.867941 0.371862 0.301617
O O2 0.779829 0.511870 0.564550
O O3 0.000000 0.500000 0.500000
O O4 0.892165 0.607835 0.250000
O O5 0.128138 0.632059 0.198383
O O6 0.988130 0.720171 0.935450
O O7 0.000000 0.500000 0.000000
#
# Coordination Sequence:
#
# PCOD9390269 Si02
#       4
#     8   8   4   4
#     4   9  20  36  56  86 120 159 203 258 316 373
#     4   9  20  36  56  86 120 159 203 258 316 373
#     4  10  20  35  56  85 124 156 202 263 322 379
#     4  10  20  35  56  85 124 156 202 263 322 379
#
# _framework density 26.456308
#
# number of rings (size 3 to 8) (size 9 to 14) (size 15 to 20)
#    0.000    2.667    0.000    0.000    0.000   14.667 
#    0.000    0.000    0.000   81.000    0.000  126.000 
#    0.000    5.333    0.000    0.000    0.000    0.000 
#
# Total GULP energy -133994.707141 kJ/mol
# GULP energy per Si atom -5583.112798 kJ/mol
# Density = 2.639609 g / cm^3
# Si number density = 26.456308 Si / 1000 Ang^3
#
#
#
# Elastic Constant Matrix: (Units=GPa)
#
#
# Indices 1 2 3 4 5 6 
#
# 1 133.7427 33.3584 84.6297 0.0000 0.0000 0.0000
# 2 33.3584 133.7428 84.6298 0.0000 0.0000 0.0000
# 3 84.6297 84.6298 251.4689 0.0000 0.0000 0.0000
# 4 0.0000 0.0000 0.0000 78.5339 0.0000 0.0000
# 5 0.0000 0.0000 0.0000 0.0000 78.5338 0.0000
# 6 0.0000 0.0000 0.0000 0.0000 0.0000 -19.7284
#
#
#
# Elastic Compliance Matrix: (Units=1/GPa)
#
#
# Indices 1 2 3 4 5 6 
#
# 1 0.009521 -0.000441 -0.003056 0.000000 0.000000 0.000000
# 2 -0.000441 0.009521 -0.003056 0.000000 0.000000 0.000000
# 3 -0.003056 -0.003056 0.006033 0.000000 0.000000 0.000000
# 4 0.000000 0.000000 0.000000 0.012733 0.000000 0.000000
# 5 0.000000 0.000000 0.000000 0.000000 0.012733 0.000000
# 6 0.000000 0.000000 0.000000 0.000000 0.000000 -0.050688
#
#
# Mechanical properties :
#
#
# Convention : Reuss Voigt Hill
#
# Bulk Modulus (GPa) = 83.54353 102.68778 93.11565
# Shear Modulus (GPa) = 295.02767 48.55697 171.79232
#
# Velocity S-wave (km/s) = 10.57153 4.28876 8.06693
# Velocity P-wave (km/s) = 13.44083 7.96386 11.04715
#
# Compressibility (1/GPa) = 0.01196981
#
# Stress axis : x y z
#
# Youngs Moduli (GPa) = 105.03534 105.03539 165.74609
#
# Poissons Ratio (x) = 0.04633 0.50646
# Poissons Ratio (y) = 0.04633 0.50646
# Poissons Ratio (z) = 0.32095 0.32095
#
# Static dielectric constant tensor:
#      x y z
#    x 2.068230 0.000000 0.000000 
#    y 0.000000 2.068230 0.000000 
#    z 0.000000 0.000000 2.142190 
# 
# From -- ./inp_files/9834.got.cif
#   From: 2010.05.17/outbox.cif.g08.bks.cpg/sg48_5_cif.got.tgz:9834.got - 2010.06.03 20:39:00.
