data_PCOD9390012
_publ_section_title
;
Structure prediction by ZEFSAII (Michael W. Deem and Ramdas Pophale) SiO2 
 PCOD9390012
Probable space group: P N N N
;
_chemical_formula_sum "Si O2"
_cell_formula_units_Z 24
_cell_length_a 5.171483
_cell_length_b 7.878473
_cell_length_c 25.694549
_cell_angle_alpha 90.000000
_cell_angle_beta 90.000000
_cell_angle_gamma 90.000000
_cell_volume 1046.883010
_symmetry_space_group_name_H-M "P N N N"
_symmetry_group_IT_number 48
_space_group.IT_coordinate_system_code '2'
_symmetry_cell_setting 'orthorhombic'
loop_
_space_group_symop_operation_xyz
x,y,z
1/2-x,1/2-y,z
x,1/2-y,1/2-z
1/2-x,y,1/2-z
-x,-y,-z
1/2+x,1/2+y,-z
-x,1/2+y,1/2+z
1/2+x,-y,1/2+z
loop_
_atom_site_type_symbol
_atom_site_label
_atom_site_fract_x
_atom_site_fract_y
_atom_site_fract_z
Si Si1 0.127604 0.066482 0.394715
Si Si2 0.380213 0.434207 0.946244
Si Si3 0.497565 0.056290 0.226371
O O1 0.250000 0.250000 0.404378
O O2 0.030583 0.059474 0.335235
O O3 0.372041 0.943625 0.407321
O O4 0.868810 0.042689 0.428391
O O5 0.250000 0.250000 0.951026
O O6 0.500000 0.500000 0.000000
O O7 0.498524 0.250000 0.250000
O O8 0.250000 0.968806 0.250000
O O9 0.750000 0.974469 0.250000
#
# Coordination Sequence:
#
# PCOD9390012 Si02
#       3
#     8   8   8
#     4  12  24  43  77 112 140 193 248 307 372 432
#     4  12  28  50  70 102 152 196 252 310 378 448
#     4  10  19  35  63 109 147 170 234 301 346 425
#
# _framework density 22.925194999999999
#
# number of rings (size 3 to 8) (size 9 to 14) (size 15 to 20)
#    0.000    0.667    3.333    6.000    4.667    2.667 
#    0.000    0.000    0.000   15.000    0.000    0.000 
#    0.000    0.000    0.000    0.000    0.000    0.000 
#
# Total GULP energy -134147.547042 kJ/mol
# GULP energy per Si atom -5589.481127 kJ/mol
# Density = 2.287302 g / cm^3
# Si number density = 22.925195 Si / 1000 Ang^3
#
#
#
# Elastic Constant Matrix: (Units=GPa)
#
#
# Indices 1 2 3 4 5 6 
#
# 1 292.6163 67.0712 117.4903 0.0000 0.0000 0.0000
# 2 67.0712 94.9531 62.2604 0.0000 0.0000 0.0000
# 3 117.4903 62.2604 177.7885 0.0000 0.0000 0.0000
# 4 0.0000 0.0000 0.0000 9.2168 0.0000 0.0000
# 5 0.0000 0.0000 0.0000 0.0000 60.9488 0.0000
# 6 0.0000 0.0000 0.0000 0.0000 0.0000 20.3555
#
#
#
# Elastic Compliance Matrix: (Units=1/GPa)
#
#
# Indices 1 2 3 4 5 6 
#
# 1 0.004859 -0.001722 -0.002608 0.000000 0.000000 0.000000
# 2 -0.001722 0.014281 -0.003863 0.000000 0.000000 0.000000
# 3 -0.002608 -0.003863 0.008701 0.000000 0.000000 0.000000
# 4 0.000000 0.000000 0.000000 0.108498 0.000000 0.000000
# 5 0.000000 0.000000 0.000000 0.000000 0.016407 0.000000
# 6 0.000000 0.000000 0.000000 0.000000 0.000000 0.049127
#
#
# Mechanical properties :
#
#
# Convention : Reuss Voigt Hill
#
# Bulk Modulus (GPa) = 87.30117 117.66684 102.48401
# Shear Modulus (GPa) = 22.51455 39.33996 30.92725
#
# Velocity S-wave (km/s) = 3.13723 4.14697 3.67693
# Velocity P-wave (km/s) = 7.16146 8.62367 7.92635
#
# Compressibility (1/GPa) = 0.01145460
#
# Stress axis : x y z
#
# Youngs Moduli (GPa) = 205.78431 70.02305 114.92907
#
# Poissons Ratio (x) = 0.12060 0.29976
# Poissons Ratio (y) = 0.35443 0.44396
# Poissons Ratio (z) = 0.53672 0.27049
#
# Static dielectric constant tensor:
#      x y z
#    x 1.866910 0.000000 0.000000 
#    y 0.000000 1.871540 0.000000 
#    z 0.000000 0.000000 1.954490 
# 
# From -- ./inp_files/698.got.cif
#   From: 2010.05.17/outbox.cif.g08.bks.cpg/sg48_1_cif.got.tgz:698.got - 2010.06.03 20:39:00.
