data_PCOD9390701
_publ_section_title
;
Structure prediction by ZEFSAII (Michael W. Deem and Ramdas Pophale) SiO2 
 PCOD9390701
Probable space group: P N N N
;
_chemical_formula_sum "Si O2"
_cell_formula_units_Z 56
_cell_length_a 23.317436
_cell_length_b 8.497866
_cell_length_c 14.515951
_cell_angle_alpha 90.000000
_cell_angle_beta 90.000000
_cell_angle_gamma 90.000000
_cell_volume 2876.313141
_symmetry_space_group_name_H-M "P N N N"
_symmetry_group_IT_number 48
_space_group.IT_coordinate_system_code '2'
_symmetry_cell_setting 'orthorhombic'
loop_
_space_group_symop_operation_xyz
x,y,z
1/2-x,1/2-y,z
x,1/2-y,1/2-z
1/2-x,y,1/2-z
-x,-y,-z
1/2+x,1/2+y,-z
-x,1/2+y,1/2+z
1/2+x,-y,1/2+z
loop_
_atom_site_type_symbol
_atom_site_label
_atom_site_fract_x
_atom_site_fract_y
_atom_site_fract_z
Si Si1 0.547099 0.130267 0.974259
Si Si2 0.911221 0.161535 0.153278
Si Si3 0.259111 0.064411 0.461718
Si Si4 0.276965 0.577814 0.846570
Si Si5 0.368089 0.423817 0.148942
Si Si6 0.854232 0.546251 0.861252
Si Si7 0.491514 0.559542 0.103388
O O1 0.516461 0.255246 0.906534
O O2 0.597116 0.046901 0.916208
O O3 0.571777 0.225484 0.065059
O O4 0.500000 0.000000 0.000000
O O5 0.918880 0.250000 0.250000
O O6 0.845546 0.101944 0.150934
O O7 0.954388 0.013332 0.154790
O O8 0.250000 0.250000 0.446463
O O9 0.320314 0.012188 0.421224
O O10 0.205555 0.995136 0.406875
O O11 0.257756 0.028202 0.568878
O O12 0.250000 0.750000 0.860933
O O13 0.250000 0.520872 0.750000
O O14 0.367098 0.234842 0.132763
O O15 0.350738 0.473509 0.251683
O O16 0.431818 0.486293 0.136001
O O17 0.500000 0.500000 0.000000
#
# Coordination Sequence:
#
# PCOD9390701 Si02
#       7
#     8   8   8   8   8   8   8
#     4  11  24  41  62  93 129 164 215 267 325 390
#     4  11  23  42  68  91 125 171 214 266 330 396
#     4  10  21  38  63  91 126 162 211 264 315 380
#     4  11  22  41  65  90 119 165 216 261 321 389
#     4  10  21  39  62  91 128 168 207 252 325 383
#     4  10  21  37  63  92 125 167 207 260 314 389
#     4  10  22  39  63  89 123 165 207 257 319 384
#
# _framework density 19.469369
#
# number of rings (size 3 to 8) (size 9 to 14) (size 15 to 20)
#    0.000    1.571    1.429    4.714    4.000    3.714 
#    0.000    0.000    3.143    2.571    0.000    0.000 
#    0.000    0.000    0.000    0.000    0.000    0.000 
#
# Total GULP energy -312451.453877 kJ/mol
# GULP energy per Si atom -5579.490248 kJ/mol
# Density = 1.942506 g / cm^3
# Si number density = 19.469369 Si / 1000 Ang^3
#
#
#
# Elastic Constant Matrix: (Units=GPa)
#
#
# Indices 1 2 3 4 5 6 
#
# 1 164.0299 45.1371 55.5994 0.0000 0.0000 0.0000
# 2 45.1371 30.6331 45.4625 0.0000 0.0000 0.0000
# 3 55.5994 45.4625 90.3952 0.0000 0.0000 0.0000
# 4 0.0000 0.0000 0.0000 25.5228 0.0000 0.0000
# 5 0.0000 0.0000 0.0000 0.0000 -50.2097 0.0000
# 6 0.0000 0.0000 0.0000 0.0000 0.0000 18.2119
#
#
#
# Elastic Compliance Matrix: (Units=1/GPa)
#
#
# Indices 1 2 3 4 5 6 
#
# 1 0.010886 -0.024065 0.005408 0.000000 0.000000 0.000000
# 2 -0.024065 0.181925 -0.076694 0.000000 0.000000 0.000000
# 3 0.005408 -0.076694 0.046308 0.000000 0.000000 0.000000
# 4 0.000000 0.000000 0.000000 0.039181 0.000000 0.000000
# 5 0.000000 0.000000 0.000000 0.000000 -0.019916 0.000000
# 6 0.000000 0.000000 0.000000 0.000000 0.000000 0.054909
#
#
# Mechanical properties :
#
#
# Convention : Reuss Voigt Hill
#
# Bulk Modulus (GPa) = 20.65432 64.16181 42.40806
# Shear Modulus (GPa) = 9.61290 7.96228 8.78759
#
# Velocity S-wave (km/s) = 2.22445 2.02448 2.12682
# Velocity P-wave (km/s) = 4.15081 6.20415 5.27829
#
# Compressibility (1/GPa) = 0.04841603
#
# Stress axis : x y z
#
# Youngs Moduli (GPa) = 91.86404 5.49676 21.59448
#
# Poissons Ratio (x) = 0.13228 -0.11678
# Poissons Ratio (y) = 2.21074 1.65617
# Poissons Ratio (z) = -0.49678 0.42157
#
# Static dielectric constant tensor:
#      x y z
#    x 1.687880 0.000000 0.000000 
#    y 0.000000 1.706770 0.000000 
#    z 0.000000 0.000000 1.674600 
# 
# From -- ./inp_files/28334.got.cif
#   From: 2010.05.17/outbox.cif.g08.bks.cpg/sg48_15_cif.got.tgz:28334.got - 2010.06.03 20:39:00.
