data_PCOD9390981
_publ_section_title
;
Structure prediction by ZEFSAII (Michael W. Deem and Ramdas Pophale) SiO2 
 PCOD9390981
Probable space group: P N N N
;
_chemical_formula_sum "Si O2"
_cell_formula_units_Z 24
_cell_length_a 7.432734
_cell_length_b 12.741668
_cell_length_c 13.098629
_cell_angle_alpha 90.000000
_cell_angle_beta 90.000000
_cell_angle_gamma 90.000000
_cell_volume 1240.511278
_symmetry_space_group_name_H-M "P N N N"
_symmetry_group_IT_number 48
_space_group.IT_coordinate_system_code '2'
_symmetry_cell_setting 'orthorhombic'
loop_
_space_group_symop_operation_xyz
x,y,z
1/2-x,1/2-y,z
x,1/2-y,1/2-z
1/2-x,y,1/2-z
-x,-y,-z
1/2+x,1/2+y,-z
-x,1/2+y,1/2+z
1/2+x,-y,1/2+z
loop_
_atom_site_type_symbol
_atom_site_label
_atom_site_fract_x
_atom_site_fract_y
_atom_site_fract_z
Si Si1 0.203692 0.632721 0.987865
Si Si2 0.512378 0.360278 0.191759
Si Si3 0.154740 0.069483 0.387605
O O1 0.250000 0.750000 0.023249
O O2 0.325497 0.616409 0.885423
O O3 0.993332 0.621293 0.960579
O O4 0.230184 0.539169 0.067745
O O5 0.541954 0.250000 0.250000
O O6 0.456254 0.441406 0.281289
O O7 0.327544 0.358113 0.128888
#
# Coordination Sequence:
#
# PCOD9390981 Si02
#       3
#     8   8   8
#     4  11  22  36  59  90 121 159 207 260 314 374
#     4  11  21  37  62  85 120 162 210 259 304 374
#     4  10  22  36  56  90 121 154 207 259 314 366
#
# _framework density 19.346861000000001
#
# number of rings (size 3 to 8) (size 9 to 14) (size 15 to 20)
#    0.000    1.333    3.333    4.000    0.000    0.000 
#    0.000    3.333    0.000    0.000    0.000    9.333 
#    0.000    0.000    0.000    0.000    0.000    0.000 
#
# Total GULP energy -133792.095893 kJ/mol
# GULP energy per Si atom -5574.670662 kJ/mol
# Density = 1.930283 g / cm^3
# Si number density = 19.346861 Si / 1000 Ang^3
#
#
#
# Elastic Constant Matrix: (Units=GPa)
#
#
# Indices 1 2 3 4 5 6 
#
# 1 117.2380 46.7386 26.8643 0.0000 0.0000 0.0000
# 2 46.7386 143.8770 67.1583 0.0000 0.0000 0.0000
# 3 26.8643 67.1583 77.4948 0.0000 0.0000 0.0000
# 4 0.0000 0.0000 0.0000 38.0631 0.0000 0.0000
# 5 0.0000 0.0000 0.0000 0.0000 30.2830 0.0000
# 6 0.0000 0.0000 0.0000 0.0000 0.0000 28.2368
#
#
#
# Elastic Compliance Matrix: (Units=1/GPa)
#
#
# Indices 1 2 3 4 5 6 
#
# 1 0.009852 -0.002697 -0.001078 0.000000 0.000000 0.000000
# 2 -0.002697 0.012410 -0.009820 0.000000 0.000000 0.000000
# 3 -0.001078 -0.009820 0.021788 0.000000 0.000000 0.000000
# 4 0.000000 0.000000 0.000000 0.026272 0.000000 0.000000
# 5 0.000000 0.000000 0.000000 0.000000 0.033022 0.000000
# 6 0.000000 0.000000 0.000000 0.000000 0.000000 0.035415
#
#
# Mechanical properties :
#
#
# Convention : Reuss Voigt Hill
#
# Bulk Modulus (GPa) = 59.31160 68.90358 64.10759
# Shear Modulus (GPa) = 29.14282 32.50649 30.82465
#
# Velocity S-wave (km/s) = 3.88536 4.10346 3.99590
# Velocity P-wave (km/s) = 7.13103 7.62518 7.38224
#
# Compressibility (1/GPa) = 0.01686011
#
# Stress axis : x y z
#
# Youngs Moduli (GPa) = 101.50274 80.57797 45.89720
#
# Poissons Ratio (x) = 0.21735 0.04946
# Poissons Ratio (y) = 0.27379 0.45071
# Poissons Ratio (z) = 0.10939 0.79127
#
# Static dielectric constant tensor:
#      x y z
#    x 1.709530 0.000000 0.000000 
#    y 0.000000 1.697850 0.000000 
#    z 0.000000 0.000000 1.745600 
# 
# From -- ./inp_files/8118.got.cif
#   From: 2010.05.17/outbox.cif.g08.bks.cpg/sg48_5_cif.got.tgz:8118.got - 2010.06.03 20:39:00.
