data_PCOD9390715
_publ_section_title
;
Structure prediction by ZEFSAII (Michael W. Deem and Ramdas Pophale) SiO2 
 PCOD9390715
Probable space group: P N N N
;
_chemical_formula_sum "Si O2"
_cell_formula_units_Z 64
_cell_length_a 9.686281
_cell_length_b 23.623917
_cell_length_c 14.304965
_cell_angle_alpha 90.000000
_cell_angle_beta 90.000000
_cell_angle_gamma 90.000000
_cell_volume 3273.375077
_symmetry_space_group_name_H-M "P N N N"
_symmetry_group_IT_number 48
_space_group.IT_coordinate_system_code '2'
_symmetry_cell_setting 'orthorhombic'
loop_
_space_group_symop_operation_xyz
x,y,z
1/2-x,1/2-y,z
x,1/2-y,1/2-z
1/2-x,y,1/2-z
-x,-y,-z
1/2+x,1/2+y,-z
-x,1/2+y,1/2+z
1/2+x,-y,1/2+z
loop_
_atom_site_type_symbol
_atom_site_label
_atom_site_fract_x
_atom_site_fract_y
_atom_site_fract_z
Si Si1 0.248214 0.186900 0.139916
Si Si2 0.346538 0.605666 0.383806
Si Si3 0.285412 0.316058 0.854905
Si Si4 0.038112 0.884516 0.175193
Si Si5 0.718612 0.992045 0.977820
Si Si6 0.123474 0.075506 0.172741
Si Si7 0.582538 0.873927 0.997691
Si Si8 0.132940 0.998689 0.828305
O O1 0.250000 0.250000 0.097010
O O2 0.250000 0.194366 0.250000
O O3 0.127659 0.139539 0.131194
O O4 0.381621 0.154330 0.100584
O O5 0.423506 0.616357 0.285585
O O6 0.185678 0.618086 0.374385
O O7 0.348520 0.540340 0.414607
O O8 0.432270 0.638029 0.462613
O O9 0.250000 0.250000 0.860712
O O10 0.250000 0.336004 0.750000
O O11 0.444647 0.333146 0.861342
O O12 0.195243 0.348388 0.931024
O O13 0.952987 0.942639 0.159731
O O14 0.613442 0.940554 0.994655
O O15 0.787670 0.013268 0.073891
O O16 0.835993 0.964186 0.913710
O O17 0.250000 0.070940 0.250000
O O18 0.976233 0.050141 0.202702
O O19 0.250000 0.006650 0.750000
#
# Coordination Sequence:
#
# PCOD9390715 Si02
#       8
#     8   8   8   8   8   8   8   8
#     4   9  20  38  62  88 120 158 210 266 312 359
#     4  11  23  36  61  89 129 166 207 252 329 384
#     4  11  22  40  66  89 120 165 222 267 312 376
#     4  11  22  41  59  89 129 172 206 260 322 391
#     4  11  22  36  58  87 127 164 202 245 313 385
#     4  10  21  38  59  88 122 156 203 256 307 371
#     4  11  21  38  61  93 123 160 217 258 313 382
#     4  12  23  36  59  89 129 165 206 250 318 386
#
# _framework density 19.551684999999999
#
# number of rings (size 3 to 8) (size 9 to 14) (size 15 to 20)
#    0.000    1.250    3.750    3.000    0.000    3.000 
#    0.000    0.625    0.000    0.000    0.000   14.000 
#    0.000    0.000    0.000    0.000    0.000    0.000 
#
# Total GULP energy -356878.399670 kJ/mol
# GULP energy per Si atom -5576.224995 kJ/mol
# Density = 1.950718 g / cm^3
# Si number density = 19.551685 Si / 1000 Ang^3
#
#
#
# Elastic Constant Matrix: (Units=GPa)
#
#
# Indices 1 2 3 4 5 6 
#
# 1 122.3415 52.7811 29.8270 0.0000 0.0000 0.0000
# 2 52.7811 105.3301 17.5410 0.0000 0.0000 0.0000
# 3 29.8270 17.5410 75.8415 0.0000 0.0000 0.0000
# 4 0.0000 0.0000 0.0000 -15.0533 0.0000 0.0000
# 5 0.0000 0.0000 0.0000 0.0000 -7.3763 0.0000
# 6 0.0000 0.0000 0.0000 0.0000 0.0000 10.1195
#
#
#
# Elastic Compliance Matrix: (Units=1/GPa)
#
#
# Indices 1 2 3 4 5 6 
#
# 1 0.011133 -0.005044 -0.003212 0.000000 0.000000 0.000000
# 2 -0.005044 0.012159 -0.000829 0.000000 0.000000 0.000000
# 3 -0.003212 -0.000829 0.014640 0.000000 0.000000 0.000000
# 4 0.000000 0.000000 0.000000 -0.066431 0.000000 0.000000
# 5 0.000000 0.000000 0.000000 0.000000 -0.135570 0.000000
# 6 0.000000 0.000000 0.000000 0.000000 0.000000 0.098819
#
#
# Mechanical properties :
#
#
# Convention : Reuss Voigt Hill
#
# Bulk Modulus (GPa) = 50.59718 55.97906 53.28812
# Shear Modulus (GPa) = -123.48137 11.09558 -56.19290
#
# Velocity S-wave (km/s) = -7.95572 2.38481 -5.36685
# Velocity P-wave (km/s) = 7.64568 6.02300 3.33016
#
# Compressibility (1/GPa) = 0.01976395
#
# Stress axis : x y z
#
# Youngs Moduli (GPa) = 89.82366 82.24060 68.30513
#
# Poissons Ratio (x) = 0.41481 0.21938
# Poissons Ratio (y) = 0.45306 0.05660
# Poissons Ratio (z) = 0.28850 0.06815
#
# Static dielectric constant tensor:
#      x y z
#    x 1.741540 0.000000 0.000000 
#    y 0.000000 1.728250 0.000000 
#    z 0.000000 0.000000 1.730360 
# 
# From -- ./inp_files/25763.got.cif
#   From: 2010.05.17/outbox.cif.g08.bks.cpg/sg48_13_cif.got.tgz:25763.got - 2010.06.03 20:39:00.
