data_PCOD9390102
_publ_section_title
;
Structure prediction by ZEFSAII (Michael W. Deem and Ramdas Pophale) SiO2 
 PCOD9390102
Probable space group: P N N N
;
_chemical_formula_sum "Si O2"
_cell_formula_units_Z 32
_cell_length_a 13.317512
_cell_length_b 9.183909
_cell_length_c 13.608190
_cell_angle_alpha 90.000000
_cell_angle_beta 90.000000
_cell_angle_gamma 90.000000
_cell_volume 1664.374422
_symmetry_space_group_name_H-M "P N N N"
_symmetry_group_IT_number 48
_space_group.IT_coordinate_system_code '2'
_symmetry_cell_setting 'orthorhombic'
loop_
_space_group_symop_operation_xyz
x,y,z
1/2-x,1/2-y,z
x,1/2-y,1/2-z
1/2-x,y,1/2-z
-x,-y,-z
1/2+x,1/2+y,-z
-x,1/2+y,1/2+z
1/2+x,-y,1/2+z
loop_
_atom_site_type_symbol
_atom_site_label
_atom_site_fract_x
_atom_site_fract_y
_atom_site_fract_z
Si Si1 0.437208 0.932886 0.161868
Si Si2 0.159908 0.405008 0.808150
Si Si3 0.151752 0.646687 0.369340
Si Si4 0.223489 0.408227 0.033599
O O1 0.550586 0.975830 0.185351
O O2 0.377669 0.923732 0.265269
O O3 0.434911 0.768202 0.115238
O O4 0.374892 0.032353 0.088740
O O5 0.146334 0.250000 0.750000
O O6 0.250000 0.483030 0.750000
O O7 0.198100 0.392124 0.919284
O O8 0.250000 0.750000 0.363075
O O9 0.185713 0.521828 0.444537
O O10 0.250000 0.250000 0.073802
#
# Coordination Sequence:
#
# PCOD9390102 Si02
#       4
#     8   8   8   8
#     4  10  19  38  63  86 115 161 198 239 297 357
#     4  11  21  39  60  83 120 165 206 233 289 361
#     4   9  18  34  59  85 118 154 195 245 300 351
#     4  11  21  34  59  95 117 149 200 254 291 347
#
# _framework density 19.226443
#
# number of rings (size 3 to 8) (size 9 to 14) (size 15 to 20)
#    0.000    1.750    5.000    6.000    0.000    2.000 
#    0.000    5.000    0.000   15.750    0.000    0.000 
#    0.000    0.000    0.000    0.000    0.000    0.000 
#
# Total GULP energy -178157.184156 kJ/mol
# GULP energy per Si atom -5567.412005 kJ/mol
# Density = 1.918268 g / cm^3
# Si number density = 19.226443 Si / 1000 Ang^3
#
#
#
# Elastic Constant Matrix: (Units=GPa)
#
#
# Indices 1 2 3 4 5 6 
#
# 1 111.0346 30.7934 37.4862 0.0000 0.0000 0.0000
# 2 30.7934 75.8813 51.7656 0.0000 0.0000 0.0000
# 3 37.4862 51.7656 108.7404 0.0000 0.0000 0.0000
# 4 0.0000 0.0000 0.0000 16.7134 0.0000 0.0000
# 5 0.0000 0.0000 0.0000 0.0000 16.4358 0.0000
# 6 0.0000 0.0000 0.0000 0.0000 0.0000 6.9171
#
#
#
# Elastic Compliance Matrix: (Units=1/GPa)
#
#
# Indices 1 2 3 4 5 6 
#
# 1 0.010544 -0.002665 -0.002366 0.000000 0.000000 0.000000
# 2 -0.002665 0.020190 -0.008693 0.000000 0.000000 0.000000
# 3 -0.002366 -0.008693 0.014150 0.000000 0.000000 0.000000
# 4 0.000000 0.000000 0.000000 0.059832 0.000000 0.000000
# 5 0.000000 0.000000 0.000000 0.000000 0.060843 0.000000
# 6 0.000000 0.000000 0.000000 0.000000 0.000000 0.144570
#
#
# Mechanical properties :
#
#
# Convention : Reuss Voigt Hill
#
# Bulk Modulus (GPa) = 57.35048 59.52740 58.43894
# Shear Modulus (GPa) = 14.56074 19.72067 17.14070
#
# Velocity S-wave (km/s) = 2.75495 3.20614 2.98907
# Velocity P-wave (km/s) = 6.32561 6.68836 6.50951
#
# Compressibility (1/GPa) = 0.01743665
#
# Stress axis : x y z
#
# Youngs Moduli (GPa) = 94.83994 49.52963 70.67049
#
# Poissons Ratio (x) = 0.13197 0.16724
# Poissons Ratio (y) = 0.25271 0.61433
# Poissons Ratio (z) = 0.22443 0.43055
#
# Static dielectric constant tensor:
#      x y z
#    x 1.747600 0.000000 0.000000 
#    y 0.000000 1.709170 0.000000 
#    z 0.000000 0.000000 1.661780 
# 
# From -- ./inp_files/20765.got.cif
#   From: 2010.05.17/outbox.cif.g08.bks.cpg/sg48_11_cif.got.tgz:20765.got - 2010.06.03 20:39:00.
