data_PCOD9390983
_publ_section_title
;
Structure prediction by ZEFSAII (Michael W. Deem and Ramdas Pophale) SiO2 
 PCOD9390983
Probable space group: P N N N
;
_chemical_formula_sum "Si O2"
_cell_formula_units_Z 52
_cell_length_a 15.053327
_cell_length_b 17.617056
_cell_length_c 10.962345
_cell_angle_alpha 90.000000
_cell_angle_beta 90.000000
_cell_angle_gamma 90.000000
_cell_volume 2907.162423
_symmetry_space_group_name_H-M "P N N N"
_symmetry_group_IT_number 48
_space_group.IT_coordinate_system_code '2'
_symmetry_cell_setting 'orthorhombic'
loop_
_space_group_symop_operation_xyz
x,y,z
1/2-x,1/2-y,z
x,1/2-y,1/2-z
1/2-x,y,1/2-z
-x,-y,-z
1/2+x,1/2+y,-z
-x,1/2+y,1/2+z
1/2+x,-y,1/2+z
loop_
_atom_site_type_symbol
_atom_site_label
_atom_site_fract_x
_atom_site_fract_y
_atom_site_fract_z
Si Si1 0.750000 0.250000 0.250000
Si Si2 0.379797 0.217984 0.527902
Si Si3 0.250000 0.250000 0.750000
Si Si4 0.959881 0.674877 0.837107
Si Si5 0.146697 0.655361 0.948693
Si Si6 0.287412 0.574555 0.112585
Si Si7 0.665708 0.907741 0.662341
Si Si8 0.578779 0.213330 0.617282
O O1 0.805563 0.305881 0.165062
O O2 0.320899 0.218446 0.649887
O O3 0.393348 0.293747 0.443349
O O4 0.337339 0.155760 0.440431
O O5 0.481720 0.199555 0.561536
O O6 0.978844 0.750000 0.750000
O O7 0.916756 0.611836 0.750408
O O8 0.046940 0.639809 0.901115
O O9 0.209106 0.593385 0.015157
O O10 0.132374 0.722619 0.044908
O O11 0.250000 0.579650 0.250000
O O12 0.328403 0.490684 0.103005
O O13 0.363285 0.637951 0.106585
O O14 0.750000 0.899108 0.750000
O O15 0.567263 0.250000 0.750000
#
# Coordination Sequence:
#
# PCOD9390983 Si02
#       8
#     2   8   2   8   8   8   8   8
#     4  12  20  32  56  96 122 144 188 252 292 352
#     4  10  22  36  61  86 114 151 207 252 299 344
#     4  12  20  36  56  84 110 148 198 262 292 344
#     4   9  19  38  62  86 113 153 206 257 295 349
#     4  11  21  34  61  91 120 151 198 247 297 355
#     4  11  22  37  60  88 123 161 194 238 305 368
#     4  10  22  41  59  85 118 162 205 243 301 361
#     4  11  20  37  61  90 116 153 197 249 300 356
#
# _framework density 17.886856000000002
#
# number of rings (size 3 to 8) (size 9 to 14) (size 15 to 20)
#    0.000    1.538    4.615    0.923    0.000    2.769 
#    0.000    5.385    0.000    0.000    0.000    0.000 
#    0.000    0.000    0.000    0.000    0.000    0.000 
#
# Total GULP energy -289626.974925 kJ/mol
# GULP energy per Si atom -5569.749518 kJ/mol
# Density = 1.784615 g / cm^3
# Si number density = 17.886856 Si / 1000 Ang^3
#
#
#
# Elastic Constant Matrix: (Units=GPa)
#
#
# Indices 1 2 3 4 5 6 
#
# 1 74.5576 57.8424 22.8794 0.0000 0.0000 0.0000
# 2 57.8424 89.8831 39.3466 0.0000 0.0000 0.0000
# 3 22.8794 39.3466 98.3290 0.0000 0.0000 0.0000
# 4 0.0000 0.0000 0.0000 21.0663 0.0000 0.0000
# 5 0.0000 0.0000 0.0000 0.0000 43.0840 0.0000
# 6 0.0000 0.0000 0.0000 0.0000 0.0000 27.0439
#
#
#
# Elastic Compliance Matrix: (Units=1/GPa)
#
#
# Indices 1 2 3 4 5 6 
#
# 1 0.026838 -0.017625 0.000808 0.000000 0.000000 0.000000
# 2 -0.017625 0.025062 -0.005928 0.000000 0.000000 0.000000
# 3 0.000808 -0.005928 0.012354 0.000000 0.000000 0.000000
# 4 0.000000 0.000000 0.000000 0.047469 0.000000 0.000000
# 5 0.000000 0.000000 0.000000 0.000000 0.023210 0.000000
# 6 0.000000 0.000000 0.000000 0.000000 0.000000 0.036977
#
#
# Mechanical properties :
#
#
# Convention : Reuss Voigt Hill
#
# Bulk Modulus (GPa) = 53.29046 55.87848 54.58447
# Shear Modulus (GPa) = 22.35585 27.75226 25.05406
#
# Velocity S-wave (km/s) = 3.53915 3.94324 3.74665
# Velocity P-wave (km/s) = 6.82338 7.21387 7.02134
#
# Compressibility (1/GPa) = 0.01876508
#
# Stress axis : x y z
#
# Youngs Moduli (GPa) = 37.26085 39.90038 80.94526
#
# Poissons Ratio (x) = 0.70323 -0.06539
# Poissons Ratio (y) = 0.65671 0.47983
# Poissons Ratio (z) = -0.03010 0.23652
#
# Static dielectric constant tensor:
#      x y z
#    x 1.624300 0.000000 0.000000 
#    y 0.000000 1.595530 0.000000 
#    z 0.000000 0.000000 1.627630 
# 
# From -- ./inp_files/21513.got.cif
#   From: 2010.05.17/outbox.cif.g08.bks.cpg/sg48_11_cif.got.tgz:21513.got - 2010.06.03 20:39:00.
