data_PCOD9390930
_publ_section_title
;
Structure prediction by ZEFSAII (Michael W. Deem and Ramdas Pophale) SiO2 
 PCOD9390930
Probable space group: P N N N
;
_chemical_formula_sum "Si O2"
_cell_formula_units_Z 32
_cell_length_a 16.307162
_cell_length_b 10.319040
_cell_length_c 7.756172
_cell_angle_alpha 90.000000
_cell_angle_beta 90.000000
_cell_angle_gamma 90.000000
_cell_volume 1305.164080
_symmetry_space_group_name_H-M "P N N N"
_symmetry_group_IT_number 48
_space_group.IT_coordinate_system_code '2'
_symmetry_cell_setting 'orthorhombic'
loop_
_space_group_symop_operation_xyz
x,y,z
1/2-x,1/2-y,z
x,1/2-y,1/2-z
1/2-x,y,1/2-z
-x,-y,-z
1/2+x,1/2+y,-z
-x,1/2+y,1/2+z
1/2+x,-y,1/2+z
loop_
_atom_site_type_symbol
_atom_site_label
_atom_site_fract_x
_atom_site_fract_y
_atom_site_fract_z
Si Si1 0.250000 0.250000 0.750000
Si Si2 0.390464 0.567548 0.828534
Si Si3 0.250000 0.750000 0.750000
Si Si4 0.021795 0.750000 0.250000
Si Si5 0.421089 0.035973 0.340035
Si Si6 0.384123 0.110958 0.969103
O O1 0.305821 0.167518 0.876433
O O2 0.314969 0.663315 0.855336
O O3 0.487254 0.595593 0.851637
O O4 0.390117 0.527165 0.628171
O O5 0.379538 0.454638 0.972616
O O6 0.962211 0.691698 0.101330
O O7 0.070802 0.620701 0.306868
O O8 0.380463 0.097365 0.172820
#
# Coordination Sequence:
#
# PCOD9390930 Si02
#       6
#     2   8   2   4   8   8
#     4  10  22  44  70  94 142 188 238 294 382 394
#     4  10  23  42  63 100 137 178 229 294 348 436
#     4  12  26  40  70  98 152 184 226 308 390 402
#     4   9  18  35  68  99 123 176 222 287 340 401
#     4  10  22  41  70  99 134 181 247 279 344 441
#     4  10  21  42  66  97 138 179 230 297 343 425
#
# _framework density 24.517990000000001
#
# number of rings (size 3 to 8) (size 9 to 14) (size 15 to 20)
#    0.000    2.000    0.000    3.750    7.000    0.000 
#    0.000    7.500    0.000    6.000    0.000    0.000 
#    0.000    0.000    0.000    0.000    0.000    0.000 
#
# Total GULP energy -178641.902575 kJ/mol
# GULP energy per Si atom -5582.559455 kJ/mol
# Density = 2.446219 g / cm^3
# Si number density = 24.517990 Si / 1000 Ang^3
#
#
#
# Elastic Constant Matrix: (Units=GPa)
#
#
# Indices 1 2 3 4 5 6 
#
# 1 107.8874 38.5039 40.0780 0.0000 0.0000 0.0000
# 2 38.5039 79.8985 12.4799 0.0000 0.0000 0.0000
# 3 40.0780 12.4799 176.8267 0.0000 0.0000 0.0000
# 4 0.0000 0.0000 0.0000 38.3575 0.0000 0.0000
# 5 0.0000 0.0000 0.0000 0.0000 18.5353 0.0000
# 6 0.0000 0.0000 0.0000 0.0000 0.0000 49.6410
#
#
#
# Elastic Compliance Matrix: (Units=1/GPa)
#
#
# Indices 1 2 3 4 5 6 
#
# 1 0.012092 -0.005460 -0.002355 0.000000 0.000000 0.000000
# 2 -0.005460 0.015120 0.000170 0.000000 0.000000 0.000000
# 3 -0.002355 0.000170 0.006177 0.000000 0.000000 0.000000
# 4 0.000000 0.000000 0.000000 0.026070 0.000000 0.000000
# 5 0.000000 0.000000 0.000000 0.000000 0.053951 0.000000
# 6 0.000000 0.000000 0.000000 0.000000 0.000000 0.020145
#
#
# Mechanical properties :
#
#
# Convention : Reuss Voigt Hill
#
# Bulk Modulus (GPa) = 55.24750 60.74845 57.99798
# Shear Modulus (GPa) = 32.28333 39.54350 35.91341
#
# Velocity S-wave (km/s) = 3.63260 4.02037 3.83139
# Velocity P-wave (km/s) = 6.33851 6.81044 6.57871
#
# Compressibility (1/GPa) = 0.01810037
#
# Stress axis : x y z
#
# Youngs Moduli (GPa) = 82.69682 66.13640 161.88819
#
# Poissons Ratio (x) = 0.36107 0.38132
# Poissons Ratio (y) = 0.45148 -0.02756
# Poissons Ratio (z) = 0.19479 -0.01126
#
# Static dielectric constant tensor:
#      x y z
#    x 1.967140 0.000000 0.000000 
#    y 0.000000 2.133420 0.000000 
#    z 0.000000 0.000000 1.980740 
# 
# From -- ./inp_files/13762.got.cif
#   From: 2010.05.17/outbox.cif.g08.bks.cpg/sg48_7_cif.got.tgz:13762.got - 2010.06.03 20:39:00.
