data_PCOD9390900
_publ_section_title
;
Structure prediction by ZEFSAII (Michael W. Deem and Ramdas Pophale) SiO2 
 PCOD9390900
Probable space group: P N N N
;
_chemical_formula_sum "Si O2"
_cell_formula_units_Z 56
_cell_length_a 15.259597
_cell_length_b 19.145156
_cell_length_c 9.390887
_cell_angle_alpha 90.000000
_cell_angle_beta 90.000000
_cell_angle_gamma 90.000000
_cell_volume 2743.522893
_symmetry_space_group_name_H-M "P N N N"
_symmetry_group_IT_number 48
_space_group.IT_coordinate_system_code '2'
_symmetry_cell_setting 'orthorhombic'
loop_
_space_group_symop_operation_xyz
x,y,z
1/2-x,1/2-y,z
x,1/2-y,1/2-z
1/2-x,y,1/2-z
-x,-y,-z
1/2+x,1/2+y,-z
-x,1/2+y,1/2+z
1/2+x,-y,1/2+z
loop_
_atom_site_type_symbol
_atom_site_label
_atom_site_fract_x
_atom_site_fract_y
_atom_site_fract_z
Si Si1 0.370083 0.689403 0.852356
Si Si2 0.987862 0.239825 0.916183
Si Si3 0.434564 0.016410 0.288183
Si Si4 0.076090 0.091853 0.903016
Si Si5 0.477955 0.866096 0.883713
Si Si6 0.720231 0.088309 0.058014
Si Si7 0.750000 0.053002 0.750000
Si Si8 0.250000 0.041627 0.750000
O O1 0.336859 0.750000 0.750000
O O2 0.459395 0.667497 0.771900
O O3 0.301341 0.627745 0.866191
O O4 0.398490 0.718018 0.004016
O O5 0.973110 0.250000 0.750000
O O6 0.051747 0.172853 0.922895
O O7 0.015746 0.189854 0.496535
O O8 0.424647 0.056155 0.440310
O O9 0.469715 0.064832 0.159454
O O10 0.501041 0.951715 0.316874
O O11 0.338487 0.991077 0.249649
O O12 0.167243 0.082144 0.817196
O O13 0.378192 0.883336 0.929488
O O14 0.719780 0.010565 0.122928
O O15 0.747347 0.094645 0.895064
#
# Coordination Sequence:
#
# PCOD9390900 Si02
#       8
#     8   8   8   8   8   8   4   4
#     4  10  21  41  66  95 139 185 228 267 343 445
#     4  11  26  42  66 103 141 187 232 296 365 432
#     4  11  23  44  72 104 135 187 227 306 351 426
#     4  11  23  45  74 100 142 183 242 287 363 424
#     4  11  23  42  72  97 136 193 239 278 357 445
#     4  12  23  41  64 107 140 177 232 296 358 430
#     4  12  28  38  68 108 146 164 228 308 370 398
#     4  12  22  44  76 104 128 188 244 296 346 442
#
# _framework density 20.411712000000001
#
# number of rings (size 3 to 8) (size 9 to 14) (size 15 to 20)
#    0.000    0.857    5.714    0.857    4.000    5.714 
#    0.000    1.071    0.000    0.857    0.000    0.000 
#    0.000    0.000    0.000    0.000    0.000    0.000 
#
# Total GULP energy -312514.429881 kJ/mol
# GULP energy per Si atom -5580.614819 kJ/mol
# Density = 2.036525 g / cm^3
# Si number density = 20.411712 Si / 1000 Ang^3
#
#
#
# Elastic Constant Matrix: (Units=GPa)
#
#
# Indices 1 2 3 4 5 6 
#
# 1 110.8120 54.5717 32.1547 0.0000 0.0000 0.0000
# 2 54.5717 82.6147 38.2524 0.0000 0.0000 0.0000
# 3 32.1547 38.2524 124.2555 0.0000 0.0000 0.0000
# 4 0.0000 0.0000 0.0000 30.1346 0.0000 0.0000
# 5 0.0000 0.0000 0.0000 0.0000 20.9994 0.0000
# 6 0.0000 0.0000 0.0000 0.0000 0.0000 35.7457
#
#
#
# Elastic Compliance Matrix: (Units=1/GPa)
#
#
# Indices 1 2 3 4 5 6 
#
# 1 0.013455 -0.008485 -0.000870 0.000000 0.000000 0.000000
# 2 -0.008485 0.019468 -0.003797 0.000000 0.000000 0.000000
# 3 -0.000870 -0.003797 0.009442 0.000000 0.000000 0.000000
# 4 0.000000 0.000000 0.000000 0.033184 0.000000 0.000000
# 5 0.000000 0.000000 0.000000 0.000000 0.047620 0.000000
# 6 0.000000 0.000000 0.000000 0.000000 0.000000 0.027975
#
#
# Mechanical properties :
#
#
# Convention : Reuss Voigt Hill
#
# Bulk Modulus (GPa) = 62.26552 63.07109 62.66830
# Shear Modulus (GPa) = 27.35171 30.22282 28.78726
#
# Velocity S-wave (km/s) = 3.66457 3.85211 3.75951
# Velocity P-wave (km/s) = 6.96251 7.12401 7.04372
#
# Compressibility (1/GPa) = 0.01606025
#
# Stress axis : x y z
#
# Youngs Moduli (GPa) = 74.31917 51.36709 105.90946
#
# Poissons Ratio (x) = 0.43587 0.09211
# Poissons Ratio (y) = 0.63063 0.40218
# Poissons Ratio (z) = 0.06464 0.19506
#
# Static dielectric constant tensor:
#      x y z
#    x 1.713900 0.000000 0.000000 
#    y 0.000000 1.817690 0.000000 
#    z 0.000000 0.000000 1.800420 
# 
# From -- ./inp_files/13136.got.cif
#   From: 2010.05.17/outbox.cif.g08.bks.cpg/sg48_7_cif.got.tgz:13136.got - 2010.06.03 20:39:00.
