data_PCOD9390198
_publ_section_title
;
Structure prediction by ZEFSAII (Michael W. Deem and Ramdas Pophale) SiO2 
 PCOD9390198
Probable space group: P N N N
;
_chemical_formula_sum "Si O2"
_cell_formula_units_Z 34
_cell_length_a 16.287275
_cell_length_b 5.596382
_cell_length_c 13.611062
_cell_angle_alpha 90.000000
_cell_angle_beta 90.000000
_cell_angle_gamma 90.000000
_cell_volume 1240.645751
_symmetry_space_group_name_H-M "P N N N"
_symmetry_group_IT_number 48
_space_group.IT_coordinate_system_code '2'
_symmetry_cell_setting 'orthorhombic'
loop_
_space_group_symop_operation_xyz
x,y,z
1/2-x,1/2-y,z
x,1/2-y,1/2-z
1/2-x,y,1/2-z
-x,-y,-z
1/2+x,1/2+y,-z
-x,1/2+y,1/2+z
1/2+x,-y,1/2+z
loop_
_atom_site_type_symbol
_atom_site_label
_atom_site_fract_x
_atom_site_fract_y
_atom_site_fract_z
Si Si1 0.250000 0.250000 0.250000
Si Si2 0.344715 0.813163 0.887830
Si Si3 0.066831 0.594728 0.078713
Si Si4 0.348299 0.188986 0.606934
Si Si5 0.890489 0.602335 0.622683
O O1 0.193632 0.416271 0.318005
O O2 0.250000 0.750000 0.867135
O O3 0.381507 0.562768 0.854144
O O4 0.379924 0.062495 0.849272
O O5 0.355665 0.851976 0.005431
O O6 0.076093 0.368834 0.150097
O O7 0.056908 0.858486 0.124776
O O8 0.000000 0.500000 0.000000
O O9 0.250000 0.250000 0.615512
O O10 0.368650 0.153590 0.492050
#
# Coordination Sequence:
#
# PCOD9390198 Si02
#       5
#     2   8   8   8   8
#     4  12  24  38  56  90 120 158 206 268 324 390
#     4   8  14  22  40  58  82 112 163 215 270 320
#     4  10  20  34  50  70 100 148 200 243 296 366
#     4   8  12  23  35  56  80 115 151 203 260 317
#     4  10  21  32  51  72 107 142 192 249 302 365
#
# _framework density 27.405083999999999
#
# number of rings (size 3 to 8) (size 9 to 14) (size 15 to 20)
#    0.000    2.824    1.176    0.706    3.294    1.882 
#    0.000    0.000    0.000    0.000    0.000    0.000 
#    0.000    0.000    0.000    1.059    5.176    1.529 
#
# Total GULP energy -189326.085066 kJ/mol
# GULP energy per Si atom -5568.414267 kJ/mol
# Density = 2.734271 g / cm^3
# Si number density = 27.405084 Si / 1000 Ang^3
#
#
#
# Elastic Constant Matrix: (Units=GPa)
#
#
# Indices 1 2 3 4 5 6 
#
# 1 87.0533 51.9558 22.7424 0.0000 0.0000 0.0000
# 2 51.9558 425.1800 37.9082 0.0000 0.0000 0.0000
# 3 22.7424 37.9082 87.1252 0.0000 0.0000 0.0000
# 4 0.0000 0.0000 0.0000 0.2799 0.0000 0.0000
# 5 0.0000 0.0000 0.0000 0.0000-4984.9749 0.0000
# 6 0.0000 0.0000 0.0000 0.0000 0.0000 24.8641
#
#
#
# Elastic Compliance Matrix: (Units=1/GPa)
#
#
# Indices 1 2 3 4 5 6 
#
# 1 0.013023 -0.001340 -0.002816 0.000000 0.000000 0.000000
# 2 -0.001340 0.002585 -0.000775 0.000000 0.000000 0.000000
# 3 -0.002816 -0.000775 0.012550 0.000000 0.000000 0.000000
# 4 0.000000 0.000000 0.000000 3.573005 0.000000 0.000000
# 5 0.000000 0.000000 0.000000 0.000000 -0.000201 0.000000
# 6 0.000000 0.000000 0.000000 0.000000 0.000000 0.040219
#
#
# Mechanical properties :
#
#
# Convention : Reuss Voigt Hill
#
# Bulk Modulus (GPa) = 54.65959 91.61904 73.13931
# Shear Modulus (GPa) = 1.36719 -959.51604 -479.07443
#
# Velocity S-wave (km/s) = 0.70708 -18.73188 -13.23600
# Velocity P-wave (km/s) = 4.54477 20.84084 14.38203
#
# Compressibility (1/GPa) = 0.01829505
#
# Stress axis : x y z
#
# Youngs Moduli (GPa) = 76.78806 386.87696 79.68145
#
# Poissons Ratio (x) = 0.51852 0.22440
# Poissons Ratio (y) = 0.10292 0.06174
# Poissons Ratio (z) = 0.21625 0.29975
#
# Static dielectric constant tensor:
#      x y z
#    x 0.869500 0.000000 0.000000 
#    y 0.000000 2.406400 0.000000 
#    z 0.000000 0.000000 2.272410 
# 
# From -- ./inp_files/28181.got.cif
#   From: 2010.05.17/outbox.cif.g08.bks.cpg/sg48_15_cif.got.tgz:28181.got - 2010.06.03 20:39:00.
