data_PCOD9390993
_publ_section_title
;
Structure prediction by ZEFSAII (Michael W. Deem and Ramdas Pophale) SiO2 
 PCOD9390993
Probable space group: P N N N
;
_chemical_formula_sum "Si O2"
_cell_formula_units_Z 40
_cell_length_a 20.577306
_cell_length_b 8.425226
_cell_length_c 12.211968
_cell_angle_alpha 90.000000
_cell_angle_beta 90.000000
_cell_angle_gamma 90.000000
_cell_volume 2117.170007
_symmetry_space_group_name_H-M "P N N N"
_symmetry_group_IT_number 48
_space_group.IT_coordinate_system_code '2'
_symmetry_cell_setting 'orthorhombic'
loop_
_space_group_symop_operation_xyz
x,y,z
1/2-x,1/2-y,z
x,1/2-y,1/2-z
1/2-x,y,1/2-z
-x,-y,-z
1/2+x,1/2+y,-z
-x,1/2+y,1/2+z
1/2+x,-y,1/2+z
loop_
_atom_site_type_symbol
_atom_site_label
_atom_site_fract_x
_atom_site_fract_y
_atom_site_fract_z
Si Si1 0.483972 0.055365 0.847746
Si Si2 0.478506 0.922008 0.385316
Si Si3 0.646498 0.634226 0.860515
Si Si4 0.735169 0.421584 0.620550
Si Si5 0.104426 0.430268 0.035843
O O1 0.477087 0.033335 0.718889
O O2 0.513500 0.230123 0.881289
O O3 0.539830 0.940416 0.890931
O O4 0.418783 0.025525 0.915190
O O5 0.500000 0.000000 0.500000
O O6 0.406987 0.992494 0.352616
O O7 0.651457 0.750000 0.750000
O O8 0.713995 0.560973 0.901399
O O9 0.624293 0.748991 0.956785
O O10 0.750000 0.250000 0.570670
O O11 0.750000 0.407579 0.750000
O O12 0.662646 0.469229 0.587910
#
# Coordination Sequence:
#
# PCOD9390993 Si02
#       5
#     8   8   8   8   8
#     4  10  22  37  57  86 124 157 198 252 308 375
#     4  11  21  37  58  86 120 155 202 250 311 372
#     4  12  21  35  57  89 120 158 205 250 311 377
#     4  11  22  35  55  84 122 161 199 255 314 369
#     4  11  21  36  56  86 123 154 197 248 308 373
#
# _framework density 18.893143999999999
#
# number of rings (size 3 to 8) (size 9 to 14) (size 15 to 20)
#    0.000    1.000    6.000    1.800    0.000    3.200 
#    0.000    0.000    0.000    1.200    0.000    1.400 
#    0.000    0.000    0.000    0.000    0.000    0.000 
#
# Total GULP energy -222760.884423 kJ/mol
# GULP energy per Si atom -5569.022111 kJ/mol
# Density = 1.885014 g / cm^3
# Si number density = 18.893144 Si / 1000 Ang^3
#
#
#
# Elastic Constant Matrix: (Units=GPa)
#
#
# Indices 1 2 3 4 5 6 
#
# 1 107.2893 34.5608 40.3746 0.0000 0.0000 0.0000
# 2 34.5608 69.3767 14.4082 0.0000 0.0000 0.0000
# 3 40.3746 14.4082 113.6120 0.0000 0.0000 0.0000
# 4 0.0000 0.0000 0.0000 20.0117 0.0000 0.0000
# 5 0.0000 0.0000 0.0000 0.0000 32.6609 0.0000
# 6 0.0000 0.0000 0.0000 0.0000 0.0000 63.4737
#
#
#
# Elastic Compliance Matrix: (Units=1/GPa)
#
#
# Indices 1 2 3 4 5 6 
#
# 1 0.012483 -0.005440 -0.003746 0.000000 0.000000 0.000000
# 2 -0.005440 0.017175 -0.000245 0.000000 0.000000 0.000000
# 3 -0.003746 -0.000245 0.010164 0.000000 0.000000 0.000000
# 4 0.000000 0.000000 0.000000 0.049971 0.000000 0.000000
# 5 0.000000 0.000000 0.000000 0.000000 0.030618 0.000000
# 6 0.000000 0.000000 0.000000 0.000000 0.000000 0.015755
#
#
# Mechanical properties :
#
#
# Convention : Reuss Voigt Hill
#
# Bulk Modulus (GPa) = 47.71103 52.10723 49.90913
# Shear Modulus (GPa) = 30.86146 36.62488 33.74317
#
# Velocity S-wave (km/s) = 4.04601 4.40765 4.23069
# Velocity P-wave (km/s) = 6.86548 7.31731 7.09499
#
# Compressibility (1/GPa) = 0.02095951
#
# Stress axis : x y z
#
# Youngs Moduli (GPa) = 80.11004 58.22378 98.38470
#
# Poissons Ratio (x) = 0.31676 0.36856
# Poissons Ratio (y) = 0.43584 0.02408
# Poissons Ratio (z) = 0.30010 0.01425
#
# Static dielectric constant tensor:
#      x y z
#    x 1.682320 0.000000 0.000000 
#    y 0.000000 1.753610 0.000000 
#    z 0.000000 0.000000 1.657370 
# 
# From -- ./inp_files/27740.got.cif
#   From: 2010.05.17/outbox.cif.g08.bks.cpg/sg48_14_cif.got.tgz:27740.got - 2010.06.03 20:39:00.
