data_PCOD9390223
_publ_section_title
;
Structure prediction by ZEFSAII (Michael W. Deem and Ramdas Pophale) SiO2 
 PCOD9390223
Probable space group: P N N N
;
_chemical_formula_sum "Si O2"
_cell_formula_units_Z 44
_cell_length_a 12.824309
_cell_length_b 19.370245
_cell_length_c 7.643361
_cell_angle_alpha 90.000000
_cell_angle_beta 90.000000
_cell_angle_gamma 90.000000
_cell_volume 1898.687362
_symmetry_space_group_name_H-M "P N N N"
_symmetry_group_IT_number 48
_space_group.IT_coordinate_system_code '2'
_symmetry_cell_setting 'orthorhombic'
loop_
_space_group_symop_operation_xyz
x,y,z
1/2-x,1/2-y,z
x,1/2-y,1/2-z
1/2-x,y,1/2-z
-x,-y,-z
1/2+x,1/2+y,-z
-x,1/2+y,1/2+z
1/2+x,-y,1/2+z
loop_
_atom_site_type_symbol
_atom_site_label
_atom_site_fract_x
_atom_site_fract_y
_atom_site_fract_z
Si Si1 0.750000 0.045411 0.250000
Si Si2 0.414713 0.718218 0.059078
Si Si3 0.062422 0.577769 0.303497
Si Si4 0.075696 0.860458 0.585084
Si Si5 0.891355 0.681842 0.661202
Si Si6 0.350557 0.048210 0.474994
O O1 0.846223 0.092797 0.305301
O O2 0.727856 0.994830 0.410078
O O3 0.407172 0.750000 0.250000
O O4 0.377749 0.638787 0.085380
O O5 0.377202 0.782548 0.940641
O O6 0.533452 0.707887 0.995785
O O7 0.118402 0.504263 0.320057
O O8 0.952357 0.563696 0.401894
O O9 0.054522 0.605933 0.105775
O O10 0.971506 0.852583 0.699949
O O11 0.851070 0.750000 0.750000
O O12 0.816473 0.622979 0.589983
#
# Coordination Sequence:
#
# PCOD9390223 Si02
#       6
#     4   8   8   8   8   8
#     4  12  24  34  49  86 129 158 184 240 310 352
#     4   8  15  31  55  81 108 142 191 235 269 322
#     4   9  18  37  60  81 108 153 203 238 272 340
#     4  10  20  34  56  85 116 152 193 234 291 349
#     4   9  18  36  60  84 105 143 200 244 280 343
#     4  10  21  36  55  83 115 145 193 244 289 351
#
# _framework density 23.173905999999999
#
# number of rings (size 3 to 8) (size 9 to 14) (size 15 to 20)
#    0.000    2.545    0.000    3.273    0.000    3.636 
#    0.000   11.364    0.000   13.091    0.000  142.545 
#    0.000    0.000    0.000    0.000    0.000    0.000 
#
# Total GULP energy -245507.840526 kJ/mol
# GULP energy per Si atom -5579.723648 kJ/mol
# Density = 2.312116 g / cm^3
# Si number density = 23.173906 Si / 1000 Ang^3
#
#
#
# Elastic Constant Matrix: (Units=GPa)
#
#
# Indices 1 2 3 4 5 6 
#
# 1 41.0442 36.4985 14.4492 0.0000 0.0000 0.0000
# 2 36.4985 169.5725 26.0394 0.0000 0.0000 0.0000
# 3 14.4492 26.0394 60.9043 0.0000 0.0000 0.0000
# 4 0.0000 0.0000 0.0000 46.0211 0.0000 0.0000
# 5 0.0000 0.0000 0.0000 0.0000 7.0607 0.0000
# 6 0.0000 0.0000 0.0000 0.0000 0.0000 -13.1659
#
#
#
# Elastic Compliance Matrix: (Units=1/GPa)
#
#
# Indices 1 2 3 4 5 6 
#
# 1 0.031433 -0.006015 -0.004885 0.000000 0.000000 0.000000
# 2 -0.006015 0.007463 -0.001764 0.000000 0.000000 0.000000
# 3 -0.004885 -0.001764 0.018332 0.000000 0.000000 0.000000
# 4 0.000000 0.000000 0.000000 0.021729 0.000000 0.000000
# 5 0.000000 0.000000 0.000000 0.000000 0.141629 0.000000
# 6 0.000000 0.000000 0.000000 0.000000 0.000000 -0.075954
#
#
# Mechanical properties :
#
#
# Convention : Reuss Voigt Hill
#
# Bulk Modulus (GPa) = 31.34872 47.27724 39.31298
# Shear Modulus (GPa) = 27.68636 20.95210 24.31923
#
# Velocity S-wave (km/s) = 3.46022 3.01013 3.24299
# Velocity P-wave (km/s) = 5.43334 5.70320 5.56991
#
# Compressibility (1/GPa) = 0.03189923
#
# Stress axis : x y z
#
# Youngs Moduli (GPa) = 31.81364 133.99923 54.54872
#
# Poissons Ratio (x) = 0.80606 0.26650
# Poissons Ratio (y) = 0.19137 0.09620
# Poissons Ratio (z) = 0.15542 0.23631
#
# Static dielectric constant tensor:
#      x y z
#    x 1.839190 0.000000 0.000000 
#    y 0.000000 1.900560 0.000000 
#    z 0.000000 0.000000 1.879110 
# 
# From -- ./inp_files/12640.got.cif
#   From: 2010.05.17/outbox.cif.g08.bks.cpg/sg48_7_cif.got.tgz:12640.got - 2010.06.03 20:39:00.
