data_PCOD9390246
_publ_section_title
;
Structure prediction by ZEFSAII (Michael W. Deem and Ramdas Pophale) SiO2 
 PCOD9390246
Probable space group: P N N N
;
_chemical_formula_sum "Si O2"
_cell_formula_units_Z 64
_cell_length_a 8.657782
_cell_length_b 18.726031
_cell_length_c 21.718719
_cell_angle_alpha 90.000000
_cell_angle_beta 90.000000
_cell_angle_gamma 90.000000
_cell_volume 3521.166737
_symmetry_space_group_name_H-M "P N N N"
_symmetry_group_IT_number 48
_space_group.IT_coordinate_system_code '2'
_symmetry_cell_setting 'orthorhombic'
loop_
_space_group_symop_operation_xyz
x,y,z
1/2-x,1/2-y,z
x,1/2-y,1/2-z
1/2-x,y,1/2-z
-x,-y,-z
1/2+x,1/2+y,-z
-x,1/2+y,1/2+z
1/2+x,-y,1/2+z
loop_
_atom_site_type_symbol
_atom_site_label
_atom_site_fract_x
_atom_site_fract_y
_atom_site_fract_z
Si Si1 0.781334 0.959221 0.875582
Si Si2 0.325200 0.967906 0.003247
Si Si3 0.269921 0.668867 0.157244
Si Si4 0.177573 0.824592 0.010855
Si Si5 0.680415 0.829264 0.530558
Si Si6 0.977330 0.047726 0.673811
Si Si7 0.251385 0.077652 0.915808
Si Si8 0.015464 0.058122 0.809963
O O1 0.789527 0.883597 0.911617
O O2 0.635617 0.978819 0.831863
O O3 0.930758 0.988488 0.839401
O O4 0.745898 0.014808 0.930552
O O5 0.211596 0.009349 0.957027
O O6 0.299256 0.885383 0.990783
O O7 0.500000 0.000000 0.000000
O O8 0.250000 0.750000 0.177463
O O9 0.323762 0.672405 0.085585
O O10 0.118078 0.621115 0.165695
O O11 0.392981 0.622287 0.193896
O O12 0.250000 0.750000 0.991873
O O13 0.003709 0.831444 0.984659
O O14 0.750000 0.750000 0.541442
O O15 0.758150 0.860373 0.467193
O O16 0.060847 0.043911 0.739707
O O17 0.092661 0.053648 0.617245
O O18 0.136834 0.086654 0.859434
#
# Coordination Sequence:
#
# PCOD9390246 Si02
#       8
#     8   8   8   8   8   8   8   8
#     4  10  20  38  58  81 113 145 203 241 297 354
#     4  11  19  35  61  84 112 152 190 245 303 358
#     4  10  20  35  52  73 106 147 194 233 279 341
#     4  11  22  35  57  84 117 154 194 235 300 361
#     4  11  25  37  59  88 123 158 192 254 310 362
#     4  11  22  36  58  81 111 157 196 242 291 353
#     4  11  22  35  56  84 120 144 196 238 305 350
#     4  11  21  38  57  81 112 153 199 248 286 345
#
# _framework density 18.175792999999999
#
# number of rings (size 3 to 8) (size 9 to 14) (size 15 to 20)
#    0.000    1.250    5.000    2.625    7.000    3.000 
#    0.000    0.000    0.000    3.750    0.000    0.000 
#    0.000    3.000    0.000    0.000    0.000    0.000 
#
# Total GULP energy -356353.944412 kJ/mol
# GULP energy per Si atom -5568.030381 kJ/mol
# Density = 1.813442 g / cm^3
# Si number density = 18.175793 Si / 1000 Ang^3
#
#
#
# Elastic Constant Matrix: (Units=GPa)
#
#
# Indices 1 2 3 4 5 6 
#
# 1 21.7765 2.4691 -3.6573 0.0000 0.0000 0.0000
# 2 2.4691 124.6291 22.8529 0.0000 0.0000 0.0000
# 3 -3.6573 22.8529 74.8851 0.0000 0.0000 0.0000
# 4 0.0000 0.0000 0.0000 12.4673 0.0000 0.0000
# 5 0.0000 0.0000 0.0000 0.0000 16.9209 0.0000
# 6 0.0000 0.0000 0.0000 0.0000 0.0000 17.7310
#
#
#
# Elastic Compliance Matrix: (Units=1/GPa)
#
#
# Indices 1 2 3 4 5 6 
#
# 1 0.046536 -0.001418 0.002706 0.000000 0.000000 0.000000
# 2 -0.001418 0.008543 -0.002676 0.000000 0.000000 0.000000
# 3 0.002706 -0.002676 0.014303 0.000000 0.000000 0.000000
# 4 0.000000 0.000000 0.000000 0.080210 0.000000 0.000000
# 5 0.000000 0.000000 0.000000 0.000000 0.059099 0.000000
# 6 0.000000 0.000000 0.000000 0.000000 0.000000 0.056398
#
#
# Mechanical properties :
#
#
# Convention : Reuss Voigt Hill
#
# Bulk Modulus (GPa) = 15.01408 29.40223 22.20815
# Shear Modulus (GPa) = 17.23738 22.73224 19.98481
#
# Velocity S-wave (km/s) = 3.08290 3.54034 3.31951
# Velocity P-wave (km/s) = 4.57720 5.73792 5.19011
#
# Compressibility (1/GPa) = 0.06660414
#
# Stress axis : x y z
#
# Youngs Moduli (GPa) = 21.48858 117.05989 69.91713
#
# Poissons Ratio (x) = 0.16600 -0.18916
# Poissons Ratio (y) = 0.03047 0.18712
# Poissons Ratio (z) = -0.05814 0.31328
#
# Static dielectric constant tensor:
#      x y z
#    x 1.726140 0.000000 0.000000 
#    y 0.000000 1.622050 0.000000 
#    z 0.000000 0.000000 1.676500 
# 
# From -- ./inp_files/30605.got.cif
#   From: 2010.05.17/outbox.cif.g08.bks.cpg/sg48_16_cif.got.tgz:30605.got - 2010.06.03 20:39:00.
