data_PCOD9390673
_publ_section_title
;
Structure prediction by ZEFSAII (Michael W. Deem and Ramdas Pophale) SiO2 
 PCOD9390673
Probable space group: P N N N
;
_chemical_formula_sum "Si O2"
_cell_formula_units_Z 40
_cell_length_a 7.742446
_cell_length_b 8.001542
_cell_length_c 26.075984
_cell_angle_alpha 90.000000
_cell_angle_beta 90.000000
_cell_angle_gamma 90.000000
_cell_volume 1615.446501
_symmetry_space_group_name_H-M "P N N N"
_symmetry_group_IT_number 48
_space_group.IT_coordinate_system_code '2'
_symmetry_cell_setting 'orthorhombic'
loop_
_space_group_symop_operation_xyz
x,y,z
1/2-x,1/2-y,z
x,1/2-y,1/2-z
1/2-x,y,1/2-z
-x,-y,-z
1/2+x,1/2+y,-z
-x,1/2+y,1/2+z
1/2+x,-y,1/2+z
loop_
_atom_site_type_symbol
_atom_site_label
_atom_site_fract_x
_atom_site_fract_y
_atom_site_fract_z
Si Si1 0.051340 0.077544 0.234018
Si Si2 0.212982 0.949234 0.586676
Si Si3 0.696633 0.446340 0.981026
Si Si4 0.923625 0.051536 0.874459
Si Si5 0.927612 0.853961 0.323180
O O1 0.965507 0.250000 0.250000
O O2 0.250000 0.074420 0.250000
O O3 0.060320 0.071367 0.173102
O O4 0.967028 0.933126 0.268115
O O5 0.250000 0.750000 0.586970
O O6 0.179763 0.006199 0.527793
O O7 0.389504 0.044616 0.599397
O O8 0.090890 0.003831 0.633018
O O9 0.750000 0.250000 0.977966
O O10 0.703372 0.496373 0.920988
O O11 0.500000 0.500000 0.000000
O O12 0.927069 0.230180 0.845619
O O13 0.750000 0.750000 0.319718
#
# Coordination Sequence:
#
# PCOD9390673 Si02
#       5
#     8   8   8   8   8
#     4  11  25  42  62  90 132 176 216 269 340 410
#     4   9  18  37  61  87 127 164 213 272 328 395
#     4   9  19  36  61  90 125 172 218 277 345 408
#     4  10  21  36  62  89 125 164 215 272 330 398
#     4  10  22  39  63  96 126 165 225 280 333 402
#
# _framework density 24.760957000000001
#
# number of rings (size 3 to 8) (size 9 to 14) (size 15 to 20)
#    0.000    2.200    0.000    1.800    2.800    6.400 
#    0.000    9.000   30.800    0.000    0.000    0.000 
#    0.000    0.000    0.000    0.000    0.000    0.000 
#
# Total GULP energy -222902.632278 kJ/mol
# GULP energy per Si atom -5572.565807 kJ/mol
# Density = 2.470460 g / cm^3
# Si number density = 24.760957 Si / 1000 Ang^3
#
#
#
# Elastic Constant Matrix: (Units=GPa)
#
#
# Indices 1 2 3 4 5 6 
#
# 1 80.8245 16.9431 17.0663 0.0000 0.0000 0.0000
# 2 16.9431 96.2237 40.5155 0.0000 0.0000 0.0000
# 3 17.0663 40.5155 233.1673 0.0000 0.0000 0.0000
# 4 0.0000 0.0000 0.0000 45.4470 0.0000 0.0000
# 5 0.0000 0.0000 0.0000 0.0000 64.9956 0.0000
# 6 0.0000 0.0000 0.0000 0.0000 0.0000 14.6417
#
#
#
# Elastic Compliance Matrix: (Units=1/GPa)
#
#
# Indices 1 2 3 4 5 6 
#
# 1 0.012922 -0.002025 -0.000594 0.000000 0.000000 0.000000
# 2 -0.002025 0.011530 -0.001855 0.000000 0.000000 0.000000
# 3 -0.000594 -0.001855 0.004655 0.000000 0.000000 0.000000
# 4 0.000000 0.000000 0.000000 0.022004 0.000000 0.000000
# 5 0.000000 0.000000 0.000000 0.000000 0.015386 0.000000
# 6 0.000000 0.000000 0.000000 0.000000 0.000000 0.068298
#
#
# Mechanical properties :
#
#
# Convention : Reuss Voigt Hill
#
# Bulk Modulus (GPa) = 49.60740 62.14060 55.87400
# Shear Modulus (GPa) = 33.23068 47.39623 40.31345
#
# Velocity S-wave (km/s) = 3.66739 4.37985 4.03936
# Velocity P-wave (km/s) = 6.16531 7.12237 6.66105
#
# Compressibility (1/GPa) = 0.02015828
#
# Stress axis : x y z
#
# Youngs Moduli (GPa) = 77.38470 86.72845 214.84072
#
# Poissons Ratio (x) = 0.17565 0.12760
# Poissons Ratio (y) = 0.15673 0.39859
# Poissons Ratio (z) = 0.04596 0.16090
#
# Static dielectric constant tensor:
#      x y z
#    x 1.885020 0.000000 0.000000 
#    y 0.000000 2.041390 0.000000 
#    z 0.000000 0.000000 1.989220 
# 
# From -- ./inp_files/37387.got.cif
#   From: 2010.05.17/outbox.cif.g08.bks.cpg/sg48_19_cif.got.tgz:37387.got - 2010.06.03 20:39:00.
