data_PCOD9390872
_publ_section_title
;
Structure prediction by ZEFSAII (Michael W. Deem and Ramdas Pophale) SiO2 
 PCOD9390872
Probable space group: P N N N
;
_chemical_formula_sum "Si O2"
_cell_formula_units_Z 30
_cell_length_a 10.565640
_cell_length_b 14.589613
_cell_length_c 9.075913
_cell_angle_alpha 90.000000
_cell_angle_beta 90.000000
_cell_angle_gamma 90.000000
_cell_volume 1399.039271
_symmetry_space_group_name_H-M "P N N N"
_symmetry_group_IT_number 48
_space_group.IT_coordinate_system_code '2'
_symmetry_cell_setting 'orthorhombic'
loop_
_space_group_symop_operation_xyz
x,y,z
1/2-x,1/2-y,z
x,1/2-y,1/2-z
1/2-x,y,1/2-z
-x,-y,-z
1/2+x,1/2+y,-z
-x,1/2+y,1/2+z
1/2+x,-y,1/2+z
loop_
_atom_site_type_symbol
_atom_site_label
_atom_site_fract_x
_atom_site_fract_y
_atom_site_fract_z
Si Si1 0.250000 0.250000 0.750000
Si Si2 0.565275 0.079892 0.105946
Si Si3 0.153711 0.932292 0.938939
Si Si4 0.083455 0.250000 0.250000
Si Si5 0.608717 0.865606 0.488876
O O1 0.335871 0.184689 0.650797
O O2 0.705572 0.106373 0.048817
O O3 0.603073 0.046033 0.271797
O O4 0.490967 0.174192 0.146118
O O5 0.500000 0.000000 0.000000
O O6 0.157325 0.032008 0.008408
O O7 0.043805 0.871565 0.009692
O O8 0.150689 0.312494 0.367326
#
# Coordination Sequence:
#
# PCOD9390872 Si02
#       5
#     2   8   8   4   8
#     4  12  24  38  68  90 140 176 228 270 356 394
#     4  10  21  40  71  99 129 181 221 280 354 413
#     4   9  21  44  65  92 138 169 226 281 346 413
#     4  10  24  42  68 102 134 169 239 280 348 420
#     4  10  23  41  65  95 129 178 220 289 336 407
#
# _framework density 21.443287000000002
#
# number of rings (size 3 to 8) (size 9 to 14) (size 15 to 20)
#    0.000    2.133    0.000    1.600    7.467    9.067 
#    4.800    4.000    5.867    0.000    0.000    0.000 
#    0.000    0.000    0.000    0.000    0.000    0.000 
#
# Total GULP energy -167075.829250 kJ/mol
# GULP energy per Si atom -5569.194308 kJ/mol
# Density = 2.139448 g / cm^3
# Si number density = 21.443287 Si / 1000 Ang^3
#
#
#
# Elastic Constant Matrix: (Units=GPa)
#
#
# Indices 1 2 3 4 5 6 
#
# 1 118.6716 30.1792 54.1304 0.0000 0.0000 0.0000
# 2 30.1792 105.3662 55.0238 0.0000 0.0000 0.0000
# 3 54.1304 55.0238 105.1915 0.0000 0.0000 0.0000
# 4 0.0000 0.0000 0.0000 40.4943 0.0000 0.0000
# 5 0.0000 0.0000 0.0000 0.0000 32.5427 0.0000
# 6 0.0000 0.0000 0.0000 0.0000 0.0000 1.3210
#
#
#
# Elastic Compliance Matrix: (Units=1/GPa)
#
#
# Indices 1 2 3 4 5 6 
#
# 1 0.011017 -0.000268 -0.005529 0.000000 0.000000 0.000000
# 2 -0.000268 0.013064 -0.006696 0.000000 0.000000 0.000000
# 3 -0.005529 -0.006696 0.015854 0.000000 0.000000 0.000000
# 4 0.000000 0.000000 0.000000 0.024695 0.000000 0.000000
# 5 0.000000 0.000000 0.000000 0.000000 0.030729 0.000000
# 6 0.000000 0.000000 0.000000 0.000000 0.000000 0.756992
#
#
# Mechanical properties :
#
#
# Convention : Reuss Voigt Hill
#
# Bulk Modulus (GPa) = 66.89184 67.54402 67.21793
# Shear Modulus (GPa) = 5.66688 27.53132 16.59910
#
# Velocity S-wave (km/s) = 1.62741 3.58706 2.78527
# Velocity P-wave (km/s) = 5.89863 6.98021 6.46208
#
# Compressibility (1/GPa) = 0.01494951
#
# Stress axis : x y z
#
# Youngs Moduli (GPa) = 90.77130 76.54591 63.07616
#
# Poissons Ratio (x) = 0.02053 0.34873
# Poissons Ratio (y) = 0.02435 0.42233
# Poissons Ratio (z) = 0.50185 0.51252
#
# Static dielectric constant tensor:
#      x y z
#    x 1.919760 0.000000 0.000000 
#    y 0.000000 1.691960 0.000000 
#    z 0.000000 0.000000 1.811160 
# 
# From -- ./inp_files/10170.got.cif
#   From: 2010.05.17/outbox.cif.g08.bks.cpg/sg48_6_cif.got.tgz:10170.got - 2010.06.03 20:39:00.
