data_PCOD9390919
_publ_section_title
;
Structure prediction by ZEFSAII (Michael W. Deem and Ramdas Pophale) SiO2 
 PCOD9390919
Probable space group: P N N N
;
_chemical_formula_sum "Si O2"
_cell_formula_units_Z 56
_cell_length_a 28.137827
_cell_length_b 5.592056
_cell_length_c 15.921233
_cell_angle_alpha 90.000000
_cell_angle_beta 90.000000
_cell_angle_gamma 90.000000
_cell_volume 2505.179015
_symmetry_space_group_name_H-M "P N N N"
_symmetry_group_IT_number 48
_space_group.IT_coordinate_system_code '2'
_symmetry_cell_setting 'orthorhombic'
loop_
_space_group_symop_operation_xyz
x,y,z
1/2-x,1/2-y,z
x,1/2-y,1/2-z
1/2-x,y,1/2-z
-x,-y,-z
1/2+x,1/2+y,-z
-x,1/2+y,1/2+z
1/2+x,-y,1/2+z
loop_
_atom_site_type_symbol
_atom_site_label
_atom_site_fract_x
_atom_site_fract_y
_atom_site_fract_z
Si Si1 0.123605 0.888490 0.832054
Si Si2 0.723461 0.500798 0.137361
Si Si3 0.360016 0.498988 0.201348
Si Si4 0.559049 0.120088 0.593526
Si Si5 0.879300 0.049856 0.486738
Si Si6 0.300819 0.340664 0.045879
Si Si7 0.547338 0.805174 0.424255
O O1 0.108715 0.750000 0.750000
O O2 0.173495 0.014514 0.814818
O O3 0.136854 0.722367 0.912021
O O4 0.081202 0.057424 0.860225
O O5 0.750000 0.250000 0.155498
O O6 0.750000 0.750000 0.154396
O O7 0.713225 0.513497 0.037161
O O8 0.352049 0.750000 0.250000
O O9 0.415086 0.492267 0.170530
O O10 0.327538 0.485660 0.117892
O O11 0.350120 0.250000 0.250000
O O12 0.597916 0.316709 0.566040
O O13 0.506282 0.218444 0.607080
O O14 0.551984 0.948491 0.512714
O O15 0.838492 0.863439 0.514105
O O16 0.926270 0.937519 0.444525
O O17 0.250000 0.250000 0.079202
#
# Coordination Sequence:
#
# PCOD9390919 Si02
#       7
#     8   8   8   8   8   8   8
#     4  11  24  41  62 102 146 184 227 301 366 434
#     4  11  24  45  72 101 132 186 243 289 348 419
#     4  12  27  47  69 102 148 185 225 292 368 427
#     4  10  22  42  70  97 133 182 243 295 350 424
#     4  11  20  44  70  98 136 182 245 295 353 420
#     4  11  23  46  75 101 133 186 246 295 350 426
#     4  10  21  41  71 100 126 186 242 290 350 429
#
# _framework density 22.353691999999999
#
# number of rings (size 3 to 8) (size 9 to 14) (size 15 to 20)
#    0.000    1.143    2.857    3.857    0.000    4.000 
#    2.571    5.000    0.000    0.000    0.000    0.000 
#    0.000    0.000    0.000    0.000    0.000    0.000 
#
# Total GULP energy -312950.513295 kJ/mol
# GULP energy per Si atom -5588.402023 kJ/mol
# Density = 2.230281 g / cm^3
# Si number density = 22.353692 Si / 1000 Ang^3
#
#
#
# Elastic Constant Matrix: (Units=GPa)
#
#
# Indices 1 2 3 4 5 6 
#
# 1 121.2899 39.8889 22.6539 0.0000 0.0000 0.0000
# 2 39.8889 94.6692 28.3960 0.0000 0.0000 0.0000
# 3 22.6539 28.3960 59.3751 0.0000 0.0000 0.0000
# 4 0.0000 0.0000 0.0000 12.1347 0.0000 0.0000
# 5 0.0000 0.0000 0.0000 0.0000 -20.3587 0.0000
# 6 0.0000 0.0000 0.0000 0.0000 0.0000 269.4147
#
#
#
# Elastic Compliance Matrix: (Units=1/GPa)
#
#
# Indices 1 2 3 4 5 6 
#
# 1 0.009781 -0.003505 -0.002056 0.000000 0.000000 0.000000
# 2 -0.003505 0.013588 -0.005161 0.000000 0.000000 0.000000
# 3 -0.002056 -0.005161 0.020095 0.000000 0.000000 0.000000
# 4 0.000000 0.000000 0.000000 0.082408 0.000000 0.000000
# 5 0.000000 0.000000 0.000000 0.000000 -0.049119 0.000000
# 6 0.000000 0.000000 0.000000 0.000000 0.000000 0.003712
#
#
# Mechanical properties :
#
#
# Convention : Reuss Voigt Hill
#
# Bulk Modulus (GPa) = 45.41219 50.80131 48.10675
# Shear Modulus (GPa) = 45.76728 64.53119 55.14923
#
# Velocity S-wave (km/s) = 4.52975 5.37875 4.97240
# Velocity P-wave (km/s) = 6.90779 7.83263 7.38470
#
# Compressibility (1/GPa) = 0.02202052
#
# Stress axis : x y z
#
# Youngs Moduli (GPa) = 102.23606 73.59479 49.76415
#
# Poissons Ratio (x) = 0.25793 0.10231
# Poissons Ratio (y) = 0.35831 0.25684
# Poissons Ratio (z) = 0.21018 0.37984
#
# Static dielectric constant tensor:
#      x y z
#    x 2.230700 0.000000 0.000000 
#    y 0.000000 1.846140 0.000000 
#    z 0.000000 0.000000 1.820140 
# 
# From -- ./inp_files/28903.got.cif
#   From: 2010.05.17/outbox.cif.g08.bks.cpg/sg48_15_cif.got.tgz:28903.got - 2010.06.03 20:39:00.
