data_PCOD9390870
_publ_section_title
;
Structure prediction by ZEFSAII (Michael W. Deem and Ramdas Pophale) SiO2 
 PCOD9390870
Probable space group: P N N N
;
_chemical_formula_sum "Si O2"
_cell_formula_units_Z 64
_cell_length_a 30.831895
_cell_length_b 18.375640
_cell_length_c 5.217810
_cell_angle_alpha 90.000000
_cell_angle_beta 90.000000
_cell_angle_gamma 90.000000
_cell_volume 2956.180535
_symmetry_space_group_name_H-M "P N N N"
_symmetry_group_IT_number 48
_space_group.IT_coordinate_system_code '2'
_symmetry_cell_setting 'orthorhombic'
loop_
_space_group_symop_operation_xyz
x,y,z
1/2-x,1/2-y,z
x,1/2-y,1/2-z
1/2-x,y,1/2-z
-x,-y,-z
1/2+x,1/2+y,-z
-x,1/2+y,1/2+z
1/2+x,-y,1/2+z
loop_
_atom_site_type_symbol
_atom_site_label
_atom_site_fract_x
_atom_site_fract_y
_atom_site_fract_z
Si Si1 0.389248 0.673838 0.636199
Si Si2 0.537344 0.166942 0.786127
Si Si3 0.461456 0.407811 0.644184
Si Si4 0.614957 0.931969 0.741710
Si Si5 0.939298 0.453123 0.403215
Si Si6 0.297922 0.619157 0.729113
Si Si7 0.201947 0.517968 0.265568
Si Si8 0.414869 0.202480 0.503320
O O1 0.407432 0.750000 0.750000
O O2 0.411609 0.670599 0.358762
O O3 0.338735 0.671662 0.696655
O O4 0.406722 0.597304 0.744292
O O5 0.524081 0.250000 0.750000
O O6 0.503291 0.130270 0.985529
O O7 0.535676 0.106733 0.566478
O O8 0.417814 0.413172 0.474369
O O9 0.467618 0.490098 0.740831
O O10 0.451097 0.351242 0.875806
O O11 0.620077 0.856476 0.589443
O O12 0.589013 0.993296 0.581726
O O13 0.661993 0.964873 0.789715
O O14 0.250000 0.653266 0.750000
O O15 0.298185 0.575237 0.464667
O O16 0.303418 0.562925 0.967879
O O17 0.250000 0.483204 0.250000
O O18 0.426784 0.250000 0.250000
O O19 0.401837 0.250000 0.750000
#
# Coordination Sequence:
#
# PCOD9390870 Si02
#       8
#     8   8   8   8   8   8   8   8
#     4  12  25  43  66  92 140 186 232 287 358 417
#     4  12  26  44  64  96 136 191 238 297 361 424
#     4  11  25  43  70 101 133 186 242 296 347 415
#     4  11  23  41  74  99 141 181 231 292 352 411
#     4  11  23  43  64  97 135 181 236 294 345 416
#     4  10  22  41  70 102 138 177 228 290 345 415
#     4  10  21  40  70 108 139 174 226 288 351 415
#     4  11  23  43  66 102 137 179 229 290 347 415
#
# _framework density 21.649556
#
# number of rings (size 3 to 8) (size 9 to 14) (size 15 to 20)
#    0.000    1.000    3.750    3.000    1.750    4.250 
#    2.250    0.000    0.000    2.625    3.250    0.000 
#    0.000    0.000    0.000    0.000    0.000    0.000 
#
# Total GULP energy -356995.760155 kJ/mol
# GULP energy per Si atom -5578.058752 kJ/mol
# Density = 2.160028 g / cm^3
# Si number density = 21.649556 Si / 1000 Ang^3
#
#
#
# Elastic Constant Matrix: (Units=GPa)
#
#
# Indices 1 2 3 4 5 6 
#
# 1 136.9519 65.1648 35.1573 0.0000 0.0000 0.0000
# 2 65.1648 185.5196 78.5609 0.0000 0.0000 0.0000
# 3 35.1573 78.5609 156.5524 0.0000 0.0000 0.0000
# 4 0.0000 0.0000 0.0000 25.9565 0.0000 0.0000
# 5 0.0000 0.0000 0.0000 0.0000 17.8248 0.0000
# 6 0.0000 0.0000 0.0000 0.0000 0.0000 15.9619
#
#
#
# Elastic Compliance Matrix: (Units=1/GPa)
#
#
# Indices 1 2 3 4 5 6 
#
# 1 0.008803 -0.002863 -0.000540 0.000000 0.000000 0.000000
# 2 -0.002863 0.007776 -0.003259 0.000000 0.000000 0.000000
# 3 -0.000540 -0.003259 0.008144 0.000000 0.000000 0.000000
# 4 0.000000 0.000000 0.000000 0.038526 0.000000 0.000000
# 5 0.000000 0.000000 0.000000 0.000000 0.056102 0.000000
# 6 0.000000 0.000000 0.000000 0.000000 0.000000 0.062649
#
#
# Mechanical properties :
#
#
# Convention : Reuss Voigt Hill
#
# Bulk Modulus (GPa) = 87.73179 92.97666 90.35422
# Shear Modulus (GPa) = 25.10985 31.95803 28.53394
#
# Velocity S-wave (km/s) = 3.40933 3.84624 3.63435
# Velocity P-wave (km/s) = 7.49063 7.92239 7.70953
#
# Compressibility (1/GPa) = 0.01139838
#
# Stress axis : x y z
#
# Youngs Moduli (GPa) = 113.59856 128.59732 122.78328
#
# Poissons Ratio (x) = 0.36823 0.06630
# Poissons Ratio (y) = 0.32528 0.40018
# Poissons Ratio (z) = 0.06134 0.41913
#
# Static dielectric constant tensor:
#      x y z
#    x 1.981370 0.000000 0.000000 
#    y 0.000000 1.747230 0.000000 
#    z 0.000000 0.000000 1.920410 
# 
# From -- ./inp_files/7148.got.cif
#   From: 2010.05.17/outbox.cif.g08.bks.cpg/sg48_4_cif.got.tgz:7148.got - 2010.06.03 20:39:00.
