data_PCOD9390417
_publ_section_title
;
Structure prediction by ZEFSAII (Michael W. Deem and Ramdas Pophale) SiO2 
 PCOD9390417
Probable space group: P N N N
;
_chemical_formula_sum "Si O2"
_cell_formula_units_Z 56
_cell_length_a 11.736599
_cell_length_b 14.067697
_cell_length_c 14.262851
_cell_angle_alpha 90.000000
_cell_angle_beta 90.000000
_cell_angle_gamma 90.000000
_cell_volume 2354.895378
_symmetry_space_group_name_H-M "P N N N"
_symmetry_group_IT_number 48
_space_group.IT_coordinate_system_code '2'
_symmetry_cell_setting 'orthorhombic'
loop_
_space_group_symop_operation_xyz
x,y,z
1/2-x,1/2-y,z
x,1/2-y,1/2-z
1/2-x,y,1/2-z
-x,-y,-z
1/2+x,1/2+y,-z
-x,1/2+y,1/2+z
1/2+x,-y,1/2+z
loop_
_atom_site_type_symbol
_atom_site_label
_atom_site_fract_x
_atom_site_fract_y
_atom_site_fract_z
Si Si1 0.212661 0.357352 0.141967
Si Si2 0.012434 0.860558 0.729929
Si Si3 0.023642 0.607064 0.118937
Si Si4 0.803550 0.021998 0.343023
Si Si5 0.623525 0.777229 0.360856
Si Si6 0.762566 0.038718 0.962443
Si Si7 0.469684 0.944128 0.331362
O O1 0.250000 0.250000 0.125916
O O2 0.250000 0.380321 0.250000
O O3 0.261989 0.428283 0.067082
O O4 0.078355 0.376280 0.146693
O O5 0.995423 0.750000 0.750000
O O6 0.137248 0.883197 0.694918
O O7 0.988381 0.942993 0.808331
O O8 0.137510 0.580139 0.063251
O O9 0.058219 0.598718 0.228648
O O10 0.909306 0.540826 0.117448
O O11 0.972398 0.709554 0.094338
O O12 0.750000 0.974988 0.250000
O O13 0.722019 0.047505 0.427389
O O14 0.750000 0.750000 0.395410
O O15 0.624405 0.750000 0.250000
O O16 0.578504 0.884619 0.367778
O O17 0.865603 0.076912 0.900294
#
# Coordination Sequence:
#
# PCOD9390417 Si02
#       7
#     8   8   8   8   8   8   8
#     4  11  18  35  72 115 143 181 227 298 367 434
#     4  11  21  40  71 103 144 188 238 287 369 438
#     4  10  21  39  71 101 138 187 229 293 368 448
#     4  11  27  44  69  95 139 196 243 299 366 442
#     4   9  20  37  66 103 144 192 233 280 365 456
#     4  12  21  42  71 106 145 180 245 310 368 429
#     4  10  20  37  71 109 140 181 235 299 363 430
#
# _framework density 23.780249999999999
#
# number of rings (size 3 to 8) (size 9 to 14) (size 15 to 20)
#    0.000    1.429    5.714    0.857    6.000    0.857 
#    0.000    8.571    6.286    0.000    0.000    0.000 
#    0.000    0.000    0.000    0.000    0.000    0.000 
#
# Total GULP energy -312858.878230 kJ/mol
# GULP energy per Si atom -5586.765683 kJ/mol
# Density = 2.372612 g / cm^3
# Si number density = 23.780250 Si / 1000 Ang^3
#
#
#
# Elastic Constant Matrix: (Units=GPa)
#
#
# Indices 1 2 3 4 5 6 
#
# 1 127.5900 60.3982 52.5733 0.0000 0.0000 0.0000
# 2 60.3982 114.2540 7.7275 0.0000 0.0000 0.0000
# 3 52.5733 7.7275 93.9591 0.0000 0.0000 0.0000
# 4 0.0000 0.0000 0.0000 10.3661 0.0000 0.0000
# 5 0.0000 0.0000 0.0000 0.0000 24.5893 0.0000
# 6 0.0000 0.0000 0.0000 0.0000 0.0000 35.3903
#
#
#
# Elastic Compliance Matrix: (Units=1/GPa)
#
#
# Indices 1 2 3 4 5 6 
#
# 1 0.014185 -0.007001 -0.007361 0.000000 0.000000 0.000000
# 2 -0.007001 0.012256 0.002909 0.000000 0.000000 0.000000
# 3 -0.007361 0.002909 0.014522 0.000000 0.000000 0.000000
# 4 0.000000 0.000000 0.000000 0.096468 0.000000 0.000000
# 5 0.000000 0.000000 0.000000 0.000000 0.040668 0.000000
# 6 0.000000 0.000000 0.000000 0.000000 0.000000 0.028256
#
#
# Mechanical properties :
#
#
# Convention : Reuss Voigt Hill
#
# Bulk Modulus (GPa) = 55.37609 64.13345 59.75477
# Shear Modulus (GPa) = 21.25127 28.40944 24.83035
#
# Velocity S-wave (km/s) = 2.99264 3.46014 3.23485
# Velocity P-wave (km/s) = 5.93956 6.55677 6.25578
#
# Compressibility (1/GPa) = 0.01805833
#
# Stress axis : x y z
#
# Youngs Moduli (GPa) = 70.49901 81.59016 68.85914
#
# Poissons Ratio (x) = 0.57118 0.50687
# Poissons Ratio (y) = 0.49353 -0.20031
# Poissons Ratio (z) = 0.51894 -0.23735
#
# Static dielectric constant tensor:
#      x y z
#    x 1.960830 0.000000 0.000000 
#    y 0.000000 1.963720 0.000000 
#    z 0.000000 0.000000 1.916900 
# 
# From -- ./inp_files/26527.got.cif
#   From: 2010.05.17/outbox.cif.g08.bks.cpg/sg48_14_cif.got.tgz:26527.got - 2010.06.03 20:39:00.
