data_PCOD9390706
_publ_section_title
;
Structure prediction by ZEFSAII (Michael W. Deem and Ramdas Pophale) SiO2 
 PCOD9390706
Probable space group: P N N N
;
_chemical_formula_sum "Si O2"
_cell_formula_units_Z 64
_cell_length_a 14.851725
_cell_length_b 15.844231
_cell_length_c 10.642135
_cell_angle_alpha 90.000000
_cell_angle_beta 90.000000
_cell_angle_gamma 90.000000
_cell_volume 2504.245076
_symmetry_space_group_name_H-M "P N N N"
_symmetry_group_IT_number 48
_space_group.IT_coordinate_system_code '2'
_symmetry_cell_setting 'orthorhombic'
loop_
_space_group_symop_operation_xyz
x,y,z
1/2-x,1/2-y,z
x,1/2-y,1/2-z
1/2-x,y,1/2-z
-x,-y,-z
1/2+x,1/2+y,-z
-x,1/2+y,1/2+z
1/2+x,-y,1/2+z
loop_
_atom_site_type_symbol
_atom_site_label
_atom_site_fract_x
_atom_site_fract_y
_atom_site_fract_z
Si Si1 0.574902 0.315463 0.414041
Si Si2 0.536424 0.884581 0.290933
Si Si3 0.197120 0.560148 0.060246
Si Si4 0.973700 0.082642 0.172974
Si Si5 0.373066 0.842058 0.452006
Si Si6 0.848868 0.577255 0.775141
Si Si7 0.725646 0.598072 0.104773
Si Si8 0.601993 0.826620 0.020148
O O1 0.613251 0.397377 0.488608
O O2 0.566686 0.349989 0.272567
O O3 0.637886 0.240799 0.462070
O O4 0.478850 0.273923 0.457214
O O5 0.445635 0.840796 0.339957
O O6 0.622958 0.870124 0.382950
O O7 0.560180 0.851150 0.153521
O O8 0.532691 0.986236 0.281361
O O9 0.245861 0.484134 0.978540
O O10 0.275070 0.626851 0.083350
O O11 0.164683 0.519790 0.190435
O O12 0.081133 0.096647 0.166907
O O13 0.920940 0.090216 0.044554
O O14 0.750000 0.614443 0.750000
O O15 0.894765 0.607655 0.903580
O O16 0.750000 0.577035 0.250000
O O17 0.792537 0.671131 0.054754
#
# Coordination Sequence:
#
# PCOD9390706 Si02
#       8
#     8   8   8   8   8   8   8   8
#     4  11  24  43  60  90 141 182 220 264 352 438
#     4  11  21  39  65  96 127 164 228 290 331 391
#     4  11  22  38  62  95 130 175 219 275 342 411
#     4  11  22  40  65  93 134 176 224 286 339 409
#     4  12  26  38  63  98 136 180 220 281 351 420
#     4  10  21  37  67  99 128 162 226 287 340 392
#     4   9  18  34  62  95 116 151 218 280 327 380
#     4   9  21  39  63  90 123 174 214 271 330 400
#
# _framework density 25.556602999999999
#
# number of rings (size 3 to 8) (size 9 to 14) (size 15 to 20)
#    0.000    1.500    1.250    4.875    3.500    4.000 
#    0.000    1.875    0.000    5.250    0.000    0.000 
#    0.000    0.000    0.000    0.000    0.000    0.000 
#
# Total GULP energy -357044.212745 kJ/mol
# GULP energy per Si atom -5578.815824 kJ/mol
# Density = 2.549843 g / cm^3
# Si number density = 25.556603 Si / 1000 Ang^3
#
#
#
# Elastic Constant Matrix: (Units=GPa)
#
#
# Indices 1 2 3 4 5 6 
#
# 1 146.0424 12.0629 21.4552 0.0000 0.0000 0.0000
# 2 12.0629 59.0697 15.1486 0.0000 0.0000 0.0000
# 3 21.4552 15.1486 93.9180 0.0000 0.0000 0.0000
# 4 0.0000 0.0000 0.0000 25.3894 0.0000 0.0000
# 5 0.0000 0.0000 0.0000 0.0000 32.2443 0.0000
# 6 0.0000 0.0000 0.0000 0.0000 0.0000 34.5736
#
#
#
# Elastic Compliance Matrix: (Units=1/GPa)
#
#
# Indices 1 2 3 4 5 6 
#
# 1 0.007151 -0.001086 -0.001458 0.000000 0.000000 0.000000
# 2 -0.001086 0.017825 -0.002627 0.000000 0.000000 0.000000
# 3 -0.001458 -0.002627 0.011404 0.000000 0.000000 0.000000
# 4 0.000000 0.000000 0.000000 0.039387 0.000000 0.000000
# 5 0.000000 0.000000 0.000000 0.000000 0.031013 0.000000
# 6 0.000000 0.000000 0.000000 0.000000 0.000000 0.028924
#
#
# Mechanical properties :
#
#
# Convention : Reuss Voigt Hill
#
# Bulk Modulus (GPa) = 38.40684 44.04041 41.22363
# Shear Modulus (GPa) = 32.31508 35.13235 33.72372
#
# Velocity S-wave (km/s) = 3.55977 3.71170 3.63653
# Velocity P-wave (km/s) = 5.65303 5.96983 5.81359
#
# Compressibility (1/GPa) = 0.02603703
#
# Stress axis : x y z
#
# Youngs Moduli (GPa) = 139.83429 56.10201 87.68491
#
# Poissons Ratio (x) = 0.06095 0.12788
# Poissons Ratio (y) = 0.15191 0.23034
# Poissons Ratio (z) = 0.20394 0.14737
#
# Static dielectric constant tensor:
#      x y z
#    x 2.147600 0.000000 0.000000 
#    y 0.000000 2.099410 0.000000 
#    z 0.000000 0.000000 2.003210 
# 
# From -- ./inp_files/21549.got.cif
#   From: 2010.05.17/outbox.cif.g08.bks.cpg/sg48_11_cif.got.tgz:21549.got - 2010.06.03 20:39:00.
