data_PCOD9390294
_publ_section_title
;
Structure prediction by ZEFSAII (Michael W. Deem and Ramdas Pophale) SiO2 
 PCOD9390294
Probable space group: P N N N
;
_chemical_formula_sum "Si O2"
_cell_formula_units_Z 56
_cell_length_a 19.268055
_cell_length_b 9.414365
_cell_length_c 16.952900
_cell_angle_alpha 90.000000
_cell_angle_beta 90.000000
_cell_angle_gamma 90.000000
_cell_volume 3075.196769
_symmetry_space_group_name_H-M "P N N N"
_symmetry_group_IT_number 48
_space_group.IT_coordinate_system_code '2'
_symmetry_cell_setting 'orthorhombic'
loop_
_space_group_symop_operation_xyz
x,y,z
1/2-x,1/2-y,z
x,1/2-y,1/2-z
1/2-x,y,1/2-z
-x,-y,-z
1/2+x,1/2+y,-z
-x,1/2+y,1/2+z
1/2+x,-y,1/2+z
loop_
_atom_site_type_symbol
_atom_site_label
_atom_site_fract_x
_atom_site_fract_y
_atom_site_fract_z
Si Si1 0.947306 0.062547 0.436500
Si Si2 0.999709 0.677538 0.669251
Si Si3 0.829383 0.255661 0.491449
Si Si4 0.050870 0.565709 0.432483
Si Si5 0.341728 0.636340 0.816709
Si Si6 0.955070 0.722383 0.155969
Si Si7 0.312788 0.172655 0.665718
O O1 0.980486 0.200857 0.394321
O O2 0.877015 0.112957 0.481752
O O3 0.940896 0.940805 0.369066
O O4 0.000000 0.000000 0.500000
O O5 0.974683 0.750000 0.750000
O O6 0.075129 0.607570 0.688143
O O7 0.949536 0.559661 0.632483
O O8 0.750000 0.250000 0.522450
O O9 0.876679 0.376555 0.533240
O O10 0.824894 0.299351 0.400579
O O11 0.000000 0.500000 0.500000
O O12 0.016848 0.704375 0.391809
O O13 0.326605 0.750000 0.750000
O O14 0.301618 0.489831 0.815419
O O15 0.965037 0.750000 0.250000
O O16 0.886384 0.804679 0.126126
O O17 0.250000 0.250000 0.622622
O O18 0.319881 0.250000 0.750000
#
# Coordination Sequence:
#
# PCOD9390294 Si02
#       7
#     8   8   8   8   8   8   8
#     4  11  21  38  59  88 118 158 205 250 295 361
#     4  10  20  35  62  91 114 148 204 250 299 354
#     4  11  25  37  60  87 124 162 204 245 316 373
#     4  12  19  41  61  86 123 158 199 253 302 364
#     4  10  21  37  56  81 119 164 206 242 287 357
#     4  11  22  35  59  85 119 155 206 256 297 344
#     4  10  22  33  47  78 119 158 196 239 296 348
#
# _framework density 18.210215999999999
#
# number of rings (size 3 to 8) (size 9 to 14) (size 15 to 20)
#    0.000    1.286    5.714    0.857   12.000    1.429 
#    0.000    0.000    0.000    0.429    0.000    1.000 
#    0.000    0.000    0.000    0.000    0.000    0.000 
#
# Total GULP energy -312230.122492 kJ/mol
# GULP energy per Si atom -5575.537902 kJ/mol
# Density = 1.816877 g / cm^3
# Si number density = 18.210216 Si / 1000 Ang^3
#
#
#
# Elastic Constant Matrix: (Units=GPa)
#
#
# Indices 1 2 3 4 5 6 
#
# 1 117.6983 47.5813 45.0708 0.0000 0.0000 0.0000
# 2 47.5813 123.1886 26.9093 0.0000 0.0000 0.0000
# 3 45.0708 26.9093 66.3651 0.0000 0.0000 0.0000
# 4 0.0000 0.0000 0.0000 33.1303 0.0000 0.0000
# 5 0.0000 0.0000 0.0000 0.0000 -11.4190 0.0000
# 6 0.0000 0.0000 0.0000 0.0000 0.0000 211.1463
#
#
#
# Elastic Compliance Matrix: (Units=1/GPa)
#
#
# Indices 1 2 3 4 5 6 
#
# 1 0.012588 -0.003286 -0.007217 0.000000 0.000000 0.000000
# 2 -0.003286 0.009764 -0.001728 0.000000 0.000000 0.000000
# 3 -0.007217 -0.001728 0.020670 0.000000 0.000000 0.000000
# 4 0.000000 0.000000 0.000000 0.030184 0.000000 0.000000
# 5 0.000000 0.000000 0.000000 0.000000 -0.087573 0.000000
# 6 0.000000 0.000000 0.000000 0.000000 0.000000 0.004736
#
#
# Mechanical properties :
#
#
# Convention : Reuss Voigt Hill
#
# Bulk Modulus (GPa) = 53.87400 60.70831 57.29115
# Shear Modulus (GPa) = 237.90911 59.08424 148.49667
#
# Velocity S-wave (km/s) = 11.44245 5.70229 9.04007
# Velocity P-wave (km/s) = 14.29061 8.76154 11.85298
#
# Compressibility (1/GPa) = 0.01856183
#
# Stress axis : x y z
#
# Youngs Moduli (GPa) = 79.43980 102.41579 48.37973
#
# Poissons Ratio (x) = 0.33651 0.34914
# Poissons Ratio (y) = 0.26102 0.08358
# Poissons Ratio (z) = 0.57330 0.17694
#
# Static dielectric constant tensor:
#      x y z
#    x 1.737010 0.000000 0.000000 
#    y 0.000000 1.682590 0.000000 
#    z 0.000000 0.000000 1.616260 
# 
# From -- ./inp_files/32186.got.cif
#   From: 2010.05.17/outbox.cif.g08.bks.cpg/sg48_17_cif.got.tgz:32186.got - 2010.06.03 20:39:00.
