data_PCOD9390589
_publ_section_title
;
Structure prediction by ZEFSAII (Michael W. Deem and Ramdas Pophale) SiO2 
 PCOD9390589
Probable space group: P N N N
;
_chemical_formula_sum "Si O2"
_cell_formula_units_Z 28
_cell_length_a 5.156257
_cell_length_b 11.447101
_cell_length_c 18.740418
_cell_angle_alpha 90.000000
_cell_angle_beta 90.000000
_cell_angle_gamma 90.000000
_cell_volume 1106.138080
_symmetry_space_group_name_H-M "P N N N"
_symmetry_group_IT_number 48
_space_group.IT_coordinate_system_code '2'
_symmetry_cell_setting 'orthorhombic'
loop_
_space_group_symop_operation_xyz
x,y,z
1/2-x,1/2-y,z
x,1/2-y,1/2-z
1/2-x,y,1/2-z
-x,-y,-z
1/2+x,1/2+y,-z
-x,1/2+y,1/2+z
1/2+x,-y,1/2+z
loop_
_atom_site_type_symbol
_atom_site_label
_atom_site_fract_x
_atom_site_fract_y
_atom_site_fract_z
Si Si1 0.750000 0.250000 0.085479
Si Si2 0.280996 0.388421 0.879529
Si Si3 0.275021 0.621938 0.449421
Si Si4 0.505774 0.098092 0.297687
O O1 0.539821 0.317824 0.133548
O O2 0.633793 0.156235 0.028857
O O3 0.250000 0.250000 0.864119
O O4 0.474522 0.411298 0.946305
O O5 0.429474 0.465004 0.821045
O O6 0.997488 0.436338 0.902085
O O7 0.250000 0.750000 0.413379
O O8 0.750000 0.129786 0.250000
O O9 0.250000 0.108532 0.250000
#
# Coordination Sequence:
#
# PCOD9390589 Si02
#       4
#     4   8   8   8
#     4  10  25  46  70 104 143 184 250 298 362 426
#     4  10  20  43  68 103 139 174 243 294 363 413
#     4   8  19  38  67 103 128 177 224 307 366 383
#     4  12  28  45  68 102 148 203 234 284 352 444
#
# _framework density 25.313296999999999
#
# number of rings (size 3 to 8) (size 9 to 14) (size 15 to 20)
#    0.857    1.143    0.000    2.143    0.000    9.714 
#    0.000    1.429    0.000    0.000    0.000    0.000 
#    0.000    0.000    0.000    0.000    0.000    0.000 
#
# Total GULP energy -155897.190275 kJ/mol
# GULP energy per Si atom -5567.756796 kJ/mol
# Density = 2.525568 g / cm^3
# Si number density = 25.313297 Si / 1000 Ang^3
#
#
#
# Elastic Constant Matrix: (Units=GPa)
#
#
# Indices 1 2 3 4 5 6 
#
# 1 182.7975 19.3675 56.7122 0.0000 0.0000 0.0000
# 2 19.3675 119.3967 18.0288 0.0000 0.0000 0.0000
# 3 56.7122 18.0288 87.9465 0.0000 0.0000 0.0000
# 4 0.0000 0.0000 0.0000 109.6519 0.0000 0.0000
# 5 0.0000 0.0000 0.0000 0.0000 44.3712 0.0000
# 6 0.0000 0.0000 0.0000 0.0000 0.0000 33.9463
#
#
#
# Elastic Compliance Matrix: (Units=1/GPa)
#
#
# Indices 1 2 3 4 5 6 
#
# 1 0.006863 -0.000459 -0.004331 0.000000 0.000000 0.000000
# 2 -0.000459 0.008674 -0.001482 0.000000 0.000000 0.000000
# 3 -0.004331 -0.001482 0.014467 0.000000 0.000000 0.000000
# 4 0.000000 0.000000 0.000000 0.009120 0.000000 0.000000
# 5 0.000000 0.000000 0.000000 0.000000 0.022537 0.000000
# 6 0.000000 0.000000 0.000000 0.000000 0.000000 0.029458
#
#
# Mechanical properties :
#
#
# Convention : Reuss Voigt Hill
#
# Bulk Modulus (GPa) = 57.27732 64.26197 60.76965
# Shear Modulus (GPa) = 45.66862 57.32934 51.49898
#
# Velocity S-wave (km/s) = 4.25212 4.76415 4.51540
# Velocity P-wave (km/s) = 6.83987 7.46355 7.15850
#
# Compressibility (1/GPa) = 0.01745892
#
# Stress axis : x y z
#
# Youngs Moduli (GPa) = 145.70862 115.29099 69.12049
#
# Poissons Ratio (x) = 0.05294 0.29939
# Poissons Ratio (y) = 0.06691 0.10243
# Poissons Ratio (z) = 0.63113 0.17086
#
# Static dielectric constant tensor:
#      x y z
#    x 2.077360 0.000000 0.000000 
#    y 0.000000 2.120170 0.000000 
#    z 0.000000 0.000000 2.007390 
# 
# From -- ./inp_files/32603.got.cif
#   From: 2010.05.17/outbox.cif.g08.bks.cpg/sg48_17_cif.got.tgz:32603.got - 2010.06.03 20:39:00.
