data_PCOD9390707
_publ_section_title
;
Structure prediction by ZEFSAII (Michael W. Deem and Ramdas Pophale) SiO2 
 PCOD9390707
Probable space group: P N N N
;
_chemical_formula_sum "Si O2"
_cell_formula_units_Z 64
_cell_length_a 17.774021
_cell_length_b 20.018854
_cell_length_c 9.068827
_cell_angle_alpha 90.000000
_cell_angle_beta 90.000000
_cell_angle_gamma 90.000000
_cell_volume 3226.829498
_symmetry_space_group_name_H-M "P N N N"
_symmetry_group_IT_number 48
_space_group.IT_coordinate_system_code '2'
_symmetry_cell_setting 'orthorhombic'
loop_
_space_group_symop_operation_xyz
x,y,z
1/2-x,1/2-y,z
x,1/2-y,1/2-z
1/2-x,y,1/2-z
-x,-y,-z
1/2+x,1/2+y,-z
-x,1/2+y,1/2+z
1/2+x,-y,1/2+z
loop_
_atom_site_type_symbol
_atom_site_label
_atom_site_fract_x
_atom_site_fract_y
_atom_site_fract_z
Si Si1 0.914533 0.012487 0.456027
Si Si2 0.061909 0.305595 0.648539
Si Si3 0.831284 0.083533 0.717448
Si Si4 0.167422 0.780164 0.474616
Si Si5 0.111344 0.208479 0.392603
Si Si6 0.824588 0.617953 0.146710
Si Si7 0.081545 0.852122 0.044045
Si Si8 0.444863 0.649893 0.697336
O O1 0.874432 0.036664 0.605082
O O2 0.922276 0.075442 0.348886
O O3 0.868815 0.950814 0.386791
O O4 0.000000 0.000000 0.500000
O O5 0.023348 0.250000 0.750000
O O6 0.088567 0.267356 0.504748
O O7 0.127610 0.335459 0.744520
O O8 0.000532 0.360021 0.612910
O O9 0.750000 0.055796 0.750000
O O10 0.824622 0.155869 0.633678
O O11 0.869102 0.092652 0.876510
O O12 0.250000 0.750000 0.511564
O O13 0.120924 0.717660 0.412934
O O14 0.115831 0.805003 0.610368
O O15 0.140378 0.250000 0.250000
O O16 0.167319 0.159444 0.488126
O O17 0.031177 0.171213 0.348458
O O18 0.750000 0.606569 0.250000
O O19 0.069019 0.847428 0.870744
#
# Coordination Sequence:
#
# PCOD9390707 Si02
#       8
#     8   8   8   8   8   8   8   8
#     4  11  24  48  73  92 133 193 243 278 338 415
#     4  10  21  37  68  97 130 173 227 284 355 415
#     4  11  24  39  60  95 134 183 233 280 338 404
#     4  11  21  37  59  93 144 183 218 274 347 406
#     4  11  20  42  73 105 140 165 226 296 364 420
#     4  11  26  48  72 100 138 185 237 289 357 425
#     4  12  21  35  60  96 139 176 227 278 343 408
#     4  11  23  39  66 102 138 184 229 282 339 410
#
# _framework density 19.83371
#
# number of rings (size 3 to 8) (size 9 to 14) (size 15 to 20)
#    0.000    1.000    5.000    2.250    3.500    4.250 
#    0.000    7.500    0.000    0.000    0.000    0.000 
#    0.000    0.000    0.000    0.000    0.000    0.000 
#
# Total GULP energy -356575.068836 kJ/mol
# GULP energy per Si atom -5571.485451 kJ/mol
# Density = 1.978857 g / cm^3
# Si number density = 19.833710 Si / 1000 Ang^3
#
#
#
# Elastic Constant Matrix: (Units=GPa)
#
#
# Indices 1 2 3 4 5 6 
#
# 1 109.7982 39.6376 59.0827 0.0000 0.0000 0.0000
# 2 39.6376 83.5819 38.6428 0.0000 0.0000 0.0000
# 3 59.0827 38.6428 120.6156 0.0000 0.0000 0.0000
# 4 0.0000 0.0000 0.0000 20.0810 0.0000 0.0000
# 5 0.0000 0.0000 0.0000 0.0000 23.2826 0.0000
# 6 0.0000 0.0000 0.0000 0.0000 0.0000 27.1831
#
#
#
# Elastic Compliance Matrix: (Units=1/GPa)
#
#
# Indices 1 2 3 4 5 6 
#
# 1 0.013363 -0.003887 -0.005301 0.000000 0.000000 0.000000
# 2 -0.003887 0.015175 -0.002958 0.000000 0.000000 0.000000
# 3 -0.005301 -0.002958 0.011835 0.000000 0.000000 0.000000
# 4 0.000000 0.000000 0.000000 0.049798 0.000000 0.000000
# 5 0.000000 0.000000 0.000000 0.000000 0.042951 0.000000
# 6 0.000000 0.000000 0.000000 0.000000 0.000000 0.036788
#
#
# Mechanical properties :
#
#
# Convention : Reuss Voigt Hill
#
# Bulk Modulus (GPa) = 62.17861 65.41353 63.79607
# Shear Modulus (GPa) = 25.05506 25.88483 25.46994
#
# Velocity S-wave (km/s) = 3.55809 3.61653 3.58743
# Velocity P-wave (km/s) = 6.94968 7.10574 7.02814
#
# Compressibility (1/GPa) = 0.01608270
#
# Stress axis : x y z
#
# Youngs Moduli (GPa) = 74.83383 65.89766 84.49573
#
# Poissons Ratio (x) = 0.25612 0.44787
# Poissons Ratio (y) = 0.29085 0.24994
# Poissons Ratio (z) = 0.39666 0.19492
#
# Static dielectric constant tensor:
#      x y z
#    x 1.725810 0.000000 0.000000 
#    y 0.000000 1.727880 0.000000 
#    z 0.000000 0.000000 1.785300 
# 
# From -- ./inp_files/14582.got.cif
#   From: 2010.05.17/outbox.cif.g08.bks.cpg/sg48_8_cif.got.tgz:14582.got - 2010.06.03 20:39:00.
