data_PCOD9390001
_publ_section_title
;
Structure prediction by ZEFSAII (Michael W. Deem and Ramdas Pophale) SiO2 
 PCOD9390001
Probable space group: P N N N
;
_chemical_formula_sum "Si O2"
_cell_formula_units_Z 48
_cell_length_a 15.877241
_cell_length_b 17.921443
_cell_length_c 8.846262
_cell_angle_alpha 90.000000
_cell_angle_beta 90.000000
_cell_angle_gamma 90.000000
_cell_volume 2517.142544
_symmetry_space_group_name_H-M "P N N N"
_symmetry_group_IT_number 48
_space_group.IT_coordinate_system_code '2'
_symmetry_cell_setting 'orthorhombic'
loop_
_space_group_symop_operation_xyz
x,y,z
1/2-x,1/2-y,z
x,1/2-y,1/2-z
1/2-x,y,1/2-z
-x,-y,-z
1/2+x,1/2+y,-z
-x,1/2+y,1/2+z
1/2+x,-y,1/2+z
loop_
_atom_site_type_symbol
_atom_site_label
_atom_site_fract_x
_atom_site_fract_y
_atom_site_fract_z
Si Si1 0.882796 0.328408 0.300764
Si Si2 0.036224 0.794404 0.102750
Si Si3 0.169501 0.517228 0.826500
Si Si4 0.493445 0.561624 0.284729
Si Si5 0.467537 0.157114 0.070805
Si Si6 0.837102 0.538444 0.840085
O O1 0.845425 0.250000 0.250000
O O2 0.835629 0.399330 0.236954
O O3 0.896322 0.320493 0.479073
O O4 0.974186 0.334388 0.217586
O O5 0.070253 0.750000 0.250000
O O6 0.999033 0.870279 0.168815
O O7 0.973186 0.736167 0.018114
O O8 0.250000 0.478953 0.750000
O O9 0.080164 0.482714 0.780687
O O10 0.179667 0.506393 0.004879
O O11 0.489881 0.598532 0.452809
O O12 0.412364 0.509071 0.260152
O O13 0.379667 0.118245 0.115383
O O14 0.750000 0.545135 0.750000
#
# Coordination Sequence:
#
# PCOD9390001 Si02
#       6
#     8   8   8   8   8   8
#     4  10  19  35  60  82 118 161 200 243 314 380
#     4   9  20  33  62  91 115 158 211 254 314 377
#     4  11  23  38  58  91 124 160 207 259 318 384
#     4  10  19  39  63  86 121 161 203 266 313 369
#     4   9  17  39  60  86 120 168 200 249 316 380
#     4  11  22  37  64  93 125 162 209 263 319 384
#
# _framework density 19.069243
#
# number of rings (size 3 to 8) (size 9 to 14) (size 15 to 20)
#    0.000    2.000    3.333    1.000    2.333    2.333 
#    0.000    0.000    0.000   35.500    0.000    0.000 
#    0.000    0.000    0.000    0.000    0.000    0.000 
#
# Total GULP energy -267436.709695 kJ/mol
# GULP energy per Si atom -5571.598119 kJ/mol
# Density = 1.902584 g / cm^3
# Si number density = 19.069243 Si / 1000 Ang^3
#
#
#
# Elastic Constant Matrix: (Units=GPa)
#
#
# Indices 1 2 3 4 5 6 
#
# 1 125.5656 42.1673 55.2194 0.0000 0.0000 0.0000
# 2 42.1673 87.4257 44.8090 0.0000 0.0000 0.0000
# 3 55.2194 44.8090 101.1335 0.0000 0.0000 0.0000
# 4 0.0000 0.0000 0.0000 17.3173 0.0000 0.0000
# 5 0.0000 0.0000 0.0000 0.0000 5.1627 0.0000
# 6 0.0000 0.0000 0.0000 0.0000 0.0000 8.2281
#
#
#
# Elastic Compliance Matrix: (Units=1/GPa)
#
#
# Indices 1 2 3 4 5 6 
#
# 1 0.011016 -0.002886 -0.004736 0.000000 0.000000 0.000000
# 2 -0.002886 0.015555 -0.005316 0.000000 0.000000 0.000000
# 3 -0.004736 -0.005316 0.014829 0.000000 0.000000 0.000000
# 4 0.000000 0.000000 0.000000 0.057746 0.000000 0.000000
# 5 0.000000 0.000000 0.000000 0.000000 0.193696 0.000000
# 6 0.000000 0.000000 0.000000 0.000000 0.000000 0.121534
#
#
# Mechanical properties :
#
#
# Convention : Reuss Voigt Hill
#
# Bulk Modulus (GPa) = 64.41700 66.50180 65.45940
# Shear Modulus (GPa) = 11.22518 17.60357 14.41437
#
# Velocity S-wave (km/s) = 2.42885 3.04162 2.75234
# Velocity P-wave (km/s) = 6.45908 6.87639 6.67100
#
# Compressibility (1/GPa) = 0.01552385
#
# Stress axis : x y z
#
# Youngs Moduli (GPa) = 90.77840 64.28837 67.43389
#
# Poissons Ratio (x) = 0.18552 0.31938
# Poissons Ratio (y) = 0.26196 0.35850
# Poissons Ratio (z) = 0.42994 0.34177
#
# Static dielectric constant tensor:
#      x y z
#    x 1.664270 0.000000 0.000000 
#    y 0.000000 1.737220 0.000000 
#    z 0.000000 0.000000 1.715280 
# 
# From -- ./inp_files/12767.got.cif
#   From: 2010.05.17/outbox.cif.g08.bks.cpg/sg48_7_cif.got.tgz:12767.got - 2010.06.03 20:39:00.
