data_PCOD9390257
_publ_section_title
;
Structure prediction by ZEFSAII (Michael W. Deem and Ramdas Pophale) SiO2 
 PCOD9390257
Probable space group: P N N N
;
_chemical_formula_sum "Si O2"
_cell_formula_units_Z 64
_cell_length_a 8.203458
_cell_length_b 32.881389
_cell_length_c 11.440995
_cell_angle_alpha 90.000000
_cell_angle_beta 90.000000
_cell_angle_gamma 90.000000
_cell_volume 3086.106504
_symmetry_space_group_name_H-M "P N N N"
_symmetry_group_IT_number 48
_space_group.IT_coordinate_system_code '2'
_symmetry_cell_setting 'orthorhombic'
loop_
_space_group_symop_operation_xyz
x,y,z
1/2-x,1/2-y,z
x,1/2-y,1/2-z
1/2-x,y,1/2-z
-x,-y,-z
1/2+x,1/2+y,-z
-x,1/2+y,1/2+z
1/2+x,-y,1/2+z
loop_
_atom_site_type_symbol
_atom_site_label
_atom_site_fract_x
_atom_site_fract_y
_atom_site_fract_z
Si Si1 0.945053 0.143510 0.244379
Si Si2 0.974329 0.677762 0.503499
Si Si3 0.053443 0.554188 0.758934
Si Si4 0.553081 0.741593 0.381302
Si Si5 0.555182 0.533744 0.240750
Si Si6 0.591582 0.841133 0.000063
Si Si7 0.454879 0.927547 0.025037
Si Si8 0.644821 0.104994 0.630976
O O1 0.750000 0.141342 0.250000
O O2 0.006663 0.097739 0.212610
O O3 0.021300 0.156936 0.367934
O O4 0.985837 0.172513 0.138653
O O5 0.014256 0.723107 0.463268
O O6 0.782925 0.667562 0.494786
O O7 0.067261 0.645378 0.421982
O O8 0.250000 0.553994 0.750000
O O9 0.999146 0.511554 0.703635
O O10 0.010453 0.555869 0.896691
O O11 0.750000 0.750000 0.381763
O O12 0.496881 0.750000 0.250000
O O13 0.516486 0.696361 0.426908
O O14 0.750000 0.535198 0.250000
O O15 0.488944 0.541594 0.371223
O O16 0.485367 0.570141 0.162781
O O17 0.553883 0.885883 0.049235
O O18 0.267768 0.913364 0.034970
O O19 0.750000 0.112141 0.750000
#
# Coordination Sequence:
#
# PCOD9390257 Si02
#       8
#     8   8   8   8   8   8   8   8
#     4  10  21  40  62  85 123 158 191 242 300 349
#     4  11  21  39  62  89 116 153 202 243 288 351
#     4   9  18  35  57  80 107 152 194 238 286 340
#     4   9  21  38  60  90 118 151 191 245 294 339
#     4  10  20  35  55  82 110 149 199 240 282 343
#     4  10  21  38  64  89 114 155 202 242 289 350
#     4  10  20  37  57  79 118 152 186 236 301 346
#     4  10  22  36  55  84 118 156 187 236 306 351
#
# _framework density 20.738105000000001
#
# number of rings (size 3 to 8) (size 9 to 14) (size 15 to 20)
#    0.000    2.125    0.000    3.750    3.500    0.500 
#    0.000   19.375    0.000    0.000    0.000    0.000 
#    0.000    0.000    0.000    0.000    0.000    0.000 
#
# Total GULP energy -357332.819699 kJ/mol
# GULP energy per Si atom -5583.325308 kJ/mol
# Density = 2.069090 g / cm^3
# Si number density = 20.738105 Si / 1000 Ang^3
#
#
#
# Elastic Constant Matrix: (Units=GPa)
#
#
# Indices 1 2 3 4 5 6 
#
# 1 45.7694 9.4055 -6.2993 0.0000 0.0000 0.0000
# 2 9.4055 98.2307 22.1873 0.0000 0.0000 0.0000
# 3 -6.2993 22.1873 48.4578 0.0000 0.0000 0.0000
# 4 0.0000 0.0000 0.0000 13.4662 0.0000 0.0000
# 5 0.0000 0.0000 0.0000 0.0000 26.3996 0.0000
# 6 0.0000 0.0000 0.0000 0.0000 0.0000 5.1525
#
#
#
# Elastic Compliance Matrix: (Units=1/GPa)
#
#
# Indices 1 2 3 4 5 6 
#
# 1 0.023129 -0.003227 0.004484 0.000000 0.000000 0.000000
# 2 -0.003227 0.011805 -0.005825 0.000000 0.000000 0.000000
# 3 0.004484 -0.005825 0.023886 0.000000 0.000000 0.000000
# 4 0.000000 0.000000 0.000000 0.074260 0.000000 0.000000
# 5 0.000000 0.000000 0.000000 0.000000 0.037879 0.000000
# 6 0.000000 0.000000 0.000000 0.000000 0.000000 0.194081
#
#
# Mechanical properties :
#
#
# Convention : Reuss Voigt Hill
#
# Bulk Modulus (GPa) = 20.12679 27.00497 23.56588
# Shear Modulus (GPa) = 12.79631 20.14795 16.47213
#
# Velocity S-wave (km/s) = 2.48673 3.12034 2.82138
# Velocity P-wave (km/s) = 4.23927 5.10218 4.69061
#
# Compressibility (1/GPa) = 0.04968502
#
# Stress axis : x y z
#
# Youngs Moduli (GPa) = 43.23554 84.71177 41.86488
#
# Poissons Ratio (x) = 0.27341 -0.18774
# Poissons Ratio (y) = 0.13954 0.24384
# Poissons Ratio (z) = -0.19389 0.49341
#
# Static dielectric constant tensor:
#      x y z
#    x 1.667630 0.000000 0.000000 
#    y 0.000000 1.743940 0.000000 
#    z 0.000000 0.000000 1.699720 
# 
# From -- ./inp_files/19057.got.cif
#   From: 2010.05.17/outbox.cif.g08.bks.cpg/sg48_10_cif.got.tgz:19057.got - 2010.06.03 20:39:00.
