data_PCOD9390672
_publ_section_title
;
Structure prediction by ZEFSAII (Michael W. Deem and Ramdas Pophale) SiO2 
 PCOD9390672
Probable space group: P N N N
;
_chemical_formula_sum "Si O2"
_cell_formula_units_Z 34
_cell_length_a 7.025236
_cell_length_b 10.701021
_cell_length_c 17.380546
_cell_angle_alpha 90.000000
_cell_angle_beta 90.000000
_cell_angle_gamma 90.000000
_cell_volume 1306.620747
_symmetry_space_group_name_H-M "P N N N"
_symmetry_group_IT_number 48
_space_group.IT_coordinate_system_code '2'
_symmetry_cell_setting 'orthorhombic'
loop_
_space_group_symop_operation_xyz
x,y,z
1/2-x,1/2-y,z
x,1/2-y,1/2-z
1/2-x,y,1/2-z
-x,-y,-z
1/2+x,1/2+y,-z
-x,1/2+y,1/2+z
1/2+x,-y,1/2+z
loop_
_atom_site_type_symbol
_atom_site_label
_atom_site_fract_x
_atom_site_fract_y
_atom_site_fract_z
Si Si1 0.750000 0.250000 0.750000
Si Si2 0.441314 0.286863 0.522312
Si Si3 0.855970 0.124725 0.094442
Si Si4 0.956511 0.514842 0.897675
Si Si5 0.474256 0.463527 0.771878
O O1 0.599437 0.342327 0.791658
O O2 0.250000 0.250000 0.566009
O O3 0.544188 0.169691 0.483159
O O4 0.577858 0.375032 0.572236
O O5 0.375945 0.372590 0.448450
O O6 0.750000 0.250000 0.125591
O O7 0.682304 0.030606 0.082936
O O8 0.983514 0.061001 0.158596
O O9 0.939598 0.520333 0.806794
O O10 0.250000 0.438622 0.750000
#
# Coordination Sequence:
#
# PCOD9390672 Si02
#       5
#     2   8   8   8   8
#     4  12  26  40  64 108 132 180 222 280 348 414
#     4  10  21  36  61  95 129 167 217 283 337 410
#     4   9  20  41  69  93 127 181 224 281 350 401
#     4   9  21  41  58  92 130 172 221 270 350 405
#     4  10  23  44  69  93 137 180 231 283 340 413
#
# _framework density 26.021322000000001
#
# number of rings (size 3 to 8) (size 9 to 14) (size 15 to 20)
#    0.000    2.353    0.000    0.353    3.294   15.529 
#   10.588    1.176    0.000    0.000    0.000    0.000 
#    0.000    0.000    0.000    0.000    0.000    0.000 
#
# Total GULP energy -190012.234924 kJ/mol
# GULP energy per Si atom -5588.595145 kJ/mol
# Density = 2.596210 g / cm^3
# Si number density = 26.021322 Si / 1000 Ang^3
#
#
#
# Elastic Constant Matrix: (Units=GPa)
#
#
# Indices 1 2 3 4 5 6 
#
# 1 91.3076 25.6651 6.7895 0.0000 0.0000 0.0000
# 2 25.6651 81.6014 7.4766 0.0000 0.0000 0.0000
# 3 6.7895 7.4766 64.1955 0.0000 0.0000 0.0000
# 4 0.0000 0.0000 0.0000 40.3577 0.0000 0.0000
# 5 0.0000 0.0000 0.0000 0.0000 25.7002 0.0000
# 6 0.0000 0.0000 0.0000 0.0000 0.0000 54.3467
#
#
#
# Elastic Compliance Matrix: (Units=1/GPa)
#
#
# Indices 1 2 3 4 5 6 
#
# 1 0.012059 -0.003716 -0.000843 0.000000 0.000000 0.000000
# 2 -0.003716 0.013532 -0.001183 0.000000 0.000000 0.000000
# 3 -0.000843 -0.001183 0.015804 0.000000 0.000000 0.000000
# 4 0.000000 0.000000 0.000000 0.024778 0.000000 0.000000
# 5 0.000000 0.000000 0.000000 0.000000 0.038910 0.000000
# 6 0.000000 0.000000 0.000000 0.000000 0.000000 0.018400
#
#
# Mechanical properties :
#
#
# Convention : Reuss Voigt Hill
#
# Bulk Modulus (GPa) = 33.43077 35.21854 34.32465
# Shear Modulus (GPa) = 34.49766 37.22582 35.86174
#
# Velocity S-wave (km/s) = 3.64503 3.78642 3.71640
# Velocity P-wave (km/s) = 5.53085 5.71663 5.62451
#
# Compressibility (1/GPa) = 0.02991256
#
# Stress axis : x y z
#
# Youngs Moduli (GPa) = 82.92540 73.90060 63.27386
#
# Poissons Ratio (x) = 0.27458 0.05332
# Poissons Ratio (y) = 0.30811 0.07485
# Poissons Ratio (z) = 0.06988 0.08743
#
# Static dielectric constant tensor:
#      x y z
#    x 2.120780 0.000000 0.000000 
#    y 0.000000 2.086930 0.000000 
#    z 0.000000 0.000000 2.054680 
# 
# From -- ./inp_files/33219.got.cif
#   From: 2010.05.17/outbox.cif.g08.bks.cpg/sg48_17_cif.got.tgz:33219.got - 2010.06.03 20:39:00.
