data_PCOD9390769
_publ_section_title
;
Structure prediction by ZEFSAII (Michael W. Deem and Ramdas Pophale) SiO2 
 PCOD9390769
Probable space group: P N N N
;
_chemical_formula_sum "Si O2"
_cell_formula_units_Z 56
_cell_length_a 17.468592
_cell_length_b 8.145322
_cell_length_c 19.058240
_cell_angle_alpha 90.000000
_cell_angle_beta 90.000000
_cell_angle_gamma 90.000000
_cell_volume 2711.745641
_symmetry_space_group_name_H-M "P N N N"
_symmetry_group_IT_number 48
_space_group.IT_coordinate_system_code '2'
_symmetry_cell_setting 'orthorhombic'
loop_
_space_group_symop_operation_xyz
x,y,z
1/2-x,1/2-y,z
x,1/2-y,1/2-z
1/2-x,y,1/2-z
-x,-y,-z
1/2+x,1/2+y,-z
-x,1/2+y,1/2+z
1/2+x,-y,1/2+z
loop_
_atom_site_type_symbol
_atom_site_label
_atom_site_fract_x
_atom_site_fract_y
_atom_site_fract_z
Si Si1 0.616773 0.075723 0.521713
Si Si2 0.495114 0.539901 0.894418
Si Si3 0.911107 0.919699 0.217608
Si Si4 0.761898 0.443925 0.331126
Si Si5 0.224153 0.436197 0.976438
Si Si6 0.490595 0.360545 0.315129
Si Si7 0.428678 0.953696 0.051133
O O1 0.563269 0.015329 0.457818
O O2 0.590611 0.259764 0.542375
O O3 0.583786 0.962559 0.583640
O O4 0.705246 0.050966 0.502851
O O5 0.482979 0.403587 0.834493
O O6 0.477134 0.718308 0.864291
O O7 0.885673 0.750000 0.250000
O O8 0.849297 0.999213 0.165860
O O9 0.940245 0.040396 0.278417
O O10 0.750000 0.250000 0.337139
O O11 0.750000 0.490831 0.250000
O O12 0.714788 0.526568 0.393282
O O13 0.250000 0.250000 0.983858
O O14 0.147046 0.463082 0.019045
O O15 0.454374 0.250000 0.250000
O O16 0.445547 0.480431 0.369312
O O17 0.500000 0.000000 0.000000
#
# Coordination Sequence:
#
# PCOD9390769 Si02
#       7
#     8   8   8   8   8   8   8
#     4  11  22  42  68  97 141 175 234 290 360 417
#     4  10  21  38  67  97 131 182 227 287 346 418
#     4  11  24  40  66  94 136 180 236 282 348 432
#     4  11  27  40  60  88 138 188 232 283 356 426
#     4  12  28  43  67 103 145 183 237 300 363 435
#     4  10  23  41  68 101 135 182 234 295 349 427
#     4  12  25  42  72 101 138 190 243 291 358 432
#
# _framework density 20.650904000000001
#
# number of rings (size 3 to 8) (size 9 to 14) (size 15 to 20)
#    0.000    1.000    2.857    3.000   12.000    0.000 
#    0.000    0.000    0.000    9.857    0.000   13.000 
#    0.000    0.000    0.000    0.000    0.000    0.000 
#
# Total GULP energy -312225.962680 kJ/mol
# GULP energy per Si atom -5575.463619 kJ/mol
# Density = 2.060390 g / cm^3
# Si number density = 20.650904 Si / 1000 Ang^3
#
#
#
# Elastic Constant Matrix: (Units=GPa)
#
#
# Indices 1 2 3 4 5 6 
#
# 1 62.5155 14.9057 16.4456 0.0000 0.0000 0.0000
# 2 14.9057 103.3399 16.5708 0.0000 0.0000 0.0000
# 3 16.4456 16.5708 69.8034 0.0000 0.0000 0.0000
# 4 0.0000 0.0000 0.0000 28.6643 0.0000 0.0000
# 5 0.0000 0.0000 0.0000 0.0000 40.6617 0.0000
# 6 0.0000 0.0000 0.0000 0.0000 0.0000 29.8220
#
#
#
# Elastic Compliance Matrix: (Units=1/GPa)
#
#
# Indices 1 2 3 4 5 6 
#
# 1 0.017415 -0.001927 -0.003645 0.000000 0.000000 0.000000
# 2 -0.001927 0.010273 -0.001985 0.000000 0.000000 0.000000
# 3 -0.003645 -0.001985 0.015656 0.000000 0.000000 0.000000
# 4 0.000000 0.000000 0.000000 0.034887 0.000000 0.000000
# 5 0.000000 0.000000 0.000000 0.000000 0.024593 0.000000
# 6 0.000000 0.000000 0.000000 0.000000 0.000000 0.033532
#
#
# Mechanical properties :
#
#
# Convention : Reuss Voigt Hill
#
# Bulk Modulus (GPa) = 35.42472 36.83368 36.12920
# Shear Modulus (GPa) = 31.07910 32.34537 31.71224
#
# Velocity S-wave (km/s) = 3.88361 3.96194 3.92297
# Velocity P-wave (km/s) = 6.10747 6.22931 6.16869
#
# Compressibility (1/GPa) = 0.02822887
#
# Stress axis : x y z
#
# Youngs Moduli (GPa) = 57.42336 97.34211 63.87360
#
# Poissons Ratio (x) = 0.18761 0.23284
# Poissons Ratio (y) = 0.11067 0.12677
# Poissons Ratio (z) = 0.20933 0.19319
#
# Static dielectric constant tensor:
#      x y z
#    x 1.896660 0.000000 0.000000 
#    y 0.000000 1.780240 0.000000 
#    z 0.000000 0.000000 1.953870 
# 
# From -- ./inp_files/34470.got.cif
#   From: 2010.05.17/outbox.cif.g08.bks.cpg/sg48_18_cif.got.tgz:34470.got - 2010.06.03 20:39:00.
