data_PCOD9390761
_publ_section_title
;
Structure prediction by ZEFSAII (Michael W. Deem and Ramdas Pophale) SiO2 
 PCOD9390761
Probable space group: P N N N
;
_chemical_formula_sum "Si O2"
_cell_formula_units_Z 48
_cell_length_a 9.269861
_cell_length_b 7.707958
_cell_length_c 30.723831
_cell_angle_alpha 90.000000
_cell_angle_beta 90.000000
_cell_angle_gamma 90.000000
_cell_volume 2195.269933
_symmetry_space_group_name_H-M "P N N N"
_symmetry_group_IT_number 48
_space_group.IT_coordinate_system_code '2'
_symmetry_cell_setting 'orthorhombic'
loop_
_space_group_symop_operation_xyz
x,y,z
1/2-x,1/2-y,z
x,1/2-y,1/2-z
1/2-x,y,1/2-z
-x,-y,-z
1/2+x,1/2+y,-z
-x,1/2+y,1/2+z
1/2+x,-y,1/2+z
loop_
_atom_site_type_symbol
_atom_site_label
_atom_site_fract_x
_atom_site_fract_y
_atom_site_fract_z
Si Si1 0.088039 0.555311 0.368349
Si Si2 0.073433 0.420872 0.720035
Si Si3 0.088273 0.459491 0.957205
Si Si4 0.083262 0.042283 0.954958
Si Si5 0.150626 0.915652 0.695619
Si Si6 0.083609 0.976878 0.373781
O O1 0.085388 0.765967 0.372170
O O2 0.248365 0.478735 0.371934
O O3 0.032645 0.532516 0.319047
O O4 0.994350 0.488706 0.409591
O O5 0.042443 0.250000 0.750000
O O6 0.230488 0.429381 0.696801
O O7 0.085519 0.570055 0.756141
O O8 0.092507 0.251238 0.952763
O O9 0.252579 0.524693 0.957343
O O10 0.994756 0.532183 0.917755
O O11 0.000000 0.500000 0.000000
O O12 0.000000 0.000000 0.000000
O O13 0.250000 0.750000 0.685434
O O14 0.019499 0.949918 0.663570
#
# Coordination Sequence:
#
# PCOD9390761 Si02
#       6
#     8   8   8   8   8   8
#     4  10  21  38  65  97 127 163 223 274 323 388
#     4  11  21  38  65  94 121 166 219 270 325 391
#     4  10  21  39  63  92 131 168 216 260 320 391
#     4  10  21  39  65  94 129 169 208 269 325 382
#     4  11  23  40  61  91 130 170 215 268 333 395
#     4  10  21  39  62  95 130 168 214 276 327 386
#
# _framework density 21.865193000000001
#
# number of rings (size 3 to 8) (size 9 to 14) (size 15 to 20)
#    0.000    1.667    1.667    4.000    0.000    4.000 
#    6.000    0.833    0.000    4.000    0.000    0.000 
#    0.000    0.000    0.000    0.000    0.000    0.000 
#
# Total GULP energy -267817.460130 kJ/mol
# GULP energy per Si atom -5579.530419 kJ/mol
# Density = 2.181543 g / cm^3
# Si number density = 21.865193 Si / 1000 Ang^3
#
#
#
# Elastic Constant Matrix: (Units=GPa)
#
#
# Indices 1 2 3 4 5 6 
#
# 1 239.5585 30.7670 147.7014 0.0000 0.0000 0.0000
# 2 30.7670 77.1764 18.3082 0.0000 0.0000 0.0000
# 3 147.7014 18.3082 187.4549 0.0000 0.0000 0.0000
# 4 0.0000 0.0000 0.0000 23.6327 0.0000 0.0000
# 5 0.0000 0.0000 0.0000 0.0000 47.2539 0.0000
# 6 0.0000 0.0000 0.0000 0.0000 0.0000 24.4753
#
#
#
# Elastic Compliance Matrix: (Units=1/GPa)
#
#
# Indices 1 2 3 4 5 6 
#
# 1 0.008359 -0.001812 -0.006409 0.000000 0.000000 0.000000
# 2 -0.001812 0.013657 0.000094 0.000000 0.000000 0.000000
# 3 -0.006409 0.000094 0.010375 0.000000 0.000000 0.000000
# 4 0.000000 0.000000 0.000000 0.042314 0.000000 0.000000
# 5 0.000000 0.000000 0.000000 0.000000 0.021162 0.000000
# 6 0.000000 0.000000 0.000000 0.000000 0.000000 0.040857
#
#
# Mechanical properties :
#
#
# Convention : Reuss Voigt Hill
#
# Bulk Modulus (GPa) = 61.96927 99.74921 80.85924
# Shear Modulus (GPa) = 31.57393 39.56660 35.57027
#
# Velocity S-wave (km/s) = 3.80416 4.25852 4.03773
# Velocity P-wave (km/s) = 6.90641 8.36057 7.66804
#
# Compressibility (1/GPa) = 0.01613703
#
# Stress axis : x y z
#
# Youngs Moduli (GPa) = 119.63791 73.22038 96.38268
#
# Poissons Ratio (x) = 0.13266 0.61772
# Poissons Ratio (y) = 0.21676 -0.00903
# Poissons Ratio (z) = 0.76676 -0.00686
#
# Static dielectric constant tensor:
#      x y z
#    x 1.806210 0.000000 0.000000 
#    y 0.000000 1.944210 0.000000 
#    z 0.000000 0.000000 1.834780 
# 
# From -- ./inp_files/38700.got.cif
#   From: 2010.05.17/outbox.cif.g08.bks.cpg/sg48_20_cif.got.tgz:38700.got - 2010.06.03 20:39:00.
