data_PCOD9390915
_publ_section_title
;
Structure prediction by ZEFSAII (Michael W. Deem and Ramdas Pophale) SiO2 
 PCOD9390915
Probable space group: P N N N
;
_chemical_formula_sum "Si O2"
_cell_formula_units_Z 40
_cell_length_a 7.772697
_cell_length_b 8.111718
_cell_length_c 27.593008
_cell_angle_alpha 90.000000
_cell_angle_beta 90.000000
_cell_angle_gamma 90.000000
_cell_volume 1739.737117
_symmetry_space_group_name_H-M "P N N N"
_symmetry_group_IT_number 48
_space_group.IT_coordinate_system_code '2'
_symmetry_cell_setting 'orthorhombic'
loop_
_space_group_symop_operation_xyz
x,y,z
1/2-x,1/2-y,z
x,1/2-y,1/2-z
1/2-x,y,1/2-z
-x,-y,-z
1/2+x,1/2+y,-z
-x,1/2+y,1/2+z
1/2+x,-y,1/2+z
loop_
_atom_site_type_symbol
_atom_site_label
_atom_site_fract_x
_atom_site_fract_y
_atom_site_fract_z
Si Si1 0.010937 0.086198 0.421593
Si Si2 0.986357 0.491036 0.308131
Si Si3 0.658710 0.573802 0.091820
Si Si4 0.552606 0.257373 0.520054
Si Si5 0.750000 0.750000 0.250000
Si Si6 0.250000 0.750000 0.750000
Si Si7 0.250000 0.250000 0.159896
O O1 0.042077 0.186887 0.471136
O O2 0.109399 0.165961 0.376389
O O3 0.808125 0.061277 0.411384
O O4 0.058285 0.900134 0.438338
O O5 0.963450 0.528753 0.364453
O O6 0.888725 0.644974 0.281784
O O7 0.869065 0.350566 0.285729
O O8 0.173355 0.401325 0.307978
O O9 0.750000 0.750000 0.101399
O O10 0.546169 0.604745 0.044020
O O11 0.750000 0.250000 0.506314
#
# Coordination Sequence:
#
# PCOD9390915 Si02
#       7
#     8   8   8   8   2   2   4
#     4  10  24  38  60  99 142 192 237 291 350 418
#     4  11  23  46  76 110 137 182 238 305 372 449
#     4  10  21  41  69  95 138 188 245 290 356 425
#     4  10  22  38  61  94 140 189 248 293 336 407
#     4  10  24  50  86 112 132 188 246 306 382 462
#     4  10  24  44  84  98 140 180 236 290 392 444
#     4  12  26  41  71 106 154 180 237 295 370 432
#
# _framework density 22.991982
#
# number of rings (size 3 to 8) (size 9 to 14) (size 15 to 20)
#    0.000    1.600    1.000    2.400    9.800    1.200 
#    0.000    0.000   13.200    0.000    0.000    0.000 
#    0.000    0.000    0.000    0.000    0.000    0.000 
#
# Total GULP energy -222974.435839 kJ/mol
# GULP energy per Si atom -5574.360896 kJ/mol
# Density = 2.293965 g / cm^3
# Si number density = 22.991982 Si / 1000 Ang^3
#
#
#
# Elastic Constant Matrix: (Units=GPa)
#
#
# Indices 1 2 3 4 5 6 
#
# 1 104.8968 46.4883 32.8908 0.0000 0.0000 0.0000
# 2 46.4883 90.6877 45.0063 0.0000 0.0000 0.0000
# 3 32.8908 45.0063 83.7200 0.0000 0.0000 0.0000
# 4 0.0000 0.0000 0.0000 -30.3778 0.0000 0.0000
# 5 0.0000 0.0000 0.0000 0.0000 27.8984 0.0000
# 6 0.0000 0.0000 0.0000 0.0000 0.0000 45.3855
#
#
#
# Elastic Compliance Matrix: (Units=1/GPa)
#
#
# Indices 1 2 3 4 5 6 
#
# 1 0.012579 -0.005450 -0.002012 0.000000 0.000000 0.000000
# 2 -0.005450 0.017400 -0.007213 0.000000 0.000000 0.000000
# 3 -0.002012 -0.007213 0.016613 0.000000 0.000000 0.000000
# 4 0.000000 0.000000 0.000000 -0.032919 0.000000 0.000000
# 5 0.000000 0.000000 0.000000 0.000000 0.035844 0.000000
# 6 0.000000 0.000000 0.000000 0.000000 0.000000 0.022033
#
#
# Mechanical properties :
#
#
# Convention : Reuss Voigt Hill
#
# Bulk Modulus (GPa) = 57.99747 58.67502 58.33624
# Shear Modulus (GPa) = 46.88293 18.90918 32.89606
#
# Velocity S-wave (km/s) = 4.52054 2.87091 3.78665
# Velocity P-wave (km/s) = 7.24754 6.04687 6.67426
#
# Compressibility (1/GPa) = 0.01724213
#
# Stress axis : x y z
#
# Youngs Moduli (GPa) = 79.49519 57.47088 60.19490
#
# Poissons Ratio (x) = 0.31320 0.12113
# Poissons Ratio (y) = 0.43323 0.43418
# Poissons Ratio (z) = 0.15997 0.41453
#
# Static dielectric constant tensor:
#      x y z
#    x 1.778460 0.000000 0.000000 
#    y 0.000000 1.940110 0.000000 
#    z 0.000000 0.000000 1.857060 
# 
# From -- ./inp_files/37431.got.cif
#   From: 2010.05.17/outbox.cif.g08.bks.cpg/sg48_19_cif.got.tgz:37431.got - 2010.06.03 20:39:00.
