data_PCOD9390525
_publ_section_title
;
Structure prediction by ZEFSAII (Michael W. Deem and Ramdas Pophale) SiO2 
 PCOD9390525
Probable space group: P N N N
;
_chemical_formula_sum "Si O2"
_cell_formula_units_Z 52
_cell_length_a 24.225530
_cell_length_b 18.084946
_cell_length_c 6.128138
_cell_angle_alpha 90.000000
_cell_angle_beta 90.000000
_cell_angle_gamma 90.000000
_cell_volume 2684.843899
_symmetry_space_group_name_H-M "P N N N"
_symmetry_group_IT_number 48
_space_group.IT_coordinate_system_code '2'
_symmetry_cell_setting 'orthorhombic'
loop_
_space_group_symop_operation_xyz
x,y,z
1/2-x,1/2-y,z
x,1/2-y,1/2-z
1/2-x,y,1/2-z
-x,-y,-z
1/2+x,1/2+y,-z
-x,1/2+y,1/2+z
1/2+x,-y,1/2+z
loop_
_atom_site_type_symbol
_atom_site_label
_atom_site_fract_x
_atom_site_fract_y
_atom_site_fract_z
Si Si1 0.304029 0.544737 0.368689
Si Si2 0.035648 0.250000 0.750000
Si Si3 0.250000 0.859215 0.750000
Si Si4 0.500901 0.583263 0.230918
Si Si5 0.443664 0.866373 0.659787
Si Si6 0.340271 0.683658 0.081310
Si Si7 0.088094 0.990623 0.544461
Si Si8 0.466147 0.250000 0.250000
O O1 0.250000 0.512452 0.250000
O O2 0.281895 0.588775 0.578576
O O3 0.330688 0.606524 0.208959
O O4 0.353449 0.491002 0.438082
O O5 0.002468 0.172603 0.741921
O O6 0.061335 0.254472 0.496524
O O7 0.294039 0.814920 0.605218
O O8 0.456476 0.537426 0.369231
O O9 0.560107 0.553542 0.308848
O O10 0.478835 0.576977 0.986364
O O11 0.401026 0.817030 0.522615
O O12 0.491420 0.818535 0.767529
O O13 0.405832 0.916138 0.813353
O O14 0.333191 0.750000 0.250000
#
# Coordination Sequence:
#
# PCOD9390525 Si02
#       8
#     8   4   4   8   8   8   8   4
#     4  10  22  37  52  74 101 146 190 247 287 355
#     4  10  20  40  52  88 113 163 188 244 292 384
#     4  10  22  41  50  66 100 147 196 248 294 329
#     4  10  22  34  58  81 118 145 197 238 305 360
#     4  11  21  34  51  79 107 155 197 245 292 364
#     4  11  24  34  54  73 105 148 203 253 296 339
#     4  11  20  38  55  82 107 155 194 250 293 361
#     4  10  22  32  56  73 118 152 203 230 292 346
#
# _framework density 19.367978000000001
#
# number of rings (size 3 to 8) (size 9 to 14) (size 15 to 20)
#    0.000    1.538    4.615    0.462    6.462    4.000 
#    0.000    0.000    0.000    0.000    0.000    0.000 
#    0.000    0.615    5.231    0.000    0.000    0.000 
#
# Total GULP energy -289724.992141 kJ/mol
# GULP energy per Si atom -5571.634464 kJ/mol
# Density = 1.932390 g / cm^3
# Si number density = 19.367978 Si / 1000 Ang^3
#
#
#
# Elastic Constant Matrix: (Units=GPa)
#
#
# Indices 1 2 3 4 5 6 
#
# 1 104.8778 20.4655 32.4887 0.0000 0.0000 0.0000
# 2 20.4655 34.5293 7.5576 0.0000 0.0000 0.0000
# 3 32.4887 7.5576 112.1308 0.0000 0.0000 0.0000
# 4 0.0000 0.0000 0.0000 20.7269 0.0000 0.0000
# 5 0.0000 0.0000 0.0000 0.0000 21.4105 0.0000
# 6 0.0000 0.0000 0.0000 0.0000 0.0000 9.2876
#
#
#
# Elastic Compliance Matrix: (Units=1/GPa)
#
#
# Indices 1 2 3 4 5 6 
#
# 1 0.011676 -0.006272 -0.002960 0.000000 0.000000 0.000000
# 2 -0.006272 0.032764 -0.000391 0.000000 0.000000 0.000000
# 3 -0.002960 -0.000391 0.009802 0.000000 0.000000 0.000000
# 4 0.000000 0.000000 0.000000 0.048246 0.000000 0.000000
# 5 0.000000 0.000000 0.000000 0.000000 0.046706 0.000000
# 6 0.000000 0.000000 0.000000 0.000000 0.000000 0.107670
#
#
# Mechanical properties :
#
#
# Convention : Reuss Voigt Hill
#
# Bulk Modulus (GPa) = 28.57536 41.39570 34.98553
# Shear Modulus (GPa) = 17.37455 23.02008 20.19732
#
# Velocity S-wave (km/s) = 2.99837 3.45130 3.23278
# Velocity P-wave (km/s) = 5.17426 6.10750 5.66015
#
# Compressibility (1/GPa) = 0.03499519
#
# Stress axis : x y z
#
# Youngs Moduli (GPa) = 85.64663 30.52116 102.01797
#
# Poissons Ratio (x) = 0.19144 0.30199
# Poissons Ratio (y) = 0.53721 0.03988
# Poissons Ratio (z) = 0.25353 0.01193
#
# Static dielectric constant tensor:
#      x y z
#    x 1.677280 0.000000 0.000000 
#    y 0.000000 1.718780 0.000000 
#    z 0.000000 0.000000 1.888290 
# 
# From -- ./inp_files/6585.got.cif
#   From: 2010.05.17/outbox.cif.g08.bks.cpg/sg48_4_cif.got.tgz:6585.got - 2010.06.03 20:39:00.
