data_PCOD9390920
_publ_section_title
;
Structure prediction by ZEFSAII (Michael W. Deem and Ramdas Pophale) SiO2 
 PCOD9390920
Probable space group: P N N N
;
_chemical_formula_sum "Si O2"
_cell_formula_units_Z 32
_cell_length_a 11.538287
_cell_length_b 8.949904
_cell_length_c 13.135162
_cell_angle_alpha 90.000000
_cell_angle_beta 90.000000
_cell_angle_gamma 90.000000
_cell_volume 1356.423008
_symmetry_space_group_name_H-M "P N N N"
_symmetry_group_IT_number 48
_space_group.IT_coordinate_system_code '2'
_symmetry_cell_setting 'orthorhombic'
loop_
_space_group_symop_operation_xyz
x,y,z
1/2-x,1/2-y,z
x,1/2-y,1/2-z
1/2-x,y,1/2-z
-x,-y,-z
1/2+x,1/2+y,-z
-x,1/2+y,1/2+z
1/2+x,-y,1/2+z
loop_
_atom_site_type_symbol
_atom_site_label
_atom_site_fract_x
_atom_site_fract_y
_atom_site_fract_z
Si Si1 0.759837 0.585046 0.129054
Si Si2 0.114526 0.914028 0.222350
Si Si3 0.129697 0.848918 0.992731
Si Si4 0.541724 0.359600 0.340015
O O1 0.750000 0.750000 0.084971
O O2 0.750000 0.595072 0.250000
O O3 0.661284 0.481685 0.083023
O O4 0.877274 0.492003 0.117537
O O5 0.063388 0.750000 0.250000
O O6 0.250000 0.911198 0.250000
O O7 0.101376 0.917359 0.101403
O O8 0.060492 0.051497 0.284317
O O9 0.250000 0.750000 0.003653
O O10 0.032850 0.747285 0.938196
O O11 0.592452 0.250000 0.250000
#
# Coordination Sequence:
#
# PCOD9390920 Si02
#       4
#     8   8   8   8
#     4  10  21  41  71 105 136 173 231 292 348 413
#     4  11  25  48  66  97 145 190 233 290 349 426
#     4  10  21  45  71  98 141 185 230 292 360 412
#     4  11  24  42  70 104 136 185 235 294 349 420
#
# _framework density 23.591460999999999
#
# number of rings (size 3 to 8) (size 9 to 14) (size 15 to 20)
#    0.000    1.500    5.000    0.000    3.500    2.500 
#    4.500    0.000    0.000    0.000    0.000    0.000 
#    0.000    0.000    0.000    0.000    0.000    0.000 
#
# Total GULP energy -178787.655572 kJ/mol
# GULP energy per Si atom -5587.114237 kJ/mol
# Density = 2.353777 g / cm^3
# Si number density = 23.591461 Si / 1000 Ang^3
#
#
#
# Elastic Constant Matrix: (Units=GPa)
#
#
# Indices 1 2 3 4 5 6 
#
# 1 65.8095 69.0849 49.5203 0.0000 0.0000 0.0000
# 2 69.0849 174.0668 53.9423 0.0000 0.0000 0.0000
# 3 49.5203 53.9423 143.9029 0.0000 0.0000 0.0000
# 4 0.0000 0.0000 0.0000 36.6616 0.0000 0.0000
# 5 0.0000 0.0000 0.0000 0.0000 9.1694 0.0000
# 6 0.0000 0.0000 0.0000 0.0000 0.0000 31.0017
#
#
#
# Elastic Compliance Matrix: (Units=1/GPa)
#
#
# Indices 1 2 3 4 5 6 
#
# 1 0.031078 -0.010206 -0.006869 0.000000 0.000000 0.000000
# 2 -0.010206 0.009851 -0.000181 0.000000 0.000000 0.000000
# 3 -0.006869 -0.000181 0.009381 0.000000 0.000000 0.000000
# 4 0.000000 0.000000 0.000000 0.027276 0.000000 0.000000
# 5 0.000000 0.000000 0.000000 0.000000 0.109058 0.000000
# 6 0.000000 0.000000 0.000000 0.000000 0.000000 0.032256
#
#
# Mechanical properties :
#
#
# Convention : Reuss Voigt Hill
#
# Bulk Modulus (GPa) = 63.29537 80.98603 72.14070
# Shear Modulus (GPa) = 19.32905 29.44866 24.38885
#
# Velocity S-wave (km/s) = 2.86549 3.53693 3.21876
# Velocity P-wave (km/s) = 6.15110 7.14723 6.66779
#
# Compressibility (1/GPa) = 0.01579894
#
# Stress axis : x y z
#
# Youngs Moduli (GPa) = 32.17732 101.50758 106.60212
#
# Poissons Ratio (x) = 1.03596 0.73224
# Poissons Ratio (y) = 0.32839 0.01928
# Poissons Ratio (z) = 0.22102 0.01835
#
# Static dielectric constant tensor:
#      x y z
#    x 1.977020 0.000000 0.000000 
#    y 0.000000 1.927780 0.000000 
#    z 0.000000 0.000000 1.882400 
# 
# From -- ./inp_files/10276.got.cif
#   From: 2010.05.17/outbox.cif.g08.bks.cpg/sg48_6_cif.got.tgz:10276.got - 2010.06.03 20:39:00.
