data_PCOD9390351
_publ_section_title
;
Structure prediction by ZEFSAII (Michael W. Deem and Ramdas Pophale) SiO2 
 PCOD9390351
Probable space group: P N N N
;
_chemical_formula_sum "Si O2"
_cell_formula_units_Z 46
_cell_length_a 8.969011
_cell_length_b 25.344461
_cell_length_c 10.449545
_cell_angle_alpha 90.000000
_cell_angle_beta 90.000000
_cell_angle_gamma 90.000000
_cell_volume 2375.335704
_symmetry_space_group_name_H-M "P N N N"
_symmetry_group_IT_number 48
_space_group.IT_coordinate_system_code '2'
_symmetry_cell_setting 'orthorhombic'
loop_
_space_group_symop_operation_xyz
x,y,z
1/2-x,1/2-y,z
x,1/2-y,1/2-z
1/2-x,y,1/2-z
-x,-y,-z
1/2+x,1/2+y,-z
-x,1/2+y,1/2+z
1/2+x,-y,1/2+z
loop_
_atom_site_type_symbol
_atom_site_label
_atom_site_fract_x
_atom_site_fract_y
_atom_site_fract_z
Si Si1 0.807839 0.101698 0.883266
Si Si2 0.334823 0.111727 0.611477
Si Si3 0.250000 0.750000 0.750000
Si Si4 0.177377 0.999570 0.987630
Si Si5 0.393327 0.656785 0.598317
Si Si6 0.274870 0.312919 0.401074
Si Si7 0.750000 0.072934 0.250000
O O1 0.750000 0.122478 0.750000
O O2 0.987001 0.103695 0.875001
O O3 0.761825 0.039807 0.903155
O O4 0.725723 0.135742 0.993927
O O5 0.250000 0.118371 0.750000
O O6 0.323837 0.158815 0.508675
O O7 0.271064 0.058960 0.540104
O O8 0.344351 0.711554 0.661090
O O9 0.209300 0.965010 0.863650
O O10 0.000000 0.000000 0.000000
O O11 0.561041 0.667046 0.557536
O O12 0.382678 0.611963 0.708164
O O13 0.250000 0.250000 0.408055
O O14 0.250000 0.327288 0.250000
#
# Coordination Sequence:
#
# PCOD9390351 Si02
#       7
#     8   8   2   8   8   8   4
#     4  10  22  41  63  92 128 165 214 261 316 389
#     4  11  23  42  65  92 132 172 212 264 326 382
#     4  10  20  36  72  88 116 164 216 258 314 368
#     4   9  19  35  60  89 124 163 205 255 313 377
#     4  10  22  38  65  91 124 161 211 262 318 376
#     4  11  26  42  63  94 130 164 216 268 326 380
#     4   9  18  37  60  92 121 158 205 258 304 380
#
# _framework density 19.365684000000002
#
# number of rings (size 3 to 8) (size 9 to 14) (size 15 to 20)
#    0.000    1.913    0.870    2.087   12.174    1.043 
#    3.130    3.043    0.000    0.000    0.000    0.000 
#    0.000    0.000    0.000    0.000    0.000    0.000 
#
# Total GULP energy -256077.330498 kJ/mol
# GULP energy per Si atom -5566.898489 kJ/mol
# Density = 1.932161 g / cm^3
# Si number density = 19.365684 Si / 1000 Ang^3
#
#
#
# Elastic Constant Matrix: (Units=GPa)
#
#
# Indices 1 2 3 4 5 6 
#
# 1 67.7062 11.8605 13.5780 0.0000 0.0000 0.0000
# 2 11.8605 104.0779 40.3634 0.0000 0.0000 0.0000
# 3 13.5780 40.3634 101.5579 0.0000 0.0000 0.0000
# 4 0.0000 0.0000 0.0000 43.9608 0.0000 0.0000
# 5 0.0000 0.0000 0.0000 0.0000 27.5545 0.0000
# 6 0.0000 0.0000 0.0000 0.0000 0.0000 -22.5524
#
#
#
# Elastic Compliance Matrix: (Units=1/GPa)
#
#
# Indices 1 2 3 4 5 6 
#
# 1 0.015287 -0.001122 -0.001598 0.000000 0.000000 0.000000
# 2 -0.001122 0.011441 -0.004397 0.000000 0.000000 0.000000
# 3 -0.001598 -0.004397 0.011808 0.000000 0.000000 0.000000
# 4 0.000000 0.000000 0.000000 0.022748 0.000000 0.000000
# 5 0.000000 0.000000 0.000000 0.000000 0.036292 0.000000
# 6 0.000000 0.000000 0.000000 0.000000 0.000000 -0.044341
#
#
# Mechanical properties :
#
#
# Convention : Reuss Voigt Hill
#
# Bulk Modulus (GPa) = 41.15008 44.99398 43.07203
# Shear Modulus (GPa) = 66.16445 23.62859 44.89652
#
# Velocity S-wave (km/s) = 5.85149 3.49682 4.82015
# Velocity P-wave (km/s) = 8.18220 6.29190 7.29851
#
# Compressibility (1/GPa) = 0.02430129
#
# Stress axis : x y z
#
# Youngs Moduli (GPa) = 65.41622 87.40168 84.68940
#
# Poissons Ratio (x) = 0.09810 0.13531
# Poissons Ratio (y) = 0.07343 0.37240
# Poissons Ratio (z) = 0.10451 0.38433
#
# Static dielectric constant tensor:
#      x y z
#    x 1.821650 0.000000 0.000000 
#    y 0.000000 1.943700 0.000000 
#    z 0.000000 0.000000 1.614520 
# 
# From -- ./inp_files/18845.got.cif
#   From: 2010.05.17/outbox.cif.g08.bks.cpg/sg48_10_cif.got.tgz:18845.got - 2010.06.03 20:39:00.
