data_PCOD9390253
_publ_section_title
;
Structure prediction by ZEFSAII (Michael W. Deem and Ramdas Pophale) SiO2 
 PCOD9390253
Probable space group: P N N N
;
_chemical_formula_sum "Si O2"
_cell_formula_units_Z 46
_cell_length_a 13.545089
_cell_length_b 8.309641
_cell_length_c 22.244308
_cell_angle_alpha 90.000000
_cell_angle_beta 90.000000
_cell_angle_gamma 90.000000
_cell_volume 2503.704237
_symmetry_space_group_name_H-M "P N N N"
_symmetry_group_IT_number 48
_space_group.IT_coordinate_system_code '2'
_symmetry_cell_setting 'orthorhombic'
loop_
_space_group_symop_operation_xyz
x,y,z
1/2-x,1/2-y,z
x,1/2-y,1/2-z
1/2-x,y,1/2-z
-x,-y,-z
1/2+x,1/2+y,-z
-x,1/2+y,1/2+z
1/2+x,-y,1/2+z
loop_
_atom_site_type_symbol
_atom_site_label
_atom_site_fract_x
_atom_site_fract_y
_atom_site_fract_z
Si Si1 0.437839 0.563691 0.092916
Si Si2 0.250000 0.750000 0.750000
Si Si3 0.250000 0.750000 0.428394
Si Si4 0.649919 0.463940 0.470870
Si Si5 0.593227 0.695165 0.182872
Si Si6 0.708311 0.997763 0.155992
Si Si7 0.463369 0.248346 0.479807
O O1 0.334090 0.650777 0.105722
O O2 0.510453 0.597055 0.148093
O O3 0.430741 0.379613 0.070503
O O4 0.486519 0.653432 0.035229
O O5 0.188457 0.638690 0.796270
O O6 0.302197 0.623406 0.472614
O O7 0.720295 0.450167 0.412975
O O8 0.547680 0.370551 0.455833
O O9 0.623142 0.643632 0.491860
O O10 0.568350 0.750000 0.250000
O O11 0.622778 0.864188 0.152043
O O12 0.693124 0.589160 0.180257
#
# Coordination Sequence:
#
# PCOD9390253 Si02
#       7
#     8   2   4   8   8   8   8
#     4  10  21  37  56  80 112 153 198 237 291 350
#     4  12  22  34  52  84 120 150 208 228 286 374
#     4  10  23  36  55  83 114 147 196 242 290 352
#     4  10  20  35  54  87 121 150 183 239 295 363
#     4  11  22  40  54  79 116 155 194 237 291 352
#     4  11  22  34  55  84 117 155 185 235 294 362
#     4   9  20  35  56  84 116 151 188 233 300 354
#
# _framework density 18.372775000000001
#
# number of rings (size 3 to 8) (size 9 to 14) (size 15 to 20)
#    0.000    1.739    3.478    1.043    9.739    0.696 
#    0.000    0.435    0.000    0.000    0.000    0.000 
#    0.000    0.000    0.000    0.000    0.000    0.000 
#
# Total GULP energy -256556.882802 kJ/mol
# GULP energy per Si atom -5577.323539 kJ/mol
# Density = 1.833096 g / cm^3
# Si number density = 18.372775 Si / 1000 Ang^3
#
#
#
# Elastic Constant Matrix: (Units=GPa)
#
#
# Indices 1 2 3 4 5 6 
#
# 1 64.8594 30.5665 27.1685 0.0000 0.0000 0.0000
# 2 30.5665 104.0346 32.4548 0.0000 0.0000 0.0000
# 3 27.1685 32.4548 83.3664 0.0000 0.0000 0.0000
# 4 0.0000 0.0000 0.0000 19.3803 0.0000 0.0000
# 5 0.0000 0.0000 0.0000 0.0000 13.6691 0.0000
# 6 0.0000 0.0000 0.0000 0.0000 0.0000 11.5744
#
#
#
# Elastic Compliance Matrix: (Units=1/GPa)
#
#
# Indices 1 2 3 4 5 6 
#
# 1 0.019367 -0.004236 -0.004663 0.000000 0.000000 0.000000
# 2 -0.004236 0.011867 -0.003240 0.000000 0.000000 0.000000
# 3 -0.004663 -0.003240 0.014776 0.000000 0.000000 0.000000
# 4 0.000000 0.000000 0.000000 0.051599 0.000000 0.000000
# 5 0.000000 0.000000 0.000000 0.000000 0.073158 0.000000
# 6 0.000000 0.000000 0.000000 0.000000 0.000000 0.086398
#
#
# Mechanical properties :
#
#
# Convention : Reuss Voigt Hill
#
# Bulk Modulus (GPa) = 46.00970 48.07113 47.04042
# Shear Modulus (GPa) = 17.31986 19.72945 18.52465
#
# Velocity S-wave (km/s) = 3.07366 3.28051 3.17877
# Velocity P-wave (km/s) = 6.13948 6.36947 6.25553
#
# Compressibility (1/GPa) = 0.02173455
#
# Stress axis : x y z
#
# Youngs Moduli (GPa) = 51.63350 84.26507 67.67756
#
# Poissons Ratio (x) = 0.35692 0.31556
# Poissons Ratio (y) = 0.21871 0.21925
# Poissons Ratio (z) = 0.24075 0.27298
#
# Static dielectric constant tensor:
#      x y z
#    x 1.651050 0.000000 0.000000 
#    y 0.000000 1.692420 0.000000 
#    z 0.000000 0.000000 1.640670 
# 
# From -- ./inp_files/34409.got.cif
#   From: 2010.05.17/outbox.cif.g08.bks.cpg/sg48_18_cif.got.tgz:34409.got - 2010.06.03 20:39:00.
