data_PCOD9390848
_publ_section_title
;
Structure prediction by ZEFSAII (Michael W. Deem and Ramdas Pophale) SiO2 
 PCOD9390848
Probable space group: P N N N
;
_chemical_formula_sum "Si O2"
_cell_formula_units_Z 40
_cell_length_a 16.300161
_cell_length_b 8.988123
_cell_length_c 10.757872
_cell_angle_alpha 90.000000
_cell_angle_beta 90.000000
_cell_angle_gamma 90.000000
_cell_volume 1576.112719
_symmetry_space_group_name_H-M "P N N N"
_symmetry_group_IT_number 48
_space_group.IT_coordinate_system_code '2'
_symmetry_cell_setting 'orthorhombic'
loop_
_space_group_symop_operation_xyz
x,y,z
1/2-x,1/2-y,z
x,1/2-y,1/2-z
1/2-x,y,1/2-z
-x,-y,-z
1/2+x,1/2+y,-z
-x,1/2+y,1/2+z
1/2+x,-y,1/2+z
loop_
_atom_site_type_symbol
_atom_site_label
_atom_site_fract_x
_atom_site_fract_y
_atom_site_fract_z
Si Si1 0.047349 0.000981 0.691102
Si Si2 0.380963 0.747124 0.956933
Si Si3 0.636044 0.492717 0.662963
Si Si4 0.445871 0.189922 0.554779
Si Si5 0.803409 0.518269 0.563758
O O1 0.059170 0.137784 0.595668
O O2 0.052717 0.086536 0.821765
O O3 0.954714 0.940250 0.673710
O O4 0.108610 0.867756 0.653578
O O5 0.371855 0.844303 0.081918
O O6 0.470133 0.671170 0.977881
O O7 0.313048 0.617775 0.965257
O O8 0.711914 0.570966 0.593689
O O9 0.663740 0.461469 0.803216
O O10 0.366453 0.141364 0.480232
#
# Coordination Sequence:
#
# PCOD9390848 Si02
#       5
#     8   8   8   8   8
#     4  10  22  42  68  93 136 186 235 274 346 426
#     4  11  21  40  65  97 130 179 236 281 338 418
#     4  10  21  40  64  98 136 174 215 290 360 402
#     4  10  21  41  64 100 134 182 233 281 342 418
#     4  11  22  38  69 101 133 170 230 293 350 397
#
# _framework density 25.378896999999998
#
# number of rings (size 3 to 8) (size 9 to 14) (size 15 to 20)
#    0.000    1.600    2.000    4.200    0.000    2.400 
#    0.000    8.000    0.000   21.600    5.200    0.000 
#    0.000    0.000    0.000    0.000    0.000    0.000 
#
# Total GULP energy -223817.164668 kJ/mol
# GULP energy per Si atom -5595.429117 kJ/mol
# Density = 2.532113 g / cm^3
# Si number density = 25.378897 Si / 1000 Ang^3
#
#
#
# Elastic Constant Matrix: (Units=GPa)
#
#
# Indices 1 2 3 4 5 6 
#
# 1 129.5552 37.9354 32.9694 0.0000 0.0000 0.0000
# 2 37.9354 100.5720 55.4224 0.0000 0.0000 0.0000
# 3 32.9694 55.4224 41.5724 0.0000 0.0000 0.0000
# 4 0.0000 0.0000 0.0000 34.7810 0.0000 0.0000
# 5 0.0000 0.0000 0.0000 0.0000 42.6786 0.0000
# 6 0.0000 0.0000 0.0000 0.0000 0.0000 40.0040
#
#
#
# Elastic Compliance Matrix: (Units=1/GPa)
#
#
# Indices 1 2 3 4 5 6 
#
# 1 0.009799 0.002210 -0.010717 0.000000 0.000000 0.000000
# 2 0.002210 0.037972 -0.052375 0.000000 0.000000 0.000000
# 3 -0.010717 -0.052375 0.102378 0.000000 0.000000 0.000000
# 4 0.000000 0.000000 0.000000 0.028751 0.000000 0.000000
# 5 0.000000 0.000000 0.000000 0.000000 0.023431 0.000000
# 6 0.000000 0.000000 0.000000 0.000000 0.000000 0.024998
#
#
# Mechanical properties :
#
#
# Convention : Reuss Voigt Hill
#
# Bulk Modulus (GPa) = 35.23116 58.26154 46.74635
# Shear Modulus (GPa) = 13.94486 33.18421 23.56453
#
# Velocity S-wave (km/s) = 2.34661 3.61993 3.05045
# Velocity P-wave (km/s) = 4.61024 6.36226 5.55575
#
# Compressibility (1/GPa) = 0.02838396
#
# Stress axis : x y z
#
# Youngs Moduli (GPa) = 102.05144 26.33517 9.76773
#
# Poissons Ratio (x) = -0.05820 0.10468
# Poissons Ratio (y) = -0.22551 0.51159
# Poissons Ratio (z) = 1.09370 1.37931
#
# Static dielectric constant tensor:
#      x y z
#    x 2.053580 0.000000 0.000000 
#    y 0.000000 2.024920 0.000000 
#    z 0.000000 0.000000 2.003510 
# 
# From -- ./inp_files/21912.got.cif
#   From: 2010.05.17/outbox.cif.g08.bks.cpg/sg48_11_cif.got.tgz:21912.got - 2010.06.03 20:39:00.
