data_PCOD9390794
_publ_section_title
;
Structure prediction by ZEFSAII (Michael W. Deem and Ramdas Pophale) SiO2 
 PCOD9390794
Probable space group: P N N N
;
_chemical_formula_sum "Si O2"
_cell_formula_units_Z 48
_cell_length_a 24.978178
_cell_length_b 8.937226
_cell_length_c 10.267778
_cell_angle_alpha 90.000000
_cell_angle_beta 90.000000
_cell_angle_gamma 90.000000
_cell_volume 2292.133807
_symmetry_space_group_name_H-M "P N N N"
_symmetry_group_IT_number 48
_space_group.IT_coordinate_system_code '2'
_symmetry_cell_setting 'orthorhombic'
loop_
_space_group_symop_operation_xyz
x,y,z
1/2-x,1/2-y,z
x,1/2-y,1/2-z
1/2-x,y,1/2-z
-x,-y,-z
1/2+x,1/2+y,-z
-x,1/2+y,1/2+z
1/2+x,-y,1/2+z
loop_
_atom_site_type_symbol
_atom_site_label
_atom_site_fract_x
_atom_site_fract_y
_atom_site_fract_z
Si Si1 0.264205 0.903870 0.544825
Si Si2 0.456811 0.438425 0.102631
Si Si3 0.162041 0.430073 0.071118
Si Si4 0.042412 0.078799 0.408652
Si Si5 0.689010 0.691427 0.119099
Si Si6 0.349636 0.904879 0.326011
O O1 0.250000 0.750000 0.610122
O O2 0.299271 0.870654 0.416720
O O3 0.208720 0.982240 0.503472
O O4 0.302297 0.015505 0.623473
O O5 0.469963 0.456290 0.256969
O O6 0.453960 0.259254 0.080459
O O7 0.400544 0.529271 0.095538
O O8 0.500000 0.500000 0.000000
O O9 0.101097 0.481005 0.050857
O O10 0.168314 0.465909 0.223539
O O11 0.166084 0.262445 0.012962
O O12 0.000000 0.000000 0.500000
O O13 0.750000 0.750000 0.120330
O O14 0.661180 0.750000 0.250000
O O15 0.363121 0.750000 0.250000
#
# Coordination Sequence:
#
# PCOD9390794 Si02
#       6
#     8   8   8   8   8   8
#     4  11  21  36  65 101 133 170 217 276 340 403
#     4  10  24  42  68  96 128 176 223 277 350 408
#     4  10  21  39  64  90 132 175 209 271 340 395
#     4  10  23  44  65  96 132 169 230 284 336 411
#     4   9  20  40  60  86 130 178 225 263 319 408
#     4  11  22  38  67 100 139 164 222 283 344 414
#
# _framework density 20.941185999999998
#
# number of rings (size 3 to 8) (size 9 to 14) (size 15 to 20)
#    0.000    1.833    1.667    1.500    4.667    2.000 
#    6.000   12.500    0.000    0.000    0.000    0.000 
#    0.000    0.000    0.000    0.000    0.000    0.000 
#
# Total GULP energy -267614.933447 kJ/mol
# GULP energy per Si atom -5575.311113 kJ/mol
# Density = 2.089352 g / cm^3
# Si number density = 20.941186 Si / 1000 Ang^3
#
#
#
# Elastic Constant Matrix: (Units=GPa)
#
#
# Indices 1 2 3 4 5 6 
#
# 1 120.0747 48.8024 68.0995 0.0000 0.0000 0.0000
# 2 48.8024 132.3188 63.0414 0.0000 0.0000 0.0000
# 3 68.0995 63.0414 90.9717 0.0000 0.0000 0.0000
# 4 0.0000 0.0000 0.0000 24.8139 0.0000 0.0000
# 5 0.0000 0.0000 0.0000 0.0000 25.2064 0.0000
# 6 0.0000 0.0000 0.0000 0.0000 0.0000 28.9435
#
#
#
# Elastic Compliance Matrix: (Units=1/GPa)
#
#
# Indices 1 2 3 4 5 6 
#
# 1 0.014479 -0.000263 -0.010656 0.000000 0.000000 0.000000
# 2 -0.000263 0.011287 -0.007625 0.000000 0.000000 0.000000
# 3 -0.010656 -0.007625 0.024253 0.000000 0.000000 0.000000
# 4 0.000000 0.000000 0.000000 0.040300 0.000000 0.000000
# 5 0.000000 0.000000 0.000000 0.000000 0.039672 0.000000
# 6 0.000000 0.000000 0.000000 0.000000 0.000000 0.034550
#
#
# Mechanical properties :
#
#
# Convention : Reuss Voigt Hill
#
# Bulk Modulus (GPa) = 77.33355 78.13911 77.73633
# Shear Modulus (GPa) = 24.27893 26.68756 25.48325
#
# Velocity S-wave (km/s) = 3.40867 3.57375 3.49219
# Velocity P-wave (km/s) = 7.24577 7.37723 7.31180
#
# Compressibility (1/GPa) = 0.01293100
#
# Stress axis : x y z
#
# Youngs Moduli (GPa) = 69.06758 88.59496 41.23178
#
# Poissons Ratio (x) = 0.02331 0.43937
# Poissons Ratio (y) = 0.01818 0.31439
# Poissons Ratio (z) = 0.73598 0.67552
#
# Static dielectric constant tensor:
#      x y z
#    x 1.731120 0.000000 0.000000 
#    y 0.000000 1.803380 0.000000 
#    z 0.000000 0.000000 1.820380 
# 
# From -- ./inp_files/23295.got.cif
#   From: 2010.05.17/outbox.cif.g08.bks.cpg/sg48_12_cif.got.tgz:23295.got - 2010.06.03 20:39:00.
