data_PCOD9390133
_publ_section_title
;
Structure prediction by ZEFSAII (Michael W. Deem and Ramdas Pophale) SiO2 
 PCOD9390133
Probable space group: P N N N
;
_chemical_formula_sum "Si O2"
_cell_formula_units_Z 58
_cell_length_a 13.924343
_cell_length_b 25.382644
_cell_length_c 8.171183
_cell_angle_alpha 90.000000
_cell_angle_beta 90.000000
_cell_angle_gamma 90.000000
_cell_volume 2887.995475
_symmetry_space_group_name_H-M "P N N N"
_symmetry_group_IT_number 48
_space_group.IT_coordinate_system_code '2'
_symmetry_cell_setting 'orthorhombic'
loop_
_space_group_symop_operation_xyz
x,y,z
1/2-x,1/2-y,z
x,1/2-y,1/2-z
1/2-x,y,1/2-z
-x,-y,-z
1/2+x,1/2+y,-z
-x,1/2+y,1/2+z
1/2+x,-y,1/2+z
loop_
_atom_site_type_symbol
_atom_site_label
_atom_site_fract_x
_atom_site_fract_y
_atom_site_fract_z
Si Si1 0.750000 0.250000 0.750000
Si Si2 0.811809 0.552880 0.086223
Si Si3 0.421467 0.199366 0.929140
Si Si4 0.741852 0.654521 0.933281
Si Si5 0.643129 0.145724 0.617999
Si Si6 0.959108 0.812689 0.039668
Si Si7 0.021492 0.902724 0.422746
Si Si8 0.713970 0.432789 0.434001
O O1 0.682910 0.205205 0.661272
O O2 0.750000 0.565732 0.250000
O O3 0.777410 0.495179 0.031445
O O4 0.927236 0.561362 0.116721
O O5 0.783080 0.596134 0.953260
O O6 0.453378 0.252511 0.015173
O O7 0.447847 0.194768 0.737238
O O8 0.476621 0.149668 0.001724
O O9 0.308485 0.190458 0.951392
O O10 0.750000 0.674395 0.750000
O O11 0.632553 0.655676 0.984491
O O12 0.556580 0.158348 0.495081
O O13 0.586892 0.115557 0.766156
O O14 0.725278 0.107574 0.547578
O O15 0.100310 0.924955 0.544822
O O16 0.750000 0.423955 0.250000
#
# Coordination Sequence:
#
# PCOD9390133 Si02
#       8
#     2   8   8   8   8   8   8   8
#     4  12  20  40  66  92 118 156 210 256 286 332
#     4  10  22  42  65  85 117 159 206 255 306 366
#     4   9  19  35  60  83 115 158 207 250 298 364
#     4  11  22  35  55  87 125 154 196 256 312 368
#     4  11  22  37  67  88 121 154 210 250 289 363
#     4  10  20  36  58  87 114 162 207 245 301 362
#     4  10  19  40  64  90 115 161 207 253 299 362
#     4  11  24  41  59  91 126 156 195 252 308 365
#
# _framework density 20.083134999999999
#
# number of rings (size 3 to 8) (size 9 to 14) (size 15 to 20)
#    0.000    1.655    1.379    5.379    0.000    5.517 
#    0.000    6.552    0.000    0.000    0.000    0.000 
#    0.000    0.000    0.000    0.000    0.000    0.000 
#
# Total GULP energy -322918.797801 kJ/mol
# GULP energy per Si atom -5567.565479 kJ/mol
# Density = 2.003743 g / cm^3
# Si number density = 20.083135 Si / 1000 Ang^3
#
#
#
# Elastic Constant Matrix: (Units=GPa)
#
#
# Indices 1 2 3 4 5 6 
#
# 1 152.6404 39.4159 24.0299 0.0000 0.0000 0.0000
# 2 39.4159 101.5689 20.6952 0.0000 0.0000 0.0000
# 3 24.0299 20.6952 22.4933 0.0000 0.0000 0.0000
# 4 0.0000 0.0000 0.0000 12.7736 0.0000 0.0000
# 5 0.0000 0.0000 0.0000 0.0000 11.6274 0.0000
# 6 0.0000 0.0000 0.0000 0.0000 0.0000 22.8217
#
#
#
# Elastic Compliance Matrix: (Units=1/GPa)
#
#
# Indices 1 2 3 4 5 6 
#
# 1 0.008108 -0.001700 -0.007097 0.000000 0.000000 0.000000
# 2 -0.001700 0.012474 -0.009660 0.000000 0.000000 0.000000
# 3 -0.007097 -0.009660 0.060928 0.000000 0.000000 0.000000
# 4 0.000000 0.000000 0.000000 0.078287 0.000000 0.000000
# 5 0.000000 0.000000 0.000000 0.000000 0.086004 0.000000
# 6 0.000000 0.000000 0.000000 0.000000 0.000000 0.043818
#
#
# Mechanical properties :
#
#
# Convention : Reuss Voigt Hill
#
# Bulk Modulus (GPa) = 22.42466 49.44275 35.93370
# Shear Modulus (GPa) = 14.64572 22.28200 18.46386
#
# Velocity S-wave (km/s) = 2.70340 3.33451 3.03540
# Velocity P-wave (km/s) = 4.57544 6.28473 5.49693
#
# Compressibility (1/GPa) = 0.04459376
#
# Stress axis : x y z
#
# Youngs Moduli (GPa) = 123.33953 80.16902 16.41292
#
# Poissons Ratio (x) = 0.13631 0.11649
# Poissons Ratio (y) = 0.20971 0.15855
# Poissons Ratio (z) = 0.87537 0.77444
#
# Static dielectric constant tensor:
#      x y z
#    x 1.744760 0.000000 0.000000 
#    y 0.000000 1.764180 0.000000 
#    z 0.000000 0.000000 1.740080 
# 
# From -- ./inp_files/11470.got.cif
#   From: 2010.05.17/outbox.cif.g08.bks.cpg/sg48_6_cif.got.tgz:11470.got - 2010.06.03 20:39:00.
