data_PCOD9390039
_publ_section_title
;
Structure prediction by ZEFSAII (Michael W. Deem and Ramdas Pophale) SiO2 
 PCOD9390039
Probable space group: P N N N
;
_chemical_formula_sum "Si O2"
_cell_formula_units_Z 58
_cell_length_a 7.458933
_cell_length_b 17.452640
_cell_length_c 19.127377
_cell_angle_alpha 90.000000
_cell_angle_beta 90.000000
_cell_angle_gamma 90.000000
_cell_volume 2489.965069
_symmetry_space_group_name_H-M "P N N N"
_symmetry_group_IT_number 48
_space_group.IT_coordinate_system_code '2'
_symmetry_cell_setting 'orthorhombic'
loop_
_space_group_symop_operation_xyz
x,y,z
1/2-x,1/2-y,z
x,1/2-y,1/2-z
1/2-x,y,1/2-z
-x,-y,-z
1/2+x,1/2+y,-z
-x,1/2+y,1/2+z
1/2+x,-y,1/2+z
loop_
_atom_site_type_symbol
_atom_site_label
_atom_site_fract_x
_atom_site_fract_y
_atom_site_fract_z
Si Si1 0.250000 0.750000 0.250000
Si Si2 0.335005 0.495284 0.415256
Si Si3 0.272844 0.003913 0.561497
Si Si4 0.941603 0.108733 0.693559
Si Si5 0.562116 0.018134 0.291433
Si Si6 0.623145 0.674918 0.580266
Si Si7 0.955352 0.171026 0.276296
Si Si8 0.812634 0.835791 0.426367
O O1 0.137482 0.808320 0.295102
O O2 0.225759 0.525829 0.482149
O O3 0.554946 0.494236 0.425023
O O4 0.316973 0.551887 0.351158
O O5 0.283287 0.406972 0.403846
O O6 0.320013 0.094613 0.554877
O O7 0.386363 0.973843 0.626940
O O8 0.107703 0.129164 0.644144
O O9 0.984520 0.062464 0.763755
O O10 0.750000 0.017362 0.250000
O O11 0.467600 0.093247 0.258097
O O12 0.750000 0.750000 0.585909
O O13 0.471510 0.675391 0.639815
O O14 0.568232 0.669123 0.498038
O O15 0.041312 0.250000 0.250000
O O16 0.750000 0.172282 0.250000
O O17 0.750000 0.750000 0.414156
#
# Coordination Sequence:
#
# PCOD9390039 Si02
#       8
#     2   8   8   8   8   8   8   8
#     4  12  32  44  50  80 126 172 210 278 332 372
#     4   9  16  35  59  88 125 162 199 246 314 390
#     4   9  17  29  59  98 122 154 201 254 314 378
#     4  11  23  41  60  81 124 171 213 260 324 382
#     4  11  18  34  62  97 119 155 207 258 318 371
#     4  10  19  36  59  95 131 160 207 262 322 383
#     4  10  21  37  57  91 133 162 205 257 316 380
#     4   9  19  34  62  95 120 152 208 269 319 379
#
# _framework density 23.293499000000001
#
# number of rings (size 3 to 8) (size 9 to 14) (size 15 to 20)
#    0.000    2.069    4.138    1.655    1.931    0.276 
#    2.483    2.759    0.000    0.828    0.000    0.000 
#    0.000    0.000    0.000    0.000    0.000    0.000 
#
# Total GULP energy -322948.179500 kJ/mol
# GULP energy per Si atom -5568.072060 kJ/mol
# Density = 2.324048 g / cm^3
# Si number density = 23.293499 Si / 1000 Ang^3
#
#
#
# Elastic Constant Matrix: (Units=GPa)
#
#
# Indices 1 2 3 4 5 6 
#
# 1 53.0256 26.8559 48.7066 0.0000 0.0000 0.0000
# 2 26.8559 164.5390 5.9347 0.0000 0.0000 0.0000
# 3 48.7066 5.9347 106.5276 0.0000 0.0000 0.0000
# 4 0.0000 0.0000 0.0000 45.2195 0.0000 0.0000
# 5 0.0000 0.0000 0.0000 0.0000 36.6655 0.0000
# 6 0.0000 0.0000 0.0000 0.0000 0.0000 45.5238
#
#
#
# Elastic Compliance Matrix: (Units=1/GPa)
#
#
# Indices 1 2 3 4 5 6 
#
# 1 0.036756 -0.005404 -0.016505 0.000000 0.000000 0.000000
# 2 -0.005404 0.006884 0.002087 0.000000 0.000000 0.000000
# 3 -0.016505 0.002087 0.016817 0.000000 0.000000 0.000000
# 4 0.000000 0.000000 0.000000 0.022114 0.000000 0.000000
# 5 0.000000 0.000000 0.000000 0.000000 0.027274 0.000000
# 6 0.000000 0.000000 0.000000 0.000000 0.000000 0.021967
#
#
# Mechanical properties :
#
#
# Convention : Reuss Voigt Hill
#
# Bulk Modulus (GPa) = 48.04220 54.12073 51.08147
# Shear Modulus (GPa) = 28.02806 41.65476 34.84141
#
# Velocity S-wave (km/s) = 3.47256 4.23337 3.87170
# Velocity P-wave (km/s) = 6.06199 6.86876 6.47795
#
# Compressibility (1/GPa) = 0.02081503
#
# Stress axis : x y z
#
# Youngs Moduli (GPa) = 27.20647 145.25736 59.46313
#
# Poissons Ratio (x) = 0.78497 0.98141
# Poissons Ratio (y) = 0.14702 -0.12412
# Poissons Ratio (z) = 0.44903 -0.30319
#
# Static dielectric constant tensor:
#      x y z
#    x 2.067660 0.000000 0.000000 
#    y 0.000000 1.922750 0.000000 
#    z 0.000000 0.000000 1.391280 
# 
# From -- ./inp_files/30496.got.cif
#   From: 2010.05.17/outbox.cif.g08.bks.cpg/sg48_16_cif.got.tgz:30496.got - 2010.06.03 20:39:00.
