data_PCOD9390280
_publ_section_title
;
Structure prediction by ZEFSAII (Michael W. Deem and Ramdas Pophale) SiO2 
 PCOD9390280
Probable space group: P N N N
;
_chemical_formula_sum "Si O2"
_cell_formula_units_Z 58
_cell_length_a 8.999593
_cell_length_b 17.195417
_cell_length_c 18.860882
_cell_angle_alpha 90.000000
_cell_angle_beta 90.000000
_cell_angle_gamma 90.000000
_cell_volume 2918.754580
_symmetry_space_group_name_H-M "P N N N"
_symmetry_group_IT_number 48
_space_group.IT_coordinate_system_code '2'
_symmetry_cell_setting 'orthorhombic'
loop_
_space_group_symop_operation_xyz
x,y,z
1/2-x,1/2-y,z
x,1/2-y,1/2-z
1/2-x,y,1/2-z
-x,-y,-z
1/2+x,1/2+y,-z
-x,1/2+y,1/2+z
1/2+x,-y,1/2+z
loop_
_atom_site_type_symbol
_atom_site_label
_atom_site_fract_x
_atom_site_fract_y
_atom_site_fract_z
Si Si1 0.701491 0.837004 0.471270
Si Si2 0.726146 0.016767 0.831601
Si Si3 0.180595 0.663592 0.969669
Si Si4 0.121707 0.359725 0.362562
Si Si5 0.931173 0.429759 0.546140
Si Si6 0.520371 0.930696 0.057214
Si Si7 0.750000 0.750000 0.750000
Si Si8 0.777716 0.156570 0.172200
O O1 0.750000 0.750000 0.454058
O O2 0.672725 0.842497 0.556853
O O3 0.543083 0.860044 0.440870
O O4 0.808548 0.905046 0.440403
O O5 0.750000 0.040911 0.750000
O O6 0.862379 0.044841 0.880175
O O7 0.576198 0.045491 0.873035
O O8 0.760467 0.924918 0.836709
O O9 0.250000 0.750000 0.971427
O O10 0.297862 0.604021 0.000911
O O11 0.042550 0.648364 0.019830
O O12 0.157788 0.637130 0.888666
O O13 0.144196 0.293866 0.304476
O O14 0.941037 0.369147 0.357192
O O15 0.000000 0.500000 0.500000
O O16 0.500000 0.000000 0.000000
O O17 0.750000 0.250000 0.177662
O O18 0.750000 0.123094 0.250000
#
# Coordination Sequence:
#
# PCOD9390280 Si02
#       8
#     8   8   8   8   8   8   2   8
#     4  12  23  38  67 100 131 170 227 285 344 384
#     4  11  24  44  67  93 132 179 226 269 341 400
#     4  10  20  35  58  81 118 166 218 266 319 381
#     4  12  22  37  60  93 131 184 214 259 323 418
#     4  11  20  40  64  90 126 171 224 269 321 402
#     4  11  23  39  63  97 128 167 226 277 321 401
#     4  12  24  32  58  96 152 164 200 254 332 412
#     4  10  21  34  50  82 129 174 216 255 315 392
#
# _framework density 19.871487999999999
#
# number of rings (size 3 to 8) (size 9 to 14) (size 15 to 20)
#    0.000    0.966    5.517    2.483    1.931    2.207 
#    0.000    0.690    0.000   15.724    0.000    0.000 
#    0.000    0.000    0.000    0.000    0.000    0.000 
#
# Total GULP energy -322961.229001 kJ/mol
# GULP energy per Si atom -5568.297052 kJ/mol
# Density = 1.982626 g / cm^3
# Si number density = 19.871488 Si / 1000 Ang^3
#
#
#
# Elastic Constant Matrix: (Units=GPa)
#
#
# Indices 1 2 3 4 5 6 
#
# 1 45.3128 -3.6393 19.7449 0.0000 0.0000 0.0000
# 2 -3.6393 49.6168 15.0914 0.0000 0.0000 0.0000
# 3 19.7449 15.0914 129.1435 0.0000 0.0000 0.0000
# 4 0.0000 0.0000 0.0000 26.7040 0.0000 0.0000
# 5 0.0000 0.0000 0.0000 0.0000 -2.4409 0.0000
# 6 0.0000 0.0000 0.0000 0.0000 0.0000 30.7006
#
#
#
# Elastic Compliance Matrix: (Units=1/GPa)
#
#
# Indices 1 2 3 4 5 6 
#
# 1 0.024064 0.002990 -0.004029 0.000000 0.000000 0.000000
# 2 0.002990 0.021269 -0.002943 0.000000 0.000000 0.000000
# 3 -0.004029 -0.002943 0.008703 0.000000 0.000000 0.000000
# 4 0.000000 0.000000 0.000000 0.037448 0.000000 0.000000
# 5 0.000000 0.000000 0.000000 0.000000 -0.409678 0.000000
# 6 0.000000 0.000000 0.000000 0.000000 0.000000 0.032573
#
#
# Mechanical properties :
#
#
# Convention : Reuss Voigt Hill
#
# Bulk Modulus (GPa) = 21.70388 31.82966 26.76677
# Shear Modulus (GPa) = -19.06202 23.85114 2.39456
#
# Velocity S-wave (km/s) = -3.10056 3.46825 1.09893
# Velocity P-wave (km/s) = 1.36826 5.66488 3.88708
#
# Compressibility (1/GPa) = 0.04607471
#
# Stress axis : x y z
#
# Youngs Moduli (GPa) = 41.55503 47.01718 114.90102
#
# Poissons Ratio (x) = -0.14060 0.46290
# Poissons Ratio (y) = -0.12427 0.33811
# Poissons Ratio (z) = 0.16741 0.13835
#
# Static dielectric constant tensor:
#      x y z
#    x 1.030810 0.000000 0.000000 
#    y 0.000000 1.662940 0.000000 
#    z 0.000000 0.000000 1.716750 
# 
# From -- ./inp_files/30469.got.cif
#   From: 2010.05.17/outbox.cif.g08.bks.cpg/sg48_16_cif.got.tgz:30469.got - 2010.06.03 20:39:00.
