data_PCOD9390901
_publ_section_title
;
Structure prediction by ZEFSAII (Michael W. Deem and Ramdas Pophale) SiO2 
 PCOD9390901
Probable space group: P N N N
;
_chemical_formula_sum "Si O2"
_cell_formula_units_Z 58
_cell_length_a 27.387559
_cell_length_b 5.735369
_cell_length_c 17.682534
_cell_angle_alpha 90.000000
_cell_angle_beta 90.000000
_cell_angle_gamma 90.000000
_cell_volume 2777.532777
_symmetry_space_group_name_H-M "P N N N"
_symmetry_group_IT_number 48
_space_group.IT_coordinate_system_code '2'
_symmetry_cell_setting 'orthorhombic'
loop_
_space_group_symop_operation_xyz
x,y,z
1/2-x,1/2-y,z
x,1/2-y,1/2-z
1/2-x,y,1/2-z
-x,-y,-z
1/2+x,1/2+y,-z
-x,1/2+y,1/2+z
1/2+x,-y,1/2+z
loop_
_atom_site_type_symbol
_atom_site_label
_atom_site_fract_x
_atom_site_fract_y
_atom_site_fract_z
Si Si1 0.830665 0.573195 0.818309
Si Si2 0.250000 0.750000 0.250000
Si Si3 0.803453 0.839483 0.971604
Si Si4 0.959816 0.592092 0.557861
Si Si5 0.974561 0.507137 0.728100
Si Si6 0.415562 0.001370 0.785757
Si Si7 0.364928 0.777397 0.426025
Si Si8 0.892630 0.600981 0.040379
O O1 0.841941 0.750000 0.750000
O O2 0.784421 0.422292 0.795220
O O3 0.817235 0.707826 0.894282
O O4 0.867573 0.379302 0.850766
O O5 0.750000 0.750000 0.994983
O O6 0.812816 0.101984 0.942597
O O7 0.846563 0.779118 0.031700
O O8 0.909261 0.457203 0.575439
O O9 0.937703 0.815136 0.513124
O O10 0.000000 0.500000 0.500000
O O11 0.984658 0.560155 0.639699
O O12 0.954100 0.250000 0.750000
O O13 0.026303 0.504604 0.771295
O O14 0.947453 0.750000 0.750000
O O15 0.397615 0.750000 0.750000
O O16 0.397761 0.250000 0.750000
O O17 0.406544 0.036765 0.874767
O O18 0.373881 0.627031 0.499588
#
# Coordination Sequence:
#
# PCOD9390901 Si02
#       8
#     8   2   8   8   8   8   8   8
#     4  11  21  37  59  92 130 177 220 273 331 405
#     4  12  22  36  68  90 128 184 228 268 328 406
#     4  10  21  41  66  96 129 168 226 275 348 413
#     4  11  24  42  66  91 132 183 231 285 341 411
#     4  10  23  41  60  94 128 175 230 282 333 398
#     4  10  22  41  70  96 129 168 226 280 338 413
#     4  10  24  41  61  96 134 173 226 285 339 406
#     4  10  24  41  67  98 129 174 224 283 341 413
#
# _framework density 20.881841000000001
#
# number of rings (size 3 to 8) (size 9 to 14) (size 15 to 20)
#    0.000    1.655    0.000    4.345    9.655    2.207 
#    8.690    0.000    0.000    0.414    0.000    0.000 
#    0.000    0.000    0.000    0.000    0.000    0.000 
#
# Total GULP energy -322889.395392 kJ/mol
# GULP energy per Si atom -5567.058541 kJ/mol
# Density = 2.083431 g / cm^3
# Si number density = 20.881841 Si / 1000 Ang^3
#
#
#
# Elastic Constant Matrix: (Units=GPa)
#
#
# Indices 1 2 3 4 5 6 
#
# 1 90.0897 25.7602 52.8705 0.0000 0.0000 0.0000
# 2 25.7602 135.4054 68.9329 0.0000 0.0000 0.0000
# 3 52.8705 68.9329 167.7939 0.0000 0.0000 0.0000
# 4 0.0000 0.0000 0.0000 18.7756 0.0000 0.0000
# 5 0.0000 0.0000 0.0000 0.0000 36.4402 0.0000
# 6 0.0000 0.0000 0.0000 0.0000 0.0000 7.6118
#
#
#
# Elastic Compliance Matrix: (Units=1/GPa)
#
#
# Indices 1 2 3 4 5 6 
#
# 1 0.013647 -0.000515 -0.004088 0.000000 0.000000 0.000000
# 2 -0.000515 0.009358 -0.003682 0.000000 0.000000 0.000000
# 3 -0.004088 -0.003682 0.008761 0.000000 0.000000 0.000000
# 4 0.000000 0.000000 0.000000 0.053261 0.000000 0.000000
# 5 0.000000 0.000000 0.000000 0.000000 0.027442 0.000000
# 6 0.000000 0.000000 0.000000 0.000000 0.000000 0.131375
#
#
# Mechanical properties :
#
#
# Convention : Reuss Voigt Hill
#
# Bulk Modulus (GPa) = 65.81470 76.49066 71.15268
# Shear Modulus (GPa) = 18.83391 28.94720 23.89056
#
# Velocity S-wave (km/s) = 3.00647 3.72726 3.38610
# Velocity P-wave (km/s) = 6.60590 7.43189 7.03104
#
# Compressibility (1/GPa) = 0.01519417
#
# Stress axis : x y z
#
# Youngs Moduli (GPa) = 73.27821 106.86418 114.14747
#
# Poissons Ratio (x) = 0.05502 0.46668
# Poissons Ratio (y) = 0.03773 0.42030
# Poissons Ratio (z) = 0.29959 0.39348
#
# Static dielectric constant tensor:
#      x y z
#    x 1.891080 0.000000 0.000000 
#    y 0.000000 1.888020 0.000000 
#    z 0.000000 0.000000 4.382620 
# 
# From -- ./inp_files/32431.got.cif
#   From: 2010.05.17/outbox.cif.g08.bks.cpg/sg48_17_cif.got.tgz:32431.got - 2010.06.03 20:39:00.
