data_PCOD9390100
_publ_section_title
;
Structure prediction by ZEFSAII (Michael W. Deem and Ramdas Pophale) SiO2 
 PCOD9390100
Probable space group: P N N N
;
_chemical_formula_sum "Si O2"
_cell_formula_units_Z 48
_cell_length_a 12.906657
_cell_length_b 5.712281
_cell_length_c 30.582022
_cell_angle_alpha 90.000000
_cell_angle_beta 90.000000
_cell_angle_gamma 90.000000
_cell_volume 2254.703963
_symmetry_space_group_name_H-M "P N N N"
_symmetry_group_IT_number 48
_space_group.IT_coordinate_system_code '2'
_symmetry_cell_setting 'orthorhombic'
loop_
_space_group_symop_operation_xyz
x,y,z
1/2-x,1/2-y,z
x,1/2-y,1/2-z
1/2-x,y,1/2-z
-x,-y,-z
1/2+x,1/2+y,-z
-x,1/2+y,1/2+z
1/2+x,-y,1/2+z
loop_
_atom_site_type_symbol
_atom_site_label
_atom_site_fract_x
_atom_site_fract_y
_atom_site_fract_z
Si Si1 0.250000 0.250000 0.060959
Si Si2 0.908684 0.396137 0.965319
Si Si3 0.750000 0.750000 0.414944
Si Si4 0.349408 0.630813 0.121497
Si Si5 0.381150 0.653256 0.554431
Si Si6 0.631413 0.005562 0.266674
Si Si7 0.577278 0.504834 0.134408
O O1 0.168403 0.384427 0.030835
O O2 0.315297 0.403736 0.094875
O O3 0.875260 0.299874 0.918669
O O4 0.026785 0.469619 0.957807
O O5 0.884478 0.225257 0.006172
O O6 0.721742 0.502019 0.437558
O O7 0.852780 0.707886 0.386601
O O8 0.250000 0.750000 0.145118
O O9 0.458586 0.576167 0.143853
O O10 0.414556 0.800865 0.597186
O O11 0.589238 0.750000 0.250000
O O12 0.750000 0.004772 0.250000
O O13 0.581412 0.250000 0.250000
O O14 0.628754 0.036696 0.318831
#
# Coordination Sequence:
#
# PCOD9390100 Si02
#       7
#     4   8   4   8   8   8   8
#     4  10  19  38  62  82 122 178 234 276 330 388
#     4  10  21  39  58  86 134 179 239 275 347 390
#     4  12  25  38  59  96 133 178 221 296 345 412
#     4  10  22  40  64  93 123 179 225 282 323 405
#     4  11  24  37  58  93 131 186 223 293 336 413
#     4  10  24  44  71 102 137 180 216 280 359 448
#     4  12  25  42  68  98 134 170 233 285 357 429
#
# _framework density 21.288826
#
# number of rings (size 3 to 8) (size 9 to 14) (size 15 to 20)
#    0.000    1.333    3.333    2.000    7.000    6.000 
#    0.000    0.000    0.000    0.500    0.000    0.000 
#    0.000    0.000    0.000    0.000    0.000    0.000 
#
# Total GULP energy -267266.947577 kJ/mol
# GULP energy per Si atom -5568.061408 kJ/mol
# Density = 2.124037 g / cm^3
# Si number density = 21.288826 Si / 1000 Ang^3
#
#
#
# Elastic Constant Matrix: (Units=GPa)
#
#
# Indices 1 2 3 4 5 6 
#
# 1 129.7552 3.7022 20.3252 0.0000 0.0000 0.0000
# 2 3.7022 71.2416 13.7963 0.0000 0.0000 0.0000
# 3 20.3252 13.7963 104.6776 0.0000 0.0000 0.0000
# 4 0.0000 0.0000 0.0000 19.8557 0.0000 0.0000
# 5 0.0000 0.0000 0.0000 0.0000 26.8012 0.0000
# 6 0.0000 0.0000 0.0000 0.0000 0.0000 21.3066
#
#
#
# Elastic Compliance Matrix: (Units=1/GPa)
#
#
# Indices 1 2 3 4 5 6 
#
# 1 0.007950 -0.000117 -0.001528 0.000000 0.000000 0.000000
# 2 -0.000117 0.014406 -0.001876 0.000000 0.000000 0.000000
# 3 -0.001528 -0.001876 0.010097 0.000000 0.000000 0.000000
# 4 0.000000 0.000000 0.000000 0.050363 0.000000 0.000000
# 5 0.000000 0.000000 0.000000 0.000000 0.037312 0.000000
# 6 0.000000 0.000000 0.000000 0.000000 0.000000 0.046934
#
#
# Mechanical properties :
#
#
# Convention : Reuss Voigt Hill
#
# Bulk Modulus (GPa) = 39.35417 42.36908 40.86162
# Shear Modulus (GPa) = 27.38614 31.44943 29.41779
#
# Velocity S-wave (km/s) = 3.59055 3.84770 3.72135
# Velocity P-wave (km/s) = 5.97623 6.29960 6.14004
#
# Compressibility (1/GPa) = 0.02541027
#
# Stress axis : x y z
#
# Youngs Moduli (GPa) = 125.79357 69.41501 99.03837
#
# Poissons Ratio (x) = 0.00813 0.15134
# Poissons Ratio (y) = 0.01474 0.18579
# Poissons Ratio (z) = 0.19223 0.13022
#
# Static dielectric constant tensor:
#      x y z
#    x 0.157580 0.000000 0.000000 
#    y 0.000000 -0.478410 0.000000 
#    z 0.000000 0.000000 1.832210 
# 
# From -- ./inp_files/3582.got.cif
#   From: 2010.05.17/outbox.cif.g08.bks.cpg/sg48_2_cif.got.tgz:3582.got - 2010.06.03 20:39:00.
