data_PCOD9390806
_publ_section_title
;
Structure prediction by ZEFSAII (Michael W. Deem and Ramdas Pophale) SiO2 
 PCOD9390806
Probable space group: P N N N
;
_chemical_formula_sum "Si O2"
_cell_formula_units_Z 48
_cell_length_a 7.700805
_cell_length_b 20.179574
_cell_length_c 13.520984
_cell_angle_alpha 90.000000
_cell_angle_beta 90.000000
_cell_angle_gamma 90.000000
_cell_volume 2101.146911
_symmetry_space_group_name_H-M "P N N N"
_symmetry_group_IT_number 48
_space_group.IT_coordinate_system_code '2'
_symmetry_cell_setting 'orthorhombic'
loop_
_space_group_symop_operation_xyz
x,y,z
1/2-x,1/2-y,z
x,1/2-y,1/2-z
1/2-x,y,1/2-z
-x,-y,-z
1/2+x,1/2+y,-z
-x,1/2+y,1/2+z
1/2+x,-y,1/2+z
loop_
_atom_site_type_symbol
_atom_site_label
_atom_site_fract_x
_atom_site_fract_y
_atom_site_fract_z
Si Si1 0.912770 0.355657 0.977735
Si Si2 0.453854 0.264467 0.861193
Si Si3 0.977737 0.093144 0.939160
Si Si4 0.084919 0.605469 0.802238
Si Si5 0.496857 0.480595 0.613975
Si Si6 0.127882 0.040773 0.138530
O O1 0.969840 0.361792 0.093171
O O2 0.718548 0.387693 0.975499
O O3 0.012513 0.401932 0.895764
O O4 0.940076 0.281907 0.937488
O O5 0.250000 0.250000 0.870319
O O6 0.514056 0.250000 0.750000
O O7 0.469853 0.341611 0.882849
O O8 0.977724 0.028281 0.870186
O O9 0.099567 0.074813 0.031645
O O10 0.250000 0.638448 0.750000
O O11 0.136739 0.530040 0.835249
O O12 0.944071 0.594042 0.716236
O O13 0.500000 0.500000 0.500000
O O14 0.680056 0.510407 0.651972
#
# Coordination Sequence:
#
# PCOD9390806 Si02
#       6
#     8   8   8   8   8   8
#     4  10  22  43  63  96 132 177 223 269 333 400
#     4  11  27  46  67  94 127 175 225 278 336 398
#     4  10  22  41  67  95 131 170 222 272 327 399
#     4  11  21  37  64 100 134 172 216 269 335 399
#     4   9  21  36  60  95 136 173 209 270 325 388
#     4  10  21  39  65 102 132 171 217 270 336 394
#
# _framework density 22.844666
#
# number of rings (size 3 to 8) (size 9 to 14) (size 15 to 20)
#    0.000    1.833    1.667    1.000    9.333    1.333 
#    0.000    0.833    0.000    1.000    0.000    0.000 
#    0.000    0.000    0.000    0.000    0.000    0.000 
#
# Total GULP energy -267645.368646 kJ/mol
# GULP energy per Si atom -5575.945180 kJ/mol
# Density = 2.279267 g / cm^3
# Si number density = 22.844666 Si / 1000 Ang^3
#
#
#
# Elastic Constant Matrix: (Units=GPa)
#
#
# Indices 1 2 3 4 5 6 
#
# 1 56.5104 16.6840 30.1650 0.0000 0.0000 0.0000
# 2 16.6840 101.3948 54.9960 0.0000 0.0000 0.0000
# 3 30.1650 54.9960 114.2271 0.0000 0.0000 0.0000
# 4 0.0000 0.0000 0.0000 14.9353 0.0000 0.0000
# 5 0.0000 0.0000 0.0000 0.0000 57.0026 0.0000
# 6 0.0000 0.0000 0.0000 0.0000 0.0000 24.1427
#
#
#
# Elastic Compliance Matrix: (Units=1/GPa)
#
#
# Indices 1 2 3 4 5 6 
#
# 1 0.020626 -0.000595 -0.005161 0.000000 0.000000 0.000000
# 2 -0.000595 0.013365 -0.006278 0.000000 0.000000 0.000000
# 3 -0.005161 -0.006278 0.013140 0.000000 0.000000 0.000000
# 4 0.000000 0.000000 0.000000 0.066955 0.000000 0.000000
# 5 0.000000 0.000000 0.000000 0.000000 0.017543 0.000000
# 6 0.000000 0.000000 0.000000 0.000000 0.000000 0.041420
#
#
# Mechanical properties :
#
#
# Convention : Reuss Voigt Hill
#
# Bulk Modulus (GPa) = 43.35597 52.86914 48.11256
# Shear Modulus (GPa) = 24.41349 30.56863 27.49106
#
# Velocity S-wave (km/s) = 3.27260 3.66198 3.47276
# Velocity P-wave (km/s) = 5.77059 6.40884 6.09807
#
# Compressibility (1/GPa) = 0.02306487
#
# Stress axis : x y z
#
# Youngs Moduli (GPa) = 48.48215 74.82023 76.10462
#
# Poissons Ratio (x) = 0.04451 0.39274
# Poissons Ratio (y) = 0.02884 0.47777
# Poissons Ratio (z) = 0.25019 0.46971
#
# Static dielectric constant tensor:
#      x y z
#    x 2.057230 0.000000 0.000000 
#    y 0.000000 1.865480 0.000000 
#    z 0.000000 0.000000 1.918890 
# 
# From -- ./inp_files/25516.got.cif
#   From: 2010.05.17/outbox.cif.g08.bks.cpg/sg48_13_cif.got.tgz:25516.got - 2010.06.03 20:39:00.
