data_PCOD9390957
_publ_section_title
;
Structure prediction by ZEFSAII (Michael W. Deem and Ramdas Pophale) SiO2 
 PCOD9390957
Probable space group: P N N N
;
_chemical_formula_sum "Si O2"
_cell_formula_units_Z 64
_cell_length_a 11.985190
_cell_length_b 28.968722
_cell_length_c 9.417826
_cell_angle_alpha 90.000000
_cell_angle_beta 90.000000
_cell_angle_gamma 90.000000
_cell_volume 3269.828099
_symmetry_space_group_name_H-M "P N N N"
_symmetry_group_IT_number 48
_space_group.IT_coordinate_system_code '2'
_symmetry_cell_setting 'orthorhombic'
loop_
_space_group_symop_operation_xyz
x,y,z
1/2-x,1/2-y,z
x,1/2-y,1/2-z
1/2-x,y,1/2-z
-x,-y,-z
1/2+x,1/2+y,-z
-x,1/2+y,1/2+z
1/2+x,-y,1/2+z
loop_
_atom_site_type_symbol
_atom_site_label
_atom_site_fract_x
_atom_site_fract_y
_atom_site_fract_z
Si Si1 0.488490 0.057322 0.120702
Si Si2 0.632065 0.533965 0.340972
Si Si3 0.365655 0.378689 0.829033
Si Si4 0.952222 0.303366 0.720545
Si Si5 0.690760 0.299265 0.056989
Si Si6 0.355025 0.109530 0.346644
Si Si7 0.031501 0.197998 0.245094
Si Si8 0.905063 0.148711 0.483851
O O1 0.451251 0.080951 0.267807
O O2 0.558110 0.012096 0.162787
O O3 0.385825 0.046113 0.010647
O O4 0.564137 0.095468 0.039425
O O5 0.750000 0.527528 0.250000
O O6 0.583093 0.578987 0.261076
O O7 0.250000 0.367040 0.750000
O O8 0.445060 0.334526 0.832877
O O9 0.343084 0.397562 0.986669
O O10 0.983066 0.250000 0.750000
O O11 0.857576 0.301785 0.601238
O O12 0.909322 0.330064 0.859476
O O13 0.750000 0.250000 0.078185
O O14 0.584188 0.302585 0.157817
O O15 0.783706 0.338326 0.076840
O O16 0.250000 0.098822 0.250000
O O17 0.383451 0.163317 0.326701
O O18 0.072334 0.250000 0.250000
O O19 0.999053 0.177546 0.397947
#
# Coordination Sequence:
#
# PCOD9390957 Si02
#       8
#     8   8   8   8   8   8   8   8
#     4  10  23  43  68 100 129 167 215 275 334 401
#     4  10  21  43  74  96 128 171 213 267 344 400
#     4  11  24  44  68  89 126 176 218 272 329 382
#     4  12  23  40  61  95 128 172 223 262 314 393
#     4  12  22  38  60  91 131 174 214 261 325 386
#     4  11  24  42  65  93 127 168 220 270 331 387
#     4  11  22  38  58  93 125 169 218 267 318 392
#     4  11  23  36  63  88 135 168 208 265 324 388
#
# _framework density 19.572894000000002
#
# number of rings (size 3 to 8) (size 9 to 14) (size 15 to 20)
#    0.000    1.000    5.000    2.250    1.750    3.000 
#    0.000    1.250    2.750    0.000    0.000    0.000 
#    0.000    0.000    0.000    0.000    0.000    0.000 
#
# Total GULP energy -356994.144180 kJ/mol
# GULP energy per Si atom -5578.033503 kJ/mol
# Density = 1.952835 g / cm^3
# Si number density = 19.572894 Si / 1000 Ang^3
#
#
#
# Elastic Constant Matrix: (Units=GPa)
#
#
# Indices 1 2 3 4 5 6 
#
# 1 49.2315 36.5190 18.6750 0.0000 0.0000 0.0000
# 2 36.5190 104.5931 -0.7534 0.0000 0.0000 0.0000
# 3 18.6750 -0.7534 102.3006 0.0000 0.0000 0.0000
# 4 0.0000 0.0000 0.0000 12.2855 0.0000 0.0000
# 5 0.0000 0.0000 0.0000 0.0000 28.0447 0.0000
# 6 0.0000 0.0000 0.0000 0.0000 0.0000 18.7768
#
#
#
# Elastic Compliance Matrix: (Units=1/GPa)
#
#
# Indices 1 2 3 4 5 6 
#
# 1 0.030326 -0.010629 -0.005614 0.000000 0.000000 0.000000
# 2 -0.010629 0.013287 0.002038 0.000000 0.000000 0.000000
# 3 -0.005614 0.002038 0.010815 0.000000 0.000000 0.000000
# 4 0.000000 0.000000 0.000000 0.081397 0.000000 0.000000
# 5 0.000000 0.000000 0.000000 0.000000 0.035657 0.000000
# 6 0.000000 0.000000 0.000000 0.000000 0.000000 0.053257
#
#
# Mechanical properties :
#
#
# Convention : Reuss Voigt Hill
#
# Bulk Modulus (GPa) = 38.43537 40.55625 39.49581
# Shear Modulus (GPa) = 19.09695 25.26704 22.18199
#
# Velocity S-wave (km/s) = 3.12698 3.59684 3.37011
# Velocity P-wave (km/s) = 5.71988 6.16565 5.94694
#
# Compressibility (1/GPa) = 0.02601770
#
# Stress axis : x y z
#
# Youngs Moduli (GPa) = 32.97479 75.26349 92.46392
#
# Poissons Ratio (x) = 0.79997 0.51912
# Poissons Ratio (y) = 0.35049 -0.18846
# Poissons Ratio (z) = 0.18513 -0.15340
#
# Static dielectric constant tensor:
#      x y z
#    x 1.699910 0.000000 0.000000 
#    y 0.000000 1.676460 0.000000 
#    z 0.000000 0.000000 1.736420 
# 
# From -- ./inp_files/11570.got.cif
#   From: 2010.05.17/outbox.cif.g08.bks.cpg/sg48_6_cif.got.tgz:11570.got - 2010.06.03 20:39:00.
