data_PCOD9390541
_publ_section_title
;
Structure prediction by ZEFSAII (Michael W. Deem and Ramdas Pophale) SiO2 
 PCOD9390541
Probable space group: P N N N
;
_chemical_formula_sum "Si O2"
_cell_formula_units_Z 46
_cell_length_a 7.491102
_cell_length_b 12.733457
_cell_length_c 22.074302
_cell_angle_alpha 90.000000
_cell_angle_beta 90.000000
_cell_angle_gamma 90.000000
_cell_volume 2105.615246
_symmetry_space_group_name_H-M "P N N N"
_symmetry_group_IT_number 48
_space_group.IT_coordinate_system_code '2'
_symmetry_cell_setting 'orthorhombic'
loop_
_space_group_symop_operation_xyz
x,y,z
1/2-x,1/2-y,z
x,1/2-y,1/2-z
1/2-x,y,1/2-z
-x,-y,-z
1/2+x,1/2+y,-z
-x,1/2+y,1/2+z
1/2+x,-y,1/2+z
loop_
_atom_site_type_symbol
_atom_site_label
_atom_site_fract_x
_atom_site_fract_y
_atom_site_fract_z
Si Si1 0.750000 0.750000 0.250000
Si Si2 0.036591 0.275812 0.056140
Si Si3 0.750000 0.006418 0.750000
Si Si4 0.083829 0.028679 0.371300
Si Si5 0.006989 0.123528 0.839906
Si Si6 0.019625 0.041057 0.068387
Si Si7 0.949329 0.805743 0.417140
O O1 0.857518 0.824251 0.205796
O O2 0.250000 0.250000 0.060576
O O3 0.987955 0.369910 0.100638
O O4 0.957464 0.161334 0.069513
O O5 0.002483 0.312495 0.987575
O O6 0.639161 0.076998 0.704275
O O7 0.876133 0.950452 0.700182
O O8 0.274282 0.028044 0.408397
O O9 0.986997 0.917424 0.384933
O O10 0.939680 0.215742 0.883335
O O11 0.080675 0.032889 0.883821
O O12 0.000000 0.000000 0.000000
O O13 0.750000 0.750000 0.415595
#
# Coordination Sequence:
#
# PCOD9390541 Si02
#       7
#     2   8   4   8   8   8   8
#     4  12  24  34  56  92 122 174 196 246 314 394
#     4   9  19  38  62  92 120 158 212 262 330 389
#     4  10  24  41  59  94 128 164 221 267 312 402
#     4  10  22  38  63  91 128 170 213 270 324 402
#     4  11  23  40  62  90 127 165 210 261 322 380
#     4  10  20  40  64  91 126 160 211 275 326 385
#     4  11  21  36  62  94 125 163 210 272 327 392
#
# _framework density 21.846347000000002
#
# number of rings (size 3 to 8) (size 9 to 14) (size 15 to 20)
#    0.000    1.739    2.609    1.565    0.000    6.609 
#    0.000   10.870    0.000    0.000    4.522    0.000 
#    0.000    0.000    0.000    0.000    0.000    0.000 
#
# Total GULP energy -256695.083897 kJ/mol
# GULP energy per Si atom -5580.327911 kJ/mol
# Density = 2.179662 g / cm^3
# Si number density = 21.846347 Si / 1000 Ang^3
#
#
#
# Elastic Constant Matrix: (Units=GPa)
#
#
# Indices 1 2 3 4 5 6 
#
# 1 35.1719 -0.4573 24.4901 0.0000 0.0000 0.0000
# 2 -0.4573 163.0696 99.9944 0.0000 0.0000 0.0000
# 3 24.4901 99.9944 192.9522 0.0000 0.0000 0.0000
# 4 0.0000 0.0000 0.0000 44.1536 0.0000 0.0000
# 5 0.0000 0.0000 0.0000 0.0000 19.0643 0.0000
# 6 0.0000 0.0000 0.0000 0.0000 0.0000 18.0816
#
#
#
# Elastic Compliance Matrix: (Units=1/GPa)
#
#
# Indices 1 2 3 4 5 6 
#
# 1 0.032777 0.003874 -0.006168 0.000000 0.000000 0.000000
# 2 0.003874 0.009447 -0.005387 0.000000 0.000000 0.000000
# 3 -0.006168 -0.005387 0.008757 0.000000 0.000000 0.000000
# 4 0.000000 0.000000 0.000000 0.022648 0.000000 0.000000
# 5 0.000000 0.000000 0.000000 0.000000 0.052454 0.000000
# 6 0.000000 0.000000 0.000000 0.000000 0.000000 0.055305
#
#
# Mechanical properties :
#
#
# Convention : Reuss Voigt Hill
#
# Bulk Modulus (GPa) = 28.07519 71.02756 49.55138
# Shear Modulus (GPa) = 23.96668 34.07101 29.01885
#
# Velocity S-wave (km/s) = 3.31578 3.95343 3.64856
# Velocity P-wave (km/s) = 5.24769 7.30906 6.36242
#
# Compressibility (1/GPa) = 0.03561863
#
# Stress axis : x y z
#
# Youngs Moduli (GPa) = 30.50946 105.85696 114.18984
#
# Poissons Ratio (x) = -0.41009 0.70430
# Poissons Ratio (y) = -0.11819 0.61518
# Poissons Ratio (z) = 0.18817 0.57028
#
# Static dielectric constant tensor:
#      x y z
#    x 1.842920 0.000000 0.000000 
#    y 0.000000 2.052970 0.000000 
#    z 0.000000 0.000000 1.793700 
# 
# From -- ./inp_files/35890.got.cif
#   From: 2010.05.17/outbox.cif.g08.bks.cpg/sg48_18_cif.got.tgz:35890.got - 2010.06.03 20:39:00.
