data_PCOD9390178
_publ_section_title
;
Structure prediction by ZEFSAII (Michael W. Deem and Ramdas Pophale) SiO2 
 PCOD9390178
Probable space group: P N N N
;
_chemical_formula_sum "Si O2"
_cell_formula_units_Z 38
_cell_length_a 10.321627
_cell_length_b 10.321604
_cell_length_c 19.013562
_cell_angle_alpha 90.000000
_cell_angle_beta 90.000000
_cell_angle_gamma 90.000000
_cell_volume 2025.624022
_symmetry_space_group_name_H-M "P N N N"
_symmetry_group_IT_number 48
_space_group.IT_coordinate_system_code '2'
_symmetry_cell_setting 'orthorhombic'
loop_
_space_group_symop_operation_xyz
x,y,z
1/2-x,1/2-y,z
x,1/2-y,1/2-z
1/2-x,y,1/2-z
-x,-y,-z
1/2+x,1/2+y,-z
-x,1/2+y,1/2+z
1/2+x,-y,1/2+z
loop_
_atom_site_type_symbol
_atom_site_label
_atom_site_fract_x
_atom_site_fract_y
_atom_site_fract_z
Si Si1 0.395814 0.721223 0.333548
Si Si2 0.854660 0.854660 0.104046
Si Si3 0.750000 0.750000 0.967347
Si Si4 0.278778 0.895814 0.833548
Si Si5 0.250000 0.250000 0.250000
Si Si6 0.916137 0.916137 0.642286
O O1 0.250000 0.750000 0.355165
O O2 0.409251 0.750000 0.250000
O O3 0.505027 0.807869 0.371086
O O4 0.404279 0.570077 0.351707
O O5 0.750000 0.750000 0.134528
O O6 0.807867 0.994973 0.128914
O O7 0.836462 0.836462 0.020416
O O8 0.844263 0.655737 0.922838
O O9 0.250000 0.750000 0.855166
O O10 0.250000 0.909249 0.750000
O O11 0.429923 0.904278 0.851706
O O12 0.156437 0.156436 0.294070
#
# Coordination Sequence:
#
# PCOD9390178 Si02
#       6
#     8   8   4   8   2   8
#     4  11  23  38  65  97 127 163 216 273 326 375
#     4  10  22  41  64  90 126 175 215 253 308 389
#     4   9  24  41  67  88 125 180 216 244 321 392
#     4  11  23  38  65  97 127 163 216 273 326 375
#     4  10  20  32  64  84 118 172 206 272 334 380
#     4  11  21  42  60  89 131 167 208 271 323 378
#
# _framework density 18.759651000000002
#
# number of rings (size 3 to 8) (size 9 to 14) (size 15 to 20)
#    0.632    0.842    2.105    3.789    0.000    6.737 
#    0.000    6.316    0.000    0.000    0.000    0.000 
#    0.000    0.000    0.000    0.000    0.000    0.000 
#
# Total GULP energy -211729.874529 kJ/mol
# GULP energy per Si atom -5571.838803 kJ/mol
# Density = 1.871695 g / cm^3
# Si number density = 18.759651 Si / 1000 Ang^3
#
#
#
# Elastic Constant Matrix: (Units=GPa)
#
#
# Indices 1 2 3 4 5 6 
#
# 1 204.9137 106.4350 77.3597 0.0000 0.0000 0.0000
# 2 106.4350 204.9095 77.3571 0.0000 0.0000 0.0000
# 3 77.3597 77.3571 93.1711 0.0000 0.0000 0.0000
# 4 0.0000 0.0000 0.0000 19.8379 0.0000 0.0000
# 5 0.0000 0.0000 0.0000 0.0000 19.8397 0.0000
# 6 0.0000 0.0000 0.0000 0.0000 0.0000 50.0014
#
#
#
# Elastic Compliance Matrix: (Units=1/GPa)
#
#
# Indices 1 2 3 4 5 6 
#
# 1 0.007811 -0.002343 -0.004540 0.000000 0.000000 0.000000
# 2 -0.002343 0.007811 -0.004540 0.000000 0.000000 0.000000
# 3 -0.004540 -0.004540 0.018272 0.000000 0.000000 0.000000
# 4 0.000000 0.000000 0.000000 0.050408 0.000000 0.000000
# 5 0.000000 0.000000 0.000000 0.000000 0.050404 0.000000
# 6 0.000000 0.000000 0.000000 0.000000 0.000000 0.019999
#
#
# Mechanical properties :
#
#
# Convention : Reuss Voigt Hill
#
# Bulk Modulus (GPa) = 90.51471 113.92199 102.21835
# Shear Modulus (GPa) = 27.58849 34.05863 30.82356
#
# Velocity S-wave (km/s) = 3.83904 4.26552 4.05789
# Velocity P-wave (km/s) = 8.24654 9.22597 8.74997
#
# Compressibility (1/GPa) = 0.01104793
#
# Stress axis : x y z
#
# Youngs Moduli (GPa) = 128.02021 128.02027 54.72952
#
# Poissons Ratio (x) = 0.30001 0.24847
# Poissons Ratio (y) = 0.30001 0.24846
# Poissons Ratio (z) = 0.58121 0.58117
#
# Static dielectric constant tensor:
#      x y z
#    x 1.568120 0.000000 0.000000 
#    y 0.000000 1.568130 0.000000 
#    z 0.000000 0.000000 1.669770 
# 
# From -- ./inp_files/35718.got.cif
#   From: 2010.05.17/outbox.cif.g08.bks.cpg/sg48_18_cif.got.tgz:35718.got - 2010.06.03 20:39:00.
