data_PCOD9390259
_publ_section_title
;
Structure prediction by ZEFSAII (Michael W. Deem and Ramdas Pophale) SiO2 
 PCOD9390259
Probable space group: P N N N
;
_chemical_formula_sum "Si O2"
_cell_formula_units_Z 48
_cell_length_a 29.739440
_cell_length_b 5.023665
_cell_length_c 14.842854
_cell_angle_alpha 90.000000
_cell_angle_beta 90.000000
_cell_angle_gamma 90.000000
_cell_volume 2217.536991
_symmetry_space_group_name_H-M "P N N N"
_symmetry_group_IT_number 48
_space_group.IT_coordinate_system_code '2'
_symmetry_cell_setting 'orthorhombic'
loop_
_space_group_symop_operation_xyz
x,y,z
1/2-x,1/2-y,z
x,1/2-y,1/2-z
1/2-x,y,1/2-z
-x,-y,-z
1/2+x,1/2+y,-z
-x,1/2+y,1/2+z
1/2+x,-y,1/2+z
loop_
_atom_site_type_symbol
_atom_site_label
_atom_site_fract_x
_atom_site_fract_y
_atom_site_fract_z
Si Si1 0.601928 0.163971 0.917453
Si Si2 0.200840 0.692458 0.020652
Si Si3 0.069065 0.750000 0.750000
Si Si4 0.971959 0.292117 0.061466
Si Si5 0.701287 0.801300 0.399394
Si Si6 0.370605 0.250000 0.750000
Si Si7 0.555761 0.862305 0.651636
O O1 0.581881 0.363758 0.844408
O O2 0.586689 0.863024 0.896014
O O3 0.654763 0.213558 0.924950
O O4 0.574679 0.250647 0.008406
O O5 0.250000 0.750000 0.062843
O O6 0.201106 0.391848 0.985161
O O7 0.197541 0.898126 0.935956
O O8 0.043093 0.632439 0.836899
O O9 0.099655 0.501653 0.722419
O O10 0.011016 0.084712 0.091347
O O11 0.000000 0.500000 0.000000
O O12 0.750000 0.750000 0.356029
O O13 0.661974 0.705403 0.334560
O O14 0.544803 0.750000 0.750000
#
# Coordination Sequence:
#
# PCOD9390259 Si02
#       7
#     8   8   4   8   8   4   8
#     4  11  22  38  66  90 120 163 209 253 318 379
#     4  10  21  38  61  88 121 159 209 263 312 376
#     4  12  26  40  61  90 128 164 209 268 312 374
#     4  10  23  43  64  92 125 168 211 264 319 383
#     4  10  20  35  55  82 121 164 206 253 306 366
#     4  12  23  36  56  86 124 164 208 258 311 366
#     4  11  23  41  62  89 125 159 205 260 318 384
#
# _framework density 21.645634999999999
#
# number of rings (size 3 to 8) (size 9 to 14) (size 15 to 20)
#    0.000    1.333    0.833    5.250    0.000    6.667 
#    0.000    3.333    0.000    3.000    0.000    0.000 
#    0.000    0.000    0.000    0.000    0.000    0.000 
#
# Total GULP energy -267668.369841 kJ/mol
# GULP energy per Si atom -5576.424372 kJ/mol
# Density = 2.159637 g / cm^3
# Si number density = 21.645635 Si / 1000 Ang^3
#
#
#
# Elastic Constant Matrix: (Units=GPa)
#
#
# Indices 1 2 3 4 5 6 
#
# 1 142.1930 15.8703 40.3872 0.0000 0.0000 0.0000
# 2 15.8703 71.4822 6.8875 0.0000 0.0000 0.0000
# 3 40.3872 6.8875 87.9797 0.0000 0.0000 0.0000
# 4 0.0000 0.0000 0.0000 18.6479 0.0000 0.0000
# 5 0.0000 0.0000 0.0000 0.0000 13.5117 0.0000
# 6 0.0000 0.0000 0.0000 0.0000 0.0000 25.3165
#
#
#
# Elastic Compliance Matrix: (Units=1/GPa)
#
#
# Indices 1 2 3 4 5 6 
#
# 1 0.008239 -0.001476 -0.003667 0.000000 0.000000 0.000000
# 2 -0.001476 0.014360 -0.000447 0.000000 0.000000 0.000000
# 3 -0.003667 -0.000447 0.013084 0.000000 0.000000 0.000000
# 4 0.000000 0.000000 0.000000 0.053625 0.000000 0.000000
# 5 0.000000 0.000000 0.000000 0.000000 0.074010 0.000000
# 6 0.000000 0.000000 0.000000 0.000000 0.000000 0.039500
#
#
# Mechanical properties :
#
#
# Convention : Reuss Voigt Hill
#
# Bulk Modulus (GPa) = 40.80762 47.54944 44.17853
# Shear Modulus (GPa) = 22.50575 27.39586 24.95080
#
# Velocity S-wave (km/s) = 3.22799 3.56146 3.39882
# Velocity P-wave (km/s) = 5.72597 6.23914 5.98806
#
# Compressibility (1/GPa) = 0.02450522
#
# Stress axis : x y z
#
# Youngs Moduli (GPa) = 121.37657 69.63682 76.42728
#
# Poissons Ratio (x) = 0.10278 0.28022
# Poissons Ratio (y) = 0.17914 0.03414
# Poissons Ratio (z) = 0.44503 0.03111
#
# Static dielectric constant tensor:
#      x y z
#    x 1.847940 0.000000 0.000000 
#    y 0.000000 1.788290 0.000000 
#    z 0.000000 0.000000 1.800600 
# 
# From -- ./inp_files/28799.got.cif
#   From: 2010.05.17/outbox.cif.g08.bks.cpg/sg48_15_cif.got.tgz:28799.got - 2010.06.03 20:39:00.
