data_PCOD9390380
_publ_section_title
;
Structure prediction by ZEFSAII (Michael W. Deem and Ramdas Pophale) SiO2 
 PCOD9390380
Probable space group: P N N N
;
_chemical_formula_sum "Si O2"
_cell_formula_units_Z 48
_cell_length_a 15.287230
_cell_length_b 7.940456
_cell_length_c 17.911144
_cell_angle_alpha 90.000000
_cell_angle_beta 90.000000
_cell_angle_gamma 90.000000
_cell_volume 2174.190375
_symmetry_space_group_name_H-M "P N N N"
_symmetry_group_IT_number 48
_space_group.IT_coordinate_system_code '2'
_symmetry_cell_setting 'orthorhombic'
loop_
_space_group_symop_operation_xyz
x,y,z
1/2-x,1/2-y,z
x,1/2-y,1/2-z
1/2-x,y,1/2-z
-x,-y,-z
1/2+x,1/2+y,-z
-x,1/2+y,1/2+z
1/2+x,-y,1/2+z
loop_
_atom_site_type_symbol
_atom_site_label
_atom_site_fract_x
_atom_site_fract_y
_atom_site_fract_z
Si Si1 0.580844 0.926430 0.274693
Si Si2 0.928693 0.051260 0.064037
Si Si3 0.844452 0.343247 0.151255
Si Si4 0.262568 0.050413 0.974027
Si Si5 0.254267 0.046386 0.135772
Si Si6 0.108373 0.453857 0.259773
O O1 0.619554 0.750000 0.250000
O O2 0.573618 0.929576 0.364025
O O3 0.631343 0.074621 0.230856
O O4 0.481782 0.953669 0.248547
O O5 0.920671 0.229409 0.111109
O O6 0.832885 0.033321 0.029570
O O7 0.000000 0.000000 0.000000
O O8 0.750000 0.250000 0.155309
O O9 0.824101 0.490442 0.091936
O O10 0.250000 0.250000 0.970999
O O11 0.292212 0.997332 0.056268
O O12 0.250000 0.250000 0.137753
O O13 0.322112 0.991963 0.198095
O O14 0.155627 0.002824 0.161455
O O15 0.096248 0.250000 0.250000
#
# Coordination Sequence:
#
# PCOD9390380 Si02
#       6
#     8   8   8   8   8   8
#     4  12  25  41  62  93 125 159 205 260 313 371
#     4  11  24  42  65  91 121 161 208 257 307 369
#     4  10  24  44  65  88 121 166 212 258 318 382
#     4  10  20  37  60  90 123 159 202 255 312 369
#     4   8  16  32  58  88 121 161 202 243 297 362
#     4   9  17  34  59  87 120 162 204 243 296 368
#
# _framework density 22.077185
#
# number of rings (size 3 to 8) (size 9 to 14) (size 15 to 20)
#    0.000    2.000    0.000    4.500    0.000    8.667 
#    0.000   10.000    0.000    0.000    0.000    0.000 
#    0.000    0.000    0.000    0.000    0.000    0.000 
#
# Total GULP energy -267529.766775 kJ/mol
# GULP energy per Si atom -5573.536808 kJ/mol
# Density = 2.202694 g / cm^3
# Si number density = 22.077185 Si / 1000 Ang^3
#
#
#
# Elastic Constant Matrix: (Units=GPa)
#
#
# Indices 1 2 3 4 5 6 
#
# 1 49.6887 1.1838 17.7302 0.0000 0.0000 0.0000
# 2 1.1838 66.9914 23.4103 0.0000 0.0000 0.0000
# 3 17.7302 23.4103 142.4852 0.0000 0.0000 0.0000
# 4 0.0000 0.0000 0.0000 8.7686 0.0000 0.0000
# 5 0.0000 0.0000 0.0000 0.0000 33.4006 0.0000
# 6 0.0000 0.0000 0.0000 0.0000 0.0000 15.4700
#
#
#
# Elastic Compliance Matrix: (Units=1/GPa)
#
#
# Indices 1 2 3 4 5 6 
#
# 1 0.021081 0.000577 -0.002718 0.000000 0.000000 0.000000
# 2 0.000577 0.015852 -0.002676 0.000000 0.000000 0.000000
# 3 -0.002718 -0.002676 0.007796 0.000000 0.000000 0.000000
# 4 0.000000 0.000000 0.000000 0.114043 0.000000 0.000000
# 5 0.000000 0.000000 0.000000 0.000000 0.029940 0.000000
# 6 0.000000 0.000000 0.000000 0.000000 0.000000 0.064641
#
#
# Mechanical properties :
#
#
# Convention : Reuss Voigt Hill
#
# Bulk Modulus (GPa) = 28.49354 38.20153 33.34753
# Shear Modulus (GPa) = 18.20256 25.98391 22.09324
#
# Velocity S-wave (km/s) = 2.87452 3.43440 3.16686
# Velocity P-wave (km/s) = 4.89403 5.75048 5.33945
#
# Compressibility (1/GPa) = 0.03509567
#
# Stress axis : x y z
#
# Youngs Moduli (GPa) = 47.43509 63.08208 128.26712
#
# Poissons Ratio (x) = -0.03642 0.34865
# Poissons Ratio (y) = -0.02739 0.34329
# Poissons Ratio (z) = 0.12893 0.16883
#
# Static dielectric constant tensor:
#      x y z
#    x 2.180520 0.000000 0.000000 
#    y 0.000000 1.882920 0.000000 
#    z 0.000000 0.000000 1.891100 
# 
# From -- ./inp_files/31549.got.cif
#   From: 2010.05.17/outbox.cif.g08.bks.cpg/sg48_16_cif.got.tgz:31549.got - 2010.06.03 20:39:00.
