data_PCOD9390637
_publ_section_title
;
Structure prediction by ZEFSAII (Michael W. Deem and Ramdas Pophale) SiO2 
 PCOD9390637
Probable space group: P N N N
;
_chemical_formula_sum "Si O2"
_cell_formula_units_Z 48
_cell_length_a 9.853362
_cell_length_b 16.921782
_cell_length_c 14.061166
_cell_angle_alpha 90.000000
_cell_angle_beta 90.000000
_cell_angle_gamma 90.000000
_cell_volume 2344.508814
_symmetry_space_group_name_H-M "P N N N"
_symmetry_group_IT_number 48
_space_group.IT_coordinate_system_code '2'
_symmetry_cell_setting 'orthorhombic'
loop_
_space_group_symop_operation_xyz
x,y,z
1/2-x,1/2-y,z
x,1/2-y,1/2-z
1/2-x,y,1/2-z
-x,-y,-z
1/2+x,1/2+y,-z
-x,1/2+y,1/2+z
1/2+x,-y,1/2+z
loop_
_atom_site_type_symbol
_atom_site_label
_atom_site_fract_x
_atom_site_fract_y
_atom_site_fract_z
Si Si1 0.535639 0.135696 0.174394
Si Si2 0.703523 0.990231 0.096120
Si Si3 0.265947 0.407738 0.414566
Si Si4 0.338619 0.182471 0.905110
Si Si5 0.594898 0.254202 0.003237
Si Si6 0.957996 0.094898 0.117665
O O1 0.578529 0.203776 0.101205
O O2 0.571794 0.142245 0.284634
O O3 0.610695 0.057620 0.137937
O O4 0.375226 0.119548 0.161770
O O5 0.667526 0.904700 0.139945
O O6 0.857319 0.020581 0.110525
O O7 0.680982 0.978431 0.982657
O O8 0.735557 0.662501 0.506721
O O9 0.116096 0.426780 0.380723
O O10 0.250000 0.250000 0.857694
O O11 0.487003 0.215187 0.931248
O O12 0.750000 0.250000 0.970541
O O13 0.564409 0.344732 0.030893
#
# Coordination Sequence:
#
# PCOD9390637 Si02
#       6
#     8   8   8   8   8   8
#     4  11  22  34  53  82 118 148 182 230 293 333
#     4  10  21  35  56  77 114 149 189 232 275 338
#     4   9  21  35  54  77 108 152 185 227 276 335
#     4   9  19  37  56  77 107 145 193 228 273 328
#     4  11  21  33  53  80 116 150 180 223 276 349
#     4  12  21  35  54  85 113 148 190 231 283 340
#
# _framework density 20.473371
#
# number of rings (size 3 to 8) (size 9 to 14) (size 15 to 20)
#    1.000    0.667    3.333    2.500    0.000    0.667 
#    0.000    1.667    0.000    2.000    0.000    0.000 
#    0.000    2.667    0.000    0.000    0.000    0.000 
#
# Total GULP energy -267532.709631 kJ/mol
# GULP energy per Si atom -5573.598117 kJ/mol
# Density = 2.042677 g / cm^3
# Si number density = 20.473371 Si / 1000 Ang^3
#
#
#
# Elastic Constant Matrix: (Units=GPa)
#
#
# Indices 1 2 3 4 5 6 
#
# 1 127.5347 38.1629 5.9965 0.0000 0.0000 0.0000
# 2 38.1629 104.8067 7.7464 0.0000 0.0000 0.0000
# 3 5.9965 7.7464 30.2973 0.0000 0.0000 0.0000
# 4 0.0000 0.0000 0.0000 17.4365 0.0000 0.0000
# 5 0.0000 0.0000 0.0000 0.0000 15.4878 0.0000
# 6 0.0000 0.0000 0.0000 0.0000 0.0000 29.4866
#
#
#
# Elastic Compliance Matrix: (Units=1/GPa)
#
#
# Indices 1 2 3 4 5 6 
#
# 1 0.008826 -0.003144 -0.000943 0.000000 0.000000 0.000000
# 2 -0.003144 0.010845 -0.002151 0.000000 0.000000 0.000000
# 3 -0.000943 -0.002151 0.033743 0.000000 0.000000 0.000000
# 4 0.000000 0.000000 0.000000 0.057351 0.000000 0.000000
# 5 0.000000 0.000000 0.000000 0.000000 0.064567 0.000000
# 6 0.000000 0.000000 0.000000 0.000000 0.000000 0.033914
#
#
# Mechanical properties :
#
#
# Convention : Reuss Voigt Hill
#
# Bulk Modulus (GPa) = 24.42679 40.71670 32.57175
# Shear Modulus (GPa) = 21.24337 26.53104 23.88721
#
# Velocity S-wave (km/s) = 3.22469 3.60374 3.41947
# Velocity P-wave (km/s) = 5.08151 6.10301 5.61554
#
# Compressibility (1/GPa) = 0.04093865
#
# Stress axis : x y z
#
# Youngs Moduli (GPa) = 113.29928 92.20673 29.63597
#
# Poissons Ratio (x) = 0.28991 0.02795
# Poissons Ratio (y) = 0.35623 0.06373
# Poissons Ratio (z) = 0.10684 0.19830
#
# Static dielectric constant tensor:
#      x y z
#    x 1.748140 0.000000 0.000000 
#    y 0.000000 1.753470 0.000000 
#    z 0.000000 0.000000 1.728890 
# 
# From -- ./inp_files/30256.got.cif
#   From: 2010.05.17/outbox.cif.g08.bks.cpg/sg48_16_cif.got.tgz:30256.got - 2010.06.03 20:39:00.
