data_PCOD9390720
_publ_section_title
;
Structure prediction by ZEFSAII (Michael W. Deem and Ramdas Pophale) SiO2 
 PCOD9390720
Probable space group: P N N N
;
_chemical_formula_sum "Si O2"
_cell_formula_units_Z 52
_cell_length_a 5.117109
_cell_length_b 28.912501
_cell_length_c 17.526542
_cell_angle_alpha 90.000000
_cell_angle_beta 90.000000
_cell_angle_gamma 90.000000
_cell_volume 2593.024181
_symmetry_space_group_name_H-M "P N N N"
_symmetry_group_IT_number 48
_space_group.IT_coordinate_system_code '2'
_symmetry_cell_setting 'orthorhombic'
loop_
_space_group_symop_operation_xyz
x,y,z
1/2-x,1/2-y,z
x,1/2-y,1/2-z
1/2-x,y,1/2-z
-x,-y,-z
1/2+x,1/2+y,-z
-x,1/2+y,1/2+z
1/2+x,-y,1/2+z
loop_
_atom_site_type_symbol
_atom_site_label
_atom_site_fract_x
_atom_site_fract_y
_atom_site_fract_z
Si Si1 0.968064 0.884989 0.392500
Si Si2 0.633775 0.199320 0.645303
Si Si3 0.441145 0.795065 0.523506
Si Si4 0.930250 0.851058 0.556855
Si Si5 0.250000 0.342134 0.750000
Si Si6 0.999179 0.975091 0.304713
Si Si7 0.001529 0.580088 0.803575
O O1 0.868312 0.878310 0.478058
O O2 0.766700 0.872892 0.325270
O O3 0.179656 0.844462 0.374114
O O4 0.042616 0.937181 0.370802
O O5 0.750000 0.250000 0.649963
O O6 0.473020 0.204108 0.565542
O O7 0.483461 0.190080 0.723447
O O8 0.250000 0.750000 0.535163
O O9 0.712613 0.809890 0.564933
O O10 0.225920 0.833504 0.543861
O O11 0.943946 0.884179 0.629211
O O12 0.250000 0.972572 0.250000
O O13 0.750000 0.966164 0.250000
O O14 0.963380 0.027579 0.333912
O O15 0.750000 0.579316 0.750000
O O16 0.250000 0.591760 0.750000
#
# Coordination Sequence:
#
# PCOD9390720 Si02
#       7
#     8   8   8   8   4   8   8
#     4  11  23  35  57  86 123 165 215 259 305 358
#     4  10  23  37  53  81 120 169 216 257 297 352
#     4  10  21  40  63  90 127 166 203 250 309 369
#     4  11  22  39  65  95 123 161 212 253 311 376
#     4  12  20  37  54  76 122 168 212 258 305 340
#     4  10  21  38  60  87 123 167 208 253 317 373
#     4  10  22  42  67  94 123 158 200 261 329 390
#
# _framework density 20.053806000000002
#
# number of rings (size 3 to 8) (size 9 to 14) (size 15 to 20)
#    0.000    1.538    2.308    2.769    0.000    3.077 
#    0.000    0.000    0.000   15.231    0.000    0.000 
#    0.000    0.000    0.000    0.000    0.000    0.000 
#
# Total GULP energy -289579.786573 kJ/mol
# GULP energy per Si atom -5568.842049 kJ/mol
# Density = 2.000816 g / cm^3
# Si number density = 20.053806 Si / 1000 Ang^3
#
#
#
# Elastic Constant Matrix: (Units=GPa)
#
#
# Indices 1 2 3 4 5 6 
#
# 1 99.1586 19.4614 23.1590 0.0000 0.0000 0.0000
# 2 19.4614 100.5842 68.6464 0.0000 0.0000 0.0000
# 3 23.1590 68.6464 96.6476 0.0000 0.0000 0.0000
# 4 0.0000 0.0000 0.0000 39.7277 0.0000 0.0000
# 5 0.0000 0.0000 0.0000 0.0000 22.6501 0.0000
# 6 0.0000 0.0000 0.0000 0.0000 0.0000 57.0469
#
#
#
# Elastic Compliance Matrix: (Units=1/GPa)
#
#
# Indices 1 2 3 4 5 6 
#
# 1 0.010703 -0.000622 -0.002123 0.000000 0.000000 0.000000
# 2 -0.000622 0.019331 -0.013582 0.000000 0.000000 0.000000
# 3 -0.002123 -0.013582 0.020502 0.000000 0.000000 0.000000
# 4 0.000000 0.000000 0.000000 0.025171 0.000000 0.000000
# 5 0.000000 0.000000 0.000000 0.000000 0.044150 0.000000
# 6 0.000000 0.000000 0.000000 0.000000 0.000000 0.017529
#
#
# Mechanical properties :
#
#
# Convention : Reuss Voigt Hill
#
# Bulk Modulus (GPa) = 55.91743 57.65821 56.78782
# Shear Modulus (GPa) = 28.40894 36.22650 32.31772
#
# Velocity S-wave (km/s) = 3.76791 4.25486 4.01877
# Velocity P-wave (km/s) = 6.84644 7.27686 7.06493
#
# Compressibility (1/GPa) = 0.01788351
#
# Stress axis : x y z
#
# Youngs Moduli (GPa) = 93.43417 51.72942 48.77536
#
# Poissons Ratio (x) = 0.03218 0.10354
# Poissons Ratio (y) = 0.05812 0.66244
# Poissons Ratio (z) = 0.19834 0.70256
#
# Static dielectric constant tensor:
#      x y z
#    x 1.792450 0.000000 0.000000 
#    y 0.000000 1.782230 0.000000 
#    z 0.000000 0.000000 1.693570 
# 
# From -- ./inp_files/29589.got.cif
#   From: 2010.05.17/outbox.cif.g08.bks.cpg/sg48_15_cif.got.tgz:29589.got - 2010.06.03 20:39:00.
