data_PCOD9390918
_publ_section_title
;
Structure prediction by ZEFSAII (Michael W. Deem and Ramdas Pophale) SiO2 
 PCOD9390918
Probable space group: P N N N
;
_chemical_formula_sum "Si O2"
_cell_formula_units_Z 56
_cell_length_a 17.702662
_cell_length_b 5.527154
_cell_length_c 26.222810
_cell_angle_alpha 90.000000
_cell_angle_beta 90.000000
_cell_angle_gamma 90.000000
_cell_volume 2565.779736
_symmetry_space_group_name_H-M "P N N N"
_symmetry_group_IT_number 48
_space_group.IT_coordinate_system_code '2'
_symmetry_cell_setting 'orthorhombic'
loop_
_space_group_symop_operation_xyz
x,y,z
1/2-x,1/2-y,z
x,1/2-y,1/2-z
1/2-x,y,1/2-z
-x,-y,-z
1/2+x,1/2+y,-z
-x,1/2+y,1/2+z
1/2+x,-y,1/2+z
loop_
_atom_site_type_symbol
_atom_site_label
_atom_site_fract_x
_atom_site_fract_y
_atom_site_fract_z
Si Si1 0.045276 0.867200 0.635358
Si Si2 0.426916 0.059385 0.063513
Si Si3 0.172147 0.630138 0.693671
Si Si4 0.335169 0.263954 0.887204
Si Si5 0.567443 0.002706 0.780827
Si Si6 0.953164 0.825526 0.036231
Si Si7 0.203428 0.000602 0.357035
O O1 0.114893 0.021448 0.612526
O O2 0.090632 0.687454 0.670877
O O3 0.983033 0.764137 0.596108
O O4 0.994868 0.019079 0.674735
O O5 0.481340 0.826085 0.064182
O O6 0.350783 0.013933 0.093530
O O7 0.415334 0.145840 0.005937
O O8 0.250000 0.750000 0.671532
O O9 0.170557 0.750000 0.750000
O O10 0.174854 0.356370 0.671570
O O11 0.250000 0.250000 0.907341
O O12 0.388163 0.421106 0.925732
O O13 0.557823 0.750000 0.750000
O O14 0.561711 0.250000 0.750000
O O15 0.648474 0.996816 0.808339
O O16 0.000000 0.000000 0.000000
O O17 0.250000 0.750000 0.357703
O O18 0.250000 0.250000 0.356302
#
# Coordination Sequence:
#
# PCOD9390918 Si02
#       7
#     8   8   8   8   8   8   8
#     4  10  22  40  63  89 131 168 219 280 334 407
#     4   9  22  42  64  97 126 168 225 274 348 413
#     4  11  23  38  58  89 127 173 218 266 338 397
#     4  11  23  41  62  93 132 172 221 282 347 411
#     4  11  25  43  67 100 132 180 237 282 344 420
#     4  10  21  41  70  94 127 175 222 286 342 414
#     4  11  25  44  70  99 140 179 220 290 357 421
#
# _framework density 21.825723
#
# number of rings (size 3 to 8) (size 9 to 14) (size 15 to 20)
#    0.000    1.571    1.429    2.143    6.000    2.286 
#    0.000    0.000    0.000    0.000    0.000    0.000 
#    0.000    0.000    0.000    0.000    0.000    0.000 
#
# Total GULP energy -311766.655836 kJ/mol
# GULP energy per Si atom -5567.261711 kJ/mol
# Density = 2.177605 g / cm^3
# Si number density = 21.825723 Si / 1000 Ang^3
#
#
#
# Elastic Constant Matrix: (Units=GPa)
#
#
# Indices 1 2 3 4 5 6 
#
# 1 129.7208 32.2963 46.2133 0.0000 0.0000 0.0000
# 2 32.2963 69.5782 30.8267 0.0000 0.0000 0.0000
# 3 46.2133 30.8267 118.1303 0.0000 0.0000 0.0000
# 4 0.0000 0.0000 0.0000 26.5146 0.0000 0.0000
# 5 0.0000 0.0000 0.0000 0.0000 34.3390 0.0000
# 6 0.0000 0.0000 0.0000 0.0000 0.0000 28.8674
#
#
#
# Elastic Compliance Matrix: (Units=1/GPa)
#
#
# Indices 1 2 3 4 5 6 
#
# 1 0.009525 -0.003133 -0.002909 0.000000 0.000000 0.000000
# 2 -0.003133 0.017281 -0.003284 0.000000 0.000000 0.000000
# 3 -0.002909 -0.003284 0.010460 0.000000 0.000000 0.000000
# 4 0.000000 0.000000 0.000000 0.037715 0.000000 0.000000
# 5 0.000000 0.000000 0.000000 0.000000 0.029121 0.000000
# 6 0.000000 0.000000 0.000000 0.000000 0.000000 0.034641
#
#
# Mechanical properties :
#
#
# Convention : Reuss Voigt Hill
#
# Bulk Modulus (GPa) = 53.71839 59.56686 56.64263
# Shear Modulus (GPa) = 30.56225 31.81708 31.18967
#
# Velocity S-wave (km/s) = 3.74610 3.82223 3.78436
# Velocity P-wave (km/s) = 6.58611 6.84328 6.71593
#
# Compressibility (1/GPa) = 0.01861560
#
# Stress axis : x y z
#
# Youngs Moduli (GPa) = 104.98659 57.86560 95.60043
#
# Poissons Ratio (x) = 0.18126 0.27808
# Poissons Ratio (y) = 0.32887 0.31397
# Poissons Ratio (z) = 0.30539 0.19004
#
# Static dielectric constant tensor:
#      x y z
#    x 1.792310 0.000000 0.000000 
#    y 0.000000 2.071220 0.000000 
#    z 0.000000 0.000000 1.981160 
# 
# From -- ./inp_files/39061.got.cif
#   From: 2010.05.17/outbox.cif.g08.bks.cpg/sg48_20_cif.got.tgz:39061.got - 2010.06.03 20:39:00.
