data_PCOD9390802
_publ_section_title
;
Structure prediction by ZEFSAII (Michael W. Deem and Ramdas Pophale) SiO2 
 PCOD9390802
Probable space group: P N N N
;
_chemical_formula_sum "Si O2"
_cell_formula_units_Z 48
_cell_length_a 8.089243
_cell_length_b 30.734923
_cell_length_c 8.858889
_cell_angle_alpha 90.000000
_cell_angle_beta 90.000000
_cell_angle_gamma 90.000000
_cell_volume 2202.517011
_symmetry_space_group_name_H-M "P N N N"
_symmetry_group_IT_number 48
_space_group.IT_coordinate_system_code '2'
_symmetry_cell_setting 'orthorhombic'
loop_
_space_group_symop_operation_xyz
x,y,z
1/2-x,1/2-y,z
x,1/2-y,1/2-z
1/2-x,y,1/2-z
-x,-y,-z
1/2+x,1/2+y,-z
-x,1/2+y,1/2+z
1/2+x,-y,1/2+z
loop_
_atom_site_type_symbol
_atom_site_label
_atom_site_fract_x
_atom_site_fract_y
_atom_site_fract_z
Si Si1 0.964525 0.162244 0.431941
Si Si2 0.554464 0.490251 0.759297
Si Si3 0.540664 0.935135 0.552305
Si Si4 0.934801 0.340206 0.413075
Si Si5 0.952101 0.247584 0.923669
Si Si6 0.637998 0.917489 0.097410
O O1 0.764314 0.162272 0.423570
O O2 0.008057 0.158360 0.255895
O O3 0.015679 0.209611 0.492045
O O4 0.034005 0.124004 0.539278
O O5 0.750000 0.491369 0.750000
O O6 0.490374 0.539094 0.795939
O O7 0.470022 0.460435 0.633067
O O8 0.516191 0.463630 0.911540
O O9 0.474968 0.887244 0.523979
O O10 0.736984 0.930290 0.535672
O O11 0.000212 0.297972 0.500298
O O12 0.750000 0.250000 0.928727
O O13 0.001956 0.250000 0.750000
O O14 0.750000 0.908660 0.250000
#
# Coordination Sequence:
#
# PCOD9390802 Si02
#       6
#     8   8   8   8   8   8
#     4  10  21  39  64  96 129 171 211 266 324 379
#     4  10  22  41  63  86 121 169 214 266 311 379
#     4  10  23  41  60  92 125 168 208 266 326 375
#     4  10  21  39  64  96 131 166 216 265 321 388
#     4   9  19  35  64  98 127 163 213 265 315 381
#     4  10  23  41  63  92 127 168 217 269 319 388
#
# _framework density 21.793248999999999
#
# number of rings (size 3 to 8) (size 9 to 14) (size 15 to 20)
#    0.000    2.167    0.000    1.500    7.000    2.667 
#   15.000    0.833    0.000    2.000    0.000    0.000 
#    0.000    0.000    0.000    0.000    0.000    0.000 
#
# Total GULP energy -267847.918579 kJ/mol
# GULP energy per Si atom -5580.164970 kJ/mol
# Density = 2.174365 g / cm^3
# Si number density = 21.793249 Si / 1000 Ang^3
#
#
#
# Elastic Constant Matrix: (Units=GPa)
#
#
# Indices 1 2 3 4 5 6 
#
# 1 20.9369 23.5629 2.4262 0.0000 0.0000 0.0000
# 2 23.5629 170.4554 47.6053 0.0000 0.0000 0.0000
# 3 2.4262 47.6053 62.7426 0.0000 0.0000 0.0000
# 4 0.0000 0.0000 0.0000 55.5060 0.0000 0.0000
# 5 0.0000 0.0000 0.0000 0.0000 15.8135 0.0000
# 6 0.0000 0.0000 0.0000 0.0000 0.0000 11.3972
#
#
#
# Elastic Compliance Matrix: (Units=1/GPa)
#
#
# Indices 1 2 3 4 5 6 
#
# 1 0.057701 -0.009330 0.004848 0.000000 0.000000 0.000000
# 2 -0.009330 0.008953 -0.006432 0.000000 0.000000 0.000000
# 3 0.004848 -0.006432 0.020631 0.000000 0.000000 0.000000
# 4 0.000000 0.000000 0.000000 0.018016 0.000000 0.000000
# 5 0.000000 0.000000 0.000000 0.000000 0.063237 0.000000
# 6 0.000000 0.000000 0.000000 0.000000 0.000000 0.087741
#
#
# Mechanical properties :
#
#
# Convention : Reuss Voigt Hill
#
# Bulk Modulus (GPa) = 15.27735 44.59155 29.93445
# Shear Modulus (GPa) = 16.67072 28.57935 22.62504
#
# Velocity S-wave (km/s) = 2.76877 3.62523 3.22556
# Velocity P-wave (km/s) = 4.15293 6.16674 5.25716
#
# Compressibility (1/GPa) = 0.06545637
#
# Stress axis : x y z
#
# Youngs Moduli (GPa) = 17.33061 111.69721 48.47101
#
# Poissons Ratio (x) = 1.04217 -0.23499
# Poissons Ratio (y) = 0.16170 0.31177
# Poissons Ratio (z) = -0.08402 0.71844
#
# Static dielectric constant tensor:
#      x y z
#    x 1.837850 0.000000 0.000000 
#    y 0.000000 1.842450 0.000000 
#    z 0.000000 0.000000 1.821070 
# 
# From -- ./inp_files/9488.got.cif
#   From: 2010.05.17/outbox.cif.g08.bks.cpg/sg48_5_cif.got.tgz:9488.got - 2010.06.03 20:39:00.
