data_PCOD9390989
_publ_section_title
;
Structure prediction by ZEFSAII (Michael W. Deem and Ramdas Pophale) SiO2 
 PCOD9390989
Probable space group: P N N N
;
_chemical_formula_sum "Si O2"
_cell_formula_units_Z 48
_cell_length_a 6.581326
_cell_length_b 18.084574
_cell_length_c 19.806138
_cell_angle_alpha 90.000000
_cell_angle_beta 90.000000
_cell_angle_gamma 90.000000
_cell_volume 2357.335994
_symmetry_space_group_name_H-M "P N N N"
_symmetry_group_IT_number 48
_space_group.IT_coordinate_system_code '2'
_symmetry_cell_setting 'orthorhombic'
loop_
_space_group_symop_operation_xyz
x,y,z
1/2-x,1/2-y,z
x,1/2-y,1/2-z
1/2-x,y,1/2-z
-x,-y,-z
1/2+x,1/2+y,-z
-x,1/2+y,1/2+z
1/2+x,-y,1/2+z
loop_
_atom_site_type_symbol
_atom_site_label
_atom_site_fract_x
_atom_site_fract_y
_atom_site_fract_z
Si Si1 0.717400 0.834397 0.431345
Si Si2 0.442215 0.544845 0.118508
Si Si3 0.760264 0.096245 0.124446
Si Si4 0.902735 0.078631 0.516109
Si Si5 0.155283 0.438312 0.181567
Si Si6 0.631664 0.825174 0.589221
O O1 0.750000 0.750000 0.410598
O O2 0.580381 0.881706 0.379687
O O3 0.619162 0.832503 0.507629
O O4 0.935199 0.874196 0.441834
O O5 0.601474 0.477141 0.113747
O O6 0.305094 0.559827 0.053425
O O7 0.268817 0.517591 0.171554
O O8 0.587285 0.072204 0.177826
O O9 0.920994 0.163091 0.130035
O O10 0.649946 0.115789 0.054465
O O11 0.000000 0.000000 0.500000
O O12 0.250000 0.406963 0.250000
O O13 0.235106 0.392092 0.117993
O O14 0.750000 0.750000 0.603826
#
# Coordination Sequence:
#
# PCOD9390989 Si02
#       6
#     8   8   8   8   8   8
#     4  11  22  35  54  93 130 157 193 253 328 394
#     4  11  21  35  60  87 118 155 202 259 320 384
#     4  11  20  36  61  86 121 156 206 261 307 363
#     4  12  18  33  60  89 120 159 195 249 321 384
#     4  11  24  39  59  87 116 164 223 269 303 364
#     4  10  22  37  55  85 124 166 206 250 317 382
#
# _framework density 20.361967
#
# number of rings (size 3 to 8) (size 9 to 14) (size 15 to 20)
#    0.000    1.000    6.667    1.500    0.000    4.333 
#    0.000    0.000    0.000    4.000    0.000   16.333 
#    0.000    0.000    0.000    0.000    0.000    0.000 
#
# Total GULP energy -267350.492275 kJ/mol
# GULP energy per Si atom -5569.801922 kJ/mol
# Density = 2.031562 g / cm^3
# Si number density = 20.361967 Si / 1000 Ang^3
#
#
#
# Elastic Constant Matrix: (Units=GPa)
#
#
# Indices 1 2 3 4 5 6 
#
# 1 161.2512 49.8579 25.8823 0.0000 0.0000 0.0000
# 2 49.8579 118.7545 4.6575 0.0000 0.0000 0.0000
# 3 25.8823 4.6575 34.2673 0.0000 0.0000 0.0000
# 4 0.0000 0.0000 0.0000 4.2801 0.0000 0.0000
# 5 0.0000 0.0000 0.0000 0.0000 24.1103 0.0000
# 6 0.0000 0.0000 0.0000 0.0000 0.0000 26.2066
#
#
#
# Elastic Compliance Matrix: (Units=1/GPa)
#
#
# Indices 1 2 3 4 5 6 
#
# 1 0.008096 -0.003176 -0.005683 0.000000 0.000000 0.000000
# 2 -0.003176 0.009712 0.001079 0.000000 0.000000 0.000000
# 3 -0.005683 0.001079 0.033328 0.000000 0.000000 0.000000
# 4 0.000000 0.000000 0.000000 0.233641 0.000000 0.000000
# 5 0.000000 0.000000 0.000000 0.000000 0.041476 0.000000
# 6 0.000000 0.000000 0.000000 0.000000 0.000000 0.038158
#
#
# Mechanical properties :
#
#
# Convention : Reuss Voigt Hill
#
# Bulk Modulus (GPa) = 28.10946 52.78538 40.44742
# Shear Modulus (GPa) = 12.76065 26.51107 19.63586
#
# Velocity S-wave (km/s) = 2.50609 3.61222 3.10875
# Velocity P-wave (km/s) = 4.71263 6.58615 5.72653
#
# Compressibility (1/GPa) = 0.03557522
#
# Stress axis : x y z
#
# Youngs Moduli (GPa) = 123.52258 102.96716 30.00472
#
# Poissons Ratio (x) = 0.32702 0.17052
# Poissons Ratio (y) = 0.39231 -0.03237
# Poissons Ratio (z) = 0.70198 -0.11109
#
# Static dielectric constant tensor:
#      x y z
#    x 0.824190 0.000000 0.000000 
#    y 0.000000 1.800390 0.000000 
#    z 0.000000 0.000000 1.737450 
# 
# From -- ./inp_files/4513.got.cif
#   From: 2010.05.17/outbox.cif.g08.bks.cpg/sg48_3_cif.got.tgz:4513.got - 2010.06.03 20:39:00.
