data_PCOD9390911
_publ_section_title
;
Structure prediction by ZEFSAII (Michael W. Deem and Ramdas Pophale) SiO2 
 PCOD9390911
Probable space group: P N N N
;
_chemical_formula_sum "Si O2"
_cell_formula_units_Z 58
_cell_length_a 9.599110
_cell_length_b 15.308930
_cell_length_c 18.710104
_cell_angle_alpha 90.000000
_cell_angle_beta 90.000000
_cell_angle_gamma 90.000000
_cell_volume 2749.489131
_symmetry_space_group_name_H-M "P N N N"
_symmetry_group_IT_number 48
_space_group.IT_coordinate_system_code '2'
_symmetry_cell_setting 'orthorhombic'
loop_
_space_group_symop_operation_xyz
x,y,z
1/2-x,1/2-y,z
x,1/2-y,1/2-z
1/2-x,y,1/2-z
-x,-y,-z
1/2+x,1/2+y,-z
-x,1/2+y,1/2+z
1/2+x,-y,1/2+z
loop_
_atom_site_type_symbol
_atom_site_label
_atom_site_fract_x
_atom_site_fract_y
_atom_site_fract_z
Si Si1 0.696181 0.344694 0.586956
Si Si2 0.411377 0.603256 0.661422
Si Si3 0.228437 0.077729 0.613426
Si Si4 0.511641 0.846684 0.217393
Si Si5 0.531376 0.602278 0.514003
Si Si6 0.250000 0.750000 0.750000
Si Si7 0.034238 0.964723 0.077985
Si Si8 0.904166 0.984644 0.780531
O O1 0.750000 0.250000 0.603722
O O2 0.595051 0.367814 0.652257
O O3 0.598674 0.345015 0.517857
O O4 0.826088 0.407480 0.575470
O O5 0.313423 0.524514 0.629620
O O6 0.524592 0.619605 0.598276
O O7 0.333680 0.686239 0.695234
O O8 0.491007 0.563461 0.728695
O O9 0.160661 0.114496 0.539692
O O10 0.392581 0.082649 0.603095
O O11 0.159242 0.129469 0.680035
O O12 0.508437 0.750000 0.250000
O O13 0.451558 0.914115 0.275113
O O14 0.500000 0.500000 0.500000
O O15 0.072255 0.038362 0.136953
O O16 0.000000 0.000000 0.000000
O O17 0.750000 0.973984 0.750000
#
# Coordination Sequence:
#
# PCOD9390911 Si02
#       8
#     8   8   8   8   8   2   8   8
#     4  11  23  39  63 102 134 170 218 273 337 412
#     4  10  22  40  67  94 131 173 228 279 345 396
#     4   9  21  41  66  99 137 174 227 276 342 408
#     4  10  21  41  68  98 143 183 218 266 343 420
#     4   9  19  40  66  88 127 178 219 268 337 409
#     4  12  24  40  66 100 126 168 238 306 336 404
#     4  12  24  39  67 101 134 172 228 280 334 406
#     4  11  23  40  66  98 134 177 225 275 333 413
#
# _framework density 21.094826999999999
#
# number of rings (size 3 to 8) (size 9 to 14) (size 15 to 20)
#    0.000    1.655    1.379    4.138    2.897    1.655 
#    0.000    9.310    0.000    1.655    0.000    0.000 
#    0.000    0.000    0.000    0.000    0.000    0.000 
#
# Total GULP energy -323628.809740 kJ/mol
# GULP energy per Si atom -5579.807064 kJ/mol
# Density = 2.104681 g / cm^3
# Si number density = 21.094827 Si / 1000 Ang^3
#
#
#
# Elastic Constant Matrix: (Units=GPa)
#
#
# Indices 1 2 3 4 5 6 
#
# 1 107.6995 21.4196 37.5413 0.0000 0.0000 0.0000
# 2 21.4196 57.7625 21.1204 0.0000 0.0000 0.0000
# 3 37.5413 21.1204 137.2340 0.0000 0.0000 0.0000
# 4 0.0000 0.0000 0.0000 24.1369 0.0000 0.0000
# 5 0.0000 0.0000 0.0000 0.0000 24.0152 0.0000
# 6 0.0000 0.0000 0.0000 0.0000 0.0000 13.8096
#
#
#
# Elastic Compliance Matrix: (Units=1/GPa)
#
#
# Indices 1 2 3 4 5 6 
#
# 1 0.010759 -0.003087 -0.002468 0.000000 0.000000 0.000000
# 2 -0.003087 0.019230 -0.002115 0.000000 0.000000 0.000000
# 3 -0.002468 -0.002115 0.008288 0.000000 0.000000 0.000000
# 4 0.000000 0.000000 0.000000 0.041430 0.000000 0.000000
# 5 0.000000 0.000000 0.000000 0.000000 0.041640 0.000000
# 6 0.000000 0.000000 0.000000 0.000000 0.000000 0.072414
#
#
# Mechanical properties :
#
#
# Convention : Reuss Voigt Hill
#
# Bulk Modulus (GPa) = 43.59893 51.42871 47.51382
# Shear Modulus (GPa) = 23.06825 27.23332 25.15079
#
# Velocity S-wave (km/s) = 3.31047 3.59694 3.45668
# Velocity P-wave (km/s) = 5.94351 6.45626 6.20518
#
# Compressibility (1/GPa) = 0.02293634
#
# Stress axis : x y z
#
# Youngs Moduli (GPa) = 92.94139 52.00080 120.66345
#
# Poissons Ratio (x) = 0.16055 0.29782
# Poissons Ratio (y) = 0.28694 0.25520
# Poissons Ratio (z) = 0.22940 0.10998
#
# Static dielectric constant tensor:
#      x y z
#    x 1.744380 0.000000 0.000000 
#    y 0.000000 1.632960 0.000000 
#    z 0.000000 0.000000 1.837830 
# 
# From -- ./inp_files/30481.got.cif
#   From: 2010.05.17/outbox.cif.g08.bks.cpg/sg48_16_cif.got.tgz:30481.got - 2010.06.03 20:39:00.
