data_PCOD9390300
_publ_section_title
;
Structure prediction by ZEFSAII (Michael W. Deem and Ramdas Pophale) SiO2 
 PCOD9390300
Probable space group: P N N N
;
_chemical_formula_sum "Si O2"
_cell_formula_units_Z 40
_cell_length_a 25.323398
_cell_length_b 11.993425
_cell_length_c 5.137153
_cell_angle_alpha 90.000000
_cell_angle_beta 90.000000
_cell_angle_gamma 90.000000
_cell_volume 1560.226697
_symmetry_space_group_name_H-M "P N N N"
_symmetry_group_IT_number 48
_space_group.IT_coordinate_system_code '2'
_symmetry_cell_setting 'orthorhombic'
loop_
_space_group_symop_operation_xyz
x,y,z
1/2-x,1/2-y,z
x,1/2-y,1/2-z
1/2-x,y,1/2-z
-x,-y,-z
1/2+x,1/2+y,-z
-x,1/2+y,1/2+z
1/2+x,-y,1/2+z
loop_
_atom_site_type_symbol
_atom_site_label
_atom_site_fract_x
_atom_site_fract_y
_atom_site_fract_z
Si Si1 0.795392 0.091283 0.535425
Si Si2 0.556925 0.652549 0.462807
Si Si3 0.646764 0.088686 0.487816
Si Si4 0.330646 0.370985 0.276878
Si Si5 0.965160 0.426735 0.300690
O O1 0.750000 0.122955 0.750000
O O2 0.809923 0.121716 0.236630
O O3 0.796630 0.956178 0.546435
O O4 0.844224 0.127597 0.715783
O O5 0.551686 0.750000 0.250000
O O6 0.613359 0.659517 0.595816
O O7 0.558185 0.524881 0.373632
O O8 0.505253 0.649038 0.642731
O O9 0.587918 0.124143 0.416572
O O10 0.654940 0.953406 0.532594
O O11 0.305580 0.250000 0.250000
O O12 0.000000 0.500000 0.500000
#
# Coordination Sequence:
#
# PCOD9390300 Si02
#       5
#     8   8   8   8   8
#     4  10  21  36  54  78 108 152 200 255 300 348
#     4  11  23  35  56  84 118 161 206 245 302 371
#     4  10  20  36  54  77 108 151 193 248 302 359
#     4  10  21  32  54  76 112 156 200 243 294 355
#     4  11  20  37  56  81 115 163 198 248 306 371
#
# _framework density 25.6373
#
# number of rings (size 3 to 8) (size 9 to 14) (size 15 to 20)
#    1.200    0.400    4.000    1.800    2.800    0.400 
#    0.000    0.000    4.400    0.000    0.000    0.000 
#    0.000    0.800    1.200    0.000    0.000    0.000 
#
# Total GULP energy -222746.734303 kJ/mol
# GULP energy per Si atom -5568.668358 kJ/mol
# Density = 2.557895 g / cm^3
# Si number density = 25.637300 Si / 1000 Ang^3
#
#
#
# Elastic Constant Matrix: (Units=GPa)
#
#
# Indices 1 2 3 4 5 6 
#
# 1 93.0417 -6.9832 14.4540 0.0000 0.0000 0.0000
# 2 -6.9832 135.2095 7.0776 0.0000 0.0000 0.0000
# 3 14.4540 7.0776 129.9283 0.0000 0.0000 0.0000
# 4 0.0000 0.0000 0.0000 -82.6414 0.0000 0.0000
# 5 0.0000 0.0000 0.0000 0.0000 11.3970 0.0000
# 6 0.0000 0.0000 0.0000 0.0000 0.0000 9.9276
#
#
#
# Elastic Compliance Matrix: (Units=1/GPa)
#
#
# Indices 1 2 3 4 5 6 
#
# 1 0.010991 0.000633 -0.001257 0.000000 0.000000 0.000000
# 2 0.000633 0.007454 -0.000476 0.000000 0.000000 0.000000
# 3 -0.001257 -0.000476 0.007862 0.000000 0.000000 0.000000
# 4 0.000000 0.000000 0.000000 -0.012100 0.000000 0.000000
# 5 0.000000 0.000000 0.000000 0.000000 0.087743 0.000000
# 6 0.000000 0.000000 0.000000 0.000000 0.000000 0.100729
#
#
# Mechanical properties :
#
#
# Convention : Reuss Voigt Hill
#
# Bulk Modulus (GPa) = 41.48305 43.03069 42.25687
# Shear Modulus (GPa) = 23.48368 10.64537 17.06453
#
# Velocity S-wave (km/s) = 3.02983 2.03993 2.58275
# Velocity P-wave (km/s) = 5.33439 4.72962 5.04108
#
# Compressibility (1/GPa) = 0.02410623
#
# Stress axis : x y z
#
# Youngs Moduli (GPa) = 90.98590 134.16353 127.18820
#
# Poissons Ratio (x) = -0.08499 0.15990
# Poissons Ratio (y) = -0.05763 0.06060
# Poissons Ratio (z) = 0.11439 0.06393
#
# Static dielectric constant tensor:
#      x y z
#    x 1.958070 0.000000 0.000000 
#    y 0.000000 1.305400 0.000000 
#    z 0.000000 0.000000 1.128330 
# 
# From -- ./inp_files/5779.got.cif
#   From: 2010.05.17/outbox.cif.g08.bks.cpg/sg48_3_cif.got.tgz:5779.got - 2010.06.03 20:39:00.
