data_PCOD9390662
_publ_section_title
;
Structure prediction by ZEFSAII (Michael W. Deem and Ramdas Pophale) SiO2 
 PCOD9390662
Probable space group: P N N N
;
_chemical_formula_sum "Si O2"
_cell_formula_units_Z 48
_cell_length_a 12.390476
_cell_length_b 15.991520
_cell_length_c 9.444658
_cell_angle_alpha 90.000000
_cell_angle_beta 90.000000
_cell_angle_gamma 90.000000
_cell_volume 1871.388571
_symmetry_space_group_name_H-M "P N N N"
_symmetry_group_IT_number 48
_space_group.IT_coordinate_system_code '2'
_symmetry_cell_setting 'orthorhombic'
loop_
_space_group_symop_operation_xyz
x,y,z
1/2-x,1/2-y,z
x,1/2-y,1/2-z
1/2-x,y,1/2-z
-x,-y,-z
1/2+x,1/2+y,-z
-x,1/2+y,1/2+z
1/2+x,-y,1/2+z
loop_
_atom_site_type_symbol
_atom_site_label
_atom_site_fract_x
_atom_site_fract_y
_atom_site_fract_z
Si Si1 0.111876 0.665472 0.822038
Si Si2 0.519710 0.374432 0.818851
Si Si3 0.183488 0.385145 0.501915
Si Si4 0.183085 0.587816 0.544373
Si Si5 0.423737 0.357086 0.513190
Si Si6 0.870530 0.965729 0.735920
O O1 0.146739 0.750000 0.750000
O O2 0.115239 0.603843 0.687796
O O3 0.198202 0.625691 0.929946
O O4 0.000375 0.685689 0.899000
O O5 0.490507 0.349323 0.658558
O O6 0.541866 0.473309 0.800532
O O7 0.414332 0.351695 0.906791
O O8 0.623735 0.359371 0.919128
O O9 0.296718 0.340357 0.533324
O O10 0.149586 0.385724 0.336686
O O11 0.810198 0.513658 0.467647
O O12 0.406116 0.444465 0.423108
O O13 0.750000 0.007177 0.750000
#
# Coordination Sequence:
#
# PCOD9390662 Si02
#       6
#     8   8   8   8   8   8
#     4  11  25  44  65  86 120 182 240 275 321 412
#     4  11  21  33  57  96 136 162 207 268 347 406
#     4  10  21  36  57  99 139 173 202 265 351 422
#     4  10  22  39  64  90 129 173 217 268 340 410
#     4  11  23  34  61  93 135 169 218 268 335 400
#     4   9  19  32  54  88 136 176 209 252 324 418
#
# _framework density 25.649405000000002
#
# number of rings (size 3 to 8) (size 9 to 14) (size 15 to 20)
#    0.000    1.667    0.000    6.000   14.000    0.000 
#    0.000    0.833    0.000   17.500    0.000    9.333 
#    0.000    0.000    0.000    0.000    0.000    0.000 
#
# Total GULP energy -267470.672647 kJ/mol
# GULP energy per Si atom -5572.305680 kJ/mol
# Density = 2.559103 g / cm^3
# Si number density = 25.649405 Si / 1000 Ang^3
#
#
#
# Elastic Constant Matrix: (Units=GPa)
#
#
# Indices 1 2 3 4 5 6 
#
# 1 125.4271 40.9799 58.0810 0.0000 0.0000 0.0000
# 2 40.9799 53.7557 7.4192 0.0000 0.0000 0.0000
# 3 58.0810 7.4192 155.6555 0.0000 0.0000 0.0000
# 4 0.0000 0.0000 0.0000 45.7620 0.0000 0.0000
# 5 0.0000 0.0000 0.0000 0.0000 50.0036 0.0000
# 6 0.0000 0.0000 0.0000 0.0000 0.0000 12.5325
#
#
#
# Elastic Compliance Matrix: (Units=1/GPa)
#
#
# Indices 1 2 3 4 5 6 
#
# 1 0.013087 -0.009364 -0.004437 0.000000 0.000000 0.000000
# 2 -0.009364 0.025426 0.002282 0.000000 0.000000 0.000000
# 3 -0.004437 0.002282 0.007971 0.000000 0.000000 0.000000
# 4 0.000000 0.000000 0.000000 0.021852 0.000000 0.000000
# 5 0.000000 0.000000 0.000000 0.000000 0.019999 0.000000
# 6 0.000000 0.000000 0.000000 0.000000 0.000000 0.079792
#
#
# Mechanical properties :
#
#
# Convention : Reuss Voigt Hill
#
# Bulk Modulus (GPa) = 42.64987 60.86653 51.75820
# Shear Modulus (GPa) = 25.12806 36.88349 31.00578
#
# Velocity S-wave (km/s) = 3.13337 3.79619 3.48060
# Velocity P-wave (km/s) = 5.45480 6.55717 6.03122
#
# Compressibility (1/GPa) = 0.02344673
#
# Stress axis : x y z
#
# Youngs Moduli (GPa) = 76.41281 39.32922 125.45132
#
# Poissons Ratio (x) = 0.36829 0.55661
# Poissons Ratio (y) = 0.71554 -0.28631
# Poissons Ratio (z) = 0.33903 -0.08976
#
# Static dielectric constant tensor:
#      x y z
#    x 2.152820 0.000000 0.000000 
#    y 0.000000 2.161250 0.000000 
#    z 0.000000 0.000000 2.159340 
# 
# From -- ./inp_files/11269.got.cif
#   From: 2010.05.17/outbox.cif.g08.bks.cpg/sg48_6_cif.got.tgz:11269.got - 2010.06.03 20:39:00.
