data_PCOD9390824
_publ_section_title
;
Structure prediction by ZEFSAII (Michael W. Deem and Ramdas Pophale) SiO2 
 PCOD9390824
Probable space group: P N N N
;
_chemical_formula_sum "Si O2"
_cell_formula_units_Z 38
_cell_length_a 9.889709
_cell_length_b 11.193282
_cell_length_c 16.782687
_cell_angle_alpha 90.000000
_cell_angle_beta 90.000000
_cell_angle_gamma 90.000000
_cell_volume 1857.814949
_symmetry_space_group_name_H-M "P N N N"
_symmetry_group_IT_number 48
_space_group.IT_coordinate_system_code '2'
_symmetry_cell_setting 'orthorhombic'
loop_
_space_group_symop_operation_xyz
x,y,z
1/2-x,1/2-y,z
x,1/2-y,1/2-z
1/2-x,y,1/2-z
-x,-y,-z
1/2+x,1/2+y,-z
-x,1/2+y,1/2+z
1/2+x,-y,1/2+z
loop_
_atom_site_type_symbol
_atom_site_label
_atom_site_fract_x
_atom_site_fract_y
_atom_site_fract_z
Si Si1 0.191699 0.488538 0.666513
Si Si2 0.584139 0.373626 0.883599
Si Si3 0.250000 0.750000 0.879599
Si Si4 0.977450 0.726922 0.980107
Si Si5 0.240706 0.436514 0.486478
Si Si6 0.750000 0.250000 0.750000
O O1 0.250000 0.438317 0.750000
O O2 0.216076 0.629841 0.667078
O O3 0.254232 0.444664 0.582327
O O4 0.036199 0.456318 0.649158
O O5 0.522684 0.258693 0.929683
O O6 0.680334 0.444464 0.946270
O O7 0.664088 0.331781 0.807806
O O8 0.385107 0.773480 0.930898
O O9 0.873679 0.837516 0.965042
O O10 0.887400 0.610923 0.961291
#
# Coordination Sequence:
#
# PCOD9390824 Si02
#       6
#     8   8   4   8   8   2
#     4  11  24  40  65  95 139 170 223 284 339 393
#     4  11  23  48  63  98 140 176 225 287 332 410
#     4  12  20  40  65  97 132 170 230 282 326 409
#     4  10  21  39  70  97 127 180 233 267 333 402
#     4  10  21  43  70  92 133 184 223 278 332 404
#     4  12  30  40  72  94 138 176 224 280 352 396
#
# _framework density 20.454135999999998
#
# number of rings (size 3 to 8) (size 9 to 14) (size 15 to 20)
#    0.000    1.263    4.211    2.211    2.947    2.526 
#    0.000    0.000    0.000    0.000    0.000    0.000 
#    0.000    0.000    0.000    0.000    0.000    0.000 
#
# Total GULP energy -211965.902386 kJ/mol
# GULP energy per Si atom -5578.050063 kJ/mol
# Density = 2.040758 g / cm^3
# Si number density = 20.454136 Si / 1000 Ang^3
#
#
#
# Elastic Constant Matrix: (Units=GPa)
#
#
# Indices 1 2 3 4 5 6 
#
# 1 143.7506 38.2586 68.9202 0.0000 0.0000 0.0000
# 2 38.2586 43.8374 17.4233 0.0000 0.0000 0.0000
# 3 68.9202 17.4233 116.8383 0.0000 0.0000 0.0000
# 4 0.0000 0.0000 0.0000 4.1192 0.0000 0.0000
# 5 0.0000 0.0000 0.0000 0.0000 25.2119 0.0000
# 6 0.0000 0.0000 0.0000 0.0000 0.0000 40.4262
#
#
#
# Elastic Compliance Matrix: (Units=1/GPa)
#
#
# Indices 1 2 3 4 5 6 
#
# 1 0.011889 -0.008067 -0.005810 0.000000 0.000000 0.000000
# 2 -0.008067 0.029722 0.000326 0.000000 0.000000 0.000000
# 3 -0.005810 0.000326 0.011937 0.000000 0.000000 0.000000
# 4 0.000000 0.000000 0.000000 0.242763 0.000000 0.000000
# 5 0.000000 0.000000 0.000000 0.000000 0.039664 0.000000
# 6 0.000000 0.000000 0.000000 0.000000 0.000000 0.024736
#
#
# Mechanical properties :
#
#
# Convention : Reuss Voigt Hill
#
# Bulk Modulus (GPa) = 37.81128 61.51452 49.66290
# Shear Modulus (GPa) = 12.60624 25.93974 19.27299
#
# Velocity S-wave (km/s) = 2.48527 3.56503 3.07295
# Velocity P-wave (km/s) = 5.17314 6.86189 6.07647
#
# Compressibility (1/GPa) = 0.02644714
#
# Stress axis : x y z
#
# Youngs Moduli (GPa) = 84.11088 33.64491 83.76988
#
# Poissons Ratio (x) = 0.27141 0.48671
# Poissons Ratio (y) = 0.67851 -0.02732
# Poissons Ratio (z) = 0.48870 -0.01097
#
# Static dielectric constant tensor:
#      x y z
#    x 1.705340 0.000000 0.000000 
#    y 0.000000 1.758360 0.000000 
#    z 0.000000 0.000000 1.749490 
# 
# From -- ./inp_files/10736.got.cif
#   From: 2010.05.17/outbox.cif.g08.bks.cpg/sg48_6_cif.got.tgz:10736.got - 2010.06.03 20:39:00.
