data_PCOD9390655
_publ_section_title
;
Structure prediction by ZEFSAII (Michael W. Deem and Ramdas Pophale) SiO2 
 PCOD9390655
Probable space group: P N N N
;
_chemical_formula_sum "Si O2"
_cell_formula_units_Z 38
_cell_length_a 6.484493
_cell_length_b 15.211079
_cell_length_c 17.097861
_cell_angle_alpha 90.000000
_cell_angle_beta 90.000000
_cell_angle_gamma 90.000000
_cell_volume 1686.466931
_symmetry_space_group_name_H-M "P N N N"
_symmetry_group_IT_number 48
_space_group.IT_coordinate_system_code '2'
_symmetry_cell_setting 'orthorhombic'
loop_
_space_group_symop_operation_xyz
x,y,z
1/2-x,1/2-y,z
x,1/2-y,1/2-z
1/2-x,y,1/2-z
-x,-y,-z
1/2+x,1/2+y,-z
-x,1/2+y,1/2+z
1/2+x,-y,1/2+z
loop_
_atom_site_type_symbol
_atom_site_label
_atom_site_fract_x
_atom_site_fract_y
_atom_site_fract_z
Si Si1 0.980166 0.403740 0.032070
Si Si2 0.750000 0.250000 0.484963
Si Si3 0.130570 0.332838 0.667234
Si Si4 0.750000 0.250000 0.750000
Si Si5 0.173516 0.530620 0.661746
Si Si6 0.370360 0.329057 0.113174
O O1 0.203394 0.366893 0.052882
O O2 0.850550 0.336492 0.977249
O O3 0.844208 0.418727 0.110372
O O4 0.000000 0.500000 0.000000
O O5 0.559976 0.215543 0.432756
O O6 0.250000 0.250000 0.626934
O O7 0.250000 0.341370 0.750000
O O8 0.140836 0.430322 0.631088
O O9 0.901174 0.305705 0.693668
O O10 0.250000 0.526884 0.750000
O O11 0.966885 0.589142 0.658716
O O12 0.250000 0.250000 0.156350
#
# Coordination Sequence:
#
# PCOD9390655 Si02
#       6
#     8   4   8   2   8   8
#     4  10  21  39  61  82 110 151 194 237 287 345
#     4   8  18  38  59  83 114 143 185 242 284 336
#     4   8  16  30  48  73 109 144 180 229 282 339
#     4   8  14  28  52  68  98 152 184 216 280 346
#     4  10  21  36  56  86 119 149 190 240 292 352
#     4   9  19  38  60  82 115 153 190 236 288 343
#
# _framework density 22.532314
#
# number of rings (size 3 to 8) (size 9 to 14) (size 15 to 20)
#    0.000    3.158    0.000    0.000    0.000    9.263 
#    0.000   29.474    0.000    2.526    0.000    0.000 
#    0.000    0.000    0.000    0.000    0.000    0.000 
#
# Total GULP energy -211808.317508 kJ/mol
# GULP energy per Si atom -5573.903092 kJ/mol
# Density = 2.248103 g / cm^3
# Si number density = 22.532314 Si / 1000 Ang^3
#
#
#
# Elastic Constant Matrix: (Units=GPa)
#
#
# Indices 1 2 3 4 5 6 
#
# 1 159.0856 78.6550 23.2546 0.0000 0.0000 0.0000
# 2 78.6550 199.5939 17.2700 0.0000 0.0000 0.0000
# 3 23.2546 17.2700 35.8431 0.0000 0.0000 0.0000
# 4 0.0000 0.0000 0.0000 28.1103 0.0000 0.0000
# 5 0.0000 0.0000 0.0000 0.0000 11.2918 0.0000
# 6 0.0000 0.0000 0.0000 0.0000 0.0000 26.8316
#
#
#
# Elastic Compliance Matrix: (Units=1/GPa)
#
#
# Indices 1 2 3 4 5 6 
#
# 1 0.008319 -0.002933 -0.003984 0.000000 0.000000 0.000000
# 2 -0.002933 0.006263 -0.001114 0.000000 0.000000 0.000000
# 3 -0.003984 -0.001114 0.031021 0.000000 0.000000 0.000000
# 4 0.000000 0.000000 0.000000 0.035574 0.000000 0.000000
# 5 0.000000 0.000000 0.000000 0.000000 0.088560 0.000000
# 6 0.000000 0.000000 0.000000 0.000000 0.000000 0.037270
#
#
# Mechanical properties :
#
#
# Convention : Reuss Voigt Hill
#
# Bulk Modulus (GPa) = 33.85321 70.32018 52.08670
# Shear Modulus (GPa) = 21.46711 31.60294 26.53502
#
# Velocity S-wave (km/s) = 3.08997 3.74914 3.43540
# Velocity P-wave (km/s) = 5.27138 7.07232 6.23720
#
# Compressibility (1/GPa) = 0.02953929
#
# Stress axis : x y z
#
# Youngs Moduli (GPa) = 120.21253 159.67828 32.23649
#
# Poissons Ratio (x) = 0.46841 0.12842
# Poissons Ratio (y) = 0.35264 0.03592
# Poissons Ratio (z) = 0.47888 0.17792
#
# Static dielectric constant tensor:
#      x y z
#    x 1.822150 0.000000 0.000000 
#    y 0.000000 1.954390 0.000000 
#    z 0.000000 0.000000 1.876060 
# 
# From -- ./inp_files/35305.got.cif
#   From: 2010.05.17/outbox.cif.g08.bks.cpg/sg48_18_cif.got.tgz:35305.got - 2010.06.03 20:39:00.
