data_PCOD9390411
_publ_section_title
;
Structure prediction by ZEFSAII (Michael W. Deem and Ramdas Pophale) SiO2 
 PCOD9390411
Probable space group: P N N N
;
_chemical_formula_sum "Si O2"
_cell_formula_units_Z 56
_cell_length_a 22.139397
_cell_length_b 8.542423
_cell_length_c 14.209280
_cell_angle_alpha 90.000000
_cell_angle_beta 90.000000
_cell_angle_gamma 90.000000
_cell_volume 2687.317208
_symmetry_space_group_name_H-M "P N N N"
_symmetry_group_IT_number 48
_space_group.IT_coordinate_system_code '2'
_symmetry_cell_setting 'orthorhombic'
loop_
_space_group_symop_operation_xyz
x,y,z
1/2-x,1/2-y,z
x,1/2-y,1/2-z
1/2-x,y,1/2-z
-x,-y,-z
1/2+x,1/2+y,-z
-x,1/2+y,1/2+z
1/2+x,-y,1/2+z
loop_
_atom_site_type_symbol
_atom_site_label
_atom_site_fract_x
_atom_site_fract_y
_atom_site_fract_z
Si Si1 0.147807 0.451940 0.348952
Si Si2 0.800282 0.585364 0.310138
Si Si3 0.247316 0.071215 0.477523
Si Si4 0.996201 0.436255 0.895456
Si Si5 0.075764 0.568248 0.739096
Si Si6 0.365235 0.080275 0.135608
Si Si7 0.519035 0.432494 0.899662
O O1 0.202828 0.510477 0.413117
O O2 0.162778 0.456016 0.238253
O O3 0.129958 0.269691 0.371356
O O4 0.089076 0.549545 0.376238
O O5 0.807029 0.750000 0.250000
O O6 0.750000 0.493744 0.250000
O O7 0.772071 0.583651 0.415351
O O8 0.865958 0.512098 0.306117
O O9 0.250000 0.250000 0.441863
O O10 0.179121 0.022865 0.449079
O O11 0.931480 0.503349 0.861425
O O12 0.997436 0.249258 0.891275
O O13 0.053900 0.497023 0.837682
O O14 0.000000 0.500000 0.000000
O O15 0.087492 0.750000 0.750000
O O16 0.018616 0.534585 0.673760
O O17 0.500000 0.500000 0.000000
#
# Coordination Sequence:
#
# PCOD9390411 Si02
#       7
#     8   8   8   8   8   8   8
#     4  10  20  37  65  95 134 175 226 280 336 405
#     4  11  23  41  67  98 133 182 233 282 341 416
#     4  10  20  38  64  97 131 178 228 279 336 406
#     4  12  26  42  68 100 135 182 227 286 350 417
#     4  12  26  45  70 101 136 180 233 291 349 414
#     4  10  21  38  64  97 133 176 228 280 336 412
#     4  12  24  43  67  99 138 179 227 285 350 416
#
# _framework density 20.838626000000001
#
# number of rings (size 3 to 8) (size 9 to 14) (size 15 to 20)
#    0.000    1.000    2.857    5.143    2.000    3.143 
#    0.000    0.714    3.143    1.714    0.000    0.000 
#    0.000    0.000    0.000    0.000    0.000    0.000 
#
# Total GULP energy -312481.100105 kJ/mol
# GULP energy per Si atom -5580.019645 kJ/mol
# Density = 2.079120 g / cm^3
# Si number density = 20.838626 Si / 1000 Ang^3
#
#
#
# Elastic Constant Matrix: (Units=GPa)
#
#
# Indices 1 2 3 4 5 6 
#
# 1 96.7902 6.5462 16.7641 0.0000 0.0000 0.0000
# 2 6.5462 63.6074 9.1175 0.0000 0.0000 0.0000
# 3 16.7641 9.1175 105.1466 0.0000 0.0000 0.0000
# 4 0.0000 0.0000 0.0000 13.8154 0.0000 0.0000
# 5 0.0000 0.0000 0.0000 0.0000 43.1972 0.0000
# 6 0.0000 0.0000 0.0000 0.0000 0.0000 24.7841
#
#
#
# Elastic Compliance Matrix: (Units=1/GPa)
#
#
# Indices 1 2 3 4 5 6 
#
# 1 0.010672 -0.000865 -0.001626 0.000000 0.000000 0.000000
# 2 -0.000865 0.015989 -0.001249 0.000000 0.000000 0.000000
# 3 -0.001626 -0.001249 0.009878 0.000000 0.000000 0.000000
# 4 0.000000 0.000000 0.000000 0.072383 0.000000 0.000000
# 5 0.000000 0.000000 0.000000 0.000000 0.023150 0.000000
# 6 0.000000 0.000000 0.000000 0.000000 0.000000 0.040348
#
#
# Mechanical properties :
#
#
# Convention : Reuss Voigt Hill
#
# Bulk Modulus (GPa) = 34.41265 36.71109 35.56187
# Shear Modulus (GPa) = 26.37309 31.90044 29.13677
#
# Velocity S-wave (km/s) = 3.56137 3.91683 3.74332
# Velocity P-wave (km/s) = 5.78454 6.17337 5.98211
#
# Compressibility (1/GPa) = 0.02905908
#
# Stress axis : x y z
#
# Youngs Moduli (GPa) = 93.70459 62.54123 101.23393
#
# Poissons Ratio (x) = 0.05411 0.16465
# Poissons Ratio (y) = 0.08107 0.12640
# Poissons Ratio (z) = 0.15241 0.07809
#
# Static dielectric constant tensor:
#      x y z
#    x 1.777480 0.000000 0.000000 
#    y 0.000000 1.735470 0.000000 
#    z 0.000000 0.000000 1.115970 
# 
# From -- ./inp_files/28340.got.cif
#   From: 2010.05.17/outbox.cif.g08.bks.cpg/sg48_15_cif.got.tgz:28340.got - 2010.06.03 20:39:00.
