data_PCOD9390085
_publ_section_title
;
Structure prediction by ZEFSAII (Michael W. Deem and Ramdas Pophale) SiO2 
 PCOD9390085
Probable space group: P N N N
;
_chemical_formula_sum "Si O2"
_cell_formula_units_Z 48
_cell_length_a 7.748395
_cell_length_b 15.748292
_cell_length_c 18.020614
_cell_angle_alpha 90.000000
_cell_angle_beta 90.000000
_cell_angle_gamma 90.000000
_cell_volume 2198.947168
_symmetry_space_group_name_H-M "P N N N"
_symmetry_group_IT_number 48
_space_group.IT_coordinate_system_code '2'
_symmetry_cell_setting 'orthorhombic'
loop_
_space_group_symop_operation_xyz
x,y,z
1/2-x,1/2-y,z
x,1/2-y,1/2-z
1/2-x,y,1/2-z
-x,-y,-z
1/2+x,1/2+y,-z
-x,1/2+y,1/2+z
1/2+x,-y,1/2+z
loop_
_atom_site_type_symbol
_atom_site_label
_atom_site_fract_x
_atom_site_fract_y
_atom_site_fract_z
Si Si1 0.145718 0.093271 0.432319
Si Si2 0.979640 0.508233 0.796689
Si Si3 0.750000 0.750000 0.022045
Si Si4 0.634318 0.497405 0.140658
Si Si5 0.250000 0.855410 0.250000
Si Si6 0.235323 0.913280 0.504655
Si Si7 0.542898 0.322907 0.890392
O O1 0.253243 0.168833 0.468134
O O2 0.122124 0.078130 0.344493
O O3 0.952206 0.107949 0.463458
O O4 0.213166 0.003297 0.462916
O O5 0.165471 0.493834 0.835092
O O6 0.023620 0.530726 0.711784
O O7 0.872728 0.420796 0.795582
O O8 0.585366 0.746602 0.076641
O O9 0.635951 0.432143 0.072896
O O10 0.565492 0.589265 0.116869
O O11 0.126619 0.809879 0.190192
O O12 0.309244 0.844338 0.449277
#
# Coordination Sequence:
#
# PCOD9390085 Si02
#       7
#     8   8   4   8   4   8   8
#     4  10  21  38  59  94 125 164 204 275 313 391
#     4   9  18  34  59  92 120 152 212 266 309 362
#     4  12  26  36  58  94 142 164 208 268 354 385
#     4   9  18  33  61  93 118 151 209 274 303 361
#     4  10  20  36  66  90 114 162 220 262 306 381
#     4  10  19  37  66  89 118 160 229 259 304 377
#     4  11  22  37  62  94 121 166 209 263 323 392
#
# _framework density 21.828627000000001
#
# number of rings (size 3 to 8) (size 9 to 14) (size 15 to 20)
#    0.000    2.000    3.333    0.500    0.000    0.667 
#    0.000    0.000    0.000   32.500    0.000    9.333 
#    0.000    0.000    0.000    0.000    0.000    0.000 
#
# Total GULP energy -268360.935091 kJ/mol
# GULP energy per Si atom -5590.852814 kJ/mol
# Density = 2.177894 g / cm^3
# Si number density = 21.828627 Si / 1000 Ang^3
#
#
#
# Elastic Constant Matrix: (Units=GPa)
#
#
# Indices 1 2 3 4 5 6 
#
# 1 86.3742 20.4632 34.1206 0.0000 0.0000 0.0000
# 2 20.4632 45.6030 32.1130 0.0000 0.0000 0.0000
# 3 34.1206 32.1130 131.5126 0.0000 0.0000 0.0000
# 4 0.0000 0.0000 0.0000 24.6455 0.0000 0.0000
# 5 0.0000 0.0000 0.0000 0.0000 38.8914 0.0000
# 6 0.0000 0.0000 0.0000 0.0000 0.0000 32.7030
#
#
#
# Elastic Compliance Matrix: (Units=1/GPa)
#
#
# Indices 1 2 3 4 5 6 
#
# 1 0.013582 -0.004364 -0.002458 0.000000 0.000000 0.000000
# 2 -0.004364 0.027884 -0.005677 0.000000 0.000000 0.000000
# 3 -0.002458 -0.005677 0.009628 0.000000 0.000000 0.000000
# 4 0.000000 0.000000 0.000000 0.040575 0.000000 0.000000
# 5 0.000000 0.000000 0.000000 0.000000 0.025713 0.000000
# 6 0.000000 0.000000 0.000000 0.000000 0.000000 0.030578
#
#
# Mechanical properties :
#
#
# Convention : Reuss Voigt Hill
#
# Bulk Modulus (GPa) = 38.31884 48.54261 43.43072
# Shear Modulus (GPa) = 27.52445 31.03417 29.27931
#
# Velocity S-wave (km/s) = 3.55482 3.77466 3.66639
# Velocity P-wave (km/s) = 5.86868 6.42524 6.15326
#
# Compressibility (1/GPa) = 0.02609683
#
# Stress axis : x y z
#
# Youngs Moduli (GPa) = 73.62420 35.86307 103.86604
#
# Poissons Ratio (x) = 0.15649 0.25535
# Poissons Ratio (y) = 0.32127 0.58961
# Poissons Ratio (z) = 0.18100 0.20358
#
# Static dielectric constant tensor:
#      x y z
#    x 1.835480 0.000000 0.000000 
#    y 0.000000 1.777290 0.000000 
#    z 0.000000 0.000000 1.823000 
# 
# From -- ./inp_files/27917.got.cif
#   From: 2010.05.17/outbox.cif.g08.bks.cpg/sg48_14_cif.got.tgz:27917.got - 2010.06.03 20:39:00.
