data_PCOD9390763
_publ_section_title
;
Structure prediction by ZEFSAII (Michael W. Deem and Ramdas Pophale) SiO2 
 PCOD9390763
Probable space group: P N N N
;
_chemical_formula_sum "Si O2"
_cell_formula_units_Z 64
_cell_length_a 9.419313
_cell_length_b 11.436203
_cell_length_c 30.114679
_cell_angle_alpha 90.000000
_cell_angle_beta 90.000000
_cell_angle_gamma 90.000000
_cell_volume 3243.988624
_symmetry_space_group_name_H-M "P N N N"
_symmetry_group_IT_number 48
_space_group.IT_coordinate_system_code '2'
_symmetry_cell_setting 'orthorhombic'
loop_
_space_group_symop_operation_xyz
x,y,z
1/2-x,1/2-y,z
x,1/2-y,1/2-z
1/2-x,y,1/2-z
-x,-y,-z
1/2+x,1/2+y,-z
-x,1/2+y,1/2+z
1/2+x,-y,1/2+z
loop_
_atom_site_type_symbol
_atom_site_label
_atom_site_fract_x
_atom_site_fract_y
_atom_site_fract_z
Si Si1 0.389062 0.101037 0.612660
Si Si2 0.170698 0.510934 0.705379
Si Si3 0.331669 0.878702 0.027254
Si Si4 0.585196 0.213530 0.064499
Si Si5 0.061761 0.581644 0.844220
Si Si6 0.403447 0.112842 0.243269
Si Si7 0.071616 0.456413 0.454536
Si Si8 0.077622 0.127640 0.597756
O O1 0.237981 0.084956 0.587353
O O2 0.421778 0.236158 0.607824
O O3 0.369129 0.072732 0.664517
O O4 0.503087 0.021396 0.587944
O O5 0.250000 0.464131 0.750000
O O6 0.285557 0.595935 0.680723
O O7 0.027307 0.566639 0.724525
O O8 0.250000 0.750000 0.032494
O O9 0.461698 0.888373 0.060556
O O10 0.228617 0.988455 0.038338
O O11 0.397516 0.871409 0.977859
O O12 0.750000 0.250000 0.071696
O O13 0.543424 0.154943 0.110943
O O14 0.478306 0.320805 0.051919
O O15 0.045954 0.447501 0.858867
O O16 0.946275 0.602306 0.807568
O O17 0.394462 0.250000 0.250000
O O18 0.250000 0.056339 0.250000
O O19 0.000000 0.500000 0.500000
#
# Coordination Sequence:
#
# PCOD9390763 Si02
#       8
#     8   8   8   8   8   8   8   8
#     4  10  21  38  66  90 125 170 212 263 316 372
#     4   9  20  39  65  95 119 164 213 262 321 382
#     4  11  22  40  62  89 130 174 209 262 320 378
#     4  11  22  38  64  93 129 162 220 268 303 381
#     4  10  23  40  63  93 119 163 214 257 315 373
#     4  10  23  42  61  87 131 161 195 261 328 381
#     4  12  22  39  61  93 124 172 219 257 320 382
#     4  10  21  41  60  90 128 166 212 261 311 378
#
# _framework density 19.728798999999999
#
# number of rings (size 3 to 8) (size 9 to 14) (size 15 to 20)
#    0.000    1.625    3.750    1.500    3.500    3.250 
#    2.250   10.625    0.000    0.750    0.000    0.000 
#    0.000    0.000    0.000    0.000    0.000    0.000 
#
# Total GULP energy -356694.302066 kJ/mol
# GULP energy per Si atom -5573.348470 kJ/mol
# Density = 1.968390 g / cm^3
# Si number density = 19.728799 Si / 1000 Ang^3
#
#
#
# Elastic Constant Matrix: (Units=GPa)
#
#
# Indices 1 2 3 4 5 6 
#
# 1 124.4851 53.3576 92.2559 0.0000 0.0000 0.0000
# 2 53.3576 51.2221 33.4567 0.0000 0.0000 0.0000
# 3 92.2559 33.4567 153.2268 0.0000 0.0000 0.0000
# 4 0.0000 0.0000 0.0000 19.5937 0.0000 0.0000
# 5 0.0000 0.0000 0.0000 0.0000 40.9205 0.0000
# 6 0.0000 0.0000 0.0000 0.0000 0.0000 21.4948
#
#
#
# Elastic Compliance Matrix: (Units=1/GPa)
#
#
# Indices 1 2 3 4 5 6 
#
# 1 0.022821 -0.017259 -0.009972 0.000000 0.000000 0.000000
# 2 -0.017259 0.035823 0.002570 0.000000 0.000000 0.000000
# 3 -0.009972 0.002570 0.011969 0.000000 0.000000 0.000000
# 4 0.000000 0.000000 0.000000 0.051037 0.000000 0.000000
# 5 0.000000 0.000000 0.000000 0.000000 0.024438 0.000000
# 6 0.000000 0.000000 0.000000 0.000000 0.000000 0.046523
#
#
# Mechanical properties :
#
#
# Convention : Reuss Voigt Hill
#
# Bulk Modulus (GPa) = 46.96904 76.34160 61.65532
# Shear Modulus (GPa) = 20.07800 26.39273 23.23536
#
# Velocity S-wave (km/s) = 3.19360 3.66153 3.43554
# Velocity P-wave (km/s) = 6.12028 7.52697 6.85978
#
# Compressibility (1/GPa) = 0.02129062
#
# Stress axis : x y z
#
# Youngs Moduli (GPa) = 43.81987 27.91506 83.54917
#
# Poissons Ratio (x) = 0.48178 0.83312
# Poissons Ratio (y) = 0.75629 -0.21468
# Poissons Ratio (z) = 0.43695 -0.07173
#
# Static dielectric constant tensor:
#      x y z
#    x 1.838130 0.000000 0.000000 
#    y 0.000000 1.735900 0.000000 
#    z 0.000000 0.000000 1.781020 
# 
# From -- ./inp_files/38820.got.cif
#   From: 2010.05.17/outbox.cif.g08.bks.cpg/sg48_20_cif.got.tgz:38820.got - 2010.06.03 20:39:00.
