data_PCOD9390403
_publ_section_title
;
Structure prediction by ZEFSAII (Michael W. Deem and Ramdas Pophale) SiO2 
 PCOD9390403
Probable space group: P N N N
;
_chemical_formula_sum "Si O2"
_cell_formula_units_Z 58
_cell_length_a 8.703636
_cell_length_b 16.320067
_cell_length_c 20.130081
_cell_angle_alpha 90.000000
_cell_angle_beta 90.000000
_cell_angle_gamma 90.000000
_cell_volume 2859.355669
_symmetry_space_group_name_H-M "P N N N"
_symmetry_group_IT_number 48
_space_group.IT_coordinate_system_code '2'
_symmetry_cell_setting 'orthorhombic'
loop_
_space_group_symop_operation_xyz
x,y,z
1/2-x,1/2-y,z
x,1/2-y,1/2-z
1/2-x,y,1/2-z
-x,-y,-z
1/2+x,1/2+y,-z
-x,1/2+y,1/2+z
1/2+x,-y,1/2+z
loop_
_atom_site_type_symbol
_atom_site_label
_atom_site_fract_x
_atom_site_fract_y
_atom_site_fract_z
Si Si1 0.250000 0.250000 0.750000
Si Si2 0.843836 0.830652 0.523445
Si Si3 0.786931 0.995143 0.322750
Si Si4 0.893500 0.434137 0.041802
Si Si5 0.471579 0.902467 0.347268
Si Si6 0.583867 0.236414 0.919452
Si Si7 0.020379 0.861859 0.297945
Si Si8 0.345193 0.498382 0.041822
O O1 0.132000 0.195163 0.708583
O O2 0.750000 0.750000 0.543108
O O3 0.731528 0.909661 0.526651
O O4 0.992467 0.862109 0.563600
O O5 0.940107 0.807329 0.456455
O O6 0.750000 0.033692 0.250000
O O7 0.644274 0.933643 0.333667
O O8 0.950197 0.948881 0.317933
O O9 0.804639 0.041984 0.391556
O O10 0.761267 0.428856 0.986996
O O11 0.000000 0.500000 0.000000
O O12 0.474250 0.825087 0.395898
O O13 0.413280 0.871874 0.275683
O O14 0.381079 0.976829 0.382434
O O15 0.750000 0.250000 0.954080
O O16 0.618279 0.180024 0.855013
O O17 0.500000 0.500000 0.000000
#
# Coordination Sequence:
#
# PCOD9390403 Si02
#       8
#     2   8   8   8   8   8   8   8
#     4  12  16  32  54  92 136 180 216 244 298 404
#     4  11  26  42  65  92 131 176 225 285 347 398
#     4  10  20  37  63  94 127 173 223 262 323 414
#     4  10  21  39  61  92 129 171 220 276 329 390
#     4  11  21  35  60  93 133 173 219 256 324 400
#     4  12  25  39  58  92 140 181 225 266 329 403
#     4  11  20  34  58  93 133 181 216 254 314 407
#     4  11  21  38  63  95 131 178 217 279 331 400
#
# _framework density 20.284289000000001
#
# number of rings (size 3 to 8) (size 9 to 14) (size 15 to 20)
#    0.000    1.103    4.828    3.310    4.828    2.207 
#    0.000    2.759    0.000    0.000    0.000   10.621 
#    0.000    0.000    0.000    0.000    0.000    0.000 
#
# Total GULP energy -323011.325209 kJ/mol
# GULP energy per Si atom -5569.160779 kJ/mol
# Density = 2.023812 g / cm^3
# Si number density = 20.284289 Si / 1000 Ang^3
#
#
#
# Elastic Constant Matrix: (Units=GPa)
#
#
# Indices 1 2 3 4 5 6 
#
# 1 88.1904 32.8326 19.5130 0.0000 0.0000 0.0000
# 2 32.8326 87.0012 30.9312 0.0000 0.0000 0.0000
# 3 19.5130 30.9312 81.6094 0.0000 0.0000 0.0000
# 4 0.0000 0.0000 0.0000 12.0150 0.0000 0.0000
# 5 0.0000 0.0000 0.0000 0.0000 38.3010 0.0000
# 6 0.0000 0.0000 0.0000 0.0000 0.0000 31.9620
#
#
#
# Elastic Compliance Matrix: (Units=1/GPa)
#
#
# Indices 1 2 3 4 5 6 
#
# 1 0.013346 -0.004510 -0.001482 0.000000 0.000000 0.000000
# 2 -0.004510 0.014808 -0.004534 0.000000 0.000000 0.000000
# 3 -0.001482 -0.004534 0.014326 0.000000 0.000000 0.000000
# 4 0.000000 0.000000 0.000000 0.083229 0.000000 0.000000
# 5 0.000000 0.000000 0.000000 0.000000 0.026109 0.000000
# 6 0.000000 0.000000 0.000000 0.000000 0.000000 0.031287
#
#
# Mechanical properties :
#
#
# Convention : Reuss Voigt Hill
#
# Bulk Modulus (GPa) = 46.66598 47.03940 46.85269
# Shear Modulus (GPa) = 23.66305 28.02388 25.84346
#
# Velocity S-wave (km/s) = 3.41921 3.72096 3.57327
# Velocity P-wave (km/s) = 6.21643 6.45764 6.33818
#
# Compressibility (1/GPa) = 0.02142889
#
# Stress axis : x y z
#
# Youngs Moduli (GPa) = 74.92951 67.53114 69.80159
#
# Poissons Ratio (x) = 0.30454 0.10343
# Poissons Ratio (y) = 0.33791 0.31649
# Poissons Ratio (z) = 0.11103 0.30620
#
# Static dielectric constant tensor:
#      x y z
#    x 1.786910 0.000000 0.000000 
#    y 0.000000 1.836130 0.000000 
#    z 0.000000 0.000000 1.763450 
# 
# From -- ./inp_files/30497.got.cif
#   From: 2010.05.17/outbox.cif.g08.bks.cpg/sg48_16_cif.got.tgz:30497.got - 2010.06.03 20:39:00.
