data_PCOD9390570
_publ_section_title
;
Structure prediction by ZEFSAII (Michael W. Deem and Ramdas Pophale) SiO2 
 PCOD9390570
Probable space group: P N N N
;
_chemical_formula_sum "Si O2"
_cell_formula_units_Z 32
_cell_length_a 8.757942
_cell_length_b 15.208564
_cell_length_c 11.386932
_cell_angle_alpha 90.000000
_cell_angle_beta 90.000000
_cell_angle_gamma 90.000000
_cell_volume 1516.690622
_symmetry_space_group_name_H-M "P N N N"
_symmetry_group_IT_number 48
_space_group.IT_coordinate_system_code '2'
_symmetry_cell_setting 'orthorhombic'
loop_
_space_group_symop_operation_xyz
x,y,z
1/2-x,1/2-y,z
x,1/2-y,1/2-z
1/2-x,y,1/2-z
-x,-y,-z
1/2+x,1/2+y,-z
-x,1/2+y,1/2+z
1/2+x,-y,1/2+z
loop_
_atom_site_type_symbol
_atom_site_label
_atom_site_fract_x
_atom_site_fract_y
_atom_site_fract_z
Si Si1 0.546416 0.158385 0.050310
Si Si2 0.069877 0.472357 0.250107
Si Si3 0.423691 0.342744 0.704016
Si Si4 0.644574 0.349272 0.129268
O O1 0.483464 0.084392 0.137138
O O2 0.561032 0.256441 0.106199
O O3 0.726477 0.136016 0.030155
O O4 0.443120 0.160221 0.935931
O O5 0.250000 0.467262 0.250000
O O6 0.013373 0.571696 0.245141
O O7 0.981495 0.423298 0.355569
O O8 0.486466 0.250000 0.750000
O O9 0.250000 0.350138 0.750000
O O10 0.750000 0.349108 0.250000
#
# Coordination Sequence:
#
# PCOD9390570 Si02
#       4
#     8   8   8   8
#     4  10  20  41  67  90 121 167 205 251 314 372
#     4  11  23  38  64  97 125 155 204 263 314 372
#     4  11  26  45  60  82 124 172 213 256 308 373
#     4   9  19  39  69  98 124 157 205 262 316 372
#
# _framework density 21.098566999999999
#
# number of rings (size 3 to 8) (size 9 to 14) (size 15 to 20)
#    0.000    1.750    0.000    8.250    0.000   10.500 
#    0.000    3.750    0.000    0.000    0.000    0.000 
#    0.000    0.000    0.000    0.000    0.000    0.000 
#
# Total GULP energy -178575.775075 kJ/mol
# GULP energy per Si atom -5580.492971 kJ/mol
# Density = 2.105055 g / cm^3
# Si number density = 21.098567 Si / 1000 Ang^3
#
#
#
# Elastic Constant Matrix: (Units=GPa)
#
#
# Indices 1 2 3 4 5 6 
#
# 1 141.7927 98.9933 46.6856 0.0000 0.0000 0.0000
# 2 98.9933 188.6333 28.8546 0.0000 0.0000 0.0000
# 3 46.6856 28.8546 57.4881 0.0000 0.0000 0.0000
# 4 0.0000 0.0000 0.0000 13.1068 0.0000 0.0000
# 5 0.0000 0.0000 0.0000 0.0000 37.7184 0.0000
# 6 0.0000 0.0000 0.0000 0.0000 0.0000 137.1194
#
#
#
# Elastic Compliance Matrix: (Units=1/GPa)
#
#
# Indices 1 2 3 4 5 6 
#
# 1 0.014066 -0.006103 -0.008359 0.000000 0.000000 0.000000
# 2 -0.006103 0.008390 0.000745 0.000000 0.000000 0.000000
# 3 -0.008359 0.000745 0.023810 0.000000 0.000000 0.000000
# 4 0.000000 0.000000 0.000000 0.076297 0.000000 0.000000
# 5 0.000000 0.000000 0.000000 0.000000 0.026512 0.000000
# 6 0.000000 0.000000 0.000000 0.000000 0.000000 0.007293
#
#
# Mechanical properties :
#
#
# Convention : Reuss Voigt Hill
#
# Bulk Modulus (GPa) = 53.10504 81.88679 67.49591
# Shear Modulus (GPa) = 26.30491 51.81429 39.05960
#
# Velocity S-wave (km/s) = 3.53478 4.96100 4.30733
# Velocity P-wave (km/s) = 6.47180 8.46824 7.53642
#
# Compressibility (1/GPa) = 0.01883060
#
# Stress axis : x y z
#
# Youngs Moduli (GPa) = 71.09532 119.18859 41.99982
#
# Poissons Ratio (x) = 0.72739 0.35109
# Poissons Ratio (y) = 0.43388 -0.03129
# Poissons Ratio (z) = 0.59432 -0.08878
#
# Static dielectric constant tensor:
#      x y z
#    x 1.763200 0.000000 0.000000 
#    y 0.000000 1.758260 0.000000 
#    z 0.000000 0.000000 1.856310 
# 
# From -- ./inp_files/10119.got.cif
#   From: 2010.05.17/outbox.cif.g08.bks.cpg/sg48_6_cif.got.tgz:10119.got - 2010.06.03 20:39:00.
