data_PCOD9390263
_publ_section_title
;
Structure prediction by ZEFSAII (Michael W. Deem and Ramdas Pophale) SiO2 
 PCOD9390263
Probable space group: P N N N
;
_chemical_formula_sum "Si O2"
_cell_formula_units_Z 64
_cell_length_a 14.936480
_cell_length_b 25.359662
_cell_length_c 8.940119
_cell_angle_alpha 90.000000
_cell_angle_beta 90.000000
_cell_angle_gamma 90.000000
_cell_volume 3386.374789
_symmetry_space_group_name_H-M "P N N N"
_symmetry_group_IT_number 48
_space_group.IT_coordinate_system_code '2'
_symmetry_cell_setting 'orthorhombic'
loop_
_space_group_symop_operation_xyz
x,y,z
1/2-x,1/2-y,z
x,1/2-y,1/2-z
1/2-x,y,1/2-z
-x,-y,-z
1/2+x,1/2+y,-z
-x,1/2+y,1/2+z
1/2+x,-y,1/2+z
loop_
_atom_site_type_symbol
_atom_site_label
_atom_site_fract_x
_atom_site_fract_y
_atom_site_fract_z
Si Si1 0.892716 0.860166 0.570980
Si Si2 0.392716 0.139834 0.429020
Si Si3 0.396704 0.640986 0.570840
Si Si4 0.603296 0.359014 0.070840
Si Si5 0.750000 0.936614 0.430272
Si Si6 0.250000 0.558067 0.568090
Si Si7 0.109233 0.250000 0.577096
Si Si8 0.108658 0.750000 0.421206
O O1 0.881366 0.860830 0.750000
O O2 0.835332 0.905665 0.494601
O O3 0.863244 0.803405 0.506177
O O4 0.998345 0.866532 0.536184
O O5 0.498345 0.133468 0.463816
O O6 0.335332 0.094335 0.505399
O O7 0.363244 0.196595 0.493823
O O8 0.389262 0.645691 0.750000
O O9 0.336462 0.591910 0.520990
O O10 0.364230 0.695965 0.500870
O O11 0.663538 0.408090 0.020990
O O12 0.635770 0.304035 0.000870
O O13 0.750000 0.934313 0.250000
O O14 0.750000 0.997565 0.480005
O O15 0.250000 0.557048 0.750000
O O16 0.137811 0.250000 0.750000
O O17 0.000364 0.250000 0.574708
O O18 0.137422 0.750000 0.250000
#
# Coordination Sequence:
#
# PCOD9390263 Si02
#       8
#     8   8   8   8   8   8   8   8
#     4  10  20  35  56  82 110 139 174 219 268 315
#     4  10  20  35  56  82 110 139 174 219 268 315
#     4   9  18  35  58  80 106 142 179 216 261 315
#     4   9  18  35  58  80 106 142 179 216 261 315
#     4  11  23  38  55  76 105 142 184 225 264 313
#     4   9  20  38  57  78 104 140 187 225 256 309
#     4   9  17  32  55  82 110 140 174 212 261 321
#     4   9  17  30  51  82 115 140 169 214 265 317
#
# _framework density 18.899266000000001
#
# number of rings (size 3 to 8) (size 9 to 14) (size 15 to 20)
#    0.000    2.500    0.000    1.875    0.000    6.000 
#    0.000    8.125    0.000    0.000    0.000    0.000 
#    0.000    0.000    0.000    0.000    0.000    0.000 
#
# Total GULP energy -357321.735986 kJ/mol
# GULP energy per Si atom -5583.152125 kJ/mol
# Density = 1.885625 g / cm^3
# Si number density = 18.899266 Si / 1000 Ang^3
#
#
#
# Elastic Constant Matrix: (Units=GPa)
#
#
# Indices 1 2 3 4 5 6 
#
# 1 99.1147 89.7423 48.4424 0.0000 0.0000 0.0000
# 2 89.7423 227.7701 66.3790 0.0000 0.0000 0.0000
# 3 48.4424 66.3790 61.5439 0.0000 0.0000 0.0000
# 4 0.0000 0.0000 0.0000 26.6991 0.0000 0.0000
# 5 0.0000 0.0000 0.0000 0.0000 14.7230 0.0000
# 6 0.0000 0.0000 0.0000 0.0000 0.0000 30.5067
#
#
#
# Elastic Compliance Matrix: (Units=1/GPa)
#
#
# Indices 1 2 3 4 5 6 
#
# 1 0.019237 -0.004618 -0.010161 0.000000 0.000000 0.000000
# 2 -0.004618 0.007512 -0.004467 0.000000 0.000000 0.000000
# 3 -0.010161 -0.004467 0.029064 0.000000 0.000000 0.000000
# 4 0.000000 0.000000 0.000000 0.037454 0.000000 0.000000
# 5 0.000000 0.000000 0.000000 0.000000 0.067921 0.000000
# 6 0.000000 0.000000 0.000000 0.000000 0.000000 0.032780
#
#
# Mechanical properties :
#
#
# Convention : Reuss Voigt Hill
#
# Bulk Modulus (GPa) = 57.73275 88.61736 73.17505
# Shear Modulus (GPa) = 20.98788 26.64343 23.81566
#
# Velocity S-wave (km/s) = 3.33605 3.75875 3.55369
# Velocity P-wave (km/s) = 6.74188 8.11349 7.45928
#
# Compressibility (1/GPa) = 0.01732119
#
# Stress axis : x y z
#
# Youngs Moduli (GPa) = 51.98321 133.12433 34.40693
#
# Poissons Ratio (x) = 0.61481 0.34960
# Poissons Ratio (y) = 0.24008 0.15369
# Poissons Ratio (z) = 0.52818 0.59463
#
# Static dielectric constant tensor:
#      x y z
#    x 1.692970 0.000000 0.000000 
#    y 0.000000 1.619390 0.000000 
#    z 0.000000 0.000000 1.629290 
# 
# From -- ./inp_files/13286.got.cif
#   From: 2010.05.17/outbox.cif.g08.bks.cpg/sg48_7_cif.got.tgz:13286.got - 2010.06.03 20:39:00.
