data_PCOD9390396
_publ_section_title
;
Structure prediction by ZEFSAII (Michael W. Deem and Ramdas Pophale) SiO2 
 PCOD9390396
Probable space group: P N N N
;
_chemical_formula_sum "Si O2"
_cell_formula_units_Z 58
_cell_length_a 7.898787
_cell_length_b 19.228736
_cell_length_c 18.022407
_cell_angle_alpha 90.000000
_cell_angle_beta 90.000000
_cell_angle_gamma 90.000000
_cell_volume 2737.309677
_symmetry_space_group_name_H-M "P N N N"
_symmetry_group_IT_number 48
_space_group.IT_coordinate_system_code '2'
_symmetry_cell_setting 'orthorhombic'
loop_
_space_group_symop_operation_xyz
x,y,z
1/2-x,1/2-y,z
x,1/2-y,1/2-z
1/2-x,y,1/2-z
-x,-y,-z
1/2+x,1/2+y,-z
-x,1/2+y,1/2+z
1/2+x,-y,1/2+z
loop_
_atom_site_type_symbol
_atom_site_label
_atom_site_fract_x
_atom_site_fract_y
_atom_site_fract_z
Si Si1 0.238157 0.892144 0.431448
Si Si2 0.636871 0.988601 0.836330
Si Si3 0.250000 0.250000 0.250000
Si Si4 0.697306 0.502028 0.437878
Si Si5 0.458892 0.302695 0.985439
Si Si6 0.896302 0.636039 0.647086
Si Si7 0.613936 0.847518 0.040776
Si Si8 0.911108 0.487874 0.301913
O O1 0.375059 0.832576 0.446048
O O2 0.054781 0.859518 0.411437
O O3 0.258040 0.951755 0.370155
O O4 0.229492 0.937742 0.507568
O O5 0.735233 0.915647 0.843386
O O6 0.565502 0.004559 0.754271
O O7 0.467065 0.986961 0.887291
O O8 0.137762 0.297774 0.302891
O O9 0.655467 0.572955 0.482654
O O10 0.854738 0.517509 0.382451
O O11 0.448464 0.220387 0.005182
O O12 0.297852 0.321573 0.933497
O O13 0.425636 0.342657 0.062358
O O14 0.054211 0.592385 0.677432
O O15 0.750000 0.498901 0.250000
#
# Coordination Sequence:
#
# PCOD9390396 Si02
#       8
#     8   8   2   8   8   8   8   8
#     4  11  21  37  63  92 118 167 209 270 325 377
#     4  10  21  37  61  88 123 154 213 274 312 370
#     4  12  24  36  58  76 128 180 208 252 326 380
#     4  10  20  37  63  86 120 161 213 267 319 375
#     4  11  23  38  61  89 129 168 206 258 332 401
#     4  12  22  39  56  84 123 169 213 248 307 393
#     4  10  22  39  54  92 128 157 204 266 327 378
#     4  10  21  39  58  86 122 157 213 269 314 377
#
# _framework density 21.188687999999999
#
# number of rings (size 3 to 8) (size 9 to 14) (size 15 to 20)
#    0.000    1.379    2.759    4.552    1.931    1.103 
#    0.000    0.345    0.000    0.000    0.000   48.276 
#    0.000    0.000    0.000    0.000    0.000    0.000 
#
# Total GULP energy -322890.877612 kJ/mol
# GULP energy per Si atom -5567.084097 kJ/mol
# Density = 2.114046 g / cm^3
# Si number density = 21.188688 Si / 1000 Ang^3
#
#
#
# Elastic Constant Matrix: (Units=GPa)
#
#
# Indices 1 2 3 4 5 6 
#
# 1 73.1650 9.9445 22.2607 0.0000 0.0000 0.0000
# 2 9.9445 60.5294 19.7317 0.0000 0.0000 0.0000
# 3 22.2607 19.7317 101.7772 0.0000 0.0000 0.0000
# 4 0.0000 0.0000 0.0000 33.3163 0.0000 0.0000
# 5 0.0000 0.0000 0.0000 0.0000 30.7760 0.0000
# 6 0.0000 0.0000 0.0000 0.0000 0.0000 37.1131
#
#
#
# Elastic Compliance Matrix: (Units=1/GPa)
#
#
# Indices 1 2 3 4 5 6 
#
# 1 0.014763 -0.001465 -0.002945 0.000000 0.000000 0.000000
# 2 -0.001465 0.017781 -0.003127 0.000000 0.000000 0.000000
# 3 -0.002945 -0.003127 0.011076 0.000000 0.000000 0.000000
# 4 0.000000 0.000000 0.000000 0.030015 0.000000 0.000000
# 5 0.000000 0.000000 0.000000 0.000000 0.032493 0.000000
# 6 0.000000 0.000000 0.000000 0.000000 0.000000 0.026945
#
#
# Mechanical properties :
#
#
# Convention : Reuss Voigt Hill
#
# Bulk Modulus (GPa) = 35.03176 37.70503 36.36840
# Shear Modulus (GPa) = 31.71354 32.47673 32.09513
#
# Velocity S-wave (km/s) = 3.87294 3.91927 3.89618
# Velocity P-wave (km/s) = 6.04721 6.18986 6.11895
#
# Compressibility (1/GPa) = 0.02854552
#
# Stress axis : x y z
#
# Youngs Moduli (GPa) = 67.73747 56.24010 90.28821
#
# Poissons Ratio (x) = 0.08242 0.26588
# Poissons Ratio (y) = 0.09927 0.28230
# Poissons Ratio (z) = 0.19947 0.17585
#
# Static dielectric constant tensor:
#      x y z
#    x 1.887750 0.000000 0.000000 
#    y 0.000000 1.782250 0.000000 
#    z 0.000000 0.000000 1.808850 
# 
# From -- ./inp_files/30490.got.cif
#   From: 2010.05.17/outbox.cif.g08.bks.cpg/sg48_16_cif.got.tgz:30490.got - 2010.06.03 20:39:00.
