data_PCOD9390867
_publ_section_title
;
Structure prediction by ZEFSAII (Michael W. Deem and Ramdas Pophale) SiO2 
 PCOD9390867
Probable space group: P N N N
;
_chemical_formula_sum "Si O2"
_cell_formula_units_Z 44
_cell_length_a 13.521746
_cell_length_b 28.482576
_cell_length_c 5.068263
_cell_angle_alpha 90.000000
_cell_angle_beta 90.000000
_cell_angle_gamma 90.000000
_cell_volume 1951.961204
_symmetry_space_group_name_H-M "P N N N"
_symmetry_group_IT_number 48
_space_group.IT_coordinate_system_code '2'
_symmetry_cell_setting 'orthorhombic'
loop_
_space_group_symop_operation_xyz
x,y,z
1/2-x,1/2-y,z
x,1/2-y,1/2-z
1/2-x,y,1/2-z
-x,-y,-z
1/2+x,1/2+y,-z
-x,1/2+y,1/2+z
1/2+x,-y,1/2+z
loop_
_atom_site_type_symbol
_atom_site_label
_atom_site_fract_x
_atom_site_fract_y
_atom_site_fract_z
Si Si1 0.049472 0.146365 0.375850
Si Si2 0.822098 0.499460 0.498767
Si Si3 0.642514 0.102473 0.392047
Si Si4 0.617283 0.250000 0.750000
Si Si5 0.750000 0.328719 0.750000
Si Si6 0.141398 0.398298 0.617073
Si Si7 0.002477 0.250000 0.250000
O O1 0.072542 0.125134 0.662033
O O2 0.052318 0.203004 0.367768
O O3 0.945044 0.124088 0.280291
O O4 0.128126 0.128810 0.157117
O O5 0.750000 0.497209 0.250000
O O6 0.878604 0.449908 0.497442
O O7 0.881471 0.547423 0.455250
O O8 0.750000 0.503318 0.750000
O O9 0.750000 0.100899 0.250000
O O10 0.669521 0.138123 0.622182
O O11 0.681973 0.290318 0.603155
O O12 0.555890 0.230262 0.505778
O O13 0.250000 0.396905 0.750000
#
# Coordination Sequence:
#
# PCOD9390867 Si02
#       7
#     8   8   8   4   4   8   4
#     4  12  26  43  73  98 135 178 227 285 345 413
#     4  10  21  40  69  97 135 180 223 279 343 404
#     4  11  24  40  66 102 149 181 222 267 330 414
#     4  11  24  38  66  90 143 188 227 256 326 404
#     4  11  22  38  62  98 138 196 222 259 320 412
#     4  11  25  48  70  96 128 175 233 295 352 401
#     4  12  24  45  61 102 130 170 224 288 330 410
#
# _framework density 22.541430999999999
#
# number of rings (size 3 to 8) (size 9 to 14) (size 15 to 20)
#    0.000    0.909    2.727    4.909    2.545    2.182 
#    0.000    2.727    0.000    0.000    0.000    0.000 
#    0.000    0.000    0.000    0.000    0.000    0.000 
#
# Total GULP energy -245530.509387 kJ/mol
# GULP energy per Si atom -5580.238850 kJ/mol
# Density = 2.249013 g / cm^3
# Si number density = 22.541431 Si / 1000 Ang^3
#
#
#
# Elastic Constant Matrix: (Units=GPa)
#
#
# Indices 1 2 3 4 5 6 
#
# 1 72.2229 31.7367 9.2536 0.0000 0.0000 0.0000
# 2 31.7367 224.4149 35.2426 0.0000 0.0000 0.0000
# 3 9.2536 35.2426 108.4252 0.0000 0.0000 0.0000
# 4 0.0000 0.0000 0.0000 29.7381 0.0000 0.0000
# 5 0.0000 0.0000 0.0000 0.0000 36.6965 0.0000
# 6 0.0000 0.0000 0.0000 0.0000 0.0000 31.3038
#
#
#
# Elastic Compliance Matrix: (Units=1/GPa)
#
#
# Indices 1 2 3 4 5 6 
#
# 1 0.014802 -0.001997 -0.000614 0.000000 0.000000 0.000000
# 2 -0.001997 0.004965 -0.001443 0.000000 0.000000 0.000000
# 3 -0.000614 -0.001443 0.009745 0.000000 0.000000 0.000000
# 4 0.000000 0.000000 0.000000 0.033627 0.000000 0.000000
# 5 0.000000 0.000000 0.000000 0.000000 0.027251 0.000000
# 6 0.000000 0.000000 0.000000 0.000000 0.000000 0.031945
#
#
# Mechanical properties :
#
#
# Convention : Reuss Voigt Hill
#
# Bulk Modulus (GPa) = 46.72292 61.94765 54.33528
# Shear Modulus (GPa) = 36.34312 41.46969 38.90641
#
# Velocity S-wave (km/s) = 4.01968 4.29384 4.15902
# Velocity P-wave (km/s) = 6.50510 7.21970 6.87169
#
# Compressibility (1/GPa) = 0.02140277
#
# Stress axis : x y z
#
# Youngs Moduli (GPa) = 67.55758 201.40546 102.62148
#
# Poissons Ratio (x) = 0.40218 0.06303
# Poissons Ratio (y) = 0.13490 0.14813
# Poissons Ratio (z) = 0.04150 0.29072
#
# Static dielectric constant tensor:
#      x y z
#    x 1.913190 0.000000 0.000000 
#    y 0.000000 1.888970 0.000000 
#    z 0.000000 0.000000 1.705260 
# 
# From -- ./inp_files/3507.got.cif
#   From: 2010.05.17/outbox.cif.g08.bks.cpg/sg48_2_cif.got.tgz:3507.got - 2010.06.03 20:39:00.
