data_PCOD9390117
_publ_section_title
;
Structure prediction by ZEFSAII (Michael W. Deem and Ramdas Pophale) SiO2 
 PCOD9390117
Probable space group: P N N N
;
_chemical_formula_sum "Si O2"
_cell_formula_units_Z 64
_cell_length_a 14.854801
_cell_length_b 23.979383
_cell_length_c 9.328940
_cell_angle_alpha 90.000000
_cell_angle_beta 90.000000
_cell_angle_gamma 90.000000
_cell_volume 3323.052039
_symmetry_space_group_name_H-M "P N N N"
_symmetry_group_IT_number 48
_space_group.IT_coordinate_system_code '2'
_symmetry_cell_setting 'orthorhombic'
loop_
_space_group_symop_operation_xyz
x,y,z
1/2-x,1/2-y,z
x,1/2-y,1/2-z
1/2-x,y,1/2-z
-x,-y,-z
1/2+x,1/2+y,-z
-x,1/2+y,1/2+z
1/2+x,-y,1/2+z
loop_
_atom_site_type_symbol
_atom_site_label
_atom_site_fract_x
_atom_site_fract_y
_atom_site_fract_z
Si Si1 0.292208 0.096921 0.598188
Si Si2 0.518479 0.863211 0.931715
Si Si3 0.889562 0.100585 0.005836
Si Si4 0.289721 0.187566 0.100687
Si Si5 0.143938 0.683628 0.743187
Si Si6 0.797667 0.004609 0.900572
Si Si7 0.021013 0.407499 0.747404
Si Si8 0.513618 0.967241 0.726476
O O1 0.250000 0.085637 0.750000
O O2 0.251206 0.151625 0.527213
O O3 0.264446 0.045472 0.498226
O O4 0.396992 0.103991 0.637344
O O5 0.602427 0.821582 0.898358
O O6 0.424253 0.841012 0.863929
O O7 0.534914 0.921897 0.848542
O O8 0.519401 0.874910 0.102306
O O9 0.884238 0.158224 0.089717
O O10 0.947733 0.061695 0.112832
O O11 0.934242 0.105583 0.849990
O O12 0.800146 0.063771 0.981078
O O13 0.250000 0.250000 0.089838
O O14 0.250000 0.164206 0.250000
O O15 0.136691 0.750000 0.750000
O O16 0.250000 0.668282 0.750000
O O17 0.750000 0.010021 0.750000
O O18 0.898172 0.984700 0.860811
O O19 0.024533 0.473823 0.781548
#
# Coordination Sequence:
#
# PCOD9390117 Si02
#       8
#     8   8   8   8   8   8   8   8
#     4  12  22  37  57  90 138 172 216 259 326 386
#     4  11  23  41  65  96 130 169 217 271 324 385
#     4  10  21  40  64  87 124 163 208 259 321 388
#     4  11  26  42  62  93 128 176 227 272 316 394
#     4  10  25  47  70  90 117 162 219 277 335 392
#     4  11  21  35  59  91 127 167 213 257 319 390
#     4  11  21  38  60  97 133 173 208 261 328 390
#     4  10  19  39  60  86 128 173 207 250 319 389
#
# _framework density 19.259402000000001
#
# number of rings (size 3 to 8) (size 9 to 14) (size 15 to 20)
#    0.000    1.250    3.750    3.000    3.500    2.750 
#    0.000    1.875    0.000    1.500    0.000    0.000 
#    0.000    0.000    0.000    0.000    0.000    0.000 
#
# Total GULP energy -356976.939530 kJ/mol
# GULP energy per Si atom -5577.764680 kJ/mol
# Density = 1.921557 g / cm^3
# Si number density = 19.259402 Si / 1000 Ang^3
#
#
#
# Elastic Constant Matrix: (Units=GPa)
#
#
# Indices 1 2 3 4 5 6 
#
# 1 72.1397 41.7616 25.0426 0.0000 0.0000 0.0000
# 2 41.7616 79.1654 43.6988 0.0000 0.0000 0.0000
# 3 25.0426 43.6988 115.4726 0.0000 0.0000 0.0000
# 4 0.0000 0.0000 0.0000 8.3748 0.0000 0.0000
# 5 0.0000 0.0000 0.0000 0.0000 25.3982 0.0000
# 6 0.0000 0.0000 0.0000 0.0000 0.0000 20.7730
#
#
#
# Elastic Compliance Matrix: (Units=1/GPa)
#
#
# Indices 1 2 3 4 5 6 
#
# 1 0.019974 -0.010296 -0.000435 0.000000 0.000000 0.000000
# 2 -0.010296 0.021275 -0.005818 0.000000 0.000000 0.000000
# 3 -0.000435 -0.005818 0.010956 0.000000 0.000000 0.000000
# 4 0.000000 0.000000 0.000000 0.119406 0.000000 0.000000
# 5 0.000000 0.000000 0.000000 0.000000 0.039373 0.000000
# 6 0.000000 0.000000 0.000000 0.000000 0.000000 0.048139
#
#
# Mechanical properties :
#
#
# Convention : Reuss Voigt Hill
#
# Bulk Modulus (GPa) = 52.34138 54.19821 53.26980
# Shear Modulus (GPa) = 16.74533 21.32752 19.03643
#
# Velocity S-wave (km/s) = 2.95186 3.33135 3.14733
# Velocity P-wave (km/s) = 6.23330 6.55739 6.39740
#
# Compressibility (1/GPa) = 0.01910534
#
# Stress axis : x y z
#
# Youngs Moduli (GPa) = 50.06610 47.00359 91.27206
#
# Poissons Ratio (x) = 0.48396 0.03972
# Poissons Ratio (y) = 0.51550 0.53104
# Poissons Ratio (z) = 0.02179 0.27348
#
# Static dielectric constant tensor:
#      x y z
#    x 1.874100 0.000000 0.000000 
#    y 0.000000 1.681630 0.000000 
#    z 0.000000 0.000000 1.643200 
# 
# From -- ./inp_files/13254.got.cif
#   From: 2010.05.17/outbox.cif.g08.bks.cpg/sg48_7_cif.got.tgz:13254.got - 2010.06.03 20:39:00.
