data_PCOD9390357
_publ_section_title
;
Structure prediction by ZEFSAII (Michael W. Deem and Ramdas Pophale) SiO2 
 PCOD9390357
Probable space group: P N N N
;
_chemical_formula_sum "Si O2"
_cell_formula_units_Z 56
_cell_length_a 13.751194
_cell_length_b 15.231862
_cell_length_c 13.766825
_cell_angle_alpha 90.000000
_cell_angle_beta 90.000000
_cell_angle_gamma 90.000000
_cell_volume 2883.548081
_symmetry_space_group_name_H-M "P N N N"
_symmetry_group_IT_number 48
_space_group.IT_coordinate_system_code '2'
_symmetry_cell_setting 'orthorhombic'
loop_
_space_group_symop_operation_xyz
x,y,z
1/2-x,1/2-y,z
x,1/2-y,1/2-z
1/2-x,y,1/2-z
-x,-y,-z
1/2+x,1/2+y,-z
-x,1/2+y,1/2+z
1/2+x,-y,1/2+z
loop_
_atom_site_type_symbol
_atom_site_label
_atom_site_fract_x
_atom_site_fract_y
_atom_site_fract_z
Si Si1 0.157106 0.405071 0.189808
Si Si2 0.859174 0.000687 0.061171
Si Si3 0.953086 0.925782 0.876740
Si Si4 0.140505 0.354570 0.721762
Si Si5 0.366744 0.245879 0.041993
Si Si6 0.153928 0.970052 0.484364
Si Si7 0.027817 0.118111 0.593066
O O1 0.250000 0.374230 0.250000
O O2 0.081396 0.439303 0.267631
O O3 0.118636 0.325609 0.126365
O O4 0.186181 0.479179 0.113340
O O5 0.866997 0.905329 0.117174
O O6 0.904614 0.992490 0.953259
O O7 0.931712 0.064832 0.117123
O O8 0.751073 0.038552 0.048067
O O9 0.910764 0.834110 0.915578
O O10 0.140918 0.250000 0.750000
O O11 0.250000 0.383469 0.750000
O O12 0.054199 0.387032 0.793205
O O13 0.250000 0.250000 0.021974
O O14 0.423663 0.206648 0.949979
O O15 0.082417 0.893485 0.445621
O O16 0.087201 0.038089 0.544321
#
# Coordination Sequence:
#
# PCOD9390357 Si02
#       7
#     8   8   8   8   8   8   8
#     4  11  19  33  59  87 116 145 186 246 310 348
#     4  11  22  38  54  84 119 153 197 233 298 357
#     4  11  22  35  57  85 117 151 187 249 299 355
#     4  11  22  34  59  86 119 152 192 248 304 352
#     4  11  21  34  59  86 115 144 195 251 306 353
#     4  10  20  37  56  81 113 156 195 237 291 365
#     4  10  21  36  56  81 113 153 198 241 296 356
#
# _framework density 19.42052
#
# number of rings (size 3 to 8) (size 9 to 14) (size 15 to 20)
#    0.000    1.286    4.286    3.000    2.000    0.000 
#    0.000    0.714    0.000    0.000    0.000    1.000 
#    0.000    0.000    0.000    0.000    0.000    0.000 
#
# Total GULP energy -311955.568177 kJ/mol
# GULP energy per Si atom -5570.635146 kJ/mol
# Density = 1.937632 g / cm^3
# Si number density = 19.420520 Si / 1000 Ang^3
#
#
#
# Elastic Constant Matrix: (Units=GPa)
#
#
# Indices 1 2 3 4 5 6 
#
# 1 124.2210 20.9521 20.0049 0.0000 0.0000 0.0000
# 2 20.9521 33.4685 -5.5495 0.0000 0.0000 0.0000
# 3 20.0049 -5.5495 85.3341 0.0000 0.0000 0.0000
# 4 0.0000 0.0000 0.0000 8.2892 0.0000 0.0000
# 5 0.0000 0.0000 0.0000 0.0000 31.5327 0.0000
# 6 0.0000 0.0000 0.0000 0.0000 0.0000 17.3597
#
#
#
# Elastic Compliance Matrix: (Units=1/GPa)
#
#
# Indices 1 2 3 4 5 6 
#
# 1 0.009563 -0.006427 -0.002660 0.000000 0.000000 0.000000
# 2 -0.006427 0.034525 0.003752 0.000000 0.000000 0.000000
# 3 -0.002660 0.003752 0.012586 0.000000 0.000000 0.000000
# 4 0.000000 0.000000 0.000000 0.120639 0.000000 0.000000
# 5 0.000000 0.000000 0.000000 0.000000 0.031713 0.000000
# 6 0.000000 0.000000 0.000000 0.000000 0.000000 0.057605
#
#
# Mechanical properties :
#
#
# Convention : Reuss Voigt Hill
#
# Bulk Modulus (GPa) = 21.73765 34.87097 28.30431
# Shear Modulus (GPa) = 17.08614 25.27739 21.18176
#
# Velocity S-wave (km/s) = 2.96936 3.61166 3.30614
# Velocity P-wave (km/s) = 4.79307 5.94868 5.40187
#
# Compressibility (1/GPa) = 0.04600313
#
# Stress axis : x y z
#
# Youngs Moduli (GPa) = 104.57393 28.96472 79.45228
#
# Poissons Ratio (x) = 0.18617 0.21132
# Poissons Ratio (y) = 0.67215 -0.29811
# Poissons Ratio (z) = 0.27814 -0.10868
#
# Static dielectric constant tensor:
#      x y z
#    x 1.725250 0.000000 0.000000 
#    y 0.000000 1.698790 0.000000 
#    z 0.000000 0.000000 1.742540 
# 
# From -- ./inp_files/27387.got.cif
#   From: 2010.05.17/outbox.cif.g08.bks.cpg/sg48_14_cif.got.tgz:27387.got - 2010.06.03 20:39:00.
