data_PCOD9390572
_publ_section_title
;
Structure prediction by ZEFSAII (Michael W. Deem and Ramdas Pophale) SiO2 
 PCOD9390572
Probable space group: P N N N
;
_chemical_formula_sum "Si O2"
_cell_formula_units_Z 40
_cell_length_a 15.202781
_cell_length_b 14.228081
_cell_length_c 9.156327
_cell_angle_alpha 90.000000
_cell_angle_beta 90.000000
_cell_angle_gamma 90.000000
_cell_volume 1980.572126
_symmetry_space_group_name_H-M "P N N N"
_symmetry_group_IT_number 48
_space_group.IT_coordinate_system_code '2'
_symmetry_cell_setting 'orthorhombic'
loop_
_space_group_symop_operation_xyz
x,y,z
1/2-x,1/2-y,z
x,1/2-y,1/2-z
1/2-x,y,1/2-z
-x,-y,-z
1/2+x,1/2+y,-z
-x,1/2+y,1/2+z
1/2+x,-y,1/2+z
loop_
_atom_site_type_symbol
_atom_site_label
_atom_site_fract_x
_atom_site_fract_y
_atom_site_fract_z
Si Si1 0.926556 0.218615 0.401740
Si Si2 0.844606 0.103681 0.676083
Si Si3 0.070767 0.072987 0.435393
Si Si4 0.506932 0.398351 0.924759
Si Si5 0.655620 0.639811 0.271217
O O1 0.880449 0.250000 0.250000
O O2 0.868999 0.165347 0.529673
O O3 0.969408 0.311989 0.470439
O O4 0.007516 0.148683 0.358952
O O5 0.750000 0.124630 0.750000
O O6 0.920999 0.115655 0.796338
O O7 0.856866 0.992435 0.641376
O O8 0.117784 0.122108 0.569806
O O9 0.000000 0.000000 0.500000
O O10 0.413366 0.391507 0.847878
O O11 0.500000 0.500000 0.000000
O O12 0.663440 0.750000 0.250000
O O13 0.750000 0.592897 0.250000
#
# Coordination Sequence:
#
# PCOD9390572 Si02
#       5
#     8   8   8   8   8
#     4  11  23  43  71  97 138 181 233 287 349 414
#     4  11  25  45  70 100 138 183 231 291 353 415
#     4  10  20  41  68  94 135 177 228 284 345 410
#     4  12  24  42  67  99 135 187 231 279 349 415
#     4  11  22  41  68  99 136 180 224 287 351 414
#
# _framework density 20.196183999999999
#
# number of rings (size 3 to 8) (size 9 to 14) (size 15 to 20)
#    0.000    1.000    6.000    1.800    5.600    1.600 
#    0.000    2.000    0.000    0.000    0.000    0.000 
#    0.000    0.000    0.000    0.000    0.000    0.000 
#
# Total GULP energy -222960.134554 kJ/mol
# GULP energy per Si atom -5574.003364 kJ/mol
# Density = 2.015022 g / cm^3
# Si number density = 20.196184 Si / 1000 Ang^3
#
#
#
# Elastic Constant Matrix: (Units=GPa)
#
#
# Indices 1 2 3 4 5 6 
#
# 1 141.5059 31.9798 58.3843 0.0000 0.0000 0.0000
# 2 31.9798 110.2818 51.4783 0.0000 0.0000 0.0000
# 3 58.3843 51.4783 128.7919 0.0000 0.0000 0.0000
# 4 0.0000 0.0000 0.0000 42.4909 0.0000 0.0000
# 5 0.0000 0.0000 0.0000 0.0000 -0.2725 0.0000
# 6 0.0000 0.0000 0.0000 0.0000 0.0000 9.6940
#
#
#
# Elastic Compliance Matrix: (Units=1/GPa)
#
#
# Indices 1 2 3 4 5 6 
#
# 1 0.008756 -0.000844 -0.003632 0.000000 0.000000 0.000000
# 2 -0.000844 0.011229 -0.004106 0.000000 0.000000 0.000000
# 3 -0.003632 -0.004106 0.011052 0.000000 0.000000 0.000000
# 4 0.000000 0.000000 0.000000 0.023534 0.000000 0.000000
# 5 0.000000 0.000000 0.000000 0.000000 -3.669462 0.000000
# 6 0.000000 0.000000 0.000000 0.000000 0.000000 0.103157
#
#
# Mechanical properties :
#
#
# Convention : Reuss Voigt Hill
#
# Bulk Modulus (GPa) = 72.07759 73.80717 72.94238
# Shear Modulus (GPa) = -1.43269 26.29829 12.43280
#
# Velocity S-wave (km/s) = -0.84316 3.61243 2.48382
# Velocity P-wave (km/s) = 5.90070 7.35010 6.66492
#
# Compressibility (1/GPa) = 0.01387394
#
# Stress axis : x y z
#
# Youngs Moduli (GPa) = 114.20617 89.05637 90.48095
#
# Poissons Ratio (x) = 0.07514 0.32864
# Poissons Ratio (y) = 0.09635 0.37149
# Poissons Ratio (z) = 0.41481 0.36564
#
# Static dielectric constant tensor:
#      x y z
#    x 1.832520 0.000000 0.000000 
#    y 0.000000 1.743980 0.000000 
#    z 0.000000 0.000000 1.946060 
# 
# From -- ./inp_files/12317.got.cif
#   From: 2010.05.17/outbox.cif.g08.bks.cpg/sg48_7_cif.got.tgz:12317.got - 2010.06.03 20:39:00.
