data_PCOD9390738
_publ_section_title
;
Structure prediction by ZEFSAII (Michael W. Deem and Ramdas Pophale) SiO2 
 PCOD9390738
Probable space group: P N N N
;
_chemical_formula_sum "Si O2"
_cell_formula_units_Z 64
_cell_length_a 8.642072
_cell_length_b 12.204616
_cell_length_c 31.666151
_cell_angle_alpha 90.000000
_cell_angle_beta 90.000000
_cell_angle_gamma 90.000000
_cell_volume 3339.929334
_symmetry_space_group_name_H-M "P N N N"
_symmetry_group_IT_number 48
_space_group.IT_coordinate_system_code '2'
_symmetry_cell_setting 'orthorhombic'
loop_
_space_group_symop_operation_xyz
x,y,z
1/2-x,1/2-y,z
x,1/2-y,1/2-z
1/2-x,y,1/2-z
-x,-y,-z
1/2+x,1/2+y,-z
-x,1/2+y,1/2+z
1/2+x,-y,1/2+z
loop_
_atom_site_type_symbol
_atom_site_label
_atom_site_fract_x
_atom_site_fract_y
_atom_site_fract_z
Si Si1 0.437189 0.122284 0.621768
Si Si2 0.063719 0.519382 0.703337
Si Si3 0.565242 0.975907 0.953702
Si Si4 0.565226 0.250000 0.082178
Si Si5 0.934293 0.750000 0.823433
Si Si6 0.936281 0.019382 0.296663
Si Si7 0.065242 0.475908 0.453702
Si Si8 0.062811 0.122284 0.621768
O O1 0.250000 0.115683 0.618919
O O2 0.480042 0.250000 0.624015
O O3 0.484579 0.056911 0.664178
O O4 0.507363 0.063566 0.580862
O O5 0.250000 0.531861 0.700574
O O6 0.027734 0.473867 0.750000
O O7 0.988895 0.638893 0.698886
O O8 0.502374 0.858323 0.939073
O O9 0.750000 0.975331 0.954606
O O10 0.507363 0.063566 0.919138
O O11 0.500000 0.000000 0.000000
O O12 0.750000 0.250000 0.079442
O O13 0.513528 0.250000 0.130743
O O14 0.497626 0.358324 0.060927
O O15 0.750000 0.750000 0.827780
O O16 0.988895 0.638893 0.801114
O O17 0.984579 0.943089 0.335822
O O18 0.000000 0.500000 0.500000
#
# Coordination Sequence:
#
# PCOD9390738 Si02
#       8
#     8   8   8   8   8   8   8   8
#     4  10  22  41  64  91 127 169 214 262 313 372
#     4  10  21  38  62  91 125 168 214 260 314 375
#     4  12  26  44  67  96 129 168 212 258 315 378
#     4  12  24  43  69  96 128 165 209 265 322 375
#     4  12  23  37  60  93 128 166 208 259 321 383
#     4  10  21  38  62  91 125 168 214 260 314 375
#     4  12  26  44  67  96 129 168 212 258 315 378
#     4  10  22  41  64  91 127 169 214 262 313 372
#
# _framework density 19.162082000000002
#
# number of rings (size 3 to 8) (size 9 to 14) (size 15 to 20)
#    0.000    1.000    2.500    4.875    1.750    3.000 
#    0.000    2.500    0.000    0.000    0.000    3.500 
#    0.000    0.000    0.000    0.000    0.000    0.000 
#
# Total GULP energy -357957.992444 kJ/mol
# GULP energy per Si atom -5593.093632 kJ/mol
# Density = 1.911847 g / cm^3
# Si number density = 19.162082 Si / 1000 Ang^3
#
#
#
# Elastic Constant Matrix: (Units=GPa)
#
#
# Indices 1 2 3 4 5 6 
#
# 1 81.4897 55.4690 63.6839 0.0000 0.0000 0.0000
# 2 55.4690 154.4570 98.0015 0.0000 0.0000 0.0000
# 3 63.6839 98.0015 175.0609 0.0000 0.0000 0.0000
# 4 0.0000 0.0000 0.0000 38.7230 0.0000 0.0000
# 5 0.0000 0.0000 0.0000 0.0000 27.3806 0.0000
# 6 0.0000 0.0000 0.0000 0.0000 0.0000 19.7227
#
#
#
# Elastic Compliance Matrix: (Units=1/GPa)
#
#
# Indices 1 2 3 4 5 6 
#
# 1 0.018389 -0.003659 -0.004641 0.000000 0.000000 0.000000
# 2 -0.003659 0.010769 -0.004697 0.000000 0.000000 0.000000
# 3 -0.004641 -0.004697 0.010030 0.000000 0.000000 0.000000
# 4 0.000000 0.000000 0.000000 0.025824 0.000000 0.000000
# 5 0.000000 0.000000 0.000000 0.000000 0.036522 0.000000
# 6 0.000000 0.000000 0.000000 0.000000 0.000000 0.050703
#
#
# Mechanical properties :
#
#
# Convention : Reuss Voigt Hill
#
# Bulk Modulus (GPa) = 75.79838 93.92407 84.86123
# Shear Modulus (GPa) = 27.37752 30.08881 28.73316
#
# Velocity S-wave (km/s) = 3.78396 3.96691 3.87651
# Velocity P-wave (km/s) = 7.66378 8.37280 8.02612
#
# Compressibility (1/GPa) = 0.01319289
#
# Stress axis : x y z
#
# Youngs Moduli (GPa) = 54.37914 92.86034 99.69731
#
# Poissons Ratio (x) = 0.33980 0.46272
# Poissons Ratio (y) = 0.19899 0.46832
# Poissons Ratio (z) = 0.25239 0.43620
#
# Static dielectric constant tensor:
#      x y z
#    x 1.642480 0.000000 0.000000 
#    y 0.000000 1.644550 0.000000 
#    z 0.000000 0.000000 1.675400 
# 
# From -- ./inp_files/38819.got.cif
#   From: 2010.05.17/outbox.cif.g08.bks.cpg/sg48_20_cif.got.tgz:38819.got - 2010.06.03 20:39:00.
