data_PCOD9390703
_publ_section_title
;
Structure prediction by ZEFSAII (Michael W. Deem and Ramdas Pophale) SiO2 
 PCOD9390703
Probable space group: P N N N
;
_chemical_formula_sum "Si O2"
_cell_formula_units_Z 56
_cell_length_a 12.869329
_cell_length_b 14.261174
_cell_length_c 15.283348
_cell_angle_alpha 90.000000
_cell_angle_beta 90.000000
_cell_angle_gamma 90.000000
_cell_volume 2804.979453
_symmetry_space_group_name_H-M "P N N N"
_symmetry_group_IT_number 48
_space_group.IT_coordinate_system_code '2'
_symmetry_cell_setting 'orthorhombic'
loop_
_space_group_symop_operation_xyz
x,y,z
1/2-x,1/2-y,z
x,1/2-y,1/2-z
1/2-x,y,1/2-z
-x,-y,-z
1/2+x,1/2+y,-z
-x,1/2+y,1/2+z
1/2+x,-y,1/2+z
loop_
_atom_site_type_symbol
_atom_site_label
_atom_site_fract_x
_atom_site_fract_y
_atom_site_fract_z
Si Si1 0.810359 0.158772 0.123099
Si Si2 0.966185 0.020924 0.634282
Si Si3 0.325586 0.497374 0.530470
Si Si4 0.368110 0.085765 0.457251
Si Si5 0.932438 0.130790 0.964163
Si Si6 0.638356 0.142546 0.730986
Si Si7 0.024078 0.140760 0.224662
O O1 0.750000 0.250000 0.155934
O O2 0.734705 0.074940 0.090312
O O3 0.905726 0.128171 0.186492
O O4 0.868594 0.190172 0.034010
O O5 0.877815 0.034324 0.559895
O O6 0.946825 0.096370 0.708573
O O7 0.960820 0.922928 0.688811
O O8 0.076366 0.033375 0.587750
O O9 0.248209 0.416388 0.494349
O O10 0.447194 0.145922 0.515541
O O11 0.398458 0.109620 0.355914
O O12 0.401592 0.978353 0.477686
O O13 0.895832 0.142435 0.867664
O O14 0.648597 0.250000 0.750000
O O15 0.750000 0.094733 0.750000
O O16 0.037686 0.250000 0.250000
#
# Coordination Sequence:
#
# PCOD9390703 Si02
#       7
#     8   8   8   8   8   8   8
#     4  10  21  37  65  98 127 160 213 274 334 381
#     4  11  24  41  61  93 129 160 214 269 309 390
#     4  10  23  40  62  86 126 177 204 253 334 371
#     4   9  18  39  61  85 119 167 204 245 308 385
#     4   9  18  34  60  89 120 156 204 251 313 378
#     4  11  23  37  63  94 118 155 207 271 324 363
#     4  11  23  40  65  99 130 168 217 270 319 381
#
# _framework density 19.964496
#
# number of rings (size 3 to 8) (size 9 to 14) (size 15 to 20)
#    0.000    1.857    1.429    3.429    4.000    2.000 
#    2.571    1.429    0.000    0.857    0.000    0.000 
#    0.000    0.000    0.000    0.000    0.000    0.000 
#
# Total GULP energy -311909.900141 kJ/mol
# GULP energy per Si atom -5569.819645 kJ/mol
# Density = 1.991906 g / cm^3
# Si number density = 19.964496 Si / 1000 Ang^3
#
#
#
# Elastic Constant Matrix: (Units=GPa)
#
#
# Indices 1 2 3 4 5 6 
#
# 1 62.8047 17.3287 24.6264 0.0000 0.0000 0.0000
# 2 17.3287 48.4117 8.0625 0.0000 0.0000 0.0000
# 3 24.6264 8.0625 94.6929 0.0000 0.0000 0.0000
# 4 0.0000 0.0000 0.0000 10.4118 0.0000 0.0000
# 5 0.0000 0.0000 0.0000 0.0000 25.3322 0.0000
# 6 0.0000 0.0000 0.0000 0.0000 0.0000 21.6899
#
#
#
# Elastic Compliance Matrix: (Units=1/GPa)
#
#
# Indices 1 2 3 4 5 6 
#
# 1 0.019403 -0.006193 -0.004519 0.000000 0.000000 0.000000
# 2 -0.006193 0.022930 -0.000342 0.000000 0.000000 0.000000
# 3 -0.004519 -0.000342 0.011765 0.000000 0.000000 0.000000
# 4 0.000000 0.000000 0.000000 0.096045 0.000000 0.000000
# 5 0.000000 0.000000 0.000000 0.000000 0.039475 0.000000
# 6 0.000000 0.000000 0.000000 0.000000 0.000000 0.046104
#
#
# Mechanical properties :
#
#
# Convention : Reuss Voigt Hill
#
# Bulk Modulus (GPa) = 31.25888 33.99383 32.62636
# Shear Modulus (GPa) = 18.62255 21.87958 20.25106
#
# Velocity S-wave (km/s) = 3.05746 3.31407 3.18835
# Velocity P-wave (km/s) = 5.30616 5.63100 5.47099
#
# Compressibility (1/GPa) = 0.03199091
#
# Stress axis : x y z
#
# Youngs Moduli (GPa) = 51.53891 43.61162 84.99987
#
# Poissons Ratio (x) = 0.27007 0.38409
# Poissons Ratio (y) = 0.31916 0.02906
# Poissons Ratio (z) = 0.23289 0.01491
#
# Static dielectric constant tensor:
#      x y z
#    x 1.075070 0.000000 0.000000 
#    y 0.000000 1.728210 0.000000 
#    z 0.000000 0.000000 1.649910 
# 
# From -- ./inp_files/26549.got.cif
#   From: 2010.05.17/outbox.cif.g08.bks.cpg/sg48_14_cif.got.tgz:26549.got - 2010.06.03 20:39:00.
