data_PCOD9390604
_publ_section_title
;
Structure prediction by ZEFSAII (Michael W. Deem and Ramdas Pophale) SiO2 
 PCOD9390604
Probable space group: P N N N
;
_chemical_formula_sum "Si O2"
_cell_formula_units_Z 48
_cell_length_a 20.294505
_cell_length_b 18.190038
_cell_length_c 5.545598
_cell_angle_alpha 90.000000
_cell_angle_beta 90.000000
_cell_angle_gamma 90.000000
_cell_volume 2047.200852
_symmetry_space_group_name_H-M "P N N N"
_symmetry_group_IT_number 48
_space_group.IT_coordinate_system_code '2'
_symmetry_cell_setting 'orthorhombic'
loop_
_space_group_symop_operation_xyz
x,y,z
1/2-x,1/2-y,z
x,1/2-y,1/2-z
1/2-x,y,1/2-z
-x,-y,-z
1/2+x,1/2+y,-z
-x,1/2+y,1/2+z
1/2+x,-y,1/2+z
loop_
_atom_site_type_symbol
_atom_site_label
_atom_site_fract_x
_atom_site_fract_y
_atom_site_fract_z
Si Si1 0.823688 0.780237 0.006496
Si Si2 0.484360 0.166731 0.179805
Si Si3 0.376853 0.067814 0.450189
Si Si4 0.139101 0.583930 0.289997
Si Si5 0.986107 0.937440 0.302116
Si Si6 0.140979 0.837657 0.718196
O O1 0.750000 0.750000 0.010993
O O2 0.849107 0.750000 0.750000
O O3 0.856552 0.750000 0.250000
O O4 0.826380 0.868095 0.013645
O O5 0.477177 0.250000 0.250000
O O6 0.436672 0.112803 0.325177
O O7 0.561718 0.152505 0.215303
O O8 0.468743 0.142302 0.909181
O O9 0.420032 0.035753 0.669685
O O10 0.344210 0.002735 0.299124
O O11 0.164457 0.622416 0.535816
O O12 0.058493 0.578064 0.306493
O O13 0.159496 0.626487 0.043406
O O14 0.000000 0.000000 0.500000
O O15 0.155216 0.750000 0.750000
#
# Coordination Sequence:
#
# PCOD9390604 Si02
#       6
#     8   8   8   8   8   8
#     4  10  25  46  64  85 118 159 207 274 338 372
#     4  10  21  31  46  73 106 146 202 252 297 353
#     4  12  22  33  58  80 109 153 208 259 312 380
#     4  11  21  34  52  76 109 150 195 246 296 350
#     4  11  21  34  48  75 117 148 193 259 315 349
#     4  10  21  36  50  71 111 154 189 234 289 348
#
# _framework density 23.446650999999999
#
# number of rings (size 3 to 8) (size 9 to 14) (size 15 to 20)
#    0.000    1.333    3.333    3.500    4.667    0.000 
#    0.000    0.000    0.000    0.000    0.000    0.000 
#    0.000    0.000    0.000   45.000    0.000    8.667 
#
# Total GULP energy -267593.031832 kJ/mol
# GULP energy per Si atom -5574.854830 kJ/mol
# Density = 2.339329 g / cm^3
# Si number density = 23.446651 Si / 1000 Ang^3
#
#
#
# Elastic Constant Matrix: (Units=GPa)
#
#
# Indices 1 2 3 4 5 6 
#
# 1 37.9745 7.8654 4.6646 0.0000 0.0000 0.0000
# 2 7.8654 203.9356 91.8680 0.0000 0.0000 0.0000
# 3 4.6646 91.8680 166.9526 0.0000 0.0000 0.0000
# 4 0.0000 0.0000 0.0000 212.8107 0.0000 0.0000
# 5 0.0000 0.0000 0.0000 0.0000 -16.4460 0.0000
# 6 0.0000 0.0000 0.0000 0.0000 0.0000 20.3645
#
#
#
# Elastic Compliance Matrix: (Units=1/GPa)
#
#
# Indices 1 2 3 4 5 6 
#
# 1 0.026553 -0.000917 -0.000237 0.000000 0.000000 0.000000
# 2 -0.000917 0.006551 -0.003579 0.000000 0.000000 0.000000
# 3 -0.000237 -0.003579 0.007966 0.000000 0.000000 0.000000
# 4 0.000000 0.000000 0.000000 0.004699 0.000000 0.000000
# 5 0.000000 0.000000 0.000000 0.000000 -0.060805 0.000000
# 6 0.000000 0.000000 0.000000 0.000000 0.000000 0.049105
#
#
# Mechanical properties :
#
#
# Convention : Reuss Voigt Hill
#
# Bulk Modulus (GPa) = 31.64317 68.62874 50.13596
# Shear Modulus (GPa) = 92.47239 63.64349 78.05794
#
# Velocity S-wave (km/s) = 6.28690 5.21564 5.77616
# Velocity P-wave (km/s) = 8.13789 8.09964 8.11879
#
# Compressibility (1/GPa) = 0.03160240
#
# Stress axis : x y z
#
# Youngs Moduli (GPa) = 37.66110 152.64201 125.53490
#
# Poissons Ratio (x) = 0.14001 0.02977
# Poissons Ratio (y) = 0.03454 0.44933
# Poissons Ratio (z) = 0.00893 0.54635
#
# Static dielectric constant tensor:
#      x y z
#    x 1.356040 0.000000 0.000000 
#    y 0.000000 1.919290 0.000000 
#    z 0.000000 0.000000 2.233680 
# 
# From -- ./inp_files/5878.got.cif
#   From: 2010.05.17/outbox.cif.g08.bks.cpg/sg48_3_cif.got.tgz:5878.got - 2010.06.03 20:39:00.
