data_PCOD9390445
_publ_section_title
;
Structure prediction by ZEFSAII (Michael W. Deem and Ramdas Pophale) SiO2 
 PCOD9390445
Probable space group: P N N N
;
_chemical_formula_sum "Si O2"
_cell_formula_units_Z 60
_cell_length_a 24.048621
_cell_length_b 5.291393
_cell_length_c 22.391471
_cell_angle_alpha 90.000000
_cell_angle_beta 90.000000
_cell_angle_gamma 90.000000
_cell_volume 2849.330467
_symmetry_space_group_name_H-M "P N N N"
_symmetry_group_IT_number 48
_space_group.IT_coordinate_system_code '2'
_symmetry_cell_setting 'orthorhombic'
loop_
_space_group_symop_operation_xyz
x,y,z
1/2-x,1/2-y,z
x,1/2-y,1/2-z
1/2-x,y,1/2-z
-x,-y,-z
1/2+x,1/2+y,-z
-x,1/2+y,1/2+z
1/2+x,-y,1/2+z
loop_
_atom_site_type_symbol
_atom_site_label
_atom_site_fract_x
_atom_site_fract_y
_atom_site_fract_z
Si Si1 0.875266 0.719113 0.025539
Si Si2 0.148614 0.495111 0.408339
Si Si3 0.185240 0.784076 0.932732
Si Si4 0.884143 0.233055 0.319405
Si Si5 0.674086 0.631065 0.686005
Si Si6 0.929429 0.187384 0.679191
Si Si7 0.445751 0.236281 0.637403
Si Si8 0.750000 0.250000 0.880758
O O1 0.851142 0.437451 0.034628
O O2 0.930051 0.747853 0.066941
O O3 0.833396 0.932552 0.050602
O O4 0.879680 0.817602 0.957638
O O5 0.186690 0.329455 0.364911
O O6 0.104401 0.628867 0.365443
O O7 0.198950 0.680701 0.427012
O O8 0.250000 0.750000 0.941070
O O9 0.167995 0.757336 0.863252
O O10 0.871314 0.250000 0.250000
O O11 0.926618 0.460985 0.338342
O O12 0.910134 0.958699 0.332334
O O13 0.683754 0.750000 0.750000
O O14 0.608878 0.562233 0.678705
O O15 0.711713 0.398716 0.667894
O O16 0.930227 0.250000 0.750000
O O17 0.991356 0.195112 0.654104
#
# Coordination Sequence:
#
# PCOD9390445 Si02
#       8
#     8   8   8   8   8   8   8   4
#     4  10  24  43  63  94 132 166 220 269 315 395
#     4  11  25  42  63  91 127 167 219 270 328 390
#     4  10  22  39  63  92 128 172 213 266 324 381
#     4  10  20  38  62  96 130 165 216 267 320 396
#     4  11  24  43  61  92 130 164 220 276 330 397
#     4  11  23  41  64  93 126 166 215 272 331 392
#     4  10  23  41  66  96 128 173 214 264 332 384
#     4  10  26  41  62  94 120 174 219 264 342 396
#
# _framework density 21.057576999999998
#
# number of rings (size 3 to 8) (size 9 to 14) (size 15 to 20)
#    0.000    1.600    1.333    2.000    6.533    4.000 
#    0.000    0.667    0.000    4.800    0.000    0.000 
#    0.000    0.000    0.000    0.000    0.000    0.000 
#
# Total GULP energy -334417.300818 kJ/mol
# GULP energy per Si atom -5573.621680 kJ/mol
# Density = 2.100965 g / cm^3
# Si number density = 21.057577 Si / 1000 Ang^3
#
#
#
# Elastic Constant Matrix: (Units=GPa)
#
#
# Indices 1 2 3 4 5 6 
#
# 1 79.0528 -13.1729 20.1295 0.0000 0.0000 0.0000
# 2 -13.1729 45.8138 5.8044 0.0000 0.0000 0.0000
# 3 20.1295 5.8044 141.9824 0.0000 0.0000 0.0000
# 4 0.0000 0.0000 0.0000 35.9657 0.0000 0.0000
# 5 0.0000 0.0000 0.0000 0.0000 16.3089 0.0000
# 6 0.0000 0.0000 0.0000 0.0000 0.0000 76.7851
#
#
#
# Elastic Compliance Matrix: (Units=1/GPa)
#
#
# Indices 1 2 3 4 5 6 
#
# 1 0.013908 0.004271 -0.002146 0.000000 0.000000 0.000000
# 2 0.004271 0.023253 -0.001556 0.000000 0.000000 0.000000
# 3 -0.002146 -0.001556 0.007411 0.000000 0.000000 0.000000
# 4 0.000000 0.000000 0.000000 0.027804 0.000000 0.000000
# 5 0.000000 0.000000 0.000000 0.000000 0.061316 0.000000
# 6 0.000000 0.000000 0.000000 0.000000 0.000000 0.013023
#
#
# Mechanical properties :
#
#
# Convention : Reuss Voigt Hill
#
# Bulk Modulus (GPa) = 21.87774 32.48566 27.18170
# Shear Modulus (GPa) = 31.09168 42.75115 36.92141
#
# Velocity S-wave (km/s) = 3.84670 4.51067 4.19185
# Velocity P-wave (km/s) = 5.49013 6.52600 6.03035
#
# Compressibility (1/GPa) = 0.04570856
#
# Stress axis : x y z
#
# Youngs Moduli (GPa) = 71.90101 43.00587 134.93368
#
# Poissons Ratio (x) = -0.18368 0.28962
# Poissons Ratio (y) = -0.30708 0.20997
# Poissons Ratio (z) = 0.15433 0.06692
#
# Static dielectric constant tensor:
#      x y z
#    x 1.735360 0.000000 0.000000 
#    y 0.000000 1.823010 0.000000 
#    z 0.000000 0.000000 1.858340 
# 
# From -- ./inp_files/34981.got.cif
#   From: 2010.05.17/outbox.cif.g08.bks.cpg/sg48_18_cif.got.tgz:34981.got - 2010.06.03 20:39:00.
