data_PCOD9390323
_publ_section_title
;
Structure prediction by ZEFSAII (Michael W. Deem and Ramdas Pophale) SiO2 
 PCOD9390323
Probable space group: P N N N
;
_chemical_formula_sum "Si O2"
_cell_formula_units_Z 58
_cell_length_a 10.410910
_cell_length_b 27.531557
_cell_length_c 9.701327
_cell_angle_alpha 90.000000
_cell_angle_beta 90.000000
_cell_angle_gamma 90.000000
_cell_volume 2780.677408
_symmetry_space_group_name_H-M "P N N N"
_symmetry_group_IT_number 48
_space_group.IT_coordinate_system_code '2'
_symmetry_cell_setting 'orthorhombic'
loop_
_space_group_symop_operation_xyz
x,y,z
1/2-x,1/2-y,z
x,1/2-y,1/2-z
1/2-x,y,1/2-z
-x,-y,-z
1/2+x,1/2+y,-z
-x,1/2+y,1/2+z
1/2+x,-y,1/2+z
loop_
_atom_site_type_symbol
_atom_site_label
_atom_site_fract_x
_atom_site_fract_y
_atom_site_fract_z
Si Si1 0.750000 0.250000 0.750000
Si Si2 0.243624 0.106831 0.092237
Si Si3 0.609206 0.511563 0.218383
Si Si4 0.013290 0.566362 0.912511
Si Si5 0.551887 0.088912 0.386353
Si Si6 0.393508 0.918942 0.215844
Si Si7 0.709845 0.696718 0.090572
Si Si8 0.085057 0.829669 0.101716
O O1 0.829121 0.215503 0.854157
O O2 0.250000 0.124121 0.250000
O O3 0.359357 0.069149 0.074791
O O4 0.099839 0.086171 0.073767
O O5 0.268823 0.151766 0.992094
O O6 0.750000 0.531844 0.250000
O O7 0.560019 0.485282 0.357686
O O8 0.611746 0.465740 0.112437
O O9 0.499667 0.551076 0.198012
O O10 0.051942 0.599643 0.779255
O O11 0.078312 0.579067 0.054713
O O12 0.614160 0.131651 0.477474
O O13 0.250000 0.936120 0.250000
O O14 0.409765 0.864135 0.265206
O O15 0.750000 0.750000 0.040102
O O16 0.750000 0.693237 0.250000
O O17 0.557680 0.689795 0.076558
#
# Coordination Sequence:
#
# PCOD9390323 Si02
#       8
#     2   8   8   8   8   8   8   8
#     4  12  24  44  70  90 140 168 246 278 352 408
#     4   9  17  36  64  93 119 170 207 274 321 397
#     4  10  24  41  64  96 140 181 222 279 334 419
#     4   9  21  41  65  94 137 174 224 270 334 405
#     4   8  21  40  65  94 133 173 222 266 347 397
#     4  12  26  41  66 100 132 178 232 281 344 413
#     4  10  20  36  59  92 124 154 207 270 344 395
#     4  11  24  43  65  97 125 180 222 286 341 407
#
# _framework density 20.858228
#
# number of rings (size 3 to 8) (size 9 to 14) (size 15 to 20)
#    0.828    1.241    0.690    2.069    3.862    3.586 
#    0.000    0.000    0.000    3.310    0.000    0.000 
#    0.000    0.000    0.000    0.000    0.000    0.000 
#
# Total GULP energy -323582.365312 kJ/mol
# GULP energy per Si atom -5579.006298 kJ/mol
# Density = 2.081075 g / cm^3
# Si number density = 20.858228 Si / 1000 Ang^3
#
#
#
# Elastic Constant Matrix: (Units=GPa)
#
#
# Indices 1 2 3 4 5 6 
#
# 1 104.7892 43.6180 16.1084 0.0000 0.0000 0.0000
# 2 43.6180 96.8188 22.0556 0.0000 0.0000 0.0000
# 3 16.1084 22.0556 94.1556 0.0000 0.0000 0.0000
# 4 0.0000 0.0000 0.0000 23.4890 0.0000 0.0000
# 5 0.0000 0.0000 0.0000 0.0000 26.4140 0.0000
# 6 0.0000 0.0000 0.0000 0.0000 0.0000 17.1545
#
#
#
# Elastic Compliance Matrix: (Units=1/GPa)
#
#
# Indices 1 2 3 4 5 6 
#
# 1 0.011805 -0.005132 -0.000817 0.000000 0.000000 0.000000
# 2 -0.005132 0.013142 -0.002200 0.000000 0.000000 0.000000
# 3 -0.000817 -0.002200 0.011276 0.000000 0.000000 0.000000
# 4 0.000000 0.000000 0.000000 0.042573 0.000000 0.000000
# 5 0.000000 0.000000 0.000000 0.000000 0.037859 0.000000
# 6 0.000000 0.000000 0.000000 0.000000 0.000000 0.058294
#
#
# Mechanical properties :
#
#
# Convention : Reuss Voigt Hill
#
# Bulk Modulus (GPa) = 50.19344 51.03642 50.61493
# Shear Modulus (GPa) = 25.26671 27.67694 26.47183
#
# Velocity S-wave (km/s) = 3.48423 3.64663 3.56635
# Velocity P-wave (km/s) = 6.34845 6.50014 6.42474
#
# Compressibility (1/GPa) = 0.01992292
#
# Stress axis : x y z
#
# Youngs Moduli (GPa) = 84.71139 76.09275 88.68380
#
# Poissons Ratio (x) = 0.39051 0.07249
# Poissons Ratio (y) = 0.43474 0.19514
# Poissons Ratio (z) = 0.06925 0.16744
#
# Static dielectric constant tensor:
#      x y z
#    x 1.771880 0.000000 0.000000 
#    y 0.000000 1.740710 0.000000 
#    z 0.000000 0.000000 1.793320 
# 
# From -- ./inp_files/18953.got.cif
#   From: 2010.05.17/outbox.cif.g08.bks.cpg/sg48_10_cif.got.tgz:18953.got - 2010.06.03 20:39:00.
