data_PCOD9390249
_publ_section_title
;
Structure prediction by ZEFSAII (Michael W. Deem and Ramdas Pophale) SiO2 
 PCOD9390249
Probable space group: P N N N
;
_chemical_formula_sum "Si O2"
_cell_formula_units_Z 56
_cell_length_a 5.552151
_cell_length_b 34.652026
_cell_length_c 14.795782
_cell_angle_alpha 90.000000
_cell_angle_beta 90.000000
_cell_angle_gamma 90.000000
_cell_volume 2846.609041
_symmetry_space_group_name_H-M "P N N N"
_symmetry_group_IT_number 48
_space_group.IT_coordinate_system_code '2'
_symmetry_cell_setting 'orthorhombic'
loop_
_space_group_symop_operation_xyz
x,y,z
1/2-x,1/2-y,z
x,1/2-y,1/2-z
1/2-x,y,1/2-z
-x,-y,-z
1/2+x,1/2+y,-z
-x,1/2+y,1/2+z
1/2+x,-y,1/2+z
loop_
_atom_site_type_symbol
_atom_site_label
_atom_site_fract_x
_atom_site_fract_y
_atom_site_fract_z
Si Si1 0.185407 0.526886 0.047250
Si Si2 0.444371 0.599348 0.006104
Si Si3 0.994659 0.396772 0.300134
Si Si4 0.711246 0.563280 0.345487
Si Si5 0.966737 0.512552 0.681140
Si Si6 0.254623 0.206285 0.641521
Si Si7 0.245807 0.661640 0.140643
O O1 0.294457 0.560380 0.987589
O O2 0.354875 0.493639 0.083987
O O3 0.056421 0.551381 0.127179
O O4 0.000000 0.500000 0.000000
O O5 0.664229 0.585603 0.071384
O O6 0.285850 0.626746 0.070754
O O7 0.507932 0.615050 0.906530
O O8 0.750000 0.382160 0.250000
O O9 0.250000 0.387842 0.250000
O O10 0.970260 0.443613 0.299086
O O11 0.750000 0.585092 0.250000
O O12 0.843974 0.522281 0.327890
O O13 0.750000 0.503726 0.750000
O O14 0.250000 0.250000 0.604855
O O15 0.250000 0.208817 0.750000
O O16 0.513340 0.187041 0.621638
O O17 0.009781 0.182564 0.619594
O O18 0.250000 0.652335 0.250000
#
# Coordination Sequence:
#
# PCOD9390249 Si02
#       7
#     8   8   8   8   8   8   8
#     4  11  23  36  56  75 110 149 210 260 317 370
#     4  11  27  38  57  86 118 158 205 259 314 376
#     4  11  26  43  63  80 106 149 209 270 318 360
#     4  11  22  35  56  77 112 153 192 252 319 388
#     4  10  20  35  53  77  96 139 202 262 316 369
#     4   9  18  36  61  92 129 170 205 230 267 341
#     4  10  22  36  60  92 130 168 199 238 291 357
#
# _framework density 19.672530999999999
#
# number of rings (size 3 to 8) (size 9 to 14) (size 15 to 20)
#    0.000    1.571    1.429    2.571   12.000    4.571 
#    0.000    0.000    0.000    0.000    0.000    0.000 
#    0.000    8.571    0.000    0.000    0.000    0.000 
#
# Total GULP energy -311864.139133 kJ/mol
# GULP energy per Si atom -5569.002485 kJ/mol
# Density = 1.962776 g / cm^3
# Si number density = 19.672531 Si / 1000 Ang^3
#
#
#
# Elastic Constant Matrix: (Units=GPa)
#
#
# Indices 1 2 3 4 5 6 
#
# 1 108.8976 39.7248 43.6619 0.0000 0.0000 0.0000
# 2 39.7248 73.0367 21.9413 0.0000 0.0000 0.0000
# 3 43.6619 21.9413 118.5930 0.0000 0.0000 0.0000
# 4 0.0000 0.0000 0.0000 16.6452 0.0000 0.0000
# 5 0.0000 0.0000 0.0000 0.0000 43.7359 0.0000
# 6 0.0000 0.0000 0.0000 0.0000 0.0000 23.3899
#
#
#
# Elastic Compliance Matrix: (Units=1/GPa)
#
#
# Indices 1 2 3 4 5 6 
#
# 1 0.012771 -0.005859 -0.003618 0.000000 0.000000 0.000000
# 2 -0.005859 0.017186 -0.001022 0.000000 0.000000 0.000000
# 3 -0.003618 -0.001022 0.009953 0.000000 0.000000 0.000000
# 4 0.000000 0.000000 0.000000 0.060077 0.000000 0.000000
# 5 0.000000 0.000000 0.000000 0.000000 0.022865 0.000000
# 6 0.000000 0.000000 0.000000 0.000000 0.000000 0.042753
#
#
# Mechanical properties :
#
#
# Convention : Reuss Voigt Hill
#
# Bulk Modulus (GPa) = 52.87915 56.79814 54.83864
# Shear Modulus (GPa) = 25.91914 29.76750 27.84332
#
# Velocity S-wave (km/s) = 3.63372 3.89414 3.76618
# Velocity P-wave (km/s) = 6.67407 7.01096 6.84459
#
# Compressibility (1/GPa) = 0.01891105
#
# Stress axis : x y z
#
# Youngs Moduli (GPa) = 78.30327 58.18773 100.46925
#
# Poissons Ratio (x) = 0.34094 0.36347
# Poissons Ratio (y) = 0.45880 0.10272
# Poissons Ratio (z) = 0.28328 0.05949
#
# Static dielectric constant tensor:
#      x y z
#    x 2.610490 0.000000 0.000000 
#    y 0.000000 1.473030 0.000000 
#    z 0.000000 0.000000 1.774300 
# 
# From -- ./inp_files/24539.got.cif
#   From: 2010.05.17/outbox.cif.g08.bks.cpg/sg48_13_cif.got.tgz:24539.got - 2010.06.03 20:39:00.
