data_PCOD9390884
_publ_section_title
;
Structure prediction by ZEFSAII (Michael W. Deem and Ramdas Pophale) SiO2 
 PCOD9390884
Probable space group: P N N N
;
_chemical_formula_sum "Si O2"
_cell_formula_units_Z 64
_cell_length_a 8.560196
_cell_length_b 11.190443
_cell_length_c 31.150554
_cell_angle_alpha 90.000000
_cell_angle_beta 90.000000
_cell_angle_gamma 90.000000
_cell_volume 2983.985874
_symmetry_space_group_name_H-M "P N N N"
_symmetry_group_IT_number 48
_space_group.IT_coordinate_system_code '2'
_symmetry_cell_setting 'orthorhombic'
loop_
_space_group_symop_operation_xyz
x,y,z
1/2-x,1/2-y,z
x,1/2-y,1/2-z
1/2-x,y,1/2-z
-x,-y,-z
1/2+x,1/2+y,-z
-x,1/2+y,1/2+z
1/2+x,-y,1/2+z
loop_
_atom_site_type_symbol
_atom_site_label
_atom_site_fract_x
_atom_site_fract_y
_atom_site_fract_z
Si Si1 0.417738 0.187353 0.384333
Si Si2 0.088644 0.991193 0.045097
Si Si3 0.427168 0.911667 0.850121
Si Si4 0.919281 0.485259 0.322576
Si Si5 0.933132 0.610109 0.758662
Si Si6 0.368256 0.639135 0.489783
Si Si7 0.124178 0.143228 0.898086
Si Si8 0.091599 0.475525 0.933391
O O1 0.250000 0.250000 0.381414
O O2 0.546782 0.287752 0.375033
O O3 0.448185 0.091931 0.346749
O O4 0.429124 0.112705 0.428068
O O5 0.266906 0.965732 0.032668
O O6 0.032166 0.878709 0.074391
O O7 0.000000 0.000000 0.000000
O O8 0.250884 0.929870 0.833339
O O9 0.531973 0.914370 0.808104
O O10 0.478184 0.008205 0.885979
O O11 0.912523 0.609644 0.348758
O O12 0.963474 0.472471 0.272958
O O13 0.973414 0.750000 0.750000
O O14 0.750000 0.594198 0.750000
O O15 0.250000 0.750000 0.492715
O O16 0.418682 0.590560 0.536087
O O17 0.521533 0.635896 0.459815
O O18 0.250000 0.250000 0.898951
O O19 0.227063 0.040252 0.921717
#
# Coordination Sequence:
#
# PCOD9390884 Si02
#       8
#     8   8   8   8   8   8   8   8
#     4  11  22  36  56  85 124 162 204 257 321 385
#     4  11  23  38  54  87 120 162 217 264 312 383
#     4  11  22  37  63  87 127 167 201 256 317 381
#     4  10  22  37  61  96 124 166 215 252 315 401
#     4  11  22  38  61  94 136 167 199 245 325 397
#     4  11  23  40  61  82 122 162 210 263 320 374
#     4  10  21  41  64  85 126 164 217 266 317 365
#     4  10  23  40  58  90 116 159 216 259 315 380
#
# _framework density 21.447823
#
# number of rings (size 3 to 8) (size 9 to 14) (size 15 to 20)
#    0.000    1.375    2.500    3.000    1.750    2.000 
#    0.000    0.000    0.000    6.000    0.000    3.500 
#    0.000    0.000    0.000    0.000    0.000    0.000 
#
# Total GULP energy -356973.004982 kJ/mol
# GULP energy per Si atom -5577.703203 kJ/mol
# Density = 2.139901 g / cm^3
# Si number density = 21.447823 Si / 1000 Ang^3
#
#
#
# Elastic Constant Matrix: (Units=GPa)
#
#
# Indices 1 2 3 4 5 6 
#
# 1 76.5276 18.4303 41.4443 0.0000 0.0000 0.0000
# 2 18.4303 51.5343 35.4180 0.0000 0.0000 0.0000
# 3 41.4443 35.4180 161.0669 0.0000 0.0000 0.0000
# 4 0.0000 0.0000 0.0000 23.0060 0.0000 0.0000
# 5 0.0000 0.0000 0.0000 0.0000 29.3288 0.0000
# 6 0.0000 0.0000 0.0000 0.0000 0.0000 33.4764
#
#
#
# Elastic Compliance Matrix: (Units=1/GPa)
#
#
# Indices 1 2 3 4 5 6 
#
# 1 0.015655 -0.003334 -0.003295 0.000000 0.000000 0.000000
# 2 -0.003334 0.023569 -0.004325 0.000000 0.000000 0.000000
# 3 -0.003295 -0.004325 0.008007 0.000000 0.000000 0.000000
# 4 0.000000 0.000000 0.000000 0.043467 0.000000 0.000000
# 5 0.000000 0.000000 0.000000 0.000000 0.034096 0.000000
# 6 0.000000 0.000000 0.000000 0.000000 0.000000 0.029872
#
#
# Mechanical properties :
#
#
# Convention : Reuss Voigt Hill
#
# Bulk Modulus (GPa) = 39.48902 53.30156 46.39529
# Shear Modulus (GPa) = 27.02480 30.08465 28.55473
#
# Velocity S-wave (km/s) = 3.55353 3.74931 3.65274
# Velocity P-wave (km/s) = 5.94041 6.60673 6.28241
#
# Compressibility (1/GPa) = 0.02532349
#
# Stress axis : x y z
#
# Youngs Moduli (GPa) = 63.87928 42.42802 124.88361
#
# Poissons Ratio (x) = 0.14146 0.41148
# Poissons Ratio (y) = 0.21298 0.54011
# Poissons Ratio (z) = 0.21048 0.18350
#
# Static dielectric constant tensor:
#      x y z
#    x 1.818790 0.000000 0.000000 
#    y 0.000000 1.856320 0.000000 
#    z 0.000000 0.000000 1.819900 
# 
# From -- ./inp_files/38840.got.cif
#   From: 2010.05.17/outbox.cif.g08.bks.cpg/sg48_20_cif.got.tgz:38840.got - 2010.06.03 20:39:00.
