data_PCOD9390425
_publ_section_title
;
Structure prediction by ZEFSAII (Michael W. Deem and Ramdas Pophale) SiO2 
 PCOD9390425
Probable space group: P N N N
;
_chemical_formula_sum "Si O2"
_cell_formula_units_Z 52
_cell_length_a 8.257888
_cell_length_b 24.117993
_cell_length_c 11.920577
_cell_angle_alpha 90.000000
_cell_angle_beta 90.000000
_cell_angle_gamma 90.000000
_cell_volume 2374.146042
_symmetry_space_group_name_H-M "P N N N"
_symmetry_group_IT_number 48
_space_group.IT_coordinate_system_code '2'
_symmetry_cell_setting 'orthorhombic'
loop_
_space_group_symop_operation_xyz
x,y,z
1/2-x,1/2-y,z
x,1/2-y,1/2-z
1/2-x,y,1/2-z
-x,-y,-z
1/2+x,1/2+y,-z
-x,1/2+y,1/2+z
1/2+x,-y,1/2+z
loop_
_atom_site_type_symbol
_atom_site_label
_atom_site_fract_x
_atom_site_fract_y
_atom_site_fract_z
Si Si1 0.724041 0.044104 0.480847
Si Si2 0.582474 0.128307 0.804559
Si Si3 0.250000 0.550467 0.750000
Si Si4 0.627578 0.634962 0.512366
Si Si5 0.487024 0.250000 0.750000
Si Si6 0.595568 0.572001 0.114794
Si Si7 0.250000 0.250000 0.956669
Si Si8 0.395674 0.027684 0.162402
O O1 0.737260 0.082273 0.369714
O O2 0.576010 0.067640 0.551415
O O3 0.674749 0.987214 0.414874
O O4 0.858028 0.018970 0.567025
O O5 0.750000 0.108134 0.750000
O O6 0.533610 0.128247 0.935395
O O7 0.574952 0.193056 0.775327
O O8 0.445468 0.093726 0.738403
O O9 0.429310 0.523585 0.721122
O O10 0.781157 0.614749 0.439874
O O11 0.674315 0.699468 0.528738
O O12 0.615571 0.589438 0.609962
O O13 0.387485 0.264275 0.863678
O O14 0.250000 0.021994 0.250000
#
# Coordination Sequence:
#
# PCOD9390425 Si02
#       8
#     8   8   4   8   4   8   4   8
#     4  10  24  40  65  92 124 168 226 261 334 379
#     4  11  22  32  57  91 136 164 206 263 325 401
#     4  12  24  42  70  90 133 169 208 294 320 392
#     4  10  21  38  62  94 121 172 218 265 331 402
#     4   9  17  34  54  90 126 168 202 256 338 382
#     4  10  20  38  58  87 125 170 206 266 311 388
#     4   9  16  34  63  88 124 158 217 265 316 402
#     4  11  25  46  65  95 129 172 224 273 331 399
#
# _framework density 21.902612000000001
#
# number of rings (size 3 to 8) (size 9 to 14) (size 15 to 20)
#    0.000    1.692    1.538    3.923    6.462    1.846 
#    0.000    0.385    0.000    0.000    0.000    4.308 
#    0.000    0.000    0.000    0.000    0.000    0.000 
#
# Total GULP energy -289554.613303 kJ/mol
# GULP energy per Si atom -5568.357948 kJ/mol
# Density = 2.185276 g / cm^3
# Si number density = 21.902612 Si / 1000 Ang^3
#
#
#
# Elastic Constant Matrix: (Units=GPa)
#
#
# Indices 1 2 3 4 5 6 
#
# 1 134.3004 6.0823 52.8880 0.0000 0.0000 0.0000
# 2 6.0823 117.8829 39.0138 0.0000 0.0000 0.0000
# 3 52.8880 39.0138 114.7105 0.0000 0.0000 0.0000
# 4 0.0000 0.0000 0.0000 29.5176 0.0000 0.0000
# 5 0.0000 0.0000 0.0000 0.0000 -79.5297 0.0000
# 6 0.0000 0.0000 0.0000 0.0000 0.0000 16.7215
#
#
#
# Elastic Compliance Matrix: (Units=1/GPa)
#
#
# Indices 1 2 3 4 5 6 
#
# 1 0.009211 0.001048 -0.004603 0.000000 0.000000 0.000000
# 2 0.001048 0.009678 -0.003775 0.000000 0.000000 0.000000
# 3 -0.004603 -0.003775 0.012124 0.000000 0.000000 0.000000
# 4 0.000000 0.000000 0.000000 0.033878 0.000000 0.000000
# 5 0.000000 0.000000 0.000000 0.000000 -0.012574 0.000000
# 6 0.000000 0.000000 0.000000 0.000000 0.000000 0.059803
#
#
# Mechanical properties :
#
#
# Convention : Reuss Voigt Hill
#
# Bulk Modulus (GPa) = 61.14993 62.54022 61.84507
# Shear Modulus (GPa) = 37.81225 11.26920 24.54073
#
# Velocity S-wave (km/s) = 4.15948 2.27075 3.35094
# Velocity P-wave (km/s) = 7.14479 5.95742 6.57795
#
# Compressibility (1/GPa) = 0.01635325
#
# Stress axis : x y z
#
# Youngs Moduli (GPa) = 108.56121 103.32459 82.48133
#
# Poissons Ratio (x) = -0.10831 0.37970
# Poissons Ratio (y) = -0.11380 0.31136
# Poissons Ratio (z) = 0.49976 0.39004
#
# Static dielectric constant tensor:
#      x y z
#    x 1.872010 0.000000 0.000000 
#    y 0.000000 1.487560 0.000000 
#    z 0.000000 0.000000 1.916860 
# 
# From -- ./inp_files/18941.got.cif
#   From: 2010.05.17/outbox.cif.g08.bks.cpg/sg48_10_cif.got.tgz:18941.got - 2010.06.03 20:39:00.
