data_PCOD9390599
_publ_section_title
;
Structure prediction by ZEFSAII (Michael W. Deem and Ramdas Pophale) SiO2 
 PCOD9390599
Probable space group: P N N N
;
_chemical_formula_sum "Si O2"
_cell_formula_units_Z 20
_cell_length_a 8.867837
_cell_length_b 19.791079
_cell_length_c 4.819404
_cell_angle_alpha 90.000000
_cell_angle_beta 90.000000
_cell_angle_gamma 90.000000
_cell_volume 845.824981
_symmetry_space_group_name_H-M "P N N N"
_symmetry_group_IT_number 48
_space_group.IT_coordinate_system_code '2'
_symmetry_cell_setting 'orthorhombic'
loop_
_space_group_symop_operation_xyz
x,y,z
1/2-x,1/2-y,z
x,1/2-y,1/2-z
1/2-x,y,1/2-z
-x,-y,-z
1/2+x,1/2+y,-z
-x,1/2+y,1/2+z
1/2+x,-y,1/2+z
loop_
_atom_site_type_symbol
_atom_site_label
_atom_site_fract_x
_atom_site_fract_y
_atom_site_fract_z
Si Si1 0.994442 0.152417 0.621550
Si Si2 0.250000 0.250000 0.750000
Si Si3 0.424334 0.563919 0.852143
Si Si4 0.250000 0.750000 0.250000
O O1 0.007483 0.088401 0.424080
O O2 0.855669 0.202361 0.563785
O O3 0.139949 0.199045 0.592518
O O4 0.953582 0.124104 0.926632
O O5 0.250000 0.554651 0.750000
O O6 0.500000 0.500000 0.000000
#
# Coordination Sequence:
#
# PCOD9390599 Si02
#       4
#     8   2   8   2
#     4  11  25  46  77 107 149 192 252 312 388 452
#     4  10  28  48  72 120 148 200 236 326 384 472
#     4  12  26  48  76 107 148 202 258 313 378 454
#     4  10  20  44  76 104 140 192 256 302 388 460
#
# _framework density 23.645551000000001
#
# number of rings (size 3 to 8) (size 9 to 14) (size 15 to 20)
#    0.000    0.800    4.000    1.200    2.800   11.200 
#    0.000    0.000    0.000    0.000    0.000    0.000 
#    0.000    0.000    0.000    0.000    0.000    0.000 
#
# Total GULP energy -111778.167880 kJ/mol
# GULP energy per Si atom -5588.908394 kJ/mol
# Density = 2.359173 g / cm^3
# Si number density = 23.645551 Si / 1000 Ang^3
#
#
#
# Elastic Constant Matrix: (Units=GPa)
#
#
# Indices 1 2 3 4 5 6 
#
# 1 162.8262 72.9458 33.2294 0.0000 0.0000 0.0000
# 2 72.9458 114.9142 22.8014 0.0000 0.0000 0.0000
# 3 33.2294 22.8014 105.1058 0.0000 0.0000 0.0000
# 4 0.0000 0.0000 0.0000 32.2147 0.0000 0.0000
# 5 0.0000 0.0000 0.0000 0.0000 17.4154 0.0000
# 6 0.0000 0.0000 0.0000 0.0000 0.0000 35.6767
#
#
#
# Elastic Compliance Matrix: (Units=1/GPa)
#
#
# Indices 1 2 3 4 5 6 
#
# 1 0.008848 -0.005289 -0.001650 0.000000 0.000000 0.000000
# 2 -0.005289 0.012255 -0.000986 0.000000 0.000000 0.000000
# 3 -0.001650 -0.000986 0.010250 0.000000 0.000000 0.000000
# 4 0.000000 0.000000 0.000000 0.031042 0.000000 0.000000
# 5 0.000000 0.000000 0.000000 0.000000 0.057420 0.000000
# 6 0.000000 0.000000 0.000000 0.000000 0.000000 0.028029
#
#
# Mechanical properties :
#
#
# Convention : Reuss Voigt Hill
#
# Bulk Modulus (GPa) = 64.50735 71.19993 67.85364
# Shear Modulus (GPa) = 29.60990 33.98600 31.79795
#
# Velocity S-wave (km/s) = 3.54254 3.79530 3.67110
# Velocity P-wave (km/s) = 6.63875 7.02727 6.83577
#
# Compressibility (1/GPa) = 0.01550211
#
# Stress axis : x y z
#
# Youngs Moduli (GPa) = 113.02391 81.59752 97.56261
#
# Poissons Ratio (x) = 0.43157 0.16096
# Poissons Ratio (y) = 0.59779 0.09624
# Poissons Ratio (z) = 0.18647 0.08050
#
# Static dielectric constant tensor:
#      x y z
#    x 1.579350 0.000000 0.000000 
#    y 0.000000 2.002300 0.000000 
#    z 0.000000 0.000000 2.141230 
# 
# From -- ./inp_files/610.got.cif
#   From: 2010.05.17/outbox.cif.g08.bks.cpg/sg48_1_cif.got.tgz:610.got - 2010.06.03 20:39:00.
