data_PCOD9390297
_publ_section_title
;
Structure prediction by ZEFSAII (Michael W. Deem and Ramdas Pophale) SiO2 
 PCOD9390297
Probable space group: P N N N
;
_chemical_formula_sum "Si O2"
_cell_formula_units_Z 52
_cell_length_a 22.475581
_cell_length_b 17.436831
_cell_length_c 5.621909
_cell_angle_alpha 90.000000
_cell_angle_beta 90.000000
_cell_angle_gamma 90.000000
_cell_volume 2203.242483
_symmetry_space_group_name_H-M "P N N N"
_symmetry_group_IT_number 48
_space_group.IT_coordinate_system_code '2'
_symmetry_cell_setting 'orthorhombic'
loop_
_space_group_symop_operation_xyz
x,y,z
1/2-x,1/2-y,z
x,1/2-y,1/2-z
1/2-x,y,1/2-z
-x,-y,-z
1/2+x,1/2+y,-z
-x,1/2+y,1/2+z
1/2+x,-y,1/2+z
loop_
_atom_site_type_symbol
_atom_site_label
_atom_site_fract_x
_atom_site_fract_y
_atom_site_fract_z
Si Si1 0.194008 0.380502 0.422614
Si Si2 0.958023 0.093060 0.481143
Si Si3 0.161057 0.250000 0.750000
Si Si4 0.417415 0.331681 0.373235
Si Si5 0.620001 0.247078 0.999991
Si Si6 0.418447 0.590044 0.016519
Si Si7 0.716929 0.449274 0.008365
O O1 0.250000 0.376979 0.250000
O O2 0.196630 0.304634 0.577471
O O3 0.130074 0.376286 0.291523
O O4 0.201492 0.461054 0.552762
O O5 0.915001 0.167223 0.494962
O O6 0.938887 0.053487 0.233155
O O7 0.024975 0.120947 0.443726
O O8 0.946512 0.056982 0.741352
O O9 0.119395 0.192600 0.603810
O O10 0.433487 0.250000 0.250000
O O11 0.653851 0.250000 0.250000
O O12 0.571667 0.317094 0.995756
O O13 0.653931 0.250000 0.750000
O O14 0.347242 0.588163 0.024421
O O15 0.750000 0.442925 0.750000
O O16 0.750000 0.421975 0.250000
#
# Coordination Sequence:
#
# PCOD9390297 Si02
#       7
#     8   8   4   8   8   8   8
#     4  10  25  44  62  93 125 169 218 273 328 386
#     4  10  20  35  63  95 133 167 208 255 317 386
#     4  10  24  39  68  92 134 158 217 268 330 386
#     4  10  22  37  61  98 132 166 207 265 326 390
#     4   8  15  27  52  83 116 151 195 239 293 361
#     4  10  20  37  63  92 124 171 216 255 315 385
#     4  11  25  46  69  89 123 173 226 270 319 386
#
# _framework density 23.601579999999998
#
# number of rings (size 3 to 8) (size 9 to 14) (size 15 to 20)
#    0.000    2.154    0.000    2.308   11.846    3.385 
#    0.000    1.538    0.000   24.923    0.000    0.000 
#    0.000    0.000    0.000    0.000    0.000    0.000 
#
# Total GULP energy -290367.327941 kJ/mol
# GULP energy per Si atom -5583.987076 kJ/mol
# Density = 2.354786 g / cm^3
# Si number density = 23.601580 Si / 1000 Ang^3
#
#
#
# Elastic Constant Matrix: (Units=GPa)
#
#
# Indices 1 2 3 4 5 6 
#
# 1 100.4190 27.9634 45.5615 0.0000 0.0000 0.0000
# 2 27.9634 38.1517 12.7081 0.0000 0.0000 0.0000
# 3 45.5615 12.7081 200.2456 0.0000 0.0000 0.0000
# 4 0.0000 0.0000 0.0000 -19.0412 0.0000 0.0000
# 5 0.0000 0.0000 0.0000 0.0000 -35.8006 0.0000
# 6 0.0000 0.0000 0.0000 0.0000 0.0000 26.1657
#
#
#
# Elastic Compliance Matrix: (Units=1/GPa)
#
#
# Indices 1 2 3 4 5 6 
#
# 1 0.013657 -0.009169 -0.002526 0.000000 0.000000 0.000000
# 2 -0.009169 0.032933 -0.000004 0.000000 0.000000 0.000000
# 3 -0.002526 -0.000004 0.005569 0.000000 0.000000 0.000000
# 4 0.000000 0.000000 0.000000 -0.052518 0.000000 0.000000
# 5 0.000000 0.000000 0.000000 0.000000 -0.027932 0.000000
# 6 0.000000 0.000000 0.000000 0.000000 0.000000 0.038218
#
#
# Mechanical properties :
#
#
# Convention : Reuss Voigt Hill
#
# Bulk Modulus (GPa) = 34.76770 56.80912 45.78841
# Shear Modulus (GPa) = 116.52026 11.10365 63.81196
#
# Velocity S-wave (km/s) = 7.03398 2.17137 5.20537
# Velocity P-wave (km/s) = 8.98511 5.51441 7.45456
#
# Compressibility (1/GPa) = 0.02876233
#
# Stress axis : x y z
#
# Youngs Moduli (GPa) = 73.22032 30.36481 179.57369
#
# Poissons Ratio (x) = 0.27841 0.45352
# Poissons Ratio (y) = 0.67136 0.00068
# Poissons Ratio (z) = 0.18492 0.00012
#
# Static dielectric constant tensor:
#      x y z
#    x 1.874360 0.000000 0.000000 
#    y 0.000000 1.972240 0.000000 
#    z 0.000000 0.000000 2.011540 
# 
# From -- ./inp_files/5259.got.cif
#   From: 2010.05.17/outbox.cif.g08.bks.cpg/sg48_3_cif.got.tgz:5259.got - 2010.06.03 20:39:00.
