data_PCOD9390138
_publ_section_title
;
Structure prediction by ZEFSAII (Michael W. Deem and Ramdas Pophale) SiO2 
 PCOD9390138
Probable space group: P N N N
;
_chemical_formula_sum "Si O2"
_cell_formula_units_Z 58
_cell_length_a 17.585533
_cell_length_b 18.172071
_cell_length_c 9.307824
_cell_angle_alpha 90.000000
_cell_angle_beta 90.000000
_cell_angle_gamma 90.000000
_cell_volume 2974.459935
_symmetry_space_group_name_H-M "P N N N"
_symmetry_group_IT_number 48
_space_group.IT_coordinate_system_code '2'
_symmetry_cell_setting 'orthorhombic'
loop_
_space_group_symop_operation_xyz
x,y,z
1/2-x,1/2-y,z
x,1/2-y,1/2-z
1/2-x,y,1/2-z
-x,-y,-z
1/2+x,1/2+y,-z
-x,1/2+y,1/2+z
1/2+x,-y,1/2+z
loop_
_atom_site_type_symbol
_atom_site_label
_atom_site_fract_x
_atom_site_fract_y
_atom_site_fract_z
Si Si1 0.494339 0.774354 0.418238
Si Si2 0.060497 0.065349 0.979229
Si Si3 0.094587 0.935478 0.424305
Si Si4 0.161547 0.077191 0.263496
Si Si5 0.363571 0.175758 0.982040
Si Si6 0.667786 0.223760 0.915690
Si Si7 0.750000 0.750000 0.250000
Si Si8 0.573079 0.538182 0.328613
O O1 0.494159 0.750000 0.250000
O O2 0.519076 0.857981 0.442843
O O3 0.559866 0.723717 0.485752
O O4 0.409329 0.760558 0.477236
O O5 0.115431 0.078801 0.113961
O O6 0.101379 0.039464 0.833500
O O7 0.000000 0.000000 0.000000
O O8 0.147056 0.863285 0.418347
O O9 0.012752 0.929778 0.346071
O O10 0.130444 0.005322 0.345376
O O11 0.076534 0.960815 0.587993
O O12 0.250000 0.063900 0.250000
O O13 0.156023 0.152859 0.355165
O O14 0.305584 0.210815 0.866589
O O15 0.377950 0.096592 0.913060
O O16 0.750000 0.250000 0.976526
O O17 0.669999 0.250000 0.750000
#
# Coordination Sequence:
#
# PCOD9390138 Si02
#       8
#     8   8   8   8   8   8   2   8
#     4  11  21  40  66  93 129 176 230 269 329 424
#     4  12  24  40  65 100 132 176 224 282 344 409
#     4  10  20  40  66  97 129 177 224 282 331 413
#     4  11  28  41  61 101 146 169 220 295 351 403
#     4  11  23  43  67  96 131 181 228 276 339 411
#     4  10  21  34  65 100 132 169 220 280 342 402
#     4  12  24  40  74  92 134 180 236 276 332 420
#     4  10  19  40  69  91 129 175 235 266 337 412
#
# _framework density 19.499337000000001
#
# number of rings (size 3 to 8) (size 9 to 14) (size 15 to 20)
#    0.000    1.241    4.828    0.828    5.793    0.552 
#    0.000    0.000    0.000    0.000    0.000    5.793 
#    0.000    0.000    0.000    0.000    0.000    0.000 
#
# Total GULP energy -323067.681198 kJ/mol
# GULP energy per Si atom -5570.132434 kJ/mol
# Density = 1.945496 g / cm^3
# Si number density = 19.499337 Si / 1000 Ang^3
#
#
#
# Elastic Constant Matrix: (Units=GPa)
#
#
# Indices 1 2 3 4 5 6 
#
# 1 104.9636 25.7150 53.3434 0.0000 0.0000 0.0000
# 2 25.7150 98.9589 49.6030 0.0000 0.0000 0.0000
# 3 53.3434 49.6030 117.2472 0.0000 0.0000 0.0000
# 4 0.0000 0.0000 0.0000 25.1972 0.0000 0.0000
# 5 0.0000 0.0000 0.0000 0.0000 -2.5916 0.0000
# 6 0.0000 0.0000 0.0000 0.0000 0.0000 18.0130
#
#
#
# Elastic Compliance Matrix: (Units=1/GPa)
#
#
# Indices 1 2 3 4 5 6 
#
# 1 0.012412 -0.000501 -0.005435 0.000000 0.000000 0.000000
# 2 -0.000501 0.012845 -0.005206 0.000000 0.000000 0.000000
# 3 -0.005435 -0.005206 0.013204 0.000000 0.000000 0.000000
# 4 0.000000 0.000000 0.000000 0.039687 0.000000 0.000000
# 5 0.000000 0.000000 0.000000 0.000000 -0.385867 0.000000
# 6 0.000000 0.000000 0.000000 0.000000 0.000000 0.055515
#
#
# Mechanical properties :
#
#
# Convention : Reuss Voigt Hill
#
# Bulk Modulus (GPa) = 61.81767 64.27696 63.04732
# Shear Modulus (GPa) = -22.26916 20.95761 -0.65578
#
# Velocity S-wave (km/s) = -3.38308 3.28195 -0.58055
# Velocity P-wave (km/s) = 4.06336 6.88453 5.65278
#
# Compressibility (1/GPa) = 0.01617660
#
# Stress axis : x y z
#
# Youngs Moduli (GPa) = 80.56716 77.85087 75.73245
#
# Poissons Ratio (x) = 0.03900 0.41161
# Poissons Ratio (y) = 0.04036 0.39429
# Poissons Ratio (z) = 0.43789 0.40532
#
# Static dielectric constant tensor:
#      x y z
#    x 1.694380 0.000000 0.000000 
#    y 0.000000 1.758010 0.000000 
#    z 0.000000 0.000000 1.756810 
# 
# From -- ./inp_files/14434.got.cif
#   From: 2010.05.17/outbox.cif.g08.bks.cpg/sg48_8_cif.got.tgz:14434.got - 2010.06.03 20:39:00.
