data_PCOD9390729
_publ_section_title
;
Structure prediction by ZEFSAII (Michael W. Deem and Ramdas Pophale) SiO2 
 PCOD9390729
Probable space group: P N N N
;
_chemical_formula_sum "Si O2"
_cell_formula_units_Z 58
_cell_length_a 11.478915
_cell_length_b 17.977050
_cell_length_c 14.145373
_cell_angle_alpha 90.000000
_cell_angle_beta 90.000000
_cell_angle_gamma 90.000000
_cell_volume 2918.997145
_symmetry_space_group_name_H-M "P N N N"
_symmetry_group_IT_number 48
_space_group.IT_coordinate_system_code '2'
_symmetry_cell_setting 'orthorhombic'
loop_
_space_group_symop_operation_xyz
x,y,z
1/2-x,1/2-y,z
x,1/2-y,1/2-z
1/2-x,y,1/2-z
-x,-y,-z
1/2+x,1/2+y,-z
-x,1/2+y,1/2+z
1/2+x,-y,1/2+z
loop_
_atom_site_type_symbol
_atom_site_label
_atom_site_fract_x
_atom_site_fract_y
_atom_site_fract_z
Si Si1 0.832571 0.956416 0.014700
Si Si2 0.070619 0.607666 0.563273
Si Si3 0.250000 0.250000 0.250000
Si Si4 0.124045 0.466454 0.109218
Si Si5 0.521231 0.384774 0.557616
Si Si6 0.120123 0.769170 0.582469
Si Si7 0.288880 0.331164 0.640793
Si Si8 0.961708 0.844883 0.748016
O O1 0.773849 0.898850 0.086783
O O2 0.836972 0.041183 0.052875
O O3 0.757403 0.959586 0.919588
O O4 0.958087 0.924741 0.988775
O O5 0.089213 0.691924 0.529743
O O6 0.047618 0.624895 0.673168
O O7 0.152273 0.195849 0.204827
O O8 0.090675 0.415799 0.195937
O O9 0.086422 0.551768 0.116370
O O10 0.054216 0.428918 0.021510
O O11 0.607211 0.332730 0.496927
O O12 0.426524 0.341147 0.620530
O O13 0.250000 0.750000 0.619084
O O14 0.032995 0.796219 0.667855
O O15 0.250000 0.250000 0.603205
O O16 0.250000 0.334509 0.750000
#
# Coordination Sequence:
#
# PCOD9390729 Si02
#       8
#     8   8   2   8   8   8   8   8
#     4  10  22  38  58  85 123 158 202 256 316 377
#     4  11  22  38  56  89 122 163 202 252 322 378
#     4  12  20  40  54  88 124 160 208 246 328 368
#     4   9  19  36  56  84 115 156 205 247 304 377
#     4   9  19  36  58  84 116 161 201 248 313 371
#     4  11  22  39  59  89 129 165 204 254 313 392
#     4  10  21  38  61  90 115 155 210 271 310 358
#     4  11  23  36  61  89 123 165 207 262 309 386
#
# _framework density 19.869838999999999
#
# number of rings (size 3 to 8) (size 9 to 14) (size 15 to 20)
#    0.000    1.793    1.379    2.483    1.931    2.207 
#    3.724    0.000    0.000    0.000    0.000    0.966 
#    0.000    0.000    0.000    0.000    0.000    0.000 
#
# Total GULP energy -322976.927973 kJ/mol
# GULP energy per Si atom -5568.567724 kJ/mol
# Density = 1.982461 g / cm^3
# Si number density = 19.869839 Si / 1000 Ang^3
#
#
#
# Elastic Constant Matrix: (Units=GPa)
#
#
# Indices 1 2 3 4 5 6 
#
# 1 70.6417 38.7363 14.1947 0.0000 0.0000 0.0000
# 2 38.7363 152.0528 29.0233 0.0000 0.0000 0.0000
# 3 14.1947 29.0233 37.4207 0.0000 0.0000 0.0000
# 4 0.0000 0.0000 0.0000 13.0625 0.0000 0.0000
# 5 0.0000 0.0000 0.0000 0.0000 13.3154 0.0000
# 6 0.0000 0.0000 0.0000 0.0000 0.0000 23.4841
#
#
#
# Elastic Compliance Matrix: (Units=1/GPa)
#
#
# Indices 1 2 3 4 5 6 
#
# 1 0.016857 -0.003608 -0.003596 0.000000 0.000000 0.000000
# 2 -0.003608 0.008492 -0.005218 0.000000 0.000000 0.000000
# 3 -0.003596 -0.005218 0.032134 0.000000 0.000000 0.000000
# 4 0.000000 0.000000 0.000000 0.076555 0.000000 0.000000
# 5 0.000000 0.000000 0.000000 0.000000 0.075101 0.000000
# 6 0.000000 0.000000 0.000000 0.000000 0.000000 0.042582
#
#
# Mechanical properties :
#
#
# Convention : Reuss Voigt Hill
#
# Bulk Modulus (GPa) = 30.63761 47.11376 38.87569
# Shear Modulus (GPa) = 17.39474 21.84980 19.62227
#
# Velocity S-wave (km/s) = 2.96198 3.31969 3.14592
# Velocity P-wave (km/s) = 5.21061 6.20133 5.72743
#
# Compressibility (1/GPa) = 0.03263962
#
# Stress axis : x y z
#
# Youngs Moduli (GPa) = 59.32263 117.76159 31.11975
#
# Poissons Ratio (x) = 0.42489 0.11191
# Poissons Ratio (y) = 0.21404 0.16237
# Poissons Ratio (z) = 0.21332 0.61442
#
# Static dielectric constant tensor:
#      x y z
#    x 1.749000 0.000000 0.000000 
#    y 0.000000 1.761880 0.000000 
#    z 0.000000 0.000000 1.673800 
# 
# From -- ./inp_files/26687.got.cif
#   From: 2010.05.17/outbox.cif.g08.bks.cpg/sg48_14_cif.got.tgz:26687.got - 2010.06.03 20:39:00.
