data_PCOD9390283
_publ_section_title
;
Structure prediction by ZEFSAII (Michael W. Deem and Ramdas Pophale) SiO2 
 PCOD9390283
Probable space group: P N N N
;
_chemical_formula_sum "Si O2"
_cell_formula_units_Z 32
_cell_length_a 7.242865
_cell_length_b 12.780706
_cell_length_c 12.913656
_cell_angle_alpha 90.000000
_cell_angle_beta 90.000000
_cell_angle_gamma 90.000000
_cell_volume 1195.403295
_symmetry_space_group_name_H-M "P N N N"
_symmetry_group_IT_number 48
_space_group.IT_coordinate_system_code '2'
_symmetry_cell_setting 'orthorhombic'
loop_
_space_group_symop_operation_xyz
x,y,z
1/2-x,1/2-y,z
x,1/2-y,1/2-z
1/2-x,y,1/2-z
-x,-y,-z
1/2+x,1/2+y,-z
-x,1/2+y,1/2+z
1/2+x,-y,1/2+z
loop_
_atom_site_type_symbol
_atom_site_label
_atom_site_fract_x
_atom_site_fract_y
_atom_site_fract_z
Si Si1 0.523828 0.258193 0.422316
Si Si2 0.452487 0.533056 0.882940
Si Si3 0.458013 0.788499 0.141148
Si Si4 0.013524 0.515722 0.840858
O O1 0.750000 0.250000 0.423433
O O2 0.481746 0.152131 0.363423
O O3 0.454975 0.238644 0.539078
O O4 0.456040 0.368270 0.376227
O O5 0.233303 0.519881 0.864358
O O6 0.531443 0.482645 0.778316
O O7 0.500000 0.500000 0.000000
O O8 0.250000 0.750000 0.145601
O O9 0.543105 0.750000 0.250000
O O10 0.445256 0.910358 0.105716
#
# Coordination Sequence:
#
# PCOD9390283 Si02
#       4
#     8   8   8   8
#     4   9  18  34  57  84 116 158 209 265 331 406
#     4  10  20  36  58  89 126 165 212 272 338 417
#     4  10  20  35  58  88 120 163 218 277 336 404
#     4  10  20  36  60  88 122 166 215 272 342 413
#
# _framework density 26.769210000000001
#
# number of rings (size 3 to 8) (size 9 to 14) (size 15 to 20)
#    0.000    2.250    0.000    3.000    0.000    5.000 
#    0.000    8.750    0.000    0.000    0.000   10.500 
#    0.000    0.000    0.000    0.000    0.000    0.000 
#
# Total GULP energy -178493.261300 kJ/mol
# GULP energy per Si atom -5577.914416 kJ/mol
# Density = 2.670828 g / cm^3
# Si number density = 26.769210 Si / 1000 Ang^3
#
#
#
# Elastic Constant Matrix: (Units=GPa)
#
#
# Indices 1 2 3 4 5 6 
#
# 1 121.7359 14.2327 7.3094 0.0000 0.0000 0.0000
# 2 14.2327 170.7168 3.7810 0.0000 0.0000 0.0000
# 3 7.3094 3.7810 172.2048 0.0000 0.0000 0.0000
# 4 0.0000 0.0000 0.0000 34.9704 0.0000 0.0000
# 5 0.0000 0.0000 0.0000 0.0000 30.1424 0.0000
# 6 0.0000 0.0000 0.0000 0.0000 0.0000 23.9134
#
#
#
# Elastic Compliance Matrix: (Units=1/GPa)
#
#
# Indices 1 2 3 4 5 6 
#
# 1 0.008315 -0.000686 -0.000338 0.000000 0.000000 0.000000
# 2 -0.000686 0.005917 -0.000101 0.000000 0.000000 0.000000
# 3 -0.000338 -0.000101 0.005824 0.000000 0.000000 0.000000
# 4 0.000000 0.000000 0.000000 0.028596 0.000000 0.000000
# 5 0.000000 0.000000 0.000000 0.000000 0.033176 0.000000
# 6 0.000000 0.000000 0.000000 0.000000 0.000000 0.041818
#
#
# Mechanical properties :
#
#
# Convention : Reuss Voigt Hill
#
# Bulk Modulus (GPa) = 56.15845 57.25597 56.70721
# Shear Modulus (GPa) = 37.92788 47.09419 42.51104
#
# Velocity S-wave (km/s) = 3.76819 4.19891 3.98937
# Velocity P-wave (km/s) = 6.32112 6.70395 6.51535
#
# Compressibility (1/GPa) = 0.01780676
#
# Stress axis : x y z
#
# Youngs Moduli (GPa) = 120.26513 169.00296 171.71524
#
# Poissons Ratio (x) = 0.11589 0.05802
# Poissons Ratio (y) = 0.08247 0.01731
# Poissons Ratio (z) = 0.04064 0.01704
#
# Static dielectric constant tensor:
#      x y z
#    x 2.061330 0.000000 0.000000 
#    y 0.000000 2.043820 0.000000 
#    z 0.000000 0.000000 2.073400 
# 
# From -- ./inp_files/19629.got.cif
#   From: 2010.05.17/outbox.cif.g08.bks.cpg/sg48_10_cif.got.tgz:19629.got - 2010.06.03 20:39:00.
