data_PCOD9390888
_publ_section_title
;
Structure prediction by ZEFSAII (Michael W. Deem and Ramdas Pophale) SiO2 
 PCOD9390888
Probable space group: P N N N
;
_chemical_formula_sum "Si O2"
_cell_formula_units_Z 56
_cell_length_a 9.224503
_cell_length_b 20.100287
_cell_length_c 13.955773
_cell_angle_alpha 90.000000
_cell_angle_beta 90.000000
_cell_angle_gamma 90.000000
_cell_volume 2587.611852
_symmetry_space_group_name_H-M "P N N N"
_symmetry_group_IT_number 48
_space_group.IT_coordinate_system_code '2'
_symmetry_cell_setting 'orthorhombic'
loop_
_space_group_symop_operation_xyz
x,y,z
1/2-x,1/2-y,z
x,1/2-y,1/2-z
1/2-x,y,1/2-z
-x,-y,-z
1/2+x,1/2+y,-z
-x,1/2+y,1/2+z
1/2+x,-y,1/2+z
loop_
_atom_site_type_symbol
_atom_site_label
_atom_site_fract_x
_atom_site_fract_y
_atom_site_fract_z
Si Si1 0.084948 0.675063 0.868267
Si Si2 0.899587 0.969640 0.189646
Si Si3 0.076232 0.326627 0.764085
Si Si4 0.081736 0.672985 0.640743
Si Si5 0.366412 0.071446 0.325945
Si Si6 0.500160 0.398616 0.540761
Si Si7 0.737760 0.495664 0.497990
O O1 0.056227 0.672821 0.755645
O O2 0.075086 0.752337 0.896522
O O3 0.252662 0.651517 0.875284
O O4 0.979762 0.636069 0.937888
O O5 0.750000 0.973485 0.250000
O O6 0.957676 0.893202 0.198811
O O7 0.860931 0.996019 0.082893
O O8 0.016484 0.023271 0.226667
O O9 0.021305 0.250000 0.750000
O O10 0.250000 0.322130 0.750000
O O11 0.029448 0.350478 0.870253
O O12 0.953091 0.625593 0.610831
O O13 0.250000 0.098195 0.250000
O O14 0.287873 0.026403 0.403057
O O15 0.661982 0.427376 0.530815
O O16 0.390122 0.459554 0.548076
#
# Coordination Sequence:
#
# PCOD9390888 Si02
#       7
#     8   8   8   8   8   8   8
#     4   9  19  37  65  88 124 178 216 267 323 421
#     4  11  23  43  65  92 127 178 223 270 342 413
#     4  10  21  41  64  91 126 175 227 279 333 406
#     4   9  20  39  58  93 130 169 220 259 343 410
#     4  12  25  38  62  99 134 164 212 285 339 389
#     4  11  21  40  66  94 127 173 229 271 339 415
#     4  11  24  39  63  97 129 166 225 282 337 397
#
# _framework density 21.641576000000001
#
# number of rings (size 3 to 8) (size 9 to 14) (size 15 to 20)
#    0.000    1.571    2.857    3.857    6.000    1.143 
#    0.000    5.714    0.000    3.000    0.000    0.000 
#    0.000    0.000    0.000    0.000    0.000    0.000 
#
# Total GULP energy -312119.556074 kJ/mol
# GULP energy per Si atom -5573.563501 kJ/mol
# Density = 2.159232 g / cm^3
# Si number density = 21.641576 Si / 1000 Ang^3
#
#
#
# Elastic Constant Matrix: (Units=GPa)
#
#
# Indices 1 2 3 4 5 6 
#
# 1 48.1986 37.6302 22.2298 0.0000 0.0000 0.0000
# 2 37.6302 86.6933 20.8026 0.0000 0.0000 0.0000
# 3 22.2298 20.8026 81.8511 0.0000 0.0000 0.0000
# 4 0.0000 0.0000 0.0000 30.4630 0.0000 0.0000
# 5 0.0000 0.0000 0.0000 0.0000 35.2421 0.0000
# 6 0.0000 0.0000 0.0000 0.0000 0.0000 13.4895
#
#
#
# Elastic Compliance Matrix: (Units=1/GPa)
#
#
# Indices 1 2 3 4 5 6 
#
# 1 0.033786 -0.013273 -0.005803 0.000000 0.000000 0.000000
# 2 -0.013273 0.017498 -0.000842 0.000000 0.000000 0.000000
# 3 -0.005803 -0.000842 0.014007 0.000000 0.000000 0.000000
# 4 0.000000 0.000000 0.000000 0.032827 0.000000 0.000000
# 5 0.000000 0.000000 0.000000 0.000000 0.028375 0.000000
# 6 0.000000 0.000000 0.000000 0.000000 0.000000 0.074132
#
#
# Mechanical properties :
#
#
# Convention : Reuss Voigt Hill
#
# Bulk Modulus (GPa) = 39.28353 42.00757 40.64555
# Shear Modulus (GPa) = 20.08457 24.91093 22.49775
#
# Velocity S-wave (km/s) = 3.04970 3.39642 3.22772
# Velocity P-wave (km/s) = 5.53102 5.90200 5.71952
#
# Compressibility (1/GPa) = 0.02545596
#
# Stress axis : x y z
#
# Youngs Moduli (GPa) = 29.59766 57.14810 71.39112
#
# Poissons Ratio (x) = 0.75853 0.41426
# Poissons Ratio (y) = 0.39285 0.06014
# Poissons Ratio (z) = 0.17174 0.04814
#
# Static dielectric constant tensor:
#      x y z
#    x 1.832720 0.000000 0.000000 
#    y 0.000000 1.859190 0.000000 
#    z 0.000000 0.000000 1.778290 
# 
# From -- ./inp_files/25625.got.cif
#   From: 2010.05.17/outbox.cif.g08.bks.cpg/sg48_13_cif.got.tgz:25625.got - 2010.06.03 20:39:00.
