data_PCOD9390460
_publ_section_title
;
Structure prediction by ZEFSAII (Michael W. Deem and Ramdas Pophale) SiO2 
 PCOD9390460
Probable space group: P N N N
;
_chemical_formula_sum "Si O2"
_cell_formula_units_Z 26
_cell_length_a 5.430985
_cell_length_b 8.629583
_cell_length_c 24.020128
_cell_angle_alpha 90.000000
_cell_angle_beta 90.000000
_cell_angle_gamma 90.000000
_cell_volume 1125.754602
_symmetry_space_group_name_H-M "P N N N"
_symmetry_group_IT_number 48
_space_group.IT_coordinate_system_code '2'
_symmetry_cell_setting 'orthorhombic'
loop_
_space_group_symop_operation_xyz
x,y,z
1/2-x,1/2-y,z
x,1/2-y,1/2-z
1/2-x,y,1/2-z
-x,-y,-z
1/2+x,1/2+y,-z
-x,1/2+y,1/2+z
1/2+x,-y,1/2+z
loop_
_atom_site_type_symbol
_atom_site_label
_atom_site_fract_x
_atom_site_fract_y
_atom_site_fract_z
Si Si1 0.506850 0.158095 0.857365
Si Si2 0.501410 0.672790 0.980208
Si Si3 0.750000 0.250000 0.750000
Si Si4 0.499703 0.298443 0.356816
O O1 0.750000 0.250000 0.879558
O O2 0.574962 0.154139 0.791333
O O3 0.250000 0.250000 0.865722
O O4 0.494645 0.978806 0.874797
O O5 0.750000 0.750000 0.002099
O O6 0.504621 0.694605 0.913362
O O7 0.250000 0.750000 0.999006
O O8 0.500000 0.500000 0.000000
O O9 0.750000 0.250000 0.326859
O O10 0.250000 0.250000 0.326473
#
# Coordination Sequence:
#
# PCOD9390460 Si02
#       4
#     8   8   2   8
#     4  10  20  38  64  87 120 160 199 243 300 363
#     4  10  21  40  61  87 123 159 202 252 298 351
#     4   8  22  36  68  84 126 140 212 232 322 344
#     4  10  21  39  60  89 124 156 204 244 299 358
#
# _framework density 23.095621000000001
#
# number of rings (size 3 to 8) (size 9 to 14) (size 15 to 20)
#    0.923    1.231    0.000    3.231    0.000    0.000 
#    0.000   37.692    0.000    0.000    0.000    0.000 
#    0.000    0.000    0.000    0.000    0.000    0.000 
#
# Total GULP energy -145131.426635 kJ/mol
# GULP energy per Si atom -5581.977947 kJ/mol
# Density = 2.304305 g / cm^3
# Si number density = 23.095621 Si / 1000 Ang^3
#
#
#
# Elastic Constant Matrix: (Units=GPa)
#
#
# Indices 1 2 3 4 5 6 
#
# 1 283.5292 86.2106 -14.3144 0.0000 0.0000 0.0000
# 2 86.2106 158.7182 -19.4657 0.0000 0.0000 0.0000
# 3 -14.3144 -19.4657 67.8541 0.0000 0.0000 0.0000
# 4 0.0000 0.0000 0.0000 -9.9349 0.0000 0.0000
# 5 0.0000 0.0000 0.0000 0.0000 7.5473 0.0000
# 6 0.0000 0.0000 0.0000 0.0000 0.0000 49.5847
#
#
#
# Elastic Compliance Matrix: (Units=1/GPa)
#
#
# Indices 1 2 3 4 5 6 
#
# 1 0.004229 -0.002267 0.000242 0.000000 0.000000 0.000000
# 2 -0.002267 0.007746 0.001744 0.000000 0.000000 0.000000
# 3 0.000242 0.001744 0.015289 0.000000 0.000000 0.000000
# 4 0.000000 0.000000 0.000000 -0.100655 0.000000 0.000000
# 5 0.000000 0.000000 0.000000 0.000000 0.132498 0.000000
# 6 0.000000 0.000000 0.000000 0.000000 0.000000 0.020168
#
#
# Mechanical properties :
#
#
# Convention : Reuss Voigt Hill
#
# Bulk Modulus (GPa) = 37.45369 68.32918 52.89144
# Shear Modulus (GPa) = 56.34637 39.95081 48.14859
#
# Velocity S-wave (km/s) = 4.94469 4.16360 4.57086
# Velocity P-wave (km/s) = 6.98942 7.26386 7.12796
#
# Compressibility (1/GPa) = 0.02669964
#
# Stress axis : x y z
#
# Youngs Moduli (GPa) = 236.48860 129.10234 65.40761
#
# Poissons Ratio (x) = 0.29270 -0.01581
# Poissons Ratio (y) = 0.53616 -0.11406
# Poissons Ratio (z) = -0.05715 -0.22513
#
# Static dielectric constant tensor:
#      x y z
#    x 2.101650 0.000000 0.000000 
#    y 0.000000 1.831590 0.000000 
#    z 0.000000 0.000000 1.889950 
# 
# From -- ./inp_files/37305.got.cif
#   From: 2010.05.17/outbox.cif.g08.bks.cpg/sg48_19_cif.got.tgz:37305.got - 2010.06.03 20:39:00.
