data_PCOD9390670
_publ_section_title
;
Structure prediction by ZEFSAII (Michael W. Deem and Ramdas Pophale) SiO2 
 PCOD9390670
Probable space group: P N N N
;
_chemical_formula_sum "Si O2"
_cell_formula_units_Z 48
_cell_length_a 15.428492
_cell_length_b 26.053951
_cell_length_c 5.317935
_cell_angle_alpha 90.000000
_cell_angle_beta 90.000000
_cell_angle_gamma 90.000000
_cell_volume 2137.667214
_symmetry_space_group_name_H-M "P N N N"
_symmetry_group_IT_number 48
_space_group.IT_coordinate_system_code '2'
_symmetry_cell_setting 'orthorhombic'
loop_
_space_group_symop_operation_xyz
x,y,z
1/2-x,1/2-y,z
x,1/2-y,1/2-z
1/2-x,y,1/2-z
-x,-y,-z
1/2+x,1/2+y,-z
-x,1/2+y,1/2+z
1/2+x,-y,1/2+z
loop_
_atom_site_type_symbol
_atom_site_label
_atom_site_fract_x
_atom_site_fract_y
_atom_site_fract_z
Si Si1 0.075714 0.460919 0.564351
Si Si2 0.159984 0.115000 0.348098
Si Si3 0.350641 0.863200 0.726101
Si Si4 0.250000 0.039046 0.750000
Si Si5 0.915583 0.250000 0.250000
Si Si6 0.056655 0.296034 0.879881
Si Si7 0.452794 0.884781 0.243412
O O1 0.105764 0.419075 0.353426
O O2 0.166788 0.488474 0.631129
O O3 0.000000 0.500000 0.500000
O O4 0.025931 0.428284 0.778938
O O5 0.250000 0.138447 0.250000
O O6 0.200747 0.075468 0.551386
O O7 0.106713 0.163126 0.450466
O O8 0.250000 0.875653 0.750000
O O9 0.360878 0.801225 0.689562
O O10 0.391194 0.891022 0.483029
O O11 0.401423 0.877883 0.983071
O O12 0.980409 0.231742 0.468087
O O13 0.108654 0.250000 0.750000
O O14 0.007531 0.333800 0.689985
#
# Coordination Sequence:
#
# PCOD9390670 Si02
#       7
#     8   8   8   4   4   8   8
#     4  11  24  46  76 101 137 187 242 300 379 454
#     4  10  23  43  70  99 143 187 240 306 369 440
#     4  11  23  41  63  99 142 183 236 297 358 421
#     4  10  22  46  71 104 140 184 231 302 378 444
#     4  10  21  36  61  94 130 190 242 281 342 439
#     4  11  21  39  68  94 141 186 247 286 366 439
#     4  11  23  43  68 102 135 190 235 301 364 434
#
# _framework density 22.454386
#
# number of rings (size 3 to 8) (size 9 to 14) (size 15 to 20)
#    0.000    1.333    3.333    2.750    0.000    0.667 
#    1.500    7.500    0.000    0.000    0.000    0.000 
#    0.000    0.000    0.000    0.000    0.000    0.000 
#
# Total GULP energy -267687.123280 kJ/mol
# GULP energy per Si atom -5576.815068 kJ/mol
# Density = 2.240328 g / cm^3
# Si number density = 22.454386 Si / 1000 Ang^3
#
#
#
# Elastic Constant Matrix: (Units=GPa)
#
#
# Indices 1 2 3 4 5 6 
#
# 1 198.2330 61.2941 53.1983 0.0000 0.0000 0.0000
# 2 61.2941 73.8418 15.9423 0.0000 0.0000 0.0000
# 3 53.1983 15.9423 80.9850 0.0000 0.0000 0.0000
# 4 0.0000 0.0000 0.0000 6.4223 0.0000 0.0000
# 5 0.0000 0.0000 0.0000 0.0000 37.7434 0.0000
# 6 0.0000 0.0000 0.0000 0.0000 0.0000 36.0778
#
#
#
# Elastic Compliance Matrix: (Units=1/GPa)
#
#
# Indices 1 2 3 4 5 6 
#
# 1 0.007889 -0.005671 -0.004066 0.000000 0.000000 0.000000
# 2 -0.005671 0.018220 0.000138 0.000000 0.000000 0.000000
# 3 -0.004066 0.000138 0.014992 0.000000 0.000000 0.000000
# 4 0.000000 0.000000 0.000000 0.155708 0.000000 0.000000
# 5 0.000000 0.000000 0.000000 0.000000 0.026495 0.000000
# 6 0.000000 0.000000 0.000000 0.000000 0.000000 0.027718
#
#
# Mechanical properties :
#
#
# Convention : Reuss Voigt Hill
#
# Bulk Modulus (GPa) = 45.65408 68.21437 56.93422
# Shear Modulus (GPa) = 18.01677 30.89037 24.45357
#
# Velocity S-wave (km/s) = 2.83569 3.71306 3.30363
# Velocity P-wave (km/s) = 5.57652 6.98766 6.32159
#
# Compressibility (1/GPa) = 0.02190385
#
# Stress axis : x y z
#
# Youngs Moduli (GPa) = 126.75677 54.88569 66.70387
#
# Poissons Ratio (x) = 0.31124 0.27122
# Poissons Ratio (y) = 0.71880 -0.00923
# Poissons Ratio (z) = 0.51539 -0.00760
#
# Static dielectric constant tensor:
#      x y z
#    x 1.863100 0.000000 0.000000 
#    y 0.000000 1.971650 0.000000 
#    z 0.000000 0.000000 1.828940 
# 
# From -- ./inp_files/3558.got.cif
#   From: 2010.05.17/outbox.cif.g08.bks.cpg/sg48_2_cif.got.tgz:3558.got - 2010.06.03 20:39:00.
