data_PCOD9390033
_publ_section_title
;
Structure prediction by ZEFSAII (Michael W. Deem and Ramdas Pophale) SiO2 
 PCOD9390033
Probable space group: P N N N
;
_chemical_formula_sum "Si O2"
_cell_formula_units_Z 48
_cell_length_a 8.508621
_cell_length_b 19.377917
_cell_length_c 13.955147
_cell_angle_alpha 90.000000
_cell_angle_beta 90.000000
_cell_angle_gamma 90.000000
_cell_volume 2300.915588
_symmetry_space_group_name_H-M "P N N N"
_symmetry_group_IT_number 48
_space_group.IT_coordinate_system_code '2'
_symmetry_cell_setting 'orthorhombic'
loop_
_space_group_symop_operation_xyz
x,y,z
1/2-x,1/2-y,z
x,1/2-y,1/2-z
1/2-x,y,1/2-z
-x,-y,-z
1/2+x,1/2+y,-z
-x,1/2+y,1/2+z
1/2+x,-y,1/2+z
loop_
_atom_site_type_symbol
_atom_site_label
_atom_site_fract_x
_atom_site_fract_y
_atom_site_fract_z
Si Si1 0.750000 0.250000 0.933053
Si Si2 0.893000 0.369878 0.063435
Si Si3 0.276001 0.106733 0.989286
Si Si4 0.256269 0.969177 0.418793
Si Si5 0.250000 0.569269 0.750000
Si Si6 0.998152 0.648699 0.370542
Si Si7 0.544679 0.944969 0.200913
O O1 0.885938 0.213450 0.872010
O O2 0.822043 0.308093 0.001670
O O3 0.810573 0.381474 0.165094
O O4 0.843268 0.439230 0.007754
O O5 0.081013 0.364276 0.053362
O O6 0.354262 0.072645 0.893813
O O7 0.144167 0.156655 0.945423
O O8 0.199560 0.046415 0.053478
O O9 0.400324 0.917963 0.404095
O O10 0.131732 0.961747 0.332715
O O11 0.109484 0.512169 0.742833
O O12 0.946422 0.623150 0.266246
#
# Coordination Sequence:
#
# PCOD9390033 Si02
#       7
#     4   8   8   8   4   8   8
#     4  10  26  45  55  80 126 180 220 241 325 400
#     4  10  21  38  62  87 122 169 210 260 313 397
#     4  11  19  36  64  94 124 158 211 275 337 385
#     4  10  19  36  58  94 131 157 195 268 345 384
#     4  12  18  35  68  96 123 148 218 276 340 390
#     4  11  22  37  61  87 129 174 217 261 317 402
#     4  11  19  35  61 101 128 156 208 272 338 392
#
# _framework density 20.861260000000001
#
# number of rings (size 3 to 8) (size 9 to 14) (size 15 to 20)
#    0.000    1.333    5.000    2.000    0.000    2.333 
#    0.000   15.000    0.000    8.000    0.000    4.667 
#    0.000    0.000    0.000    0.000    0.000    0.000 
#
# Total GULP energy -267756.086124 kJ/mol
# GULP energy per Si atom -5578.251794 kJ/mol
# Density = 2.081378 g / cm^3
# Si number density = 20.861260 Si / 1000 Ang^3
#
#
#
# Elastic Constant Matrix: (Units=GPa)
#
#
# Indices 1 2 3 4 5 6 
#
# 1 79.6326 5.2689 38.8184 0.0000 0.0000 0.0000
# 2 5.2689 63.1787 24.1681 0.0000 0.0000 0.0000
# 3 38.8184 24.1681 90.4128 0.0000 0.0000 0.0000
# 4 0.0000 0.0000 0.0000 27.1523 0.0000 0.0000
# 5 0.0000 0.0000 0.0000 0.0000 38.7909 0.0000
# 6 0.0000 0.0000 0.0000 0.0000 0.0000 27.7927
#
#
#
# Elastic Compliance Matrix: (Units=1/GPa)
#
#
# Indices 1 2 3 4 5 6 
#
# 1 0.015998 0.001441 -0.007254 0.000000 0.000000 0.000000
# 2 0.001441 0.017761 -0.005366 0.000000 0.000000 0.000000
# 3 -0.007254 -0.005366 0.015609 0.000000 0.000000 0.000000
# 4 0.000000 0.000000 0.000000 0.036829 0.000000 0.000000
# 5 0.000000 0.000000 0.000000 0.000000 0.025779 0.000000
# 6 0.000000 0.000000 0.000000 0.000000 0.000000 0.035981
#
#
# Mechanical properties :
#
#
# Convention : Reuss Voigt Hill
#
# Bulk Modulus (GPa) = 37.02393 41.08166 39.05280
# Shear Modulus (GPa) = 27.88317 29.74510 28.81413
#
# Velocity S-wave (km/s) = 3.65992 3.78014 3.72052
# Velocity P-wave (km/s) = 5.97045 6.22802 6.10059
#
# Compressibility (1/GPa) = 0.02700956
#
# Stress axis : x y z
#
# Youngs Moduli (GPa) = 62.50606 56.30404 64.06446
#
# Poissons Ratio (x) = -0.08112 0.46472
# Poissons Ratio (y) = -0.09005 0.34378
# Poissons Ratio (z) = 0.45342 0.30214
#
# Static dielectric constant tensor:
#      x y z
#    x 1.818280 0.000000 0.000000 
#    y 0.000000 1.735620 0.000000 
#    z 0.000000 0.000000 1.799670 
# 
# From -- ./inp_files/25434.got.cif
#   From: 2010.05.17/outbox.cif.g08.bks.cpg/sg48_13_cif.got.tgz:25434.got - 2010.06.03 20:39:00.
