data_PCOD9390700
_publ_section_title
;
Structure prediction by ZEFSAII (Michael W. Deem and Ramdas Pophale) SiO2 
 PCOD9390700
Probable space group: P N N N
;
_chemical_formula_sum "Si O2"
_cell_formula_units_Z 40
_cell_length_a 14.720914
_cell_length_b 8.079693
_cell_length_c 13.165403
_cell_angle_alpha 90.000000
_cell_angle_beta 90.000000
_cell_angle_gamma 90.000000
_cell_volume 1565.899165
_symmetry_space_group_name_H-M "P N N N"
_symmetry_group_IT_number 48
_space_group.IT_coordinate_system_code '2'
_symmetry_cell_setting 'orthorhombic'
loop_
_space_group_symop_operation_xyz
x,y,z
1/2-x,1/2-y,z
x,1/2-y,1/2-z
1/2-x,y,1/2-z
-x,-y,-z
1/2+x,1/2+y,-z
-x,1/2+y,1/2+z
1/2+x,-y,1/2+z
loop_
_atom_site_type_symbol
_atom_site_label
_atom_site_fract_x
_atom_site_fract_y
_atom_site_fract_z
Si Si1 0.906396 0.431234 0.409445
Si Si2 0.386394 0.087505 0.390802
Si Si3 0.828856 0.120327 0.469772
Si Si4 0.596892 0.931217 0.203157
Si Si5 0.113576 0.474194 0.170625
O O1 0.854164 0.535418 0.496797
O O2 0.913134 0.242670 0.445909
O O3 0.871469 0.449188 0.295034
O O4 0.010996 0.484892 0.396142
O O5 0.384146 0.283017 0.367830
O O6 0.349504 0.013675 0.285566
O O7 0.750000 0.250000 0.443827
O O8 0.832269 0.074579 0.586632
O O9 0.842825 0.967289 0.395327
O O10 0.605217 0.750000 0.250000
O O11 0.491536 0.966516 0.174507
#
# Coordination Sequence:
#
# PCOD9390700 Si02
#       5
#     8   8   8   8   8
#     4  10  21  37  62  98 132 172 220 291 347 393
#     4   9  19  38  66  97 130 167 231 296 335 390
#     4  12  26  42  63  99 146 185 222 282 361 434
#     4  11  23  40  69 101 129 176 240 294 343 404
#     4  10  21  39  66 100 133 175 237 288 338 399
#
# _framework density 25.544429000000001
#
# number of rings (size 3 to 8) (size 9 to 14) (size 15 to 20)
#    0.000    1.600    2.000    2.400    8.400    1.600 
#    0.000    7.000    0.000    2.400    0.000    0.000 
#    0.000    0.000    0.000    0.000    0.000    0.000 
#
# Total GULP energy -223595.355264 kJ/mol
# GULP energy per Si atom -5589.883882 kJ/mol
# Density = 2.548629 g / cm^3
# Si number density = 25.544429 Si / 1000 Ang^3
#
#
#
# Elastic Constant Matrix: (Units=GPa)
#
#
# Indices 1 2 3 4 5 6 
#
# 1 71.8735 4.2299 32.3409 0.0000 0.0000 0.0000
# 2 4.2299 105.6704 43.4606 0.0000 0.0000 0.0000
# 3 32.3409 43.4606 156.9099 0.0000 0.0000 0.0000
# 4 0.0000 0.0000 0.0000 53.1392 0.0000 0.0000
# 5 0.0000 0.0000 0.0000 0.0000 34.0539 0.0000
# 6 0.0000 0.0000 0.0000 0.0000 0.0000 15.4705
#
#
#
# Elastic Compliance Matrix: (Units=1/GPa)
#
#
# Indices 1 2 3 4 5 6 
#
# 1 0.015392 0.000777 -0.003388 0.000000 0.000000 0.000000
# 2 0.000777 0.010719 -0.003129 0.000000 0.000000 0.000000
# 3 -0.003388 -0.003129 0.007938 0.000000 0.000000 0.000000
# 4 0.000000 0.000000 0.000000 0.018819 0.000000 0.000000
# 5 0.000000 0.000000 0.000000 0.000000 0.029365 0.000000
# 6 0.000000 0.000000 0.000000 0.000000 0.000000 0.064639
#
#
# Mechanical properties :
#
#
# Convention : Reuss Voigt Hill
#
# Bulk Modulus (GPa) = 44.30693 54.94631 49.62662
# Shear Modulus (GPa) = 30.14322 37.49421 33.81871
#
# Velocity S-wave (km/s) = 3.43888 3.83535 3.64251
# Velocity P-wave (km/s) = 5.75766 6.41638 6.09592
#
# Compressibility (1/GPa) = 0.02256983
#
# Stress axis : x y z
#
# Youngs Moduli (GPa) = 64.96897 93.28995 125.97556
#
# Poissons Ratio (x) = -0.07250 0.42677
# Poissons Ratio (y) = -0.05049 0.39420
# Poissons Ratio (z) = 0.22010 0.29192
#
# Static dielectric constant tensor:
#      x y z
#    x 2.200030 0.000000 0.000000 
#    y 0.000000 2.047730 0.000000 
#    z 0.000000 0.000000 2.034410 
# 
# From -- ./inp_files/21924.got.cif
#   From: 2010.05.17/outbox.cif.g08.bks.cpg/sg48_11_cif.got.tgz:21924.got - 2010.06.03 20:39:00.
