data_PCOD9390298
_publ_section_title
;
Structure prediction by ZEFSAII (Michael W. Deem and Ramdas Pophale) SiO2 
 PCOD9390298
Probable space group: P N N N
;
_chemical_formula_sum "Si O2"
_cell_formula_units_Z 34
_cell_length_a 19.701894
_cell_length_b 11.867489
_cell_length_c 5.886624
_cell_angle_alpha 90.000000
_cell_angle_beta 90.000000
_cell_angle_gamma 90.000000
_cell_volume 1376.363391
_symmetry_space_group_name_H-M "P N N N"
_symmetry_group_IT_number 48
_space_group.IT_coordinate_system_code '2'
_symmetry_cell_setting 'orthorhombic'
loop_
_space_group_symop_operation_xyz
x,y,z
1/2-x,1/2-y,z
x,1/2-y,1/2-z
1/2-x,y,1/2-z
-x,-y,-z
1/2+x,1/2+y,-z
-x,1/2+y,1/2+z
1/2+x,-y,1/2+z
loop_
_atom_site_type_symbol
_atom_site_label
_atom_site_fract_x
_atom_site_fract_y
_atom_site_fract_z
Si Si1 0.461379 0.133101 0.844070
Si Si2 0.100451 0.595935 0.374809
Si Si3 0.911141 0.112061 0.381851
Si Si4 0.177506 0.366242 0.364375
Si Si5 0.750000 0.750000 0.250000
O O1 0.433270 0.250000 0.750000
O O2 0.519553 0.101096 0.659721
O O3 0.414117 0.025602 0.878710
O O4 0.510216 0.146219 0.065913
O O5 0.113765 0.644033 0.629011
O O6 0.127559 0.469239 0.372135
O O7 0.124202 0.643218 0.124516
O O8 0.151766 0.250000 0.250000
O O9 0.250000 0.397391 0.250000
O O10 0.202342 0.330104 0.608265
#
# Coordination Sequence:
#
# PCOD9390298 Si02
#       5
#     8   8   8   8   2
#     4   9  20  36  55  77 110 144 180 220 262 312
#     4  10  20  36  53  77 109 138 177 218 265 321
#     4   9  21  35  51  80 108 141 182 214 264 315
#     4   9  20  34  53  79 106 138 177 218 277 321
#     4   8  18  32  52  74 108 138 174 220 266 328
#
# _framework density 24.702779
#
# number of rings (size 3 to 8) (size 9 to 14) (size 15 to 20)
#    1.412    1.647    0.000    0.706    6.588    2.824 
#    0.000    0.000    0.000    0.706    0.000    0.000 
#    0.000    0.000    0.000    0.000    0.000    0.000 
#
# Total GULP energy -189487.168716 kJ/mol
# GULP energy per Si atom -5573.152021 kJ/mol
# Density = 2.464655 g / cm^3
# Si number density = 24.702779 Si / 1000 Ang^3
#
#
#
# Elastic Constant Matrix: (Units=GPa)
#
#
# Indices 1 2 3 4 5 6 
#
# 1 60.8897 39.9457 32.2330 0.0000 0.0000 0.0000
# 2 39.9457 119.1517 81.6753 0.0000 0.0000 0.0000
# 3 32.2330 81.6753 250.1252 0.0000 0.0000 0.0000
# 4 0.0000 0.0000 0.0000 471.2333 0.0000 0.0000
# 5 0.0000 0.0000 0.0000 0.0000 191.2394 0.0000
# 6 0.0000 0.0000 0.0000 0.0000 0.0000 47.0074
#
#
#
# Elastic Compliance Matrix: (Units=1/GPa)
#
#
# Indices 1 2 3 4 5 6 
#
# 1 0.021107 -0.006715 -0.000527 0.000000 0.000000 0.000000
# 2 -0.006715 0.012949 -0.003363 0.000000 0.000000 0.000000
# 3 -0.000527 -0.003363 0.005164 0.000000 0.000000 0.000000
# 4 0.000000 0.000000 0.000000 0.002122 0.000000 0.000000
# 5 0.000000 0.000000 0.000000 0.000000 0.005229 0.000000
# 6 0.000000 0.000000 0.000000 0.000000 0.000000 0.021273
#
#
# Mechanical properties :
#
#
# Convention : Reuss Voigt Hill
#
# Bulk Modulus (GPa) = 55.52415 81.98608 68.75512
# Shear Modulus (GPa) = 52.59897 160.31686 106.45791
#
# Velocity S-wave (km/s) = 4.61941 8.06469 6.57184
# Velocity P-wave (km/s) = 7.13986 10.95354 9.24547
#
# Compressibility (1/GPa) = 0.01801018
#
# Stress axis : x y z
#
# Youngs Moduli (GPa) = 47.37660 77.22567 193.64344
#
# Poissons Ratio (x) = 0.51855 0.10214
# Poissons Ratio (y) = 0.31812 0.65123
# Poissons Ratio (z) = 0.02499 0.25971
#
# Static dielectric constant tensor:
#      x y z
#    x 2.111490 0.000000 0.000000 
#    y 0.000000 1.992600 0.000000 
#    z 0.000000 0.000000 2.093250 
# 
# From -- ./inp_files/5675.got.cif
#   From: 2010.05.17/outbox.cif.g08.bks.cpg/sg48_3_cif.got.tgz:5675.got - 2010.06.03 20:39:00.
