data_PCOD9390125
_publ_section_title
;
Structure prediction by ZEFSAII (Michael W. Deem and Ramdas Pophale) SiO2 
 PCOD9390125
Probable space group: P N N N
;
_chemical_formula_sum "Si O2"
_cell_formula_units_Z 64
_cell_length_a 16.810693
_cell_length_b 8.763046
_cell_length_c 19.045611
_cell_angle_alpha 90.000000
_cell_angle_beta 90.000000
_cell_angle_gamma 90.000000
_cell_volume 2805.663733
_symmetry_space_group_name_H-M "P N N N"
_symmetry_group_IT_number 48
_space_group.IT_coordinate_system_code '2'
_symmetry_cell_setting 'orthorhombic'
loop_
_space_group_symop_operation_xyz
x,y,z
1/2-x,1/2-y,z
x,1/2-y,1/2-z
1/2-x,y,1/2-z
-x,-y,-z
1/2+x,1/2+y,-z
-x,1/2+y,1/2+z
1/2+x,-y,1/2+z
loop_
_atom_site_type_symbol
_atom_site_label
_atom_site_fract_x
_atom_site_fract_y
_atom_site_fract_z
Si Si1 0.671585 0.306340 0.828873
Si Si2 0.637070 0.869940 0.692743
Si Si3 0.158435 0.753090 0.538856
Si Si4 0.843638 0.786441 0.546854
Si Si5 0.572515 0.404879 0.347816
Si Si6 0.428291 0.057758 0.550241
Si Si7 0.570664 0.405953 0.579700
Si Si8 0.535216 0.054650 0.302281
O O1 0.750000 0.250000 0.867043
O O2 0.668559 0.250000 0.750000
O O3 0.688558 0.485009 0.824244
O O4 0.598850 0.223532 0.866132
O O5 0.664365 0.750000 0.750000
O O6 0.625228 0.794505 0.617625
O O7 0.556404 0.945837 0.721572
O O8 0.250000 0.750000 0.515751
O O9 0.149689 0.867050 0.605549
O O10 0.137704 0.575465 0.549121
O O11 0.082657 0.811468 0.492261
O O12 0.750000 0.750000 0.539952
O O13 0.891686 0.712044 0.482042
O O14 0.865218 0.960756 0.562885
O O15 0.507606 0.506933 0.390748
O O16 0.544646 0.229143 0.331080
O O17 0.584207 0.470890 0.269141
O O18 0.500000 0.000000 0.500000
O O19 0.453058 0.057318 0.632110
#
# Coordination Sequence:
#
# PCOD9390125 Si02
#       8
#     8   8   8   8   8   8   8   8
#     4  11  24  38  54  88 136 178 221 275 344 408
#     4  12  21  39  65  90 128 177 227 278 335 409
#     4  11  24  42  65  97 138 176 218 289 364 420
#     4  12  23  37  61  95 130 176 227 274 340 415
#     4  10  20  39  65  95 125 168 225 285 341 417
#     4  11  22  42  68  94 123 176 229 279 340 419
#     4  12  22  41  61  94 136 173 224 283 346 418
#     4  10  19  39  67  93 122 162 234 288 333 408
#
# _framework density 22.811
#
# number of rings (size 3 to 8) (size 9 to 14) (size 15 to 20)
#    0.000    0.875    3.750    5.250    0.000    1.250 
#    0.000    5.000    0.000    0.000    0.000    0.875 
#    0.000    0.000    0.000    0.000    0.000    0.000 
#
# Total GULP energy -356870.103907 kJ/mol
# GULP energy per Si atom -5576.095374 kJ/mol
# Density = 2.275908 g / cm^3
# Si number density = 22.811000 Si / 1000 Ang^3
#
#
#
# Elastic Constant Matrix: (Units=GPa)
#
#
# Indices 1 2 3 4 5 6 
#
# 1 63.6372 25.4208 30.8229 0.0000 0.0000 0.0000
# 2 25.4208 110.4760 37.7694 0.0000 0.0000 0.0000
# 3 30.8229 37.7694 149.6191 0.0000 0.0000 0.0000
# 4 0.0000 0.0000 0.0000 32.4165 0.0000 0.0000
# 5 0.0000 0.0000 0.0000 0.0000 -6.9065 0.0000
# 6 0.0000 0.0000 0.0000 0.0000 0.0000 33.3069
#
#
#
# Elastic Compliance Matrix: (Units=1/GPa)
#
#
# Indices 1 2 3 4 5 6 
#
# 1 0.018449 -0.003224 -0.002987 0.000000 0.000000 0.000000
# 2 -0.003224 0.010470 -0.001979 0.000000 0.000000 0.000000
# 3 -0.002987 -0.001979 0.007798 0.000000 0.000000 0.000000
# 4 0.000000 0.000000 0.000000 0.030848 0.000000 0.000000
# 5 0.000000 0.000000 0.000000 0.000000 -0.144791 0.000000
# 6 0.000000 0.000000 0.000000 0.000000 0.000000 0.030024
#
#
# Mechanical properties :
#
#
# Convention : Reuss Voigt Hill
#
# Bulk Modulus (GPa) = 49.16899 56.86205 53.01552
# Shear Modulus (GPa) = -207.96134 27.07800 -90.44167
#
# Velocity S-wave (km/s) = -9.55851 3.44911 -6.30352
# Velocity P-wave (km/s) = 10.01091 6.39088 5.44862
#
# Compressibility (1/GPa) = 0.02033802
#
# Stress axis : x y z
#
# Youngs Moduli (GPa) = 54.20477 95.50988 128.23026
#
# Poissons Ratio (x) = 0.30792 0.38299
# Poissons Ratio (y) = 0.17475 0.25375
# Poissons Ratio (z) = 0.16189 0.18900
#
# Static dielectric constant tensor:
#      x y z
#    x 1.963650 0.000000 0.000000 
#    y 0.000000 1.769100 0.000000 
#    z 0.000000 0.000000 1.933840 
# 
# From -- ./inp_files/34711.got.cif
#   From: 2010.05.17/outbox.cif.g08.bks.cpg/sg48_18_cif.got.tgz:34711.got - 2010.06.03 20:39:00.
