data_PCOD9390496
_publ_section_title
;
Structure prediction by ZEFSAII (Michael W. Deem and Ramdas Pophale) SiO2 
 PCOD9390496
Probable space group: P N N N
;
_chemical_formula_sum "Si O2"
_cell_formula_units_Z 52
_cell_length_a 18.009181
_cell_length_b 17.812303
_cell_length_c 8.779040
_cell_angle_alpha 90.000000
_cell_angle_beta 90.000000
_cell_angle_gamma 90.000000
_cell_volume 2816.184248
_symmetry_space_group_name_H-M "P N N N"
_symmetry_group_IT_number 48
_space_group.IT_coordinate_system_code '2'
_symmetry_cell_setting 'orthorhombic'
loop_
_space_group_symop_operation_xyz
x,y,z
1/2-x,1/2-y,z
x,1/2-y,1/2-z
1/2-x,y,1/2-z
-x,-y,-z
1/2+x,1/2+y,-z
-x,1/2+y,1/2+z
1/2+x,-y,1/2+z
loop_
_atom_site_type_symbol
_atom_site_label
_atom_site_fract_x
_atom_site_fract_y
_atom_site_fract_z
Si Si1 0.529655 0.567631 0.330511
Si Si2 0.171994 0.022324 0.838836
Si Si3 0.505689 0.307009 0.888529
Si Si4 0.014529 0.396854 0.161637
Si Si5 0.250000 0.250000 0.250000
Si Si6 0.869076 0.650610 0.579776
Si Si7 0.750000 0.250000 0.250000
Si Si8 0.879011 0.353571 0.366384
O O1 0.614225 0.549864 0.289647
O O2 0.496418 0.611219 0.188526
O O3 0.490517 0.487255 0.338083
O O4 0.524039 0.617589 0.482509
O O5 0.250000 0.018410 0.750000
O O6 0.146199 0.939714 0.895455
O O7 0.162338 0.081749 0.977332
O O8 0.513233 0.250000 0.750000
O O9 0.427045 0.301842 0.976343
O O10 0.573102 0.311535 0.005429
O O11 0.080305 0.374229 0.275703
O O12 0.937905 0.361919 0.226176
O O13 0.197744 0.300723 0.355803
O O14 0.806068 0.304950 0.337797
#
# Coordination Sequence:
#
# PCOD9390496 Si02
#       8
#     8   8   8   8   2   8   2   8
#     4   9  19  35  62  92 113 148 211 252 291 360
#     4  10  20  39  62  88 122 166 200 249 307 373
#     4  10  22  38  63  86 118 159 205 255 303 357
#     4   9  19  38  65  87 115 155 206 253 291 359
#     4  12  28  38  58  92 132 160 202 252 312 366
#     4  10  24  39  60  86 121 162 204 252 301 364
#     4  12  24  38  62  96 124 160 190 252 316 390
#     4  10  22  40  63  88 123 160 203 246 313 367
#
# _framework density 18.464700000000001
#
# number of rings (size 3 to 8) (size 9 to 14) (size 15 to 20)
#    0.000    2.154    0.769    0.923    6.462    6.154 
#    0.000    0.385    3.385    0.000    0.000    0.000 
#    0.000    0.000    0.000    0.000    0.000    0.000 
#
# Total GULP energy -289891.435412 kJ/mol
# GULP energy per Si atom -5574.835296 kJ/mol
# Density = 1.842267 g / cm^3
# Si number density = 18.464700 Si / 1000 Ang^3
#
#
#
# Elastic Constant Matrix: (Units=GPa)
#
#
# Indices 1 2 3 4 5 6 
#
# 1 135.2566 67.1245 67.3477 0.0000 0.0000 0.0000
# 2 67.1245 90.7055 48.1657 0.0000 0.0000 0.0000
# 3 67.3477 48.1657 104.3301 0.0000 0.0000 0.0000
# 4 0.0000 0.0000 0.0000 32.8070 0.0000 0.0000
# 5 0.0000 0.0000 0.0000 0.0000 15.8183 0.0000
# 6 0.0000 0.0000 0.0000 0.0000 0.0000 19.1761
#
#
#
# Elastic Compliance Matrix: (Units=1/GPa)
#
#
# Indices 1 2 3 4 5 6 
#
# 1 0.013733 -0.007227 -0.005528 0.000000 0.000000 0.000000
# 2 -0.007227 0.018408 -0.003833 0.000000 0.000000 0.000000
# 3 -0.005528 -0.003833 0.014923 0.000000 0.000000 0.000000
# 4 0.000000 0.000000 0.000000 0.030481 0.000000 0.000000
# 5 0.000000 0.000000 0.000000 0.000000 0.063218 0.000000
# 6 0.000000 0.000000 0.000000 0.000000 0.000000 0.052148
#
#
# Mechanical properties :
#
#
# Convention : Reuss Voigt Hill
#
# Bulk Modulus (GPa) = 72.00905 77.28531 74.64718
# Shear Modulus (GPa) = 21.67148 23.40389 22.53769
#
# Velocity S-wave (km/s) = 3.42960 3.56405 3.49747
# Velocity P-wave (km/s) = 7.40039 7.67354 7.53820
#
# Compressibility (1/GPa) = 0.01388714
#
# Stress axis : x y z
#
# Youngs Moduli (GPa) = 72.81967 54.32327 67.00898
#
# Poissons Ratio (x) = 0.39259 0.37045
# Poissons Ratio (y) = 0.52626 0.25687
# Poissons Ratio (z) = 0.40257 0.20824
#
# Static dielectric constant tensor:
#      x y z
#    x 1.617470 0.000000 0.000000 
#    y 0.000000 1.664960 0.000000 
#    z 0.000000 0.000000 1.651320 
# 
# From -- ./inp_files/14417.got.cif
#   From: 2010.05.17/outbox.cif.g08.bks.cpg/sg48_8_cif.got.tgz:14417.got - 2010.06.03 20:39:00.
