data_PCOD9390218
_publ_section_title
;
Structure prediction by ZEFSAII (Michael W. Deem and Ramdas Pophale) SiO2 
 PCOD9390218
Probable space group: P N N N
;
_chemical_formula_sum "Si O2"
_cell_formula_units_Z 64
_cell_length_a 12.855272
_cell_length_b 12.699791
_cell_length_c 18.455452
_cell_angle_alpha 90.000000
_cell_angle_beta 90.000000
_cell_angle_gamma 90.000000
_cell_volume 3013.023578
_symmetry_space_group_name_H-M "P N N N"
_symmetry_group_IT_number 48
_space_group.IT_coordinate_system_code '2'
_symmetry_cell_setting 'orthorhombic'
loop_
_space_group_symop_operation_xyz
x,y,z
1/2-x,1/2-y,z
x,1/2-y,1/2-z
1/2-x,y,1/2-z
-x,-y,-z
1/2+x,1/2+y,-z
-x,1/2+y,1/2+z
1/2+x,-y,1/2+z
loop_
_atom_site_type_symbol
_atom_site_label
_atom_site_fract_x
_atom_site_fract_y
_atom_site_fract_z
Si Si1 0.131908 0.291896 0.545121
Si Si2 0.403155 0.442217 0.534200
Si Si3 0.679942 0.512923 0.960354
Si Si4 0.306597 0.642547 0.173048
Si Si5 0.132588 0.636152 0.880867
Si Si6 0.122704 0.645550 0.581501
Si Si7 0.549977 0.655489 0.199902
Si Si8 0.875611 0.435624 0.264064
O O1 0.250000 0.250000 0.548321
O O2 0.073734 0.180344 0.542977
O O3 0.123894 0.374967 0.478532
O O4 0.104247 0.347622 0.620898
O O5 0.500000 0.500000 0.500000
O O6 0.297251 0.463885 0.489089
O O7 0.388585 0.513796 0.604683
O O8 0.692390 0.455443 0.883109
O O9 0.620411 0.427910 0.011414
O O10 0.250000 0.750000 0.144133
O O11 0.250000 0.618929 0.250000
O O12 0.427151 0.668271 0.186939
O O13 0.086638 0.733732 0.926127
O O14 0.254378 0.645857 0.897944
O O15 0.099444 0.648585 0.798030
O O16 0.082743 0.599283 0.657046
O O17 0.589493 0.750000 0.250000
O O18 0.573607 0.549244 0.242286
O O19 0.750000 0.447461 0.250000
#
# Coordination Sequence:
#
# PCOD9390218 Si02
#       8
#     8   8   8   8   8   8   8   8
#     4  10  23  42  62 101 139 168 219 272 352 415
#     4  10  22  37  60  95 125 168 224 266 328 409
#     4  10  22  41  68  89 130 172 215 287 339 401
#     4  11  26  48  66  93 126 169 235 292 340 388
#     4   9  18  31  54  85 126 172 206 253 310 383
#     4   9  17  34  55  90 122 165 211 245 324 394
#     4  12  24  38  64  94 131 175 221 273 336 411
#     4  10  20  34  55  89 134 168 204 258 327 411
#
# _framework density 21.241121
#
# number of rings (size 3 to 8) (size 9 to 14) (size 15 to 20)
#    0.000    1.875    2.500    1.125    8.750    3.000 
#    2.250    0.000    0.000    3.375    0.000    0.000 
#    0.000    0.000    0.000    0.000    0.000    0.000 
#
# Total GULP energy -356365.838118 kJ/mol
# GULP energy per Si atom -5568.216221 kJ/mol
# Density = 2.119278 g / cm^3
# Si number density = 21.241121 Si / 1000 Ang^3
#
#
#
# Elastic Constant Matrix: (Units=GPa)
#
#
# Indices 1 2 3 4 5 6 
#
# 1 29.2047 12.3491 4.2932 0.0000 0.0000 0.0000
# 2 12.3491 156.4245 50.8552 0.0000 0.0000 0.0000
# 3 4.2932 50.8552 88.6679 0.0000 0.0000 0.0000
# 4 0.0000 0.0000 0.0000 34.4829 0.0000 0.0000
# 5 0.0000 0.0000 0.0000 0.0000 153.2830 0.0000
# 6 0.0000 0.0000 0.0000 0.0000 0.0000 17.2346
#
#
#
# Elastic Compliance Matrix: (Units=1/GPa)
#
#
# Indices 1 2 3 4 5 6 
#
# 1 0.035425 -0.002752 -0.000137 0.000000 0.000000 0.000000
# 2 -0.002752 0.008072 -0.004496 0.000000 0.000000 0.000000
# 3 -0.000137 -0.004496 0.013864 0.000000 0.000000 0.000000
# 4 0.000000 0.000000 0.000000 0.029000 0.000000 0.000000
# 5 0.000000 0.000000 0.000000 0.000000 0.006524 0.000000
# 6 0.000000 0.000000 0.000000 0.000000 0.000000 0.058023
#
#
# Mechanical properties :
#
#
# Convention : Reuss Voigt Hill
#
# Bulk Modulus (GPa) = 23.47979 45.47692 34.47835
# Shear Modulus (GPa) = 27.79720 54.78674 41.29197
#
# Velocity S-wave (km/s) = 3.62145 5.08417 4.41382
# Velocity P-wave (km/s) = 5.34457 7.47806 6.49945
#
# Compressibility (1/GPa) = 0.04258983
#
# Stress axis : x y z
#
# Youngs Moduli (GPa) = 28.22867 123.88571 72.13164
#
# Poissons Ratio (x) = 0.34096 0.00986
# Poissons Ratio (y) = 0.07769 0.32433
# Poissons Ratio (z) = 0.00386 0.55704
#
# Static dielectric constant tensor:
#      x y z
#    x 1.772520 0.000000 0.000000 
#    y 0.000000 1.939760 0.000000 
#    z 0.000000 0.000000 0.017410 
# 
# From -- ./inp_files/31704.got.cif
#   From: 2010.05.17/outbox.cif.g08.bks.cpg/sg48_16_cif.got.tgz:31704.got - 2010.06.03 20:39:00.
