data_PCOD9390795
_publ_section_title
;
Structure prediction by ZEFSAII (Michael W. Deem and Ramdas Pophale) SiO2 
 PCOD9390795
Probable space group: P N N N
;
_chemical_formula_sum "Si O2"
_cell_formula_units_Z 36
_cell_length_a 14.641210
_cell_length_b 19.098822
_cell_length_c 5.814008
_cell_angle_alpha 90.000000
_cell_angle_beta 90.000000
_cell_angle_gamma 90.000000
_cell_volume 1625.770264
_symmetry_space_group_name_H-M "P N N N"
_symmetry_group_IT_number 48
_space_group.IT_coordinate_system_code '2'
_symmetry_cell_setting 'orthorhombic'
loop_
_space_group_symop_operation_xyz
x,y,z
1/2-x,1/2-y,z
x,1/2-y,1/2-z
1/2-x,y,1/2-z
-x,-y,-z
1/2+x,1/2+y,-z
-x,1/2+y,1/2+z
1/2+x,-y,1/2+z
loop_
_atom_site_type_symbol
_atom_site_label
_atom_site_fract_x
_atom_site_fract_y
_atom_site_fract_z
Si Si1 0.784637 0.331519 0.502613
Si Si2 0.010230 0.679482 0.616091
Si Si3 0.570949 0.940608 0.949765
Si Si4 0.750000 0.944943 0.750000
Si Si5 0.841582 0.850007 0.144248
O O1 0.750000 0.250000 0.501431
O O2 0.750000 0.359588 0.250000
O O3 0.894677 0.338707 0.506372
O O4 0.750000 0.360237 0.750000
O O5 0.032505 0.750000 0.750000
O O6 0.921522 0.696650 0.461419
O O7 0.975578 0.615974 0.778114
O O8 0.606412 0.898200 0.170919
O O9 0.661714 0.979906 0.856450
O O10 0.500000 0.000000 0.000000
O O11 0.702677 0.896807 0.557130
O O12 0.750000 0.818687 0.250000
#
# Coordination Sequence:
#
# PCOD9390795 Si02
#       5
#     8   8   8   4   8
#     4  10  21  39  64  91 143 182 225 285 356 419
#     4  11  23  40  66  99 135 180 226 289 360 427
#     4  10  22  41  67  92 128 174 232 283 348 421
#     4   8  18  40  63  88 128 163 212 284 336 410
#     4   9  20  41  67  91 130 172 217 283 343 417
#
# _framework density 22.143352
#
# number of rings (size 3 to 8) (size 9 to 14) (size 15 to 20)
#    0.000    2.222    2.222    0.000    3.111    4.444 
#    0.000   31.111    4.889    0.000    0.000    0.000 
#    0.000    0.000    0.000    0.000    0.000    0.000 
#
# Total GULP energy -200638.858338 kJ/mol
# GULP energy per Si atom -5573.301621 kJ/mol
# Density = 2.209295 g / cm^3
# Si number density = 22.143352 Si / 1000 Ang^3
#
#
#
# Elastic Constant Matrix: (Units=GPa)
#
#
# Indices 1 2 3 4 5 6 
#
# 1 214.3142 32.5332 73.3058 0.0000 0.0000 0.0000
# 2 32.5332 63.9755 23.2309 0.0000 0.0000 0.0000
# 3 73.3058 23.2309 126.4592 0.0000 0.0000 0.0000
# 4 0.0000 0.0000 0.0000 -23.1153 0.0000 0.0000
# 5 0.0000 0.0000 0.0000 0.0000 55.2113 0.0000
# 6 0.0000 0.0000 0.0000 0.0000 0.0000 62.0188
#
#
#
# Elastic Compliance Matrix: (Units=1/GPa)
#
#
# Indices 1 2 3 4 5 6 
#
# 1 0.006034 -0.001927 -0.003144 0.000000 0.000000 0.000000
# 2 -0.001927 0.017363 -0.002073 0.000000 0.000000 0.000000
# 3 -0.003144 -0.002073 0.010111 0.000000 0.000000 0.000000
# 4 0.000000 0.000000 0.000000 -0.043261 0.000000 0.000000
# 5 0.000000 0.000000 0.000000 0.000000 0.018112 0.000000
# 6 0.000000 0.000000 0.000000 0.000000 0.000000 0.016124
#
#
# Mechanical properties :
#
#
# Convention : Reuss Voigt Hill
#
# Bulk Modulus (GPa) = 52.02509 73.65429 62.83969
# Shear Modulus (GPa) = 110.67605 37.20157 73.93881
#
# Velocity S-wave (km/s) = 7.07744 4.10327 5.78476
# Velocity P-wave (km/s) = 9.50434 7.46885 8.54741
#
# Compressibility (1/GPa) = 0.01922150
#
# Stress axis : x y z
#
# Youngs Moduli (GPa) = 165.73176 57.59214 98.90396
#
# Poissons Ratio (x) = 0.11097 0.31093
# Poissons Ratio (y) = 0.31933 0.20501
# Poissons Ratio (z) = 0.52102 0.11938
#
# Static dielectric constant tensor:
#      x y z
#    x 1.744150 0.000000 0.000000 
#    y 0.000000 1.794410 0.000000 
#    z 0.000000 0.000000 1.793250 
# 
# From -- ./inp_files/2235.got.cif
#   From: 2010.05.17/outbox.cif.g08.bks.cpg/sg48_2_cif.got.tgz:2235.got - 2010.06.03 20:39:00.
