data_PCOD9390527
_publ_section_title
;
Structure prediction by ZEFSAII (Michael W. Deem and Ramdas Pophale) SiO2 
 PCOD9390527
Probable space group: P N N N
;
_chemical_formula_sum "Si O2"
_cell_formula_units_Z 54
_cell_length_a 5.379453
_cell_length_b 26.438784
_cell_length_c 20.356189
_cell_angle_alpha 90.000000
_cell_angle_beta 90.000000
_cell_angle_gamma 90.000000
_cell_volume 2895.183325
_symmetry_space_group_name_H-M "P N N N"
_symmetry_group_IT_number 48
_space_group.IT_coordinate_system_code '2'
_symmetry_cell_setting 'orthorhombic'
loop_
_space_group_symop_operation_xyz
x,y,z
1/2-x,1/2-y,z
x,1/2-y,1/2-z
1/2-x,y,1/2-z
-x,-y,-z
1/2+x,1/2+y,-z
-x,1/2+y,1/2+z
1/2+x,-y,1/2+z
loop_
_atom_site_type_symbol
_atom_site_label
_atom_site_fract_x
_atom_site_fract_y
_atom_site_fract_z
Si Si1 0.925602 0.297762 0.640319
Si Si2 0.750000 0.750000 0.250000
Si Si3 0.030472 0.956510 0.556495
Si Si4 0.860630 0.007233 0.686382
Si Si5 0.510830 0.718531 0.992727
Si Si6 0.051553 0.596685 0.370712
Si Si7 0.250000 0.082618 0.750000
Si Si8 0.534552 0.897228 0.523219
O O1 0.750000 0.250000 0.639830
O O2 0.785569 0.352072 0.637732
O O3 0.090061 0.286066 0.703365
O O4 0.061421 0.293634 0.570066
O O5 0.794077 0.919184 0.549333
O O6 0.989731 0.021656 0.369750
O O7 0.293412 0.928692 0.546471
O O8 0.000000 0.000000 0.500000
O O9 0.750000 0.977608 0.750000
O O10 0.667920 0.042711 0.646443
O O11 0.031954 0.047530 0.723142
O O12 0.750000 0.750000 0.968516
O O13 0.496420 0.662325 0.962047
O O14 0.250000 0.750000 0.987015
O O15 0.956766 0.595213 0.444399
O O16 0.846170 0.608560 0.315729
#
# Coordination Sequence:
#
# PCOD9390527 Si02
#       8
#     8   2   8   8   8   8   4   8
#     4  10  22  33  47  67 102 137 195 250 298 334
#     4  12  20  32  44  70  88 148 186 260 294 332
#     4  12  23  39  60  91 122 157 203 252 294 355
#     4  10  23  37  57  79 115 157 192 240 296 354
#     4  10  20  40  59  82 114 150 186 241 303 353
#     4  10  21  37  52  77 103 153 201 247 298 351
#     4  10  21  36  54  75 104 156 201 242 289 358
#     4  11  24  37  64  89 118 155 202 249 301 356
#
# _framework density 18.651669999999999
#
# number of rings (size 3 to 8) (size 9 to 14) (size 15 to 20)
#    0.000    1.481    2.222    2.889    4.148    4.741 
#    0.000    0.000    0.000    0.000    0.000    0.000 
#    0.000    8.889    0.000    0.000    0.000    0.000 
#
# Total GULP energy -300829.577955 kJ/mol
# GULP energy per Si atom -5570.918110 kJ/mol
# Density = 1.860922 g / cm^3
# Si number density = 18.651670 Si / 1000 Ang^3
#
#
#
# Elastic Constant Matrix: (Units=GPa)
#
#
# Indices 1 2 3 4 5 6 
#
# 1 59.3187 19.6803 5.5267 0.0000 0.0000 0.0000
# 2 19.6803 74.2271 18.2566 0.0000 0.0000 0.0000
# 3 5.5267 18.2566 67.9934 0.0000 0.0000 0.0000
# 4 0.0000 0.0000 0.0000 2.0440 0.0000 0.0000
# 5 0.0000 0.0000 0.0000 0.0000 19.5832 0.0000
# 6 0.0000 0.0000 0.0000 0.0000 0.0000 28.0510
#
#
#
# Elastic Compliance Matrix: (Units=1/GPa)
#
#
# Indices 1 2 3 4 5 6 
#
# 1 0.018487 -0.004852 -0.000200 0.000000 0.000000 0.000000
# 2 -0.004852 0.015698 -0.003821 0.000000 0.000000 0.000000
# 3 -0.000200 -0.003821 0.015749 0.000000 0.000000 0.000000
# 4 0.000000 0.000000 0.000000 0.489230 0.000000 0.000000
# 5 0.000000 0.000000 0.000000 0.000000 0.051064 0.000000
# 6 0.000000 0.000000 0.000000 0.000000 0.000000 0.035649
#
#
# Mechanical properties :
#
#
# Convention : Reuss Voigt Hill
#
# Bulk Modulus (GPa) = 31.06668 32.05182 31.55925
# Shear Modulus (GPa) = 7.64114 20.47401 14.05757
#
# Velocity S-wave (km/s) = 2.02624 3.31676 2.74832
# Velocity P-wave (km/s) = 4.70814 5.64708 5.19885
#
# Compressibility (1/GPa) = 0.03218883
#
# Stress axis : x y z
#
# Youngs Moduli (GPa) = 54.09329 63.70065 63.49441
#
# Poissons Ratio (x) = 0.30910 0.01268
# Poissons Ratio (y) = 0.26248 0.24259
# Poissons Ratio (z) = 0.01081 0.24338
#
# Static dielectric constant tensor:
#      x y z
#    x 1.826030 0.000000 0.000000 
#    y 0.000000 1.719700 0.000000 
#    z 0.000000 0.000000 1.583460 
# 
# From -- ./inp_files/35434.got.cif
#   From: 2010.05.17/outbox.cif.g08.bks.cpg/sg48_18_cif.got.tgz:35434.got - 2010.06.03 20:39:00.
