data_PCOD9390656
_publ_section_title
;
Structure prediction by ZEFSAII (Michael W. Deem and Ramdas Pophale) SiO2 
 PCOD9390656
Probable space group: P N N N
;
_chemical_formula_sum "Si O2"
_cell_formula_units_Z 48
_cell_length_a 20.050343
_cell_length_b 8.937989
_cell_length_c 13.672067
_cell_angle_alpha 90.000000
_cell_angle_beta 90.000000
_cell_angle_gamma 90.000000
_cell_volume 2450.167643
_symmetry_space_group_name_H-M "P N N N"
_symmetry_group_IT_number 48
_space_group.IT_coordinate_system_code '2'
_symmetry_cell_setting 'orthorhombic'
loop_
_space_group_symop_operation_xyz
x,y,z
1/2-x,1/2-y,z
x,1/2-y,1/2-z
1/2-x,y,1/2-z
-x,-y,-z
1/2+x,1/2+y,-z
-x,1/2+y,1/2+z
1/2+x,-y,1/2+z
loop_
_atom_site_type_symbol
_atom_site_label
_atom_site_fract_x
_atom_site_fract_y
_atom_site_fract_z
Si Si1 0.198860 0.983082 0.339490
Si Si2 0.890061 0.250000 0.750000
Si Si3 0.964847 0.505641 0.640679
Si Si4 0.247857 0.428919 0.552857
Si Si5 0.887960 0.750000 0.750000
Si Si6 0.602308 0.431460 0.066046
Si Si7 0.819161 0.318372 0.140519
O O1 0.250000 0.967363 0.250000
O O2 0.232850 0.013695 0.443527
O O3 0.156007 0.129078 0.308764
O O4 0.155658 0.830755 0.332286
O O5 0.936550 0.380501 0.711530
O O6 0.933763 0.661804 0.674204
O O7 0.931691 0.463167 0.537446
O O8 0.044430 0.516975 0.639538
O O9 0.250000 0.250000 0.555888
O O10 0.172267 0.481599 0.576002
O O11 0.302119 0.507590 0.625692
O O12 0.620564 0.257000 0.082391
O O13 0.750000 0.250000 0.099326
O O14 0.824887 0.250000 0.250000
#
# Coordination Sequence:
#
# PCOD9390656 Si02
#       7
#     8   4   8   8   4   8   8
#     4  11  20  33  59  94 128 157 191 246 311 370
#     4  10  21  36  56  90 123 158 200 240 292 364
#     4  10  21  38  57  84 116 161 199 240 292 367
#     4  11  21  37  61  92 122 153 196 266 314 354
#     4  10  21  36  58  86 123 156 192 236 304 378
#     4  10  21  38  59  81 118 158 199 241 300 369
#     4   9  20  39  59  82 111 153 203 249 300 361
#
# _framework density 19.590496000000002
#
# number of rings (size 3 to 8) (size 9 to 14) (size 15 to 20)
#    0.000    1.833    0.000    5.500    1.167    2.667 
#    3.000    5.833    0.000    8.000    0.000    0.000 
#    0.000    0.000    0.000    0.000    0.000    0.000 
#
# Total GULP energy -267659.282340 kJ/mol
# GULP energy per Si atom -5576.235049 kJ/mol
# Density = 1.954591 g / cm^3
# Si number density = 19.590496 Si / 1000 Ang^3
#
#
#
# Elastic Constant Matrix: (Units=GPa)
#
#
# Indices 1 2 3 4 5 6 
#
# 1 130.7481 55.4224 37.0760 0.0000 0.0000 0.0000
# 2 55.4224 103.5076 26.9999 0.0000 0.0000 0.0000
# 3 37.0760 26.9999 69.0208 0.0000 0.0000 0.0000
# 4 0.0000 0.0000 0.0000 15.3341 0.0000 0.0000
# 5 0.0000 0.0000 0.0000 0.0000 32.5852 0.0000
# 6 0.0000 0.0000 0.0000 0.0000 0.0000 34.8250
#
#
#
# Elastic Compliance Matrix: (Units=1/GPa)
#
#
# Indices 1 2 3 4 5 6 
#
# 1 0.010774 -0.004743 -0.003932 0.000000 0.000000 0.000000
# 2 -0.004743 0.012847 -0.002478 0.000000 0.000000 0.000000
# 3 -0.003932 -0.002478 0.017570 0.000000 0.000000 0.000000
# 4 0.000000 0.000000 0.000000 0.065214 0.000000 0.000000
# 5 0.000000 0.000000 0.000000 0.000000 0.030689 0.000000
# 6 0.000000 0.000000 0.000000 0.000000 0.000000 0.028715
#
#
# Mechanical properties :
#
#
# Convention : Reuss Voigt Hill
#
# Bulk Modulus (GPa) = 52.95177 60.25255 56.60216
# Shear Modulus (GPa) = 25.71895 28.80074 27.25985
#
# Velocity S-wave (km/s) = 3.62723 3.83840 3.73431
# Velocity P-wave (km/s) = 6.68060 7.10403 6.89556
#
# Compressibility (1/GPa) = 0.01888511
#
# Stress axis : x y z
#
# Youngs Moduli (GPa) = 92.81761 77.83851 56.91591
#
# Poissons Ratio (x) = 0.36920 0.22379
# Poissons Ratio (y) = 0.44024 0.14102
# Poissons Ratio (z) = 0.36495 0.19286
#
# Static dielectric constant tensor:
#      x y z
#    x 1.695340 0.000000 0.000000 
#    y 0.000000 1.744610 0.000000 
#    z 0.000000 0.000000 1.723210 
# 
# From -- ./inp_files/27928.got.cif
#   From: 2010.05.17/outbox.cif.g08.bks.cpg/sg48_14_cif.got.tgz:27928.got - 2010.06.03 20:39:00.
