data_PCOD9390429
_publ_section_title
;
Structure prediction by ZEFSAII (Michael W. Deem and Ramdas Pophale) SiO2 
 PCOD9390429
Probable space group: P N N N
;
_chemical_formula_sum "Si O2"
_cell_formula_units_Z 56
_cell_length_a 6.205862
_cell_length_b 13.324018
_cell_length_c 32.619235
_cell_angle_alpha 90.000000
_cell_angle_beta 90.000000
_cell_angle_gamma 90.000000
_cell_volume 2697.187239
_symmetry_space_group_name_H-M "P N N N"
_symmetry_group_IT_number 48
_space_group.IT_coordinate_system_code '2'
_symmetry_cell_setting 'orthorhombic'
loop_
_space_group_symop_operation_xyz
x,y,z
1/2-x,1/2-y,z
x,1/2-y,1/2-z
1/2-x,y,1/2-z
-x,-y,-z
1/2+x,1/2+y,-z
-x,1/2+y,1/2+z
1/2+x,-y,1/2+z
loop_
_atom_site_type_symbol
_atom_site_label
_atom_site_fract_x
_atom_site_fract_y
_atom_site_fract_z
Si Si1 0.324861 0.135913 0.150703
Si Si2 0.041662 0.472007 0.653677
Si Si3 0.384165 0.849377 0.926060
Si Si4 0.569188 0.965773 0.438426
Si Si5 0.692091 0.571677 0.514975
Si Si6 0.686209 0.363657 0.297146
Si Si7 0.997400 0.365685 0.736182
O O1 0.250000 0.250000 0.145149
O O2 0.502612 0.121205 0.115982
O O3 0.432627 0.128214 0.195252
O O4 0.152106 0.049815 0.146083
O O5 0.085591 0.428174 0.608316
O O6 0.207946 0.548179 0.676133
O O7 0.996727 0.387863 0.687622
O O8 0.250000 0.750000 0.920866
O O9 0.216294 0.934896 0.937900
O O10 0.572086 0.842154 0.959770
O O11 0.338571 0.005653 0.454072
O O12 0.666495 0.899329 0.475391
O O13 0.500000 0.500000 0.500000
O O14 0.750000 0.250000 0.310977
O O15 0.750000 0.371693 0.250000
O O16 0.994423 0.250000 0.750000
O O17 0.250000 0.399189 0.750000
O O18 0.750000 0.404495 0.750000
#
# Coordination Sequence:
#
# PCOD9390429 Si02
#       7
#     8   8   8   8   8   8   8
#     4  12  23  37  56  94 136 178 220 265 323 415
#     4  12  23  37  68  95 125 178 230 276 350 422
#     4  11  21  34  60  91 128 174 216 265 325 410
#     4  10  20  38  59  91 122 164 216 272 330 402
#     4   9  20  37  57  85 123 161 214 269 326 396
#     4  11  24  40  53  85 139 178 214 265 324 405
#     4  10  25  49  74 102 130 169 239 309 365 417
#
# _framework density 20.762369
#
# number of rings (size 3 to 8) (size 9 to 14) (size 15 to 20)
#    0.000    1.286    4.286    1.714    4.000    0.000 
#    0.000    0.000    0.000   10.286    0.000    0.000 
#    0.000    0.000    0.000    0.000    0.000    0.000 
#
# Total GULP energy -311842.566436 kJ/mol
# GULP energy per Si atom -5568.617258 kJ/mol
# Density = 2.071511 g / cm^3
# Si number density = 20.762369 Si / 1000 Ang^3
#
#
#
# Elastic Constant Matrix: (Units=GPa)
#
#
# Indices 1 2 3 4 5 6 
#
# 1 95.4081 7.1162 30.4869 0.0000 0.0000 0.0000
# 2 7.1162 48.5289 20.2597 0.0000 0.0000 0.0000
# 3 30.4869 20.2597 149.4762 0.0000 0.0000 0.0000
# 4 0.0000 0.0000 0.0000 16.1564 0.0000 0.0000
# 5 0.0000 0.0000 0.0000 0.0000 16.6304 0.0000
# 6 0.0000 0.0000 0.0000 0.0000 0.0000 1044.4337
#
#
#
# Elastic Compliance Matrix: (Units=1/GPa)
#
#
# Indices 1 2 3 4 5 6 
#
# 1 0.011237 -0.000732 -0.002193 0.000000 0.000000 0.000000
# 2 -0.000732 0.021890 -0.002818 0.000000 0.000000 0.000000
# 3 -0.002193 -0.002818 0.007519 0.000000 0.000000 0.000000
# 4 0.000000 0.000000 0.000000 0.061895 0.000000 0.000000
# 5 0.000000 0.000000 0.000000 0.000000 0.060131 0.000000
# 6 0.000000 0.000000 0.000000 0.000000 0.000000 0.000957
#
#
# Mechanical properties :
#
#
# Convention : Reuss Voigt Hill
#
# Bulk Modulus (GPa) = 34.29279 45.45987 39.87633
# Shear Modulus (GPa) = 27.05133 231.14748 129.09940
#
# Velocity S-wave (km/s) = 3.61349 10.56275 7.89395
# Velocity P-wave (km/s) = 5.82773 13.06542 10.11601
#
# Compressibility (1/GPa) = 0.02916065
#
# Stress axis : x y z
#
# Youngs Moduli (GPa) = 88.99553 45.68316 132.99481
#
# Poissons Ratio (x) = 0.03346 0.29159
# Poissons Ratio (y) = 0.06518 0.37472
# Poissons Ratio (z) = 0.19512 0.12871
#
# Static dielectric constant tensor:
#      x y z
#    x 1.831170 0.000000 0.000000 
#    y 0.000000 1.770820 0.000000 
#    z 0.000000 0.000000 0.470370 
# 
# From -- ./inp_files/38346.got.cif
#   From: 2010.05.17/outbox.cif.g08.bks.cpg/sg48_20_cif.got.tgz:38346.got - 2010.06.03 20:39:00.
