data_PCOD9390185
_publ_section_title
;
Structure prediction by ZEFSAII (Michael W. Deem and Ramdas Pophale) SiO2 
 PCOD9390185
Probable space group: P N N N
;
_chemical_formula_sum "Si O2"
_cell_formula_units_Z 64
_cell_length_a 13.059501
_cell_length_b 10.371341
_cell_length_c 26.674249
_cell_angle_alpha 90.000000
_cell_angle_beta 90.000000
_cell_angle_gamma 90.000000
_cell_volume 3612.881337
_symmetry_space_group_name_H-M "P N N N"
_symmetry_group_IT_number 48
_space_group.IT_coordinate_system_code '2'
_symmetry_cell_setting 'orthorhombic'
loop_
_space_group_symop_operation_xyz
x,y,z
1/2-x,1/2-y,z
x,1/2-y,1/2-z
1/2-x,y,1/2-z
-x,-y,-z
1/2+x,1/2+y,-z
-x,1/2+y,1/2+z
1/2+x,-y,1/2+z
loop_
_atom_site_type_symbol
_atom_site_label
_atom_site_fract_x
_atom_site_fract_y
_atom_site_fract_z
Si Si1 0.008885 0.015772 0.695907
Si Si2 0.371262 0.237677 0.661194
Si Si3 0.369699 0.254939 0.041700
Si Si4 0.492614 0.512792 0.811644
Si Si5 0.372933 0.508524 0.398987
Si Si6 0.504645 0.761913 0.059787
Si Si7 0.634165 0.236720 0.189456
Si Si8 0.132506 0.972602 0.095823
O O1 0.070096 0.149665 0.691301
O O2 0.978643 0.986791 0.753106
O O3 0.914462 0.017802 0.657678
O O4 0.084671 0.901152 0.678435
O O5 0.250000 0.250000 0.665343
O O6 0.409390 0.099839 0.680764
O O7 0.410679 0.251508 0.603958
O O8 0.250000 0.250000 0.026132
O O9 0.387626 0.391557 0.068463
O O10 0.384997 0.135715 0.079652
O O11 0.441777 0.241329 0.993740
O O12 0.439635 0.647332 0.826830
O O13 0.586082 0.482101 0.848345
O O14 0.441667 0.607333 0.430810
O O15 0.254148 0.546839 0.402576
O O16 0.427283 0.642545 0.068287
O O17 0.750000 0.250000 0.170005
O O18 0.639406 0.250000 0.250000
#
# Coordination Sequence:
#
# PCOD9390185 Si02
#       8
#     8   8   8   8   8   8   8   8
#     4  10  20  33  51  76 106 141 177 212 253 302
#     4  10  20  33  51  77 105 134 173 217 261 311
#     4  10  20  36  58  80 102 132 169 213 266 313
#     4  10  20  33  51  76 106 141 177 212 253 302
#     4  10  21  36  55  79 106 138 175 212 254 306
#     4  10  20  36  56  78 105 134 169 215 263 311
#     4   9  17  30  48  70  99 136 174 211 253 298
#     4  10  21  36  55  79 106 138 175 212 254 306
#
# _framework density 17.714393999999999
#
# number of rings (size 3 to 8) (size 9 to 14) (size 15 to 20)
#    0.000    2.125    0.000    3.375    0.000    2.500 
#    0.000    0.000    0.000   19.500    0.000    0.000 
#    0.000    0.000    0.000    0.000    0.000    0.000 
#
# Total GULP energy -357247.463335 kJ/mol
# GULP energy per Si atom -5581.991615 kJ/mol
# Density = 1.767407 g / cm^3
# Si number density = 17.714394 Si / 1000 Ang^3
#
#
#
# Elastic Constant Matrix: (Units=GPa)
#
#
# Indices 1 2 3 4 5 6 
#
# 1 60.7098 -2.6853 36.6786 0.0000 0.0000 0.0000
# 2 -2.6853 56.4650 -11.0870 0.0000 0.0000 0.0000
# 3 36.6786 -11.0870 66.3998 0.0000 0.0000 0.0000
# 4 0.0000 0.0000 0.0000 17.5772 0.0000 0.0000
# 5 0.0000 0.0000 0.0000 0.0000 12.4172 0.0000
# 6 0.0000 0.0000 0.0000 0.0000 0.0000 21.5436
#
#
#
# Elastic Compliance Matrix: (Units=1/GPa)
#
#
# Indices 1 2 3 4 5 6 
#
# 1 0.024856 -0.001565 -0.013991 0.000000 0.000000 0.000000
# 2 -0.001565 0.018409 0.003938 0.000000 0.000000 0.000000
# 3 -0.013991 0.003938 0.023447 0.000000 0.000000 0.000000
# 4 0.000000 0.000000 0.000000 0.056892 0.000000 0.000000
# 5 0.000000 0.000000 0.000000 0.000000 0.080533 0.000000
# 6 0.000000 0.000000 0.000000 0.000000 0.000000 0.046418
#
#
# Mechanical properties :
#
#
# Convention : Reuss Voigt Hill
#
# Bulk Modulus (GPa) = 23.00176 25.48745 24.24461
# Shear Modulus (GPa) = 17.34413 21.01881 19.18147
#
# Velocity S-wave (km/s) = 3.13245 3.44835 3.29419
# Velocity P-wave (km/s) = 5.10842 5.50219 5.30896
#
# Compressibility (1/GPa) = 0.04347494
#
# Stress axis : x y z
#
# Youngs Moduli (GPa) = 40.23234 54.32138 42.65013
#
# Poissons Ratio (x) = 0.08502 0.59673
# Poissons Ratio (y) = 0.06297 -0.16797
# Poissons Ratio (z) = 0.56290 -0.21394
#
# Static dielectric constant tensor:
#      x y z
#    x 1.576890 0.000000 0.000000 
#    y 0.000000 1.599320 0.000000 
#    z 0.000000 0.000000 1.582750 
# 
# From -- ./inp_files/36378.got.cif
#   From: 2010.05.17/outbox.cif.g08.bks.cpg/sg48_19_cif.got.tgz:36378.got - 2010.06.03 20:39:00.
