data_PCOD9390530
_publ_section_title
;
Structure prediction by ZEFSAII (Michael W. Deem and Ramdas Pophale) SiO2 
 PCOD9390530
Probable space group: P N N N
;
_chemical_formula_sum "Si O2"
_cell_formula_units_Z 38
_cell_length_a 11.656605
_cell_length_b 5.131630
_cell_length_c 32.597773
_cell_angle_alpha 90.000000
_cell_angle_beta 90.000000
_cell_angle_gamma 90.000000
_cell_volume 1949.913502
_symmetry_space_group_name_H-M "P N N N"
_symmetry_group_IT_number 48
_space_group.IT_coordinate_system_code '2'
_symmetry_cell_setting 'orthorhombic'
loop_
_space_group_symop_operation_xyz
x,y,z
1/2-x,1/2-y,z
x,1/2-y,1/2-z
1/2-x,y,1/2-z
-x,-y,-z
1/2+x,1/2+y,-z
-x,1/2+y,1/2+z
1/2+x,-y,1/2+z
loop_
_atom_site_type_symbol
_atom_site_label
_atom_site_fract_x
_atom_site_fract_y
_atom_site_fract_z
Si Si1 0.250000 0.750000 0.926034
Si Si2 0.250000 0.750000 0.750000
Si Si3 0.887607 0.759492 0.884193
Si Si4 0.430020 0.250000 0.750000
Si Si5 0.750000 0.750000 0.369117
Si Si6 0.994926 0.239316 0.661283
Si Si7 0.488765 0.750075 0.528648
O O1 0.253440 0.500910 0.897361
O O2 0.362420 0.754908 0.952908
O O3 0.350384 0.513280 0.753300
O O4 0.750000 0.750000 0.881736
O O5 0.942983 0.511754 0.861328
O O6 0.927040 0.756564 0.931974
O O7 0.939258 0.012908 0.861465
O O8 0.512162 0.264378 0.710124
O O9 0.867121 0.758022 0.344339
O O10 0.500000 0.500000 0.500000
O O11 0.500000 0.000000 0.500000
#
# Coordination Sequence:
#
# PCOD9390530 Si02
#       7
#     4   2   8   4   4   8   8
#     4  12  24  43  64 103 134 174 224 275 350 412
#     4  10  20  40  60 114 142 178 212 290 356 396
#     4  12  27  48  68  97 139 185 232 286 345 413
#     4  11  24  40  71 102 150 176 239 277 346 420
#     4  12  20  41  68  96 142 168 216 280 344 427
#     4  12  24  45  69 103 135 187 225 283 350 409
#     4  12  26  44  68  99 131 178 228 286 346 407
#
# _framework density 19.488043000000001
#
# number of rings (size 3 to 8) (size 9 to 14) (size 15 to 20)
#    0.000    0.211    4.211    5.684    2.947    1.684 
#    0.000    3.158    0.000    0.000    0.000    0.000 
#    0.000    0.000    0.000    0.000    0.000    0.000 
#
# Total GULP energy -211987.458896 kJ/mol
# GULP energy per Si atom -5578.617339 kJ/mol
# Density = 1.944369 g / cm^3
# Si number density = 19.488043 Si / 1000 Ang^3
#
#
#
# Elastic Constant Matrix: (Units=GPa)
#
#
# Indices 1 2 3 4 5 6 
#
# 1 141.1363 24.9036 53.1239 0.0000 0.0000 0.0000
# 2 24.9036 162.4843 67.9139 0.0000 0.0000 0.0000
# 3 53.1239 67.9139 178.4259 0.0000 0.0000 0.0000
# 4 0.0000 0.0000 0.0000 12.1841 0.0000 0.0000
# 5 0.0000 0.0000 0.0000 0.0000 16.0606 0.0000
# 6 0.0000 0.0000 0.0000 0.0000 0.0000 34.7266
#
#
#
# Elastic Compliance Matrix: (Units=1/GPa)
#
#
# Indices 1 2 3 4 5 6 
#
# 1 0.007990 -0.000274 -0.002275 0.000000 0.000000 0.000000
# 2 -0.000274 0.007328 -0.002708 0.000000 0.000000 0.000000
# 3 -0.002275 -0.002708 0.007312 0.000000 0.000000 0.000000
# 4 0.000000 0.000000 0.000000 0.082074 0.000000 0.000000
# 5 0.000000 0.000000 0.000000 0.000000 0.062264 0.000000
# 6 0.000000 0.000000 0.000000 0.000000 0.000000 0.028796
#
#
# Mechanical properties :
#
#
# Convention : Reuss Voigt Hill
#
# Bulk Modulus (GPa) = 82.52206 85.99215 84.25710
# Shear Modulus (GPa) = 23.77358 35.00124 29.38741
#
# Velocity S-wave (km/s) = 3.49650 4.24256 3.88747
# Velocity P-wave (km/s) = 7.66405 8.25957 7.96738
#
# Compressibility (1/GPa) = 0.01211797
#
# Stress axis : x y z
#
# Youngs Moduli (GPa) = 125.15884 136.45934 136.75278
#
# Poissons Ratio (x) = 0.03737 0.31106
# Poissons Ratio (y) = 0.03428 0.37030
# Poissons Ratio (z) = 0.28469 0.36950
#
# Static dielectric constant tensor:
#      x y z
#    x 1.638280 0.000000 0.000000 
#    y 0.000000 1.643540 0.000000 
#    z 0.000000 0.000000 1.746710 
# 
# From -- ./inp_files/38910.got.cif
#   From: 2010.05.17/outbox.cif.g08.bks.cpg/sg48_20_cif.got.tgz:38910.got - 2010.06.03 20:39:00.
