data_PCOD9390565
_publ_section_title
;
Structure prediction by ZEFSAII (Michael W. Deem and Ramdas Pophale) SiO2 
 PCOD9390565
Probable space group: P N N N
;
_chemical_formula_sum "Si O2"
_cell_formula_units_Z 52
_cell_length_a 9.008626
_cell_length_b 15.486322
_cell_length_c 19.001469
_cell_angle_alpha 90.000000
_cell_angle_beta 90.000000
_cell_angle_gamma 90.000000
_cell_volume 2650.904118
_symmetry_space_group_name_H-M "P N N N"
_symmetry_group_IT_number 48
_space_group.IT_coordinate_system_code '2'
_symmetry_cell_setting 'orthorhombic'
loop_
_space_group_symop_operation_xyz
x,y,z
1/2-x,1/2-y,z
x,1/2-y,1/2-z
1/2-x,y,1/2-z
-x,-y,-z
1/2+x,1/2+y,-z
-x,1/2+y,1/2+z
1/2+x,-y,1/2+z
loop_
_atom_site_type_symbol
_atom_site_label
_atom_site_fract_x
_atom_site_fract_y
_atom_site_fract_z
Si Si1 0.250000 0.890544 0.750000
Si Si2 0.003624 0.698005 0.844951
Si Si3 0.795013 0.546243 0.825292
Si Si4 0.417943 0.278612 0.507114
Si Si5 0.521993 0.400795 0.144285
Si Si6 0.558096 0.063534 0.939313
Si Si7 0.168937 0.659942 0.506601
O O1 0.344611 0.836964 0.809028
O O2 0.124927 0.940111 0.794642
O O3 0.872514 0.639155 0.814150
O O4 0.976292 0.689954 0.929595
O O5 0.996987 0.800367 0.832933
O O6 0.750000 0.509275 0.750000
O O7 0.639349 0.558890 0.865649
O O8 0.910752 0.489633 0.869094
O O9 0.250000 0.250000 0.499049
O O10 0.444151 0.356827 0.560536
O O11 0.519944 0.197309 0.528536
O O12 0.614716 0.394963 0.072810
O O13 0.714891 0.106788 0.961326
O O14 0.500000 0.000000 0.000000
O O15 0.250000 0.750000 0.528640
#
# Coordination Sequence:
#
# PCOD9390565 Si02
#       7
#     4   8   8   8   8   8   8
#     4  12  21  30  48  76 114 174 207 234 261 350
#     4  11  20  34  53  82 122 165 207 233 288 364
#     4  12  25  38  52  83 128 168 193 244 308 371
#     4  10  20  41  66  89 114 153 209 266 302 362
#     4  11  21  33  54  80 118 161 212 235 281 360
#     4  11  23  39  60  88 126 158 196 256 316 353
#     4   9  20  37  59  84 114 153 203 251 295 356
#
# _framework density 19.615946999999998
#
# number of rings (size 3 to 8) (size 9 to 14) (size 15 to 20)
#    0.000    1.231    3.077    6.462    0.000    1.231 
#    0.000    0.000    0.000    4.154    0.000    1.077 
#    0.000    0.000    0.000    0.000    0.000    0.000 
#
# Total GULP energy -290107.596917 kJ/mol
# GULP energy per Si atom -5578.992248 kJ/mol
# Density = 1.957130 g / cm^3
# Si number density = 19.615947 Si / 1000 Ang^3
#
#
#
# Elastic Constant Matrix: (Units=GPa)
#
#
# Indices 1 2 3 4 5 6 
#
# 1 102.7994 13.6783 8.7094 0.0000 0.0000 0.0000
# 2 13.6783 34.7736 15.4683 0.0000 0.0000 0.0000
# 3 8.7094 15.4683 52.9813 0.0000 0.0000 0.0000
# 4 0.0000 0.0000 0.0000 14.9066 0.0000 0.0000
# 5 0.0000 0.0000 0.0000 0.0000 25.1145 0.0000
# 6 0.0000 0.0000 0.0000 0.0000 0.0000 12.5659
#
#
#
# Elastic Compliance Matrix: (Units=1/GPa)
#
#
# Indices 1 2 3 4 5 6 
#
# 1 0.010281 -0.003784 -0.000585 0.000000 0.000000 0.000000
# 2 -0.003784 0.034442 -0.009434 0.000000 0.000000 0.000000
# 3 -0.000585 -0.009434 0.021725 0.000000 0.000000 0.000000
# 4 0.000000 0.000000 0.000000 0.067084 0.000000 0.000000
# 5 0.000000 0.000000 0.000000 0.000000 0.039818 0.000000
# 6 0.000000 0.000000 0.000000 0.000000 0.000000 0.079581
#
#
# Mechanical properties :
#
#
# Convention : Reuss Voigt Hill
#
# Bulk Modulus (GPa) = 25.74491 29.58516 27.66503
# Shear Modulus (GPa) = 17.03675 20.69729 18.86702
#
# Velocity S-wave (km/s) = 2.95026 3.25179 3.10469
# Velocity P-wave (km/s) = 4.97577 5.40498 5.19481
#
# Compressibility (1/GPa) = 0.03884263
#
# Stress axis : x y z
#
# Youngs Moduli (GPa) = 97.26954 29.03422 46.02985
#
# Poissons Ratio (x) = 0.10985 0.02694
# Poissons Ratio (y) = 0.36803 0.43423
# Poissons Ratio (z) = 0.05694 0.27390
#
# Static dielectric constant tensor:
#      x y z
#    x 1.752500 0.000000 0.000000 
#    y 0.000000 1.703530 0.000000 
#    z 0.000000 0.000000 1.756210 
# 
# From -- ./inp_files/33554.got.cif
#   From: 2010.05.17/outbox.cif.g08.bks.cpg/sg48_17_cif.got.tgz:33554.got - 2010.06.03 20:39:00.
