data_PCOD9390710
_publ_section_title
;
Structure prediction by ZEFSAII (Michael W. Deem and Ramdas Pophale) SiO2 
 PCOD9390710
Probable space group: P N N N
;
_chemical_formula_sum "Si O2"
_cell_formula_units_Z 40
_cell_length_a 23.023994
_cell_length_b 8.727028
_cell_length_c 7.264605
_cell_angle_alpha 90.000000
_cell_angle_beta 90.000000
_cell_angle_gamma 90.000000
_cell_volume 1459.684640
_symmetry_space_group_name_H-M "P N N N"
_symmetry_group_IT_number 48
_space_group.IT_coordinate_system_code '2'
_symmetry_cell_setting 'orthorhombic'
loop_
_space_group_symop_operation_xyz
x,y,z
1/2-x,1/2-y,z
x,1/2-y,1/2-z
1/2-x,y,1/2-z
-x,-y,-z
1/2+x,1/2+y,-z
-x,1/2+y,1/2+z
1/2+x,-y,1/2+z
loop_
_atom_site_type_symbol
_atom_site_label
_atom_site_fract_x
_atom_site_fract_y
_atom_site_fract_z
Si Si1 0.721740 0.902818 0.047278
Si Si2 0.171084 0.715115 0.970531
Si Si3 0.904630 0.956191 0.386177
Si Si4 0.590416 0.037810 0.543151
Si Si5 0.514731 0.723557 0.940464
O O1 0.750000 0.750000 0.959733
O O2 0.750000 0.917049 0.250000
O O3 0.654109 0.862635 0.071612
O O4 0.718600 0.082971 0.977443
O O5 0.179906 0.750000 0.750000
O O6 0.111622 0.615090 0.983747
O O7 0.150225 0.869489 0.074511
O O8 0.959606 0.867384 0.456139
O O9 0.906049 0.987402 0.170627
O O10 0.531686 0.135991 0.564972
O O11 0.569650 0.879899 0.630194
O O12 0.481961 0.750000 0.750000
#
# Coordination Sequence:
#
# PCOD9390710 Si02
#       5
#     8   8   8   8   8
#     4   9  19  31  57  95 114 150 205 266 327 361
#     4   8  17  34  55  86 123 147 193 264 309 360
#     4   9  20  38  60  84 131 159 204 270 302 374
#     4  10  21  38  58  87 126 171 209 254 310 364
#     4  11  23  36  58  89 128 172 215 245 312 390
#
# _framework density 27.403176999999999
#
# number of rings (size 3 to 8) (size 9 to 14) (size 15 to 20)
#    1.200    1.400    0.000    2.400    5.600    3.600 
#    0.000    3.000    0.000    0.600    0.000    0.000 
#   12.000    0.000    0.000    0.000    0.000    0.000 
#
# Total GULP energy -222982.212907 kJ/mol
# GULP energy per Si atom -5574.555323 kJ/mol
# Density = 2.734081 g / cm^3
# Si number density = 27.403177 Si / 1000 Ang^3
#
#
#
# Elastic Constant Matrix: (Units=GPa)
#
#
# Indices 1 2 3 4 5 6 
#
# 1 142.6363 65.6400 15.5629 0.0000 0.0000 0.0000
# 2 65.6400 155.2911 25.3594 0.0000 0.0000 0.0000
# 3 15.5629 25.3594 64.1446 0.0000 0.0000 0.0000
# 4 0.0000 0.0000 0.0000 28.2087 0.0000 0.0000
# 5 0.0000 0.0000 0.0000 0.0000 10.0566 0.0000
# 6 0.0000 0.0000 0.0000 0.0000 0.0000 67.2024
#
#
#
# Elastic Compliance Matrix: (Units=1/GPa)
#
#
# Indices 1 2 3 4 5 6 
#
# 1 0.008734 -0.003576 -0.000705 0.000000 0.000000 0.000000
# 2 -0.003576 0.008349 -0.002433 0.000000 0.000000 0.000000
# 3 -0.000705 -0.002433 0.016723 0.000000 0.000000 0.000000
# 4 0.000000 0.000000 0.000000 0.035450 0.000000 0.000000
# 5 0.000000 0.000000 0.000000 0.000000 0.099437 0.000000
# 6 0.000000 0.000000 0.000000 0.000000 0.000000 0.014880
#
#
# Mechanical properties :
#
#
# Convention : Reuss Voigt Hill
#
# Bulk Modulus (GPa) = 49.07702 63.91073 56.49388
# Shear Modulus (GPa) = 24.53467 38.12751 31.33109
#
# Velocity S-wave (km/s) = 2.99544 3.73413 3.38500
# Velocity P-wave (km/s) = 5.46916 6.47801 5.99485
#
# Compressibility (1/GPa) = 0.02037614
#
# Stress axis : x y z
#
# Youngs Moduli (GPa) = 114.49992 119.78121 59.79909
#
# Poissons Ratio (x) = 0.42840 0.04216
# Poissons Ratio (y) = 0.40951 0.14548
# Poissons Ratio (z) = 0.08072 0.29141
#
# Static dielectric constant tensor:
#      x y z
#    x 2.171800 0.000000 0.000000 
#    y 0.000000 2.400810 0.000000 
#    z 0.000000 0.000000 2.178070 
# 
# From -- ./inp_files/15701.got.cif
#   From: 2010.05.17/outbox.cif.g08.bks.cpg/sg48_8_cif.got.tgz:15701.got - 2010.06.03 20:39:00.
