data_PCOD9390944
_publ_section_title
;
Structure prediction by ZEFSAII (Michael W. Deem and Ramdas Pophale) SiO2 
 PCOD9390944
Probable space group: P N N N
;
_chemical_formula_sum "Si O2"
_cell_formula_units_Z 40
_cell_length_a 5.180866
_cell_length_b 12.913119
_cell_length_c 29.634442
_cell_angle_alpha 90.000000
_cell_angle_beta 90.000000
_cell_angle_gamma 90.000000
_cell_volume 1982.577929
_symmetry_space_group_name_H-M "P N N N"
_symmetry_group_IT_number 48
_space_group.IT_coordinate_system_code '2'
_symmetry_cell_setting 'orthorhombic'
loop_
_space_group_symop_operation_xyz
x,y,z
1/2-x,1/2-y,z
x,1/2-y,1/2-z
1/2-x,y,1/2-z
-x,-y,-z
1/2+x,1/2+y,-z
-x,1/2+y,1/2+z
1/2+x,-y,1/2+z
loop_
_atom_site_type_symbol
_atom_site_label
_atom_site_fract_x
_atom_site_fract_y
_atom_site_fract_z
Si Si1 0.713209 0.630579 0.196066
Si Si2 0.206706 0.993085 0.335515
Si Si3 0.280861 0.513399 0.059813
Si Si4 0.280882 0.127570 0.975734
Si Si5 0.574968 0.167656 0.213750
O O1 0.750000 0.750000 0.181253
O O2 0.750000 0.630891 0.250000
O O3 0.442631 0.574960 0.184018
O O4 0.942307 0.569081 0.171967
O O5 0.255234 0.012685 0.387937
O O6 0.138297 0.100429 0.310285
O O7 0.554007 0.568349 0.050922
O O8 0.054150 0.591329 0.044261
O O9 0.247873 0.415122 0.026827
O O10 0.250000 0.250000 0.973213
O O11 0.750000 0.250000 0.184107
O O12 0.484175 0.250000 0.250000
O O13 0.750000 0.100279 0.250000
#
# Coordination Sequence:
#
# PCOD9390944 Si02
#       5
#     8   8   8   8   8
#     4  11  26  42  62  91 130 178 220 262 329 385
#     4  12  21  42  68  94 131 166 220 285 312 381
#     4  10  23  37  65 100 119 162 222 254 323 402
#     4  10  21  43  63  87 132 169 197 263 338 390
#     4   6  17  39  65  93 128 176 215 258 331 397
#
# _framework density 20.175751000000002
#
# number of rings (size 3 to 8) (size 9 to 14) (size 15 to 20)
#    1.200    1.000    0.000    3.600    0.000    6.400 
#    0.000   10.000    0.000    0.000    0.000    0.000 
#    0.000    0.000    0.000    0.000    0.000    0.000 
#
# Total GULP energy -222861.413010 kJ/mol
# GULP energy per Si atom -5571.535325 kJ/mol
# Density = 2.012983 g / cm^3
# Si number density = 20.175751 Si / 1000 Ang^3
#
#
#
# Elastic Constant Matrix: (Units=GPa)
#
#
# Indices 1 2 3 4 5 6 
#
# 1 62.1784 0.8322 -6.5928 0.0000 0.0000 0.0000
# 2 0.8322 106.0201 23.3890 0.0000 0.0000 0.0000
# 3 -6.5928 23.3890 113.8913 0.0000 0.0000 0.0000
# 4 0.0000 0.0000 0.0000 -6.1372 0.0000 0.0000
# 5 0.0000 0.0000 0.0000 0.0000 22.7810 0.0000
# 6 0.0000 0.0000 0.0000 0.0000 0.0000 32.2600
#
#
#
# Elastic Compliance Matrix: (Units=1/GPa)
#
#
# Indices 1 2 3 4 5 6 
#
# 1 0.016194 -0.000350 0.001009 0.000000 0.000000 0.000000
# 2 -0.000350 0.009887 -0.002051 0.000000 0.000000 0.000000
# 3 0.001009 -0.002051 0.009260 0.000000 0.000000 0.000000
# 4 0.000000 0.000000 0.000000 -0.162941 0.000000 0.000000
# 5 0.000000 0.000000 0.000000 0.000000 0.043896 0.000000
# 6 0.000000 0.000000 0.000000 0.000000 0.000000 0.030998
#
#
# Mechanical properties :
#
#
# Convention : Reuss Voigt Hill
#
# Bulk Modulus (GPa) = 30.71328 35.26073 32.98701
# Shear Modulus (GPa) = -127.97747 27.41153 -50.28297
#
# Velocity S-wave (km/s) = -7.97302 3.68997 -4.99766
# Velocity P-wave (km/s) = 8.33683 5.97237 4.11300
#
# Compressibility (1/GPa) = 0.03255920
#
# Stress axis : x y z
#
# Youngs Moduli (GPa) = 61.74952 101.13952 107.99284
#
# Poissons Ratio (x) = 0.03538 -0.10899
# Poissons Ratio (y) = 0.02160 0.22147
# Poissons Ratio (z) = -0.06232 0.20741
#
# Static dielectric constant tensor:
#      x y z
#    x 1.819760 0.000000 0.000000 
#    y 0.000000 1.719170 0.000000 
#    z 0.000000 0.000000 1.915220 
# 
# From -- ./inp_files/36979.got.cif
#   From: 2010.05.17/outbox.cif.g08.bks.cpg/sg48_19_cif.got.tgz:36979.got - 2010.06.03 20:39:00.
