data_PCOD9390486
_publ_section_title
;
Structure prediction by ZEFSAII (Michael W. Deem and Ramdas Pophale) SiO2 
 PCOD9390486
Probable space group: P N N N
;
_chemical_formula_sum "Si O2"
_cell_formula_units_Z 58
_cell_length_a 12.409132
_cell_length_b 26.090637
_cell_length_c 9.212402
_cell_angle_alpha 90.000000
_cell_angle_beta 90.000000
_cell_angle_gamma 90.000000
_cell_volume 2982.627156
_symmetry_space_group_name_H-M "P N N N"
_symmetry_group_IT_number 48
_space_group.IT_coordinate_system_code '2'
_symmetry_cell_setting 'orthorhombic'
loop_
_space_group_symop_operation_xyz
x,y,z
1/2-x,1/2-y,z
x,1/2-y,1/2-z
1/2-x,y,1/2-z
-x,-y,-z
1/2+x,1/2+y,-z
-x,1/2+y,1/2+z
1/2+x,-y,1/2+z
loop_
_atom_site_type_symbol
_atom_site_label
_atom_site_fract_x
_atom_site_fract_y
_atom_site_fract_z
Si Si1 0.476244 0.920401 0.719958
Si Si2 0.127305 0.247150 0.506526
Si Si3 0.338999 0.594132 0.524239
Si Si4 0.102190 0.606476 0.412502
Si Si5 0.250000 0.750000 0.250000
Si Si6 0.369283 0.171633 0.268677
Si Si7 0.441395 0.681724 0.341884
Si Si8 0.634793 0.010222 0.798614
O O1 0.365994 0.913058 0.807801
O O2 0.464149 0.915354 0.547610
O O3 0.546376 0.871656 0.760470
O O4 0.539647 0.970360 0.773888
O O5 0.250000 0.250000 0.566574
O O6 0.108256 0.302016 0.425974
O O7 0.128131 0.212001 0.362394
O O8 0.040063 0.219125 0.610765
O O9 0.222209 0.615424 0.476828
O O10 0.423060 0.634485 0.452282
O O11 0.353619 0.537525 0.454127
O O12 0.056835 0.654352 0.318102
O O13 0.115806 0.559632 0.302258
O O14 0.332246 0.715358 0.341862
O O15 0.250000 0.149408 0.250000
O O16 0.750000 0.987313 0.750000
#
# Coordination Sequence:
#
# PCOD9390486 Si02
#       8
#     8   8   8   8   2   8   8   8
#     4  12  20  33  61  90 114 156 202 248 307 360
#     4   9  19  38  61  83 118 160 201 248 307 364
#     4  10  20  39  58  87 119 157 201 250 301 369
#     4  10  22  38  56  87 127 154 193 261 311 358
#     4  12  24  36  66  82 120 156 212 236 300 366
#     4   9  19  34  57  87 119 150 198 252 297 356
#     4  11  21  40  61  86 117 161 203 245 305 370
#     4   9  20  38  59  82 118 160 202 242 307 375
#
# _framework density 19.445944999999998
#
# number of rings (size 3 to 8) (size 9 to 14) (size 15 to 20)
#    0.000    1.931    2.759    3.310    1.931    0.000 
#    0.000    0.345    0.000    0.828    0.000    0.000 
#    0.000    0.000    0.000    0.000    0.000    0.000 
#
# Total GULP energy -322940.606532 kJ/mol
# GULP energy per Si atom -5567.941492 kJ/mol
# Density = 1.940169 g / cm^3
# Si number density = 19.445945 Si / 1000 Ang^3
#
#
#
# Elastic Constant Matrix: (Units=GPa)
#
#
# Indices 1 2 3 4 5 6 
#
# 1 119.3528 41.3147 35.5168 0.0000 0.0000 0.0000
# 2 41.3147 64.4641 12.2827 0.0000 0.0000 0.0000
# 3 35.5168 12.2827 73.2817 0.0000 0.0000 0.0000
# 4 0.0000 0.0000 0.0000 10.6682 0.0000 0.0000
# 5 0.0000 0.0000 0.0000 0.0000 33.4464 0.0000
# 6 0.0000 0.0000 0.0000 0.0000 0.0000 21.3006
#
#
#
# Elastic Compliance Matrix: (Units=1/GPa)
#
#
# Indices 1 2 3 4 5 6 
#
# 1 0.012180 -0.006902 -0.004746 0.000000 0.000000 0.000000
# 2 -0.006902 0.019935 0.000004 0.000000 0.000000 0.000000
# 3 -0.004746 0.000004 0.015946 0.000000 0.000000 0.000000
# 4 0.000000 0.000000 0.000000 0.093737 0.000000 0.000000
# 5 0.000000 0.000000 0.000000 0.000000 0.029899 0.000000
# 6 0.000000 0.000000 0.000000 0.000000 0.000000 0.046947
#
#
# Mechanical properties :
#
#
# Convention : Reuss Voigt Hill
#
# Bulk Modulus (GPa) = 40.36820 48.36967 44.36893
# Shear Modulus (GPa) = 19.98484 24.28198 22.13341
#
# Velocity S-wave (km/s) = 3.20927 3.53752 3.37738
# Velocity P-wave (km/s) = 5.87680 6.45083 6.17050
#
# Compressibility (1/GPa) = 0.02477198
#
# Stress axis : x y z
#
# Youngs Moduli (GPa) = 82.10161 50.16278 62.71265
#
# Poissons Ratio (x) = 0.34621 0.29766
# Poissons Ratio (y) = 0.56665 -0.00023
# Poissons Ratio (z) = 0.38969 -0.00019
#
# Static dielectric constant tensor:
#      x y z
#    x 1.743890 0.000000 0.000000 
#    y 0.000000 1.664690 0.000000 
#    z 0.000000 0.000000 1.749100 
# 
# From -- ./inp_files/11451.got.cif
#   From: 2010.05.17/outbox.cif.g08.bks.cpg/sg48_6_cif.got.tgz:11451.got - 2010.06.03 20:39:00.
