data_PCOD9390083
_publ_section_title
;
Structure prediction by ZEFSAII (Michael W. Deem and Ramdas Pophale) SiO2 
 PCOD9390083
Probable space group: P N N N
;
_chemical_formula_sum "Si O2"
_cell_formula_units_Z 34
_cell_length_a 9.606740
_cell_length_b 9.291094
_cell_length_c 17.071783
_cell_angle_alpha 90.000000
_cell_angle_beta 90.000000
_cell_angle_gamma 90.000000
_cell_volume 1523.778259
_symmetry_space_group_name_H-M "P N N N"
_symmetry_group_IT_number 48
_space_group.IT_coordinate_system_code '2'
_symmetry_cell_setting 'orthorhombic'
loop_
_space_group_symop_operation_xyz
x,y,z
1/2-x,1/2-y,z
x,1/2-y,1/2-z
1/2-x,y,1/2-z
-x,-y,-z
1/2+x,1/2+y,-z
-x,1/2+y,1/2+z
1/2+x,-y,1/2+z
loop_
_atom_site_type_symbol
_atom_site_label
_atom_site_fract_x
_atom_site_fract_y
_atom_site_fract_z
Si Si1 0.250000 0.250000 0.250000
Si Si2 0.395116 0.039854 0.373373
Si Si3 0.906724 0.921723 0.243998
Si Si4 0.899666 0.448452 0.891597
Si Si5 0.904926 0.769941 0.495996
O O1 0.342262 0.154592 0.308395
O O2 0.426428 0.127939 0.452129
O O3 0.529993 0.966237 0.338727
O O4 0.264569 0.930908 0.377782
O O5 0.903911 0.750000 0.250000
O O6 0.750000 0.978253 0.250000
O O7 0.010490 0.972424 0.313107
O O8 0.901219 0.594345 0.943767
O O9 0.976259 0.319326 0.936719
O O10 0.750000 0.750000 0.459738
#
# Coordination Sequence:
#
# PCOD9390083 Si02
#       5
#     2   8   8   8   8
#     4  12  16  36  64 100 124 164 228 266 328 380
#     4  11  19  39  68  97 126 173 224 271 326 406
#     4  11  25  41  63  92 130 169 217 279 334 385
#     4  10  19  37  65  94 126 170 213 264 326 396
#     4   9  19  35  66  95 129 170 210 265 336 389
#
# _framework density 22.312956
#
# number of rings (size 3 to 8) (size 9 to 14) (size 15 to 20)
#    0.000    1.647    5.882    0.000    3.294    1.882 
#    0.000    6.471   10.353    0.000    0.000    0.000 
#    0.000    0.000    0.000    0.000    0.000    0.000 
#
# Total GULP energy -190111.265453 kJ/mol
# GULP energy per Si atom -5591.507807 kJ/mol
# Density = 2.226217 g / cm^3
# Si number density = 22.312956 Si / 1000 Ang^3
#
#
#
# Elastic Constant Matrix: (Units=GPa)
#
#
# Indices 1 2 3 4 5 6 
#
# 1 190.4415 66.2407 61.5980 0.0000 0.0000 0.0000
# 2 66.2407 73.6060 33.5500 0.0000 0.0000 0.0000
# 3 61.5980 33.5500 72.7743 0.0000 0.0000 0.0000
# 4 0.0000 0.0000 0.0000 39.2170 0.0000 0.0000
# 5 0.0000 0.0000 0.0000 0.0000 36.5311 0.0000
# 6 0.0000 0.0000 0.0000 0.0000 0.0000 37.0359
#
#
#
# Elastic Compliance Matrix: (Units=1/GPa)
#
#
# Indices 1 2 3 4 5 6 
#
# 1 0.008797 -0.005726 -0.004806 0.000000 0.000000 0.000000
# 2 -0.005726 0.020927 -0.004801 0.000000 0.000000 0.000000
# 3 -0.004806 -0.004801 0.020023 0.000000 0.000000 0.000000
# 4 0.000000 0.000000 0.000000 0.025499 0.000000 0.000000
# 5 0.000000 0.000000 0.000000 0.000000 0.027374 0.000000
# 6 0.000000 0.000000 0.000000 0.000000 0.000000 0.027001
#
#
# Mechanical properties :
#
#
# Convention : Reuss Voigt Hill
#
# Bulk Modulus (GPa) = 52.41048 73.28881 62.84965
# Shear Modulus (GPa) = 30.00325 34.25234 32.12780
#
# Velocity S-wave (km/s) = 3.67093 3.92227 3.79868
# Velocity P-wave (km/s) = 6.44263 7.30954 6.88974
#
# Compressibility (1/GPa) = 0.01908015
#
# Stress axis : x y z
#
# Youngs Moduli (GPa) = 113.67097 47.78424 49.94334
#
# Poissons Ratio (x) = 0.27362 0.24005
# Poissons Ratio (y) = 0.65091 0.23978
# Poissons Ratio (z) = 0.54635 0.22941
#
# Static dielectric constant tensor:
#      x y z
#    x 1.818540 0.000000 0.000000 
#    y 0.000000 1.830740 0.000000 
#    z 0.000000 0.000000 1.846750 
# 
# From -- ./inp_files/8732.got.cif
#   From: 2010.05.17/outbox.cif.g08.bks.cpg/sg48_5_cif.got.tgz:8732.got - 2010.06.03 20:39:00.
