data_PCOD9390898
_publ_section_title
;
Structure prediction by ZEFSAII (Michael W. Deem and Ramdas Pophale) SiO2 
 PCOD9390898
Probable space group: P N N N
;
_chemical_formula_sum "Si O2"
_cell_formula_units_Z 48
_cell_length_a 8.406340
_cell_length_b 15.719399
_cell_length_c 16.372300
_cell_angle_alpha 90.000000
_cell_angle_beta 90.000000
_cell_angle_gamma 90.000000
_cell_volume 2163.478496
_symmetry_space_group_name_H-M "P N N N"
_symmetry_group_IT_number 48
_space_group.IT_coordinate_system_code '2'
_symmetry_cell_setting 'orthorhombic'
loop_
_space_group_symop_operation_xyz
x,y,z
1/2-x,1/2-y,z
x,1/2-y,1/2-z
1/2-x,y,1/2-z
-x,-y,-z
1/2+x,1/2+y,-z
-x,1/2+y,1/2+z
1/2+x,-y,1/2+z
loop_
_atom_site_type_symbol
_atom_site_label
_atom_site_fract_x
_atom_site_fract_y
_atom_site_fract_z
Si Si1 0.860242 0.331786 0.388772
Si Si2 0.648129 0.836888 0.138364
Si Si3 0.576995 0.381017 0.788584
Si Si4 0.382940 0.982452 0.923335
Si Si5 0.068038 0.725841 0.452301
Si Si6 0.940366 0.447977 0.251517
O O1 0.750000 0.250000 0.370182
O O2 0.749593 0.407933 0.426932
O O3 0.983381 0.310250 0.460837
O O4 0.941060 0.364088 0.305964
O O5 0.750000 0.750000 0.141686
O O6 0.557975 0.850401 0.224357
O O7 0.518247 0.811553 0.071514
O O8 0.703000 0.928738 0.105288
O O9 0.750000 0.362247 0.750000
O O10 0.557643 0.336129 0.875002
O O11 0.545067 0.480763 0.795160
O O12 0.485317 0.952215 0.843777
O O13 0.500000 0.000000 0.000000
O O14 0.250000 0.750000 0.462341
O O15 0.750000 0.469110 0.250000
#
# Coordination Sequence:
#
# PCOD9390898 Si02
#       6
#     8   8   8   8   8   8
#     4  10  22  41  66  94 131 172 234 282 328 392
#     4  11  25  42  63  98 137 175 216 275 344 412
#     4  11  23  39  62  95 139 171 210 268 347 419
#     4  10  21  41  66  93 129 173 217 277 338 390
#     4  11  22  38  61  93 127 177 216 261 339 402
#     4   9  22  40  62  97 126 170 227 272 337 392
#
# _framework density 22.186492999999999
#
# number of rings (size 3 to 8) (size 9 to 14) (size 15 to 20)
#    0.000    1.667    1.667    2.500    9.333    4.333 
#    3.000    0.000    0.000    0.000    0.000   11.667 
#    0.000    0.000    0.000    0.000    0.000    0.000 
#
# Total GULP energy -267739.101533 kJ/mol
# GULP energy per Si atom -5577.897949 kJ/mol
# Density = 2.213600 g / cm^3
# Si number density = 22.186493 Si / 1000 Ang^3
#
#
#
# Elastic Constant Matrix: (Units=GPa)
#
#
# Indices 1 2 3 4 5 6 
#
# 1 25.7213 0.4307 -2.8278 0.0000 0.0000 0.0000
# 2 0.4307 121.9831 49.0405 0.0000 0.0000 0.0000
# 3 -2.8278 49.0405 153.5064 0.0000 0.0000 0.0000
# 4 0.0000 0.0000 0.0000 15.0790 0.0000 0.0000
# 5 0.0000 0.0000 0.0000 0.0000 11.3258 0.0000
# 6 0.0000 0.0000 0.0000 0.0000 0.0000 33.4720
#
#
#
# Elastic Compliance Matrix: (Units=1/GPa)
#
#
# Indices 1 2 3 4 5 6 
#
# 1 0.038983 -0.000489 0.000874 0.000000 0.000000 0.000000
# 2 -0.000489 0.009412 -0.003016 0.000000 0.000000 0.000000
# 3 0.000874 -0.003016 0.007494 0.000000 0.000000 0.000000
# 4 0.000000 0.000000 0.000000 0.066317 0.000000 0.000000
# 5 0.000000 0.000000 0.000000 0.000000 0.088294 0.000000
# 6 0.000000 0.000000 0.000000 0.000000 0.000000 0.029876
#
#
# Mechanical properties :
#
#
# Convention : Reuss Voigt Hill
#
# Bulk Modulus (GPa) = 19.75220 43.83308 31.79264
# Shear Modulus (GPa) = 19.04670 28.94653 23.99662
#
# Velocity S-wave (km/s) = 2.93316 3.61597 3.29232
# Velocity P-wave (km/s) = 4.51591 6.10190 5.36780
#
# Compressibility (1/GPa) = 0.05062727
#
# Stress axis : x y z
#
# Youngs Moduli (GPa) = 25.65250 106.24690 133.44070
#
# Poissons Ratio (x) = 0.05197 -0.11668
# Poissons Ratio (y) = 0.01255 0.40244
# Poissons Ratio (z) = -0.02243 0.32043
#
# Static dielectric constant tensor:
#      x y z
#    x 1.891990 0.000000 0.000000 
#    y 0.000000 1.879460 0.000000 
#    z 0.000000 0.000000 1.902840 
# 
# From -- ./inp_files/30267.got.cif
#   From: 2010.05.17/outbox.cif.g08.bks.cpg/sg48_16_cif.got.tgz:30267.got - 2010.06.03 20:39:00.
