data_PCOD9390635
_publ_section_title
;
Structure prediction by ZEFSAII (Michael W. Deem and Ramdas Pophale) SiO2 
 PCOD9390635
Probable space group: P N N N
;
_chemical_formula_sum "Si O2"
_cell_formula_units_Z 48
_cell_length_a 31.282465
_cell_length_b 8.675652
_cell_length_c 8.439775
_cell_angle_alpha 90.000000
_cell_angle_beta 90.000000
_cell_angle_gamma 90.000000
_cell_volume 2290.519320
_symmetry_space_group_name_H-M "P N N N"
_symmetry_group_IT_number 48
_space_group.IT_coordinate_system_code '2'
_symmetry_cell_setting 'orthorhombic'
loop_
_space_group_symop_operation_xyz
x,y,z
1/2-x,1/2-y,z
x,1/2-y,1/2-z
1/2-x,y,1/2-z
-x,-y,-z
1/2+x,1/2+y,-z
-x,1/2+y,1/2+z
1/2+x,-y,1/2+z
loop_
_atom_site_type_symbol
_atom_site_label
_atom_site_fract_x
_atom_site_fract_y
_atom_site_fract_z
Si Si1 0.335261 0.917827 0.459182
Si Si2 0.511923 0.933987 0.246199
Si Si3 0.251370 0.067092 0.062096
Si Si4 0.577401 0.140028 0.405408
Si Si5 0.435368 0.952519 0.057413
Si Si6 0.159976 0.550641 0.089904
O O1 0.378206 0.947009 0.559164
O O2 0.340245 0.977463 0.279252
O O3 0.334611 0.732621 0.442899
O O4 0.289838 0.985854 0.515607
O O5 0.513726 0.750000 0.250000
O O6 0.463252 0.988536 0.212866
O O7 0.537931 0.025444 0.380004
O O8 0.538256 0.982494 0.089238
O O9 0.250000 0.250000 0.051792
O O10 0.250000 0.021598 0.250000
O O11 0.298671 0.021151 0.008426
O O12 0.582657 0.250000 0.250000
O O13 0.567634 0.266244 0.540683
O O14 0.386717 0.005846 0.041006
#
# Coordination Sequence:
#
# PCOD9390635 Si02
#       6
#     8   8   8   8   8   8
#     4   9  17  30  53  80  99 139 177 211 264 319
#     4  10  21  35  55  75 106 144 178 226 271 317
#     4   9  17  29  48  76 113 134 158 211 271 315
#     4   9  19  36  55  76 107 141 179 226 263 318
#     4   9  20  37  53  77 106 141 182 222 267 314
#     4   9  17  31  53  76 104 136 177 219 254 319
#
# _framework density 20.955946000000001
#
# number of rings (size 3 to 8) (size 9 to 14) (size 15 to 20)
#    0.000    2.833    0.000    0.500    4.667    4.000 
#    0.000    0.000   18.333   17.000    0.000   11.667 
#    0.000    0.000    0.000    0.000    0.000    0.000 
#
# Total GULP energy -267506.833524 kJ/mol
# GULP energy per Si atom -5573.059032 kJ/mol
# Density = 2.090825 g / cm^3
# Si number density = 20.955946 Si / 1000 Ang^3
#
#
#
# Elastic Constant Matrix: (Units=GPa)
#
#
# Indices 1 2 3 4 5 6 
#
# 1 213.0858 41.3084 32.5525 0.0000 0.0000 0.0000
# 2 41.3084 18.1688 1.8453 0.0000 0.0000 0.0000
# 3 32.5525 1.8453 21.3041 0.0000 0.0000 0.0000
# 4 0.0000 0.0000 0.0000 18.3685 0.0000 0.0000
# 5 0.0000 0.0000 0.0000 0.0000 11.3027 0.0000
# 6 0.0000 0.0000 0.0000 0.0000 0.0000 30.0900
#
#
#
# Elastic Compliance Matrix: (Units=1/GPa)
#
#
# Indices 1 2 3 4 5 6 
#
# 1 0.012332 -0.026357 -0.016561 0.000000 0.000000 0.000000
# 2 -0.026357 0.111858 0.030584 0.000000 0.000000 0.000000
# 3 -0.016561 0.030584 0.069595 0.000000 0.000000 0.000000
# 4 0.000000 0.000000 0.000000 0.054441 0.000000 0.000000
# 5 0.000000 0.000000 0.000000 0.000000 0.088474 0.000000
# 6 0.000000 0.000000 0.000000 0.000000 0.000000 0.033234
#
#
# Mechanical properties :
#
#
# Convention : Reuss Voigt Hill
#
# Bulk Modulus (GPa) = 5.91301 44.88568 25.39935
# Shear Modulus (GPa) = 11.08711 23.74240 17.41475
#
# Velocity S-wave (km/s) = 2.30264 3.36961 2.88586
# Velocity P-wave (km/s) = 3.14600 6.05017 4.82192
#
# Compressibility (1/GPa) = 0.16911862
#
# Stress axis : x y z
#
# Youngs Moduli (GPa) = 81.08732 8.93991 14.36880
#
# Poissons Ratio (x) = 0.23563 0.23796
# Poissons Ratio (y) = 2.13720 -0.43946
# Poissons Ratio (z) = 1.34288 -0.27342
#
# Static dielectric constant tensor:
#      x y z
#    x 1.820210 0.000000 0.000000 
#    y 0.000000 1.725940 0.000000 
#    z 0.000000 0.000000 1.801020 
# 
# From -- ./inp_files/9466.got.cif
#   From: 2010.05.17/outbox.cif.g08.bks.cpg/sg48_5_cif.got.tgz:9466.got - 2010.06.03 20:39:00.
