data_PCOD9390015
_publ_section_title
;
Structure prediction by ZEFSAII (Michael W. Deem and Ramdas Pophale) SiO2 
 PCOD9390015
Probable space group: P N N N
;
_chemical_formula_sum "Si O2"
_cell_formula_units_Z 48
_cell_length_a 27.424525
_cell_length_b 13.559974
_cell_length_c 5.680123
_cell_angle_alpha 90.000000
_cell_angle_beta 90.000000
_cell_angle_gamma 90.000000
_cell_volume 2112.300546
_symmetry_space_group_name_H-M "P N N N"
_symmetry_group_IT_number 48
_space_group.IT_coordinate_system_code '2'
_symmetry_cell_setting 'orthorhombic'
loop_
_space_group_symop_operation_xyz
x,y,z
1/2-x,1/2-y,z
x,1/2-y,1/2-z
1/2-x,y,1/2-z
-x,-y,-z
1/2+x,1/2+y,-z
-x,1/2+y,1/2+z
1/2+x,-y,1/2+z
loop_
_atom_site_type_symbol
_atom_site_label
_atom_site_fract_x
_atom_site_fract_y
_atom_site_fract_z
Si Si1 0.879831 0.478894 0.956471
Si Si2 0.804642 0.966906 0.170829
Si Si3 0.697600 0.363778 0.833151
Si Si4 0.486866 0.384234 0.953371
Si Si5 0.023329 0.893218 0.549107
Si Si6 0.615269 0.646154 0.884913
O O1 0.849069 0.406399 0.795162
O O2 0.919806 0.416209 0.091531
O O3 0.903248 0.562709 0.796234
O O4 0.840707 0.535340 0.111532
O O5 0.750000 0.939861 0.250000
O O6 0.832905 0.896046 0.984095
O O7 0.805201 0.082925 0.087754
O O8 0.698770 0.250000 0.750000
O O9 0.750000 0.405411 0.750000
O O10 0.503300 0.346441 0.211206
O O11 0.429278 0.357688 0.927792
O O12 0.500000 0.500000 0.000000
O O13 0.513737 0.350622 0.713282
O O14 0.000000 0.000000 0.500000
O O15 0.619877 0.750000 0.750000
#
# Coordination Sequence:
#
# PCOD9390015 Si02
#       6
#     8   8   8   8   8   8
#     4  11  22  40  67  97 137 182 228 285 357 426
#     4  11  23  43  70  96 131 183 234 289 364 429
#     4  10  22  42  66  99 132 166 220 288 356 433
#     4  10  19  39  65  98 129 182 232 294 354 422
#     4  10  19  35  67  94 129 178 225 284 352 417
#     4  11  25  42  67  99 140 188 244 298 354 429
#
# _framework density 22.724039999999999
#
# number of rings (size 3 to 8) (size 9 to 14) (size 15 to 20)
#    0.000    1.500    5.000    2.000    2.333    1.333 
#    0.000    4.167    0.000    0.000    0.000    0.000 
#    0.000    0.000    0.000    0.000    0.000    0.000 
#
# Total GULP energy -267238.898553 kJ/mol
# GULP energy per Si atom -5567.477053 kJ/mol
# Density = 2.267232 g / cm^3
# Si number density = 22.724040 Si / 1000 Ang^3
#
#
#
# Elastic Constant Matrix: (Units=GPa)
#
#
# Indices 1 2 3 4 5 6 
#
# 1 151.8766 21.9520 27.7043 0.0000 0.0000 0.0000
# 2 21.9520 116.0984 9.2964 0.0000 0.0000 0.0000
# 3 27.7043 9.2964 102.0750 0.0000 0.0000 0.0000
# 4 0.0000 0.0000 0.0000 -28.3522 0.0000 0.0000
# 5 0.0000 0.0000 0.0000 0.0000 36.1773 0.0000
# 6 0.0000 0.0000 0.0000 0.0000 0.0000 -109.1584
#
#
#
# Elastic Compliance Matrix: (Units=1/GPa)
#
#
# Indices 1 2 3 4 5 6 
#
# 1 0.007088 -0.001195 -0.001815 0.000000 0.000000 0.000000
# 2 -0.001195 0.008878 -0.000484 0.000000 0.000000 0.000000
# 3 -0.001815 -0.000484 0.010333 0.000000 0.000000 0.000000
# 4 0.000000 0.000000 0.000000 -0.035271 0.000000 0.000000
# 5 0.000000 0.000000 0.000000 0.000000 0.027642 0.000000
# 6 0.000000 0.000000 0.000000 0.000000 0.000000 -0.009161
#
#
# Mechanical properties :
#
#
# Convention : Reuss Voigt Hill
#
# Bulk Modulus (GPa) = 51.78294 54.21725 53.00010
# Shear Modulus (GPa) = 218.00778 0.47316 109.24047
#
# Velocity S-wave (km/s) = 9.80537 0.45681 6.94097
# Velocity P-wave (km/s) = 12.28947 4.91823 9.36002
#
# Compressibility (1/GPa) = 0.01931138
#
# Stress axis : x y z
#
# Youngs Moduli (GPa) = 141.08204 112.63685 96.77332
#
# Poissons Ratio (x) = 0.13459 0.17564
# Poissons Ratio (y) = 0.16858 0.04686
# Poissons Ratio (z) = 0.25606 0.05454
#
# Static dielectric constant tensor:
#      x y z
#    x 1.887110 0.000000 0.000000 
#    y 0.000000 1.892520 0.000000 
#    z 0.000000 0.000000 1.965440 
# 
# From -- ./inp_files/6452.got.cif
#   From: 2010.05.17/outbox.cif.g08.bks.cpg/sg48_4_cif.got.tgz:6452.got - 2010.06.03 20:39:00.
