data_PCOD9390928
_publ_section_title
;
Structure prediction by ZEFSAII (Michael W. Deem and Ramdas Pophale) SiO2 
 PCOD9390928
Probable space group: P N N N
;
_chemical_formula_sum "Si O2"
_cell_formula_units_Z 44
_cell_length_a 15.422591
_cell_length_b 9.200793
_cell_length_c 15.308156
_cell_angle_alpha 90.000000
_cell_angle_beta 90.000000
_cell_angle_gamma 90.000000
_cell_volume 2172.228367
_symmetry_space_group_name_H-M "P N N N"
_symmetry_group_IT_number 48
_space_group.IT_coordinate_system_code '2'
_symmetry_cell_setting 'orthorhombic'
loop_
_space_group_symop_operation_xyz
x,y,z
1/2-x,1/2-y,z
x,1/2-y,1/2-z
1/2-x,y,1/2-z
-x,-y,-z
1/2+x,1/2+y,-z
-x,1/2+y,1/2+z
1/2+x,-y,1/2+z
loop_
_atom_site_type_symbol
_atom_site_label
_atom_site_fract_x
_atom_site_fract_y
_atom_site_fract_z
Si Si1 0.497028 0.883248 0.817126
Si Si2 0.750000 0.250000 0.948294
Si Si3 0.137285 0.991665 0.966788
Si Si4 0.017755 0.268640 0.499309
Si Si5 0.148569 0.078221 0.765481
Si Si6 0.081568 0.839082 0.338558
O O1 0.501928 0.750000 0.750000
O O2 0.500774 0.831992 0.916654
O O3 0.411355 0.975823 0.793718
O O4 0.576233 0.994801 0.808564
O O5 0.830283 0.297475 0.887763
O O6 0.780937 0.107411 0.003905
O O7 0.057519 0.888513 0.991668
O O8 0.133586 0.026801 0.864526
O O9 0.110435 0.148896 0.007060
O O10 0.995510 0.192166 0.591252
O O11 0.131154 0.250000 0.750000
O O12 0.250000 0.055858 0.750000
O O13 0.070880 0.750000 0.250000
#
# Coordination Sequence:
#
# PCOD9390928 Si02
#       6
#     8   4   8   8   8   8
#     4  12  24  40  70 104 132 175 223 276 335 405
#     4  10  25  42  71  92 132 186 227 280 343 390
#     4  10  21  42  65  96 133 175 224 276 332 406
#     4  10  22  41  68  98 130 174 227 278 332 401
#     4  11  25  42  65 101 142 175 214 273 340 401
#     4  11  24  44  70  94 132 178 234 273 337 409
#
# _framework density 20.255697000000001
#
# number of rings (size 3 to 8) (size 9 to 14) (size 15 to 20)
#    0.000    1.273    1.818    3.545   10.182    0.364 
#    3.273    0.000    0.000    0.000    0.000    0.000 
#    0.000    0.000    0.000    0.000    0.000    0.000 
#
# Total GULP energy -245428.450274 kJ/mol
# GULP energy per Si atom -5577.919324 kJ/mol
# Density = 2.020959 g / cm^3
# Si number density = 20.255697 Si / 1000 Ang^3
#
#
#
# Elastic Constant Matrix: (Units=GPa)
#
#
# Indices 1 2 3 4 5 6 
#
# 1 76.4510 48.5234 41.0209 0.0000 0.0000 0.0000
# 2 48.5234 138.4241 73.8730 0.0000 0.0000 0.0000
# 3 41.0209 73.8730 145.9919 0.0000 0.0000 0.0000
# 4 0.0000 0.0000 0.0000 41.7140 0.0000 0.0000
# 5 0.0000 0.0000 0.0000 0.0000 -6.6203 0.0000
# 6 0.0000 0.0000 0.0000 0.0000 0.0000 -155.9093
#
#
#
# Elastic Compliance Matrix: (Units=1/GPa)
#
#
# Indices 1 2 3 4 5 6 
#
# 1 0.017454 -0.004796 -0.002477 0.000000 0.000000 0.000000
# 2 -0.004796 0.011215 -0.004327 0.000000 0.000000 0.000000
# 3 -0.002477 -0.004327 0.009735 0.000000 0.000000 0.000000
# 4 0.000000 0.000000 0.000000 0.023973 0.000000 0.000000
# 5 0.000000 0.000000 0.000000 0.000000 -0.151051 0.000000
# 6 0.000000 0.000000 0.000000 0.000000 0.000000 -0.006414
#
#
# Mechanical properties :
#
#
# Convention : Reuss Voigt Hill
#
# Bulk Modulus (GPa) = 65.77826 76.41129 71.09478
# Shear Modulus (GPa) = -74.82750 -10.99982 -42.91366
#
# Velocity S-wave (km/s) = -6.08454 -2.33287 -4.60782
# Velocity P-wave (km/s) = 4.10095 5.52711 2.62022
#
# Compressibility (1/GPa) = 0.01520259
#
# Stress axis : x y z
#
# Youngs Moduli (GPa) = 57.29474 89.16876 102.71915
#
# Poissons Ratio (x) = 0.42767 0.25446
# Poissons Ratio (y) = 0.27480 0.44447
# Poissons Ratio (z) = 0.14193 0.38584
#
# Static dielectric constant tensor:
#      x y z
#    x 1.737290 0.000000 0.000000 
#    y 0.000000 1.618850 0.000000 
#    z 0.000000 0.000000 1.568430 
# 
# From -- ./inp_files/27805.got.cif
#   From: 2010.05.17/outbox.cif.g08.bks.cpg/sg48_14_cif.got.tgz:27805.got - 2010.06.03 20:39:00.
