data_PCOD9390492
_publ_section_title
;
Structure prediction by ZEFSAII (Michael W. Deem and Ramdas Pophale) SiO2 
 PCOD9390492
Probable space group: P N N N
;
_chemical_formula_sum "Si O2"
_cell_formula_units_Z 52
_cell_length_a 16.660889
_cell_length_b 10.489859
_cell_length_c 14.867578
_cell_angle_alpha 90.000000
_cell_angle_beta 90.000000
_cell_angle_gamma 90.000000
_cell_volume 2598.412204
_symmetry_space_group_name_H-M "P N N N"
_symmetry_group_IT_number 48
_space_group.IT_coordinate_system_code '2'
_symmetry_cell_setting 'orthorhombic'
loop_
_space_group_symop_operation_xyz
x,y,z
1/2-x,1/2-y,z
x,1/2-y,1/2-z
1/2-x,y,1/2-z
-x,-y,-z
1/2+x,1/2+y,-z
-x,1/2+y,1/2+z
1/2+x,-y,1/2+z
loop_
_atom_site_type_symbol
_atom_site_label
_atom_site_fract_x
_atom_site_fract_y
_atom_site_fract_z
Si Si1 0.484330 0.105222 0.268134
Si Si2 0.250000 0.750000 0.750000
Si Si3 0.818275 0.499476 0.684915
Si Si4 0.250000 0.750000 0.250000
Si Si5 0.252985 0.400852 0.642511
Si Si6 0.626118 0.938930 0.501946
Si Si7 0.466129 0.679562 0.964220
Si Si8 0.121391 0.598054 0.873999
O O1 0.456551 0.250000 0.250000
O O2 0.406470 0.019474 0.274640
O O3 0.527315 0.118803 0.364152
O O4 0.548405 0.067596 0.193351
O O5 0.189066 0.675544 0.816756
O O6 0.750000 0.554835 0.750000
O O7 0.798976 0.348231 0.687280
O O8 0.817326 0.569005 0.588870
O O9 0.250000 0.250000 0.629077
O O10 0.250000 0.424346 0.750000
O O11 0.175960 0.450539 0.588880
O O12 0.330938 0.470322 0.601370
O O13 0.558200 0.828641 0.501493
O O14 0.581759 0.073832 0.519287
O O15 0.418288 0.811321 0.950253
#
# Coordination Sequence:
#
# PCOD9390492 Si02
#       8
#     8   2   8   2   8   8   8   8
#     4   9  17  34  57  92 124 150 202 269 322 375
#     4  12  16  28  64  96 126 148 202 278 298 392
#     4   9  20  39  62  85 121 161 208 263 310 386
#     4   8  20  40  56  92 122 162 224 238 318 400
#     4  11  24  41  59  86 133 176 212 263 333 400
#     4  10  20  39  61  89 123 165 209 259 327 388
#     4   9  18  34  60  91 123 155 203 268 323 375
#     4  11  19  34  60  96 123 158 215 264 317 389
#
# _framework density 20.012219999999999
#
# number of rings (size 3 to 8) (size 9 to 14) (size 15 to 20)
#    0.462    1.692    3.077    1.846    0.000    1.538 
#    8.308    6.923    0.000    0.000    0.000    0.000 
#    0.000    0.000    0.000    0.000    0.000    0.000 
#
# Total GULP energy -289568.141527 kJ/mol
# GULP energy per Si atom -5568.618106 kJ/mol
# Density = 1.996667 g / cm^3
# Si number density = 20.012220 Si / 1000 Ang^3
#
#
#
# Elastic Constant Matrix: (Units=GPa)
#
#
# Indices 1 2 3 4 5 6 
#
# 1 112.5307 61.1843 35.2012 0.0000 0.0000 0.0000
# 2 61.1843 89.8185 13.1669 0.0000 0.0000 0.0000
# 3 35.2012 13.1669 54.0313 0.0000 0.0000 0.0000
# 4 0.0000 0.0000 0.0000 19.2165 0.0000 0.0000
# 5 0.0000 0.0000 0.0000 0.0000 21.5349 0.0000
# 6 0.0000 0.0000 0.0000 0.0000 0.0000 29.0420
#
#
#
# Elastic Compliance Matrix: (Units=1/GPa)
#
#
# Indices 1 2 3 4 5 6 
#
# 1 0.017348 -0.010537 -0.008734 0.000000 0.000000 0.000000
# 2 -0.010537 0.017946 0.002491 0.000000 0.000000 0.000000
# 3 -0.008734 0.002491 0.023591 0.000000 0.000000 0.000000
# 4 0.000000 0.000000 0.000000 0.052039 0.000000 0.000000
# 5 0.000000 0.000000 0.000000 0.000000 0.046436 0.000000
# 6 0.000000 0.000000 0.000000 0.000000 0.000000 0.034433
#
#
# Mechanical properties :
#
#
# Convention : Reuss Voigt Hill
#
# Bulk Modulus (GPa) = 39.48600 52.83170 46.15885
# Shear Modulus (GPa) = 21.38639 23.74720 22.56679
#
# Velocity S-wave (km/s) = 3.27259 3.44849 3.36169
# Velocity P-wave (km/s) = 5.83555 6.50486 6.17927
#
# Compressibility (1/GPa) = 0.02532543
#
# Stress axis : x y z
#
# Youngs Moduli (GPa) = 57.64464 55.72266 42.38913
#
# Poissons Ratio (x) = 0.58714 0.37024
# Poissons Ratio (y) = 0.60739 -0.10561
# Poissons Ratio (z) = 0.50348 -0.13883
#
# Static dielectric constant tensor:
#      x y z
#    x 1.723660 0.000000 0.000000 
#    y 0.000000 1.767770 0.000000 
#    z 0.000000 0.000000 1.747100 
# 
# From -- ./inp_files/28016.got.cif
#   From: 2010.05.17/outbox.cif.g08.bks.cpg/sg48_15_cif.got.tgz:28016.got - 2010.06.03 20:39:00.
