data_PCOD9390549
_publ_section_title
;
Structure prediction by ZEFSAII (Michael W. Deem and Ramdas Pophale) SiO2 
 PCOD9390549
Probable space group: P N N N
;
_chemical_formula_sum "Si O2"
_cell_formula_units_Z 60
_cell_length_a 8.958911
_cell_length_b 26.513116
_cell_length_c 11.490739
_cell_angle_alpha 90.000000
_cell_angle_beta 90.000000
_cell_angle_gamma 90.000000
_cell_volume 2729.379683
_symmetry_space_group_name_H-M "P N N N"
_symmetry_group_IT_number 48
_space_group.IT_coordinate_system_code '2'
_symmetry_cell_setting 'orthorhombic'
loop_
_space_group_symop_operation_xyz
x,y,z
1/2-x,1/2-y,z
x,1/2-y,1/2-z
1/2-x,y,1/2-z
-x,-y,-z
1/2+x,1/2+y,-z
-x,1/2+y,1/2+z
1/2+x,-y,1/2+z
loop_
_atom_site_type_symbol
_atom_site_label
_atom_site_fract_x
_atom_site_fract_y
_atom_site_fract_z
Si Si1 0.579932 0.348740 0.504072
Si Si2 0.250000 0.481416 0.750000
Si Si3 0.426225 0.673438 0.001720
Si Si4 0.579673 0.763999 0.116284
Si Si5 0.780896 0.507575 0.611777
Si Si6 0.571631 0.135840 0.245312
Si Si7 0.033646 0.546265 0.902342
Si Si8 0.963802 0.929836 0.071011
O O1 0.750994 0.334542 0.526069
O O2 0.466731 0.321207 0.589242
O O3 0.545776 0.331408 0.370643
O O4 0.123260 0.449097 0.455056
O O5 0.169064 0.515744 0.845985
O O6 0.371063 0.448868 0.818539
O O7 0.461888 0.661376 0.866799
O O8 0.475618 0.728307 0.039011
O O9 0.513728 0.629652 0.070067
O O10 0.750000 0.750000 0.089000
O O11 0.553525 0.750000 0.250000
O O12 0.750000 0.507531 0.750000
O O13 0.611575 0.513920 0.567168
O O14 0.565722 0.409386 0.495449
O O15 0.876316 0.458130 0.577548
O O16 0.750000 0.124948 0.250000
O O17 0.492685 0.083480 0.210081
#
# Coordination Sequence:
#
# PCOD9390549 Si02
#       8
#     8   4   8   8   8   8   8   8
#     4   9  22  42  73 103 121 172 225 268 360 413
#     4  12  22  46  62 100 148 190 236 284 348 408
#     4  11  22  45  70  95 139 173 221 287 339 406
#     4  11  27  50  69  92 131 178 226 283 342 405
#     4  11  23  42  65  97 139 179 236 277 343 404
#     4   8  17  36  71 101 133 163 213 272 351 402
#     4  10  20  40  70  98 140 177 221 285 347 406
#     4  11  28  41  66 100 140 190 239 283 342 420
#
# _framework density 21.983015999999999
#
# number of rings (size 3 to 8) (size 9 to 14) (size 15 to 20)
#    0.800    0.933    2.000    1.200    7.467    3.200 
#    2.400    3.333    0.000    0.000    0.000    0.000 
#    0.000    0.000    0.000    0.000    0.000    0.000 
#
# Total GULP energy -334927.133787 kJ/mol
# GULP energy per Si atom -5582.118896 kJ/mol
# Density = 2.193298 g / cm^3
# Si number density = 21.983016 Si / 1000 Ang^3
#
#
#
# Elastic Constant Matrix: (Units=GPa)
#
#
# Indices 1 2 3 4 5 6 
#
# 1 97.8908 36.4587 46.3958 0.0000 0.0000 0.0000
# 2 36.4587 82.0027 26.0900 0.0000 0.0000 0.0000
# 3 46.3958 26.0900 67.0004 0.0000 0.0000 0.0000
# 4 0.0000 0.0000 0.0000 19.3841 0.0000 0.0000
# 5 0.0000 0.0000 0.0000 0.0000 36.5846 0.0000
# 6 0.0000 0.0000 0.0000 0.0000 0.0000 15.4355
#
#
#
# Elastic Compliance Matrix: (Units=1/GPa)
#
#
# Indices 1 2 3 4 5 6 
#
# 1 0.016379 -0.004193 -0.009709 0.000000 0.000000 0.000000
# 2 -0.004193 0.014993 -0.002935 0.000000 0.000000 0.000000
# 3 -0.009709 -0.002935 0.022791 0.000000 0.000000 0.000000
# 4 0.000000 0.000000 0.000000 0.051589 0.000000 0.000000
# 5 0.000000 0.000000 0.000000 0.000000 0.027334 0.000000
# 6 0.000000 0.000000 0.000000 0.000000 0.000000 0.064786
#
#
# Mechanical properties :
#
#
# Convention : Reuss Voigt Hill
#
# Bulk Modulus (GPa) = 48.80596 51.64255 50.22425
# Shear Modulus (GPa) = 20.97545 23.47748 22.22646
#
# Velocity S-wave (km/s) = 3.09231 3.27155 3.18319
# Velocity P-wave (km/s) = 5.91605 6.14928 6.03380
#
# Compressibility (1/GPa) = 0.02048930
#
# Stress axis : x y z
#
# Youngs Moduli (GPa) = 61.05459 66.69952 43.87650
#
# Poissons Ratio (x) = 0.27967 0.42600
# Poissons Ratio (y) = 0.25600 0.12876
# Poissons Ratio (z) = 0.59278 0.19574
#
# Static dielectric constant tensor:
#      x y z
#    x 1.811370 0.000000 0.000000 
#    y 0.000000 1.785280 0.000000 
#    z 0.000000 0.000000 1.926720 
# 
# From -- ./inp_files/19017.got.cif
#   From: 2010.05.17/outbox.cif.g08.bks.cpg/sg48_10_cif.got.tgz:19017.got - 2010.06.03 20:39:00.
