data_PCOD9390542
_publ_section_title
;
Structure prediction by ZEFSAII (Michael W. Deem and Ramdas Pophale) SiO2 
 PCOD9390542
Probable space group: P N N N
;
_chemical_formula_sum "Si O2"
_cell_formula_units_Z 58
_cell_length_a 7.781727
_cell_length_b 28.016063
_cell_length_c 12.838984
_cell_angle_alpha 90.000000
_cell_angle_beta 90.000000
_cell_angle_gamma 90.000000
_cell_volume 2799.069962
_symmetry_space_group_name_H-M "P N N N"
_symmetry_group_IT_number 48
_space_group.IT_coordinate_system_code '2'
_symmetry_cell_setting 'orthorhombic'
loop_
_space_group_symop_operation_xyz
x,y,z
1/2-x,1/2-y,z
x,1/2-y,1/2-z
1/2-x,y,1/2-z
-x,-y,-z
1/2+x,1/2+y,-z
-x,1/2+y,1/2+z
1/2+x,-y,1/2+z
loop_
_atom_site_type_symbol
_atom_site_label
_atom_site_fract_x
_atom_site_fract_y
_atom_site_fract_z
Si Si1 0.750000 0.250000 0.750000
Si Si2 0.930847 0.811667 0.297769
Si Si3 0.945561 0.301615 0.209631
Si Si4 0.544360 0.407319 0.234226
Si Si5 0.552364 0.950113 0.944681
Si Si6 0.425415 0.651601 0.488758
Si Si7 0.447372 0.054448 0.490324
Si Si8 0.131767 0.617872 0.345169
O O1 0.601872 0.278320 0.686340
O O2 0.750000 0.795546 0.250000
O O3 0.919567 0.836010 0.410043
O O4 0.998427 0.848518 0.212700
O O5 0.018349 0.250000 0.250000
O O6 0.750000 0.301158 0.250000
O O7 0.021890 0.352428 0.250694
O O8 0.934559 0.312036 0.085458
O O9 0.750000 0.406779 0.250000
O O10 0.462874 0.444238 0.318721
O O11 0.513460 0.423624 0.117420
O O12 0.743800 0.941106 0.983777
O O13 0.443360 0.903659 0.977565
O O14 0.500000 0.000000 0.000000
O O15 0.248335 0.648902 0.424005
O O16 0.532497 0.079715 0.588305
O O17 0.500000 0.000000 0.500000
O O18 0.250000 0.598647 0.250000
#
# Coordination Sequence:
#
# PCOD9390542 Si02
#       8
#     2   8   8   8   8   8   8   8
#     4  12  22  44  64  94 130 172 222 276 336 378
#     4  11  23  42  66  98 133 173 222 275 331 400
#     4   9  18  34  61  94 123 167 217 258 314 387
#     4  10  21  40  61  89 128 165 206 265 315 384
#     4  11  23  40  64  93 124 165 211 267 328 396
#     4  10  20  40  64  92 133 169 216 267 330 387
#     4  12  24  39  61  93 124 167 214 264 330 395
#     4  10  21  41  63  91 129 174 213 269 331 394
#
# _framework density 20.721169
#
# number of rings (size 3 to 8) (size 9 to 14) (size 15 to 20)
#    0.000    1.517    2.069    5.586    0.000    4.414 
#    2.483    4.138    0.000    5.793    0.000    0.966 
#    0.000    0.000    0.000    0.000    0.000    0.000 
#
# Total GULP energy -322988.955962 kJ/mol
# GULP energy per Si atom -5568.775103 kJ/mol
# Density = 2.067401 g / cm^3
# Si number density = 20.721169 Si / 1000 Ang^3
#
#
#
# Elastic Constant Matrix: (Units=GPa)
#
#
# Indices 1 2 3 4 5 6 
#
# 1 114.3681 36.8527 51.8436 0.0000 0.0000 0.0000
# 2 36.8527 122.9124 77.9683 0.0000 0.0000 0.0000
# 3 51.8436 77.9683 158.7475 0.0000 0.0000 0.0000
# 4 0.0000 0.0000 0.0000 21.9418 0.0000 0.0000
# 5 0.0000 0.0000 0.0000 0.0000 16.7235 0.0000
# 6 0.0000 0.0000 0.0000 0.0000 0.0000 13.3559
#
#
#
# Elastic Compliance Matrix: (Units=1/GPa)
#
#
# Indices 1 2 3 4 5 6 
#
# 1 0.010427 -0.001404 -0.002716 0.000000 0.000000 0.000000
# 2 -0.001404 0.012007 -0.005439 0.000000 0.000000 0.000000
# 3 -0.002716 -0.005439 0.009857 0.000000 0.000000 0.000000
# 4 0.000000 0.000000 0.000000 0.045575 0.000000 0.000000
# 5 0.000000 0.000000 0.000000 0.000000 0.059796 0.000000
# 6 0.000000 0.000000 0.000000 0.000000 0.000000 0.074873
#
#
# Mechanical properties :
#
#
# Convention : Reuss Voigt Hill
#
# Bulk Modulus (GPa) = 75.90148 81.03968 78.47058
# Shear Modulus (GPa) = 21.18249 25.69512 23.43881
#
# Velocity S-wave (km/s) = 3.20075 3.52524 3.36691
# Velocity P-wave (km/s) = 7.09713 7.46755 7.28469
#
# Compressibility (1/GPa) = 0.01317497
#
# Stress axis : x y z
#
# Youngs Moduli (GPa) = 95.90391 83.28716 101.44595
#
# Poissons Ratio (x) = 0.11689 0.27552
# Poissons Ratio (y) = 0.13460 0.55173
# Poissons Ratio (z) = 0.26047 0.45297
#
# Static dielectric constant tensor:
#      x y z
#    x 1.771730 0.000000 0.000000 
#    y 0.000000 1.809760 0.000000 
#    z 0.000000 0.000000 1.830560 
# 
# From -- ./inp_files/18963.got.cif
#   From: 2010.05.17/outbox.cif.g08.bks.cpg/sg48_10_cif.got.tgz:18963.got - 2010.06.03 20:39:00.
