data_PCOD9390288
_publ_section_title
;
Structure prediction by ZEFSAII (Michael W. Deem and Ramdas Pophale) SiO2 
 PCOD9390288
Probable space group: P N N N
;
_chemical_formula_sum "Si O2"
_cell_formula_units_Z 64
_cell_length_a 13.814703
_cell_length_b 10.982624
_cell_length_c 21.874695
_cell_angle_alpha 90.000000
_cell_angle_beta 90.000000
_cell_angle_gamma 90.000000
_cell_volume 3318.865666
_symmetry_space_group_name_H-M "P N N N"
_symmetry_group_IT_number 48
_space_group.IT_coordinate_system_code '2'
_symmetry_cell_setting 'orthorhombic'
loop_
_space_group_symop_operation_xyz
x,y,z
1/2-x,1/2-y,z
x,1/2-y,1/2-z
1/2-x,y,1/2-z
-x,-y,-z
1/2+x,1/2+y,-z
-x,1/2+y,1/2+z
1/2+x,-y,1/2+z
loop_
_atom_site_type_symbol
_atom_site_label
_atom_site_fract_x
_atom_site_fract_y
_atom_site_fract_z
Si Si1 0.350891 0.999839 0.721754
Si Si2 0.142662 0.696030 0.617437
Si Si3 0.035534 0.231668 0.320998
Si Si4 0.353207 0.205141 0.626567
Si Si5 0.106648 0.012038 0.975389
Si Si6 0.317762 0.005184 0.190030
Si Si7 0.813026 0.874191 0.902055
Si Si8 0.995656 0.857856 0.299696
O O1 0.250000 0.958343 0.750000
O O2 0.330518 0.127594 0.687617
O O3 0.435804 0.031091 0.768926
O O4 0.377503 0.902306 0.670888
O O5 0.250000 0.750000 0.623053
O O6 0.137031 0.617158 0.555011
O O7 0.056683 0.791092 0.634091
O O8 0.004371 0.250000 0.250000
O O9 0.115076 0.125638 0.312430
O O10 0.095685 0.336908 0.358226
O O11 0.250000 0.250000 0.603245
O O12 0.394257 0.110959 0.578348
O O13 0.430067 0.307780 0.644998
O O14 0.164364 0.069740 0.032018
O O15 0.000000 0.000000 0.000000
O O16 0.250000 0.999578 0.250000
O O17 0.246235 0.023025 0.133819
O O18 0.395844 0.898024 0.185398
O O19 0.750000 0.750000 0.908501
O O20 0.001491 0.750000 0.250000
#
# Coordination Sequence:
#
# PCOD9390288 Si02
#       8
#     8   8   8   8   8   8   8   8
#     4  10  20  35  60  91 130 162 193 249 323 388
#     4  11  26  39  61  98 132 167 205 266 327 381
#     4  11  21  38  64  94 128 164 208 257 318 394
#     4  10  20  37  65  88 119 164 215 258 311 386
#     4  11  23  45  64  83 123 171 224 264 317 382
#     4  11  23  38  63  95 131 165 210 264 316 376
#     4  10  22  41  66  91 118 171 220 261 315 378
#     4  10  22  38  61  97 130 166 205 257 322 387
#
# _framework density 19.283695999999999
#
# number of rings (size 3 to 8) (size 9 to 14) (size 15 to 20)
#    0.000    1.500    3.750    1.125    3.500    1.250 
#    2.250    0.000    0.000    3.750    0.000    0.000 
#    0.000    0.000    0.000    0.000    0.000    0.000 
#
# Total GULP energy -356801.380256 kJ/mol
# GULP energy per Si atom -5575.021567 kJ/mol
# Density = 1.923981 g / cm^3
# Si number density = 19.283696 Si / 1000 Ang^3
#
#
#
# Elastic Constant Matrix: (Units=GPa)
#
#
# Indices 1 2 3 4 5 6 
#
# 1 134.0015 35.1932 48.9447 0.0000 0.0000 0.0000
# 2 35.1932 52.9827 31.4392 0.0000 0.0000 0.0000
# 3 48.9447 31.4392 111.7124 0.0000 0.0000 0.0000
# 4 0.0000 0.0000 0.0000 19.4926 0.0000 0.0000
# 5 0.0000 0.0000 0.0000 0.0000 22.7397 0.0000
# 6 0.0000 0.0000 0.0000 0.0000 0.0000 35.4790
#
#
#
# Elastic Compliance Matrix: (Units=1/GPa)
#
#
# Indices 1 2 3 4 5 6 
#
# 1 0.009788 -0.004750 -0.002952 0.000000 0.000000 0.000000
# 2 -0.004750 0.024963 -0.004944 0.000000 0.000000 0.000000
# 3 -0.002952 -0.004944 0.011636 0.000000 0.000000 0.000000
# 4 0.000000 0.000000 0.000000 0.051301 0.000000 0.000000
# 5 0.000000 0.000000 0.000000 0.000000 0.043976 0.000000
# 6 0.000000 0.000000 0.000000 0.000000 0.000000 0.028186
#
#
# Mechanical properties :
#
#
# Convention : Reuss Voigt Hill
#
# Bulk Modulus (GPa) = 47.40350 58.87231 53.13791
# Shear Modulus (GPa) = 24.73107 27.75024 26.24065
#
# Velocity S-wave (km/s) = 3.58507 3.79760 3.69286
# Velocity P-wave (km/s) = 6.46316 7.05867 6.76747
#
# Compressibility (1/GPa) = 0.02109549
#
# Stress axis : x y z
#
# Youngs Moduli (GPa) = 102.16275 40.05897 85.93857
#
# Poissons Ratio (x) = 0.19029 0.25366
# Poissons Ratio (y) = 0.48530 0.42489
# Poissons Ratio (z) = 0.30155 0.19806
#
# Static dielectric constant tensor:
#      x y z
#    x 1.714110 0.000000 0.000000 
#    y 0.000000 1.737050 0.000000 
#    z 0.000000 0.000000 1.686350 
# 
# From -- ./inp_files/36384.got.cif
#   From: 2010.05.17/outbox.cif.g08.bks.cpg/sg48_19_cif.got.tgz:36384.got - 2010.06.03 20:39:00.
