data_PCOD9390328
_publ_section_title
;
Structure prediction by ZEFSAII (Michael W. Deem and Ramdas Pophale) SiO2 
 PCOD9390328
Probable space group: P N N N
;
_chemical_formula_sum "Si O2"
_cell_formula_units_Z 44
_cell_length_a 29.359795
_cell_length_b 7.350844
_cell_length_c 8.586439
_cell_angle_alpha 90.000000
_cell_angle_beta 90.000000
_cell_angle_gamma 90.000000
_cell_volume 1853.119022
_symmetry_space_group_name_H-M "P N N N"
_symmetry_group_IT_number 48
_space_group.IT_coordinate_system_code '2'
_symmetry_cell_setting 'orthorhombic'
loop_
_space_group_symop_operation_xyz
x,y,z
1/2-x,1/2-y,z
x,1/2-y,1/2-z
1/2-x,y,1/2-z
-x,-y,-z
1/2+x,1/2+y,-z
-x,1/2+y,1/2+z
1/2+x,-y,1/2+z
loop_
_atom_site_type_symbol
_atom_site_label
_atom_site_fract_x
_atom_site_fract_y
_atom_site_fract_z
Si Si1 0.256144 0.970589 0.926063
Si Si2 0.424209 0.123934 0.525399
Si Si3 0.519953 0.750000 0.750000
Si Si4 0.666578 0.510985 0.896921
Si Si5 0.648552 0.418266 0.550040
Si Si6 0.940751 0.017559 0.349837
O O1 0.250000 0.750000 0.930320
O O2 0.250000 0.032485 0.750000
O O3 0.218333 0.046662 0.046891
O O4 0.308635 0.002854 0.961900
O O5 0.450016 0.115970 0.359280
O O6 0.443084 0.309457 0.597298
O O7 0.431017 0.978714 0.663118
O O8 0.370473 0.124662 0.492451
O O9 0.487052 0.629662 0.641215
O O10 0.652215 0.519296 0.716274
O O11 0.658729 0.296075 0.929410
O O12 0.601627 0.421802 0.455900
#
# Coordination Sequence:
#
# PCOD9390328 Si02
#       6
#     8   8   4   8   8   8
#     4   9  17  31  56  89 124 163 208 256 309 373
#     4  11  24  41  62  90 122 158 206 265 324 380
#     4  12  24  44  66  88 122 168 216 264 322 394
#     4  10  20  36  60  90 125 164 208 262 316 375
#     4  10  20  36  60  90 124 165 211 256 313 385
#     4  11  24  41  63  90 121 160 209 262 320 387
#
# _framework density 23.743753999999999
#
# number of rings (size 3 to 8) (size 9 to 14) (size 15 to 20)
#    0.000    1.636    0.000    4.909    0.000    5.091 
#    0.000    4.545    0.000    5.455    0.000    0.000 
#    0.000    0.000    0.000    0.000    0.000    0.000 
#
# Total GULP energy -245661.762658 kJ/mol
# GULP energy per Si atom -5583.221879 kJ/mol
# Density = 2.368971 g / cm^3
# Si number density = 23.743754 Si / 1000 Ang^3
#
#
#
# Elastic Constant Matrix: (Units=GPa)
#
#
# Indices 1 2 3 4 5 6 
#
# 1 111.8173 -3.5114 64.7523 0.0000 0.0000 0.0000
# 2 -3.5114 32.1141 8.5549 0.0000 0.0000 0.0000
# 3 64.7523 8.5549 135.5905 0.0000 0.0000 0.0000
# 4 0.0000 0.0000 0.0000 25.4011 0.0000 0.0000
# 5 0.0000 0.0000 0.0000 0.0000 51.5981 0.0000
# 6 0.0000 0.0000 0.0000 0.0000 0.0000 27.9762
#
#
#
# Elastic Compliance Matrix: (Units=1/GPa)
#
#
# Indices 1 2 3 4 5 6 
#
# 1 0.012648 0.003043 -0.006232 0.000000 0.000000 0.000000
# 2 0.003043 0.032403 -0.003498 0.000000 0.000000 0.000000
# 3 -0.006232 -0.003498 0.010572 0.000000 0.000000 0.000000
# 4 0.000000 0.000000 0.000000 0.039368 0.000000 0.000000
# 5 0.000000 0.000000 0.000000 0.000000 0.019381 0.000000
# 6 0.000000 0.000000 0.000000 0.000000 0.000000 0.035745
#
#
# Mechanical properties :
#
#
# Convention : Reuss Voigt Hill
#
# Bulk Modulus (GPa) = 23.66877 46.56818 35.11848
# Shear Modulus (GPa) = 28.15744 34.97682 31.56713
#
# Velocity S-wave (km/s) = 3.44741 3.84226 3.65018
# Velocity P-wave (km/s) = 5.08294 6.27211 5.70857
#
# Compressibility (1/GPa) = 0.04224976
#
# Stress axis : x y z
#
# Youngs Moduli (GPa) = 79.06658 30.86093 94.59006
#
# Poissons Ratio (x) = -0.09391 0.58948
# Poissons Ratio (y) = -0.24060 0.33084
# Poissons Ratio (z) = 0.49274 0.10794
#
# Static dielectric constant tensor:
#      x y z
#    x 1.860500 0.000000 0.000000 
#    y 0.000000 1.978010 0.000000 
#    z 0.000000 0.000000 2.014850 
# 
# From -- ./inp_files/16708.got.cif
#   From: 2010.05.17/outbox.cif.g08.bks.cpg/sg48_9_cif.got.tgz:16708.got - 2010.06.03 20:39:00.
