data_PCOD9390797
_publ_section_title
;
Structure prediction by ZEFSAII (Michael W. Deem and Ramdas Pophale) SiO2 
 PCOD9390797
Probable space group: P N N N
;
_chemical_formula_sum "Si O2"
_cell_formula_units_Z 58
_cell_length_a 17.180123
_cell_length_b 8.615766
_cell_length_c 18.957904
_cell_angle_alpha 90.000000
_cell_angle_beta 90.000000
_cell_angle_gamma 90.000000
_cell_volume 2806.147426
_symmetry_space_group_name_H-M "P N N N"
_symmetry_group_IT_number 48
_space_group.IT_coordinate_system_code '2'
_symmetry_cell_setting 'orthorhombic'
loop_
_space_group_symop_operation_xyz
x,y,z
1/2-x,1/2-y,z
x,1/2-y,1/2-z
1/2-x,y,1/2-z
-x,-y,-z
1/2+x,1/2+y,-z
-x,1/2+y,1/2+z
1/2+x,-y,1/2+z
loop_
_atom_site_type_symbol
_atom_site_label
_atom_site_fract_x
_atom_site_fract_y
_atom_site_fract_z
Si Si1 0.460051 0.424430 0.569213
Si Si2 0.726957 0.078469 0.877526
Si Si3 0.622038 0.584753 0.833286
Si Si4 0.425690 0.069595 0.171241
Si Si5 0.200834 0.942797 0.543322
Si Si6 0.250000 0.750000 0.750000
Si Si7 0.657092 0.119219 0.378377
Si Si8 0.005689 0.437950 0.579071
O O1 0.500000 0.500000 0.500000
O O2 0.492837 0.519625 0.636870
O O3 0.368853 0.440620 0.556194
O O4 0.479104 0.244491 0.578268
O O5 0.750000 0.250000 0.854511
O O6 0.787096 0.957415 0.841540
O O7 0.638820 0.047685 0.856622
O O8 0.726211 0.069543 0.962321
O O9 0.601105 0.760337 0.854739
O O10 0.585727 0.567866 0.755253
O O11 0.576032 0.469554 0.883725
O O12 0.277724 0.988021 0.585777
O O13 0.166387 0.778948 0.575189
O O14 0.308280 0.843229 0.698493
O O15 0.573467 0.039528 0.383042
O O16 0.000000 0.500000 0.500000
#
# Coordination Sequence:
#
# PCOD9390797 Si02
#       8
#     8   8   8   8   8   2   8   8
#     4  12  24  42  65  96 128 171 214 269 330 383
#     4  12  22  39  66  95 133 170 213 264 319 385
#     4  11  26  44  65  95 128 177 217 265 328 387
#     4  11  25  45  66  91 134 173 218 266 323 395
#     4  10  21  39  64  94 129 166 211 262 321 380
#     4   8  20  40  72  94 124 176 216 266 328 400
#     4  10  21  42  66  97 128 170 219 266 325 392
#     4  12  26  41  66  96 131 166 220 273 323 390
#
# _framework density 20.668906
#
# number of rings (size 3 to 8) (size 9 to 14) (size 15 to 20)
#    0.000    1.103    2.759    4.966    0.000    7.724 
#    2.483    0.000    0.000    3.310    0.000    0.000 
#    0.000    0.000    0.000    0.000    0.000    0.000 
#
# Total GULP energy -324092.048565 kJ/mol
# GULP energy per Si atom -5587.793941 kJ/mol
# Density = 2.062186 g / cm^3
# Si number density = 20.668906 Si / 1000 Ang^3
#
#
#
# Elastic Constant Matrix: (Units=GPa)
#
#
# Indices 1 2 3 4 5 6 
#
# 1 52.7980 -12.9086 -4.5644 0.0000 0.0000 0.0000
# 2 -12.9086 81.7509 5.9221 0.0000 0.0000 0.0000
# 3 -4.5644 5.9221 73.6146 0.0000 0.0000 0.0000
# 4 0.0000 0.0000 0.0000 18.5220 0.0000 0.0000
# 5 0.0000 0.0000 0.0000 0.0000 32.0390 0.0000
# 6 0.0000 0.0000 0.0000 0.0000 0.0000 39.1327
#
#
#
# Elastic Compliance Matrix: (Units=1/GPa)
#
#
# Indices 1 2 3 4 5 6 
#
# 1 0.019771 0.003051 0.000980 0.000000 0.000000 0.000000
# 2 0.003051 0.012775 -0.000839 0.000000 0.000000 0.000000
# 3 0.000980 -0.000839 0.013713 0.000000 0.000000 0.000000
# 4 0.000000 0.000000 0.000000 0.053990 0.000000 0.000000
# 5 0.000000 0.000000 0.000000 0.000000 0.031212 0.000000
# 6 0.000000 0.000000 0.000000 0.000000 0.000000 0.025554
#
#
# Mechanical properties :
#
#
# Convention : Reuss Voigt Hill
#
# Bulk Modulus (GPa) = 18.99569 20.56239 19.77904
# Shear Modulus (GPa) = 29.73072 32.58637 31.15854
#
# Velocity S-wave (km/s) = 3.79678 3.97494 3.88688
# Velocity P-wave (km/s) = 5.33208 5.57108 5.45289
#
# Compressibility (1/GPa) = 0.05264353
#
# Stress axis : x y z
#
# Youngs Moduli (GPa) = 50.57969 78.27936 72.92605
#
# Poissons Ratio (x) = -0.23882 -0.07150
# Poissons Ratio (y) = -0.15431 0.06115
# Poissons Ratio (z) = -0.04959 0.06564
#
# Static dielectric constant tensor:
#      x y z
#    x 1.568300 0.000000 0.000000 
#    y 0.000000 1.752900 0.000000 
#    z 0.000000 0.000000 1.790520 
# 
# From -- ./inp_files/32018.got.cif
#   From: 2010.05.17/outbox.cif.g08.bks.cpg/sg48_17_cif.got.tgz:32018.got - 2010.06.03 20:39:00.
