data_PCOD9390695
_publ_section_title
;
Structure prediction by ZEFSAII (Michael W. Deem and Ramdas Pophale) SiO2 
 PCOD9390695
Probable space group: P N N N
;
_chemical_formula_sum "Si O2"
_cell_formula_units_Z 36
_cell_length_a 20.616165
_cell_length_b 10.776255
_cell_length_c 8.060151
_cell_angle_alpha 90.000000
_cell_angle_beta 90.000000
_cell_angle_gamma 90.000000
_cell_volume 1790.683859
_symmetry_space_group_name_H-M "P N N N"
_symmetry_group_IT_number 48
_space_group.IT_coordinate_system_code '2'
_symmetry_cell_setting 'orthorhombic'
loop_
_space_group_symop_operation_xyz
x,y,z
1/2-x,1/2-y,z
x,1/2-y,1/2-z
1/2-x,y,1/2-z
-x,-y,-z
1/2+x,1/2+y,-z
-x,1/2+y,1/2+z
1/2+x,-y,1/2+z
loop_
_atom_site_type_symbol
_atom_site_label
_atom_site_fract_x
_atom_site_fract_y
_atom_site_fract_z
Si Si1 0.896636 0.040646 0.606175
Si Si2 0.192112 0.407660 0.372957
Si Si3 0.008931 0.750000 0.250000
Si Si4 0.424250 0.234481 0.057397
Si Si5 0.231534 0.882256 0.559509
O O1 0.946799 0.141267 0.672944
O O2 0.843796 0.096351 0.480510
O O3 0.857145 0.990478 0.765163
O O4 0.923963 0.913470 0.528330
O O5 0.250000 0.371467 0.250000
O O6 0.147967 0.295810 0.442746
O O7 0.227187 0.500631 0.497465
O O8 0.965282 0.707088 0.407464
O O9 0.447716 0.250000 0.250000
O O10 0.250000 0.750000 0.477707
O O11 0.250000 0.873512 0.750000
#
# Coordination Sequence:
#
# PCOD9390695 Si02
#       5
#     8   8   4   8   8
#     4  10  22  41  61  90 129 165 220 271 318 399
#     4   9  20  40  65  87 125 165 207 272 336 373
#     4  12  24  42  65  91 130 184 216 264 324 390
#     4  10  24  42  63  95 127 171 220 266 321 398
#     4  10  21  37  60  96 125 162 214 272 329 389
#
# _framework density 20.104049
#
# number of rings (size 3 to 8) (size 9 to 14) (size 15 to 20)
#    0.000    2.000    0.000    2.000    3.111   16.889 
#    8.000    1.111    0.000    0.000    0.000    0.000 
#    0.000    0.000    0.000    0.000    0.000    0.000 
#
# Total GULP energy -200678.637087 kJ/mol
# GULP energy per Si atom -5574.406586 kJ/mol
# Density = 2.005829 g / cm^3
# Si number density = 20.104049 Si / 1000 Ang^3
#
#
#
# Elastic Constant Matrix: (Units=GPa)
#
#
# Indices 1 2 3 4 5 6 
#
# 1 124.7937 60.3780 52.9494 0.0000 0.0000 0.0000
# 2 60.3780 126.9871 37.3168 0.0000 0.0000 0.0000
# 3 52.9494 37.3168 93.8892 0.0000 0.0000 0.0000
# 4 0.0000 0.0000 0.0000 43.1136 0.0000 0.0000
# 5 0.0000 0.0000 0.0000 0.0000 27.3854 0.0000
# 6 0.0000 0.0000 0.0000 0.0000 0.0000 45.6703
#
#
#
# Elastic Compliance Matrix: (Units=1/GPa)
#
#
# Indices 1 2 3 4 5 6 
#
# 1 0.012325 -0.004322 -0.005233 0.000000 0.000000 0.000000
# 2 -0.004322 0.010432 -0.001709 0.000000 0.000000 0.000000
# 3 -0.005233 -0.001709 0.014281 0.000000 0.000000 0.000000
# 4 0.000000 0.000000 0.000000 0.023195 0.000000 0.000000
# 5 0.000000 0.000000 0.000000 0.000000 0.036516 0.000000
# 6 0.000000 0.000000 0.000000 0.000000 0.000000 0.021896
#
#
# Mechanical properties :
#
#
# Convention : Reuss Voigt Hill
#
# Bulk Modulus (GPa) = 68.91604 71.88426 70.40015
# Shear Modulus (GPa) = 34.24469 36.23557 35.24013
#
# Velocity S-wave (km/s) = 4.13167 4.25008 4.19129
# Velocity P-wave (km/s) = 7.55745 7.74067 7.64961
#
# Compressibility (1/GPa) = 0.01451041
#
# Stress axis : x y z
#
# Youngs Moduli (GPa) = 81.13840 95.85862 70.02326
#
# Poissons Ratio (x) = 0.41433 0.36641
# Poissons Ratio (y) = 0.35070 0.11965
# Poissons Ratio (z) = 0.42457 0.16379
#
# Static dielectric constant tensor:
#      x y z
#    x 1.773780 0.000000 0.000000 
#    y 0.000000 1.820280 0.000000 
#    z 0.000000 0.000000 1.692140 
# 
# From -- ./inp_files/14841.got.cif
#   From: 2010.05.17/outbox.cif.g08.bks.cpg/sg48_8_cif.got.tgz:14841.got - 2010.06.03 20:39:00.
