data_PCOD9390254
_publ_section_title
;
Structure prediction by ZEFSAII (Michael W. Deem and Ramdas Pophale) SiO2 
 PCOD9390254
Probable space group: P N N N
;
_chemical_formula_sum "Si O2"
_cell_formula_units_Z 64
_cell_length_a 32.835427
_cell_length_b 12.580708
_cell_length_c 8.740224
_cell_angle_alpha 90.000000
_cell_angle_beta 90.000000
_cell_angle_gamma 90.000000
_cell_volume 3610.524646
_symmetry_space_group_name_H-M "P N N N"
_symmetry_group_IT_number 48
_space_group.IT_coordinate_system_code '2'
_symmetry_cell_setting 'orthorhombic'
loop_
_space_group_symop_operation_xyz
x,y,z
1/2-x,1/2-y,z
x,1/2-y,1/2-z
1/2-x,y,1/2-z
-x,-y,-z
1/2+x,1/2+y,-z
-x,1/2+y,1/2+z
1/2+x,-y,1/2+z
loop_
_atom_site_type_symbol
_atom_site_label
_atom_site_fract_x
_atom_site_fract_y
_atom_site_fract_z
Si Si1 0.831217 0.032171 0.433047
Si Si2 0.336411 0.903351 0.580006
Si Si3 0.751257 0.376569 0.566429
Si Si4 0.418066 0.483945 0.927110
Si Si5 0.378416 0.789164 0.077819
Si Si6 0.051326 0.228951 0.070862
Si Si7 0.388134 0.147860 0.853456
Si Si8 0.957712 0.213205 0.074472
O O1 0.833112 0.080296 0.261433
O O2 0.786673 0.058827 0.497406
O O3 0.862476 0.093972 0.543818
O O4 0.848571 0.912944 0.417428
O O5 0.293412 0.920745 0.499941
O O6 0.352141 0.786915 0.533457
O O7 0.372774 0.979768 0.523813
O O8 0.750000 0.250000 0.525621
O O9 0.750000 0.382633 0.750000
O O10 0.411769 0.435042 0.757515
O O11 0.446117 0.588331 0.930743
O O12 0.434937 0.390227 0.030668
O O13 0.371195 0.750000 0.250000
O O14 0.425030 0.773103 0.030591
O O15 0.054275 0.250000 0.250000
O O16 0.003792 0.236977 0.026468
O O17 0.080663 0.308357 0.979217
O O18 0.376708 0.250000 0.750000
O O19 0.952032 0.250000 0.250000
#
# Coordination Sequence:
#
# PCOD9390254 Si02
#       8
#     8   8   8   8   8   8   8   8
#     4  11  21  36  59  79 111 156 187 221 278 333
#     4  10  20  35  55  80 109 150 185 220 268 337
#     4  11  22  34  53  87 124 147 177 224 274 339
#     4   9  19  37  58  76 107 145 185 229 278 327
#     4  11  21  32  50  82 117 147 182 225 280 338
#     4  10  21  36  56  81 108 142 187 236 279 327
#     4   9  20  38  58  80 105 144 193 236 273 326
#     4  10  20  36  54  79 110 143 185 230 276 338
#
# _framework density 17.725954999999999
#
# number of rings (size 3 to 8) (size 9 to 14) (size 15 to 20)
#    0.000    1.875    1.250    4.125    0.000    5.000 
#    0.000    5.625    0.000   12.750    0.000    8.750 
#    0.000    0.000    0.000    0.000    0.000    0.000 
#
# Total GULP energy -357148.437288 kJ/mol
# GULP energy per Si atom -5580.444333 kJ/mol
# Density = 1.768561 g / cm^3
# Si number density = 17.725955 Si / 1000 Ang^3
#
#
#
# Elastic Constant Matrix: (Units=GPa)
#
#
# Indices 1 2 3 4 5 6 
#
# 1 145.1210 63.8841 55.7832 0.0000 0.0000 0.0000
# 2 63.8841 66.0882 28.6170 0.0000 0.0000 0.0000
# 3 55.7832 28.6170 63.6369 0.0000 0.0000 0.0000
# 4 0.0000 0.0000 0.0000 16.6836 0.0000 0.0000
# 5 0.0000 0.0000 0.0000 0.0000 24.1980 0.0000
# 6 0.0000 0.0000 0.0000 0.0000 0.0000 18.9707
#
#
#
# Elastic Compliance Matrix: (Units=1/GPa)
#
#
# Indices 1 2 3 4 5 6 
#
# 1 0.014720 -0.010731 -0.008077 0.000000 0.000000 0.000000
# 2 -0.010731 0.026614 -0.002561 0.000000 0.000000 0.000000
# 3 -0.008077 -0.002561 0.023946 0.000000 0.000000 0.000000
# 4 0.000000 0.000000 0.000000 0.059939 0.000000 0.000000
# 5 0.000000 0.000000 0.000000 0.000000 0.041326 0.000000
# 6 0.000000 0.000000 0.000000 0.000000 0.000000 0.052713
#
#
# Mechanical properties :
#
#
# Convention : Reuss Voigt Hill
#
# Bulk Modulus (GPa) = 44.36491 63.49051 53.92771
# Shear Modulus (GPa) = 18.55220 20.40791 19.48006
#
# Velocity S-wave (km/s) = 3.23865 3.39676 3.31865
# Velocity P-wave (km/s) = 6.25041 7.16098 6.72113
#
# Compressibility (1/GPa) = 0.02254034
#
# Stress axis : x y z
#
# Youngs Moduli (GPa) = 67.93655 37.57491 41.76005
#
# Poissons Ratio (x) = 0.40322 0.33731
# Poissons Ratio (y) = 0.72904 0.10695
# Poissons Ratio (z) = 0.54874 0.09623
#
# Static dielectric constant tensor:
#      x y z
#    x 1.605010 0.000000 0.000000 
#    y 0.000000 1.610590 0.000000 
#    z 0.000000 0.000000 1.597230 
# 
# From -- ./inp_files/16967.got.cif
#   From: 2010.05.17/outbox.cif.g08.bks.cpg/sg48_9_cif.got.tgz:16967.got - 2010.06.03 20:39:00.
