data_PCOD9390931
_publ_section_title
;
Structure prediction by ZEFSAII (Michael W. Deem and Ramdas Pophale) SiO2 
 PCOD9390931
Probable space group: P N N N
;
_chemical_formula_sum "Si O2"
_cell_formula_units_Z 48
_cell_length_a 14.840477
_cell_length_b 14.497299
_cell_length_c 9.053666
_cell_angle_alpha 90.000000
_cell_angle_beta 90.000000
_cell_angle_gamma 90.000000
_cell_volume 1947.867561
_symmetry_space_group_name_H-M "P N N N"
_symmetry_group_IT_number 48
_space_group.IT_coordinate_system_code '2'
_symmetry_cell_setting 'orthorhombic'
loop_
_space_group_symop_operation_xyz
x,y,z
1/2-x,1/2-y,z
x,1/2-y,1/2-z
1/2-x,y,1/2-z
-x,-y,-z
1/2+x,1/2+y,-z
-x,1/2+y,1/2+z
1/2+x,-y,1/2+z
loop_
_atom_site_type_symbol
_atom_site_label
_atom_site_fract_x
_atom_site_fract_y
_atom_site_fract_z
Si Si1 0.069743 0.878451 0.553047
Si Si2 0.133514 0.048931 0.403096
Si Si3 0.099477 0.934896 0.878528
Si Si4 0.151383 0.784141 0.082082
Si Si5 0.410991 0.161756 0.355282
Si Si6 0.204780 0.377611 0.600113
O O1 0.116288 0.895364 0.712218
O O2 0.078286 0.772655 0.511236
O O3 0.966040 0.910398 0.556321
O O4 0.119924 0.940073 0.429321
O O5 0.148066 0.090416 0.241941
O O6 0.211664 0.082366 0.508655
O O7 0.995478 0.903883 0.894956
O O8 0.134274 0.038947 0.868163
O O9 0.144548 0.887540 0.021746
O O10 0.250000 0.750000 0.037883
O O11 0.138723 0.750000 0.250000
O O12 0.430273 0.250000 0.250000
O O13 0.353015 0.190833 0.497341
O O14 0.250000 0.345357 0.750000
#
# Coordination Sequence:
#
# PCOD9390931 Si02
#       6
#     8   8   8   8   8   8
#     4  10  21  42  67  96 139 191 239 292 368 440
#     4  10  22  41  69  96 137 188 238 288 365 439
#     4  11  23  45  72 102 145 184 245 301 372 441
#     4  11  25  39  63 103 143 187 237 302 366 441
#     4  11  26  49  74 102 145 202 245 299 378 448
#     4  12  25  43  72 114 138 183 247 309 363 436
#
# _framework density 24.642333000000001
#
# number of rings (size 3 to 8) (size 9 to 14) (size 15 to 20)
#    0.000    1.167    1.667    4.500    2.333    3.333 
#    0.000    1.667    0.000    0.000    0.000    0.000 
#    0.000    0.000    0.000    0.000    0.000    0.000 
#
# Total GULP energy -268193.917305 kJ/mol
# GULP energy per Si atom -5587.373277 kJ/mol
# Density = 2.458625 g / cm^3
# Si number density = 24.642333 Si / 1000 Ang^3
#
#
#
# Elastic Constant Matrix: (Units=GPa)
#
#
# Indices 1 2 3 4 5 6 
#
# 1 93.3251 29.7295 60.1651 0.0000 0.0000 0.0000
# 2 29.7295 100.2228 24.8586 0.0000 0.0000 0.0000
# 3 60.1651 24.8586 90.6340 0.0000 0.0000 0.0000
# 4 0.0000 0.0000 0.0000 39.1120 0.0000 0.0000
# 5 0.0000 0.0000 0.0000 0.0000 44.6506 0.0000
# 6 0.0000 0.0000 0.0000 0.0000 0.0000 16.0670
#
#
#
# Elastic Compliance Matrix: (Units=1/GPa)
#
#
# Indices 1 2 3 4 5 6 
#
# 1 0.019413 -0.002749 -0.012133 0.000000 0.000000 0.000000
# 2 -0.002749 0.011095 -0.001218 0.000000 0.000000 0.000000
# 3 -0.012133 -0.001218 0.019421 0.000000 0.000000 0.000000
# 4 0.000000 0.000000 0.000000 0.025568 0.000000 0.000000
# 5 0.000000 0.000000 0.000000 0.000000 0.022396 0.000000
# 6 0.000000 0.000000 0.000000 0.000000 0.000000 0.062240
#
#
# Mechanical properties :
#
#
# Convention : Reuss Voigt Hill
#
# Bulk Modulus (GPa) = 56.40298 57.07649 56.73974
# Shear Modulus (GPa) = 25.22161 31.26116 28.24139
#
# Velocity S-wave (km/s) = 3.20270 3.56560 3.38901
# Velocity P-wave (km/s) = 6.05101 6.33747 6.19590
#
# Compressibility (1/GPa) = 0.01772956
#
# Stress axis : x y z
#
# Youngs Moduli (GPa) = 51.51268 90.12724 51.48949
#
# Poissons Ratio (x) = 0.24778 0.62470
# Poissons Ratio (y) = 0.14162 0.06273
# Poissons Ratio (z) = 0.62498 0.10979
#
# Static dielectric constant tensor:
#      x y z
#    x 1.961840 0.000000 0.000000 
#    y 0.000000 2.014980 0.000000 
#    z 0.000000 0.000000 2.043080 
# 
# From -- ./inp_files/12773.got.cif
#   From: 2010.05.17/outbox.cif.g08.bks.cpg/sg48_7_cif.got.tgz:12773.got - 2010.06.03 20:39:00.
