data_PCOD9390412
_publ_section_title
;
Structure prediction by ZEFSAII (Michael W. Deem and Ramdas Pophale) SiO2 
 PCOD9390412
Probable space group: P N N N
;
_chemical_formula_sum "Si O2"
_cell_formula_units_Z 64
_cell_length_a 20.415710
_cell_length_b 7.151759
_cell_length_c 17.073856
_cell_angle_alpha 90.000000
_cell_angle_beta 90.000000
_cell_angle_gamma 90.000000
_cell_volume 2492.923626
_symmetry_space_group_name_H-M "P N N N"
_symmetry_group_IT_number 48
_space_group.IT_coordinate_system_code '2'
_symmetry_cell_setting 'orthorhombic'
loop_
_space_group_symop_operation_xyz
x,y,z
1/2-x,1/2-y,z
x,1/2-y,1/2-z
1/2-x,y,1/2-z
-x,-y,-z
1/2+x,1/2+y,-z
-x,1/2+y,1/2+z
1/2+x,-y,1/2+z
loop_
_atom_site_type_symbol
_atom_site_label
_atom_site_fract_x
_atom_site_fract_y
_atom_site_fract_z
Si Si1 0.610904 0.996209 0.392580
Si Si2 0.632307 0.462134 0.939757
Si Si3 0.085595 0.116283 0.430922
Si Si4 0.361361 0.469207 0.727468
Si Si5 0.276123 0.452625 0.427239
Si Si6 0.244409 0.524571 0.898338
Si Si7 0.021409 0.715532 0.343059
Si Si8 0.462775 0.947170 0.906606
O O1 0.685563 0.918581 0.399004
O O2 0.609817 0.114331 0.473434
O O3 0.623281 0.084361 0.306433
O O4 0.545939 0.872816 0.378812
O O5 0.621934 0.683212 0.950274
O O6 0.708627 0.425007 0.920642
O O7 0.584142 0.394208 0.872277
O O8 0.151244 0.016177 0.392209
O O9 0.068304 0.022680 0.515284
O O10 0.013102 0.221322 0.408281
O O11 0.368740 0.250000 0.750000
O O12 0.294110 0.488475 0.681180
O O13 0.414811 0.526601 0.663810
O O14 0.250000 0.250000 0.400465
O O15 0.288072 0.464501 0.520824
O O16 0.250000 0.750000 0.902307
O O17 0.017576 0.750000 0.250000
O O18 0.026469 0.919702 0.383727
#
# Coordination Sequence:
#
# PCOD9390412 Si02
#       8
#     8   8   8   8   8   8   8   8
#     4  11  22  39  64  87 135 175 220 266 322 409
#     4  10  22  40  66  99 128 173 224 276 337 406
#     4  10  20  37  65  96 134 169 215 278 338 399
#     4  12  22  40  63  88 133 185 232 258 322 420
#     4   9  20  41  69  96 130 178 229 265 332 424
#     4  11  26  39  59  97 141 176 219 272 330 391
#     4  12  23  42  65  93 128 170 231 280 335 403
#     4  11  21  37  63  97 126 173 223 271 332 403
#
# _framework density 25.67267
#
# number of rings (size 3 to 8) (size 9 to 14) (size 15 to 20)
#    0.000    1.250    5.000    0.750    3.500    5.000 
#    0.000    0.625    0.000    2.250    0.000    2.625 
#    0.000    0.000    0.000    0.000    0.000    0.000 
#
# Total GULP energy -356685.538904 kJ/mol
# GULP energy per Si atom -5573.211545 kJ/mol
# Density = 2.561424 g / cm^3
# Si number density = 25.672670 Si / 1000 Ang^3
#
#
#
# Elastic Constant Matrix: (Units=GPa)
#
#
# Indices 1 2 3 4 5 6 
#
# 1 237.6681 14.9400 28.1031 0.0000 0.0000 0.0000
# 2 14.9400 66.6279 0.5672 0.0000 0.0000 0.0000
# 3 28.1031 0.5672 91.7444 0.0000 0.0000 0.0000
# 4 0.0000 0.0000 0.0000 20.1366 0.0000 0.0000
# 5 0.0000 0.0000 0.0000 0.0000 38.7525 0.0000
# 6 0.0000 0.0000 0.0000 0.0000 0.0000 31.1962
#
#
#
# Elastic Compliance Matrix: (Units=1/GPa)
#
#
# Indices 1 2 3 4 5 6 
#
# 1 0.004429 -0.000982 -0.001351 0.000000 0.000000 0.000000
# 2 -0.000982 0.015227 0.000207 0.000000 0.000000 0.000000
# 3 -0.001351 0.000207 0.011312 0.000000 0.000000 0.000000
# 4 0.000000 0.000000 0.000000 0.049661 0.000000 0.000000
# 5 0.000000 0.000000 0.000000 0.000000 0.025805 0.000000
# 6 0.000000 0.000000 0.000000 0.000000 0.000000 0.032055
#
#
# Mechanical properties :
#
#
# Convention : Reuss Voigt Hill
#
# Bulk Modulus (GPa) = 37.42940 53.69568 45.56254
# Shear Modulus (GPa) = 32.97148 41.51239 37.24194
#
# Velocity S-wave (km/s) = 3.58760 4.02554 3.81287
# Velocity P-wave (km/s) = 5.63670 6.52438 6.09672
#
# Compressibility (1/GPa) = 0.02671697
#
# Stress axis : x y z
#
# Youngs Moduli (GPa) = 225.78690 65.67250 88.39947
#
# Poissons Ratio (x) = 0.06446 0.11939
# Poissons Ratio (y) = 0.22163 -0.01826
# Poissons Ratio (z) = 0.30495 -0.01356
#
# Static dielectric constant tensor:
#      x y z
#    x 2.432130 0.000000 0.000000 
#    y 0.000000 2.325900 0.000000 
#    z 0.000000 0.000000 1.984690 
# 
# From -- ./inp_files/32226.got.cif
#   From: 2010.05.17/outbox.cif.g08.bks.cpg/sg48_17_cif.got.tgz:32226.got - 2010.06.03 20:39:00.
