data_PCOD9390623
_publ_section_title
;
Structure prediction by ZEFSAII (Michael W. Deem and Ramdas Pophale) SiO2 
 PCOD9390623
Probable space group: P N N N
;
_chemical_formula_sum "Si O2"
_cell_formula_units_Z 48
_cell_length_a 11.702762
_cell_length_b 8.239211
_cell_length_c 21.675141
_cell_angle_alpha 90.000000
_cell_angle_beta 90.000000
_cell_angle_gamma 90.000000
_cell_volume 2089.950158
_symmetry_space_group_name_H-M "P N N N"
_symmetry_group_IT_number 48
_space_group.IT_coordinate_system_code '2'
_symmetry_cell_setting 'orthorhombic'
loop_
_space_group_symop_operation_xyz
x,y,z
1/2-x,1/2-y,z
x,1/2-y,1/2-z
1/2-x,y,1/2-z
-x,-y,-z
1/2+x,1/2+y,-z
-x,1/2+y,1/2+z
1/2+x,-y,1/2+z
loop_
_atom_site_type_symbol
_atom_site_label
_atom_site_fract_x
_atom_site_fract_y
_atom_site_fract_z
Si Si1 0.868755 0.430538 0.223625
Si Si2 0.681235 0.416850 0.025258
Si Si3 0.900972 0.634397 0.997785
Si Si4 0.949972 0.559665 0.584593
Si Si5 0.125443 0.179057 0.632303
Si Si6 0.058265 0.616979 0.292879
O O1 0.865238 0.250000 0.250000
O O2 0.750000 0.506077 0.250000
O O3 0.870109 0.488538 0.152196
O O4 0.986993 0.496957 0.249974
O O5 0.750000 0.250000 0.030588
O O6 0.778171 0.549229 0.008414
O O7 0.589660 0.434196 0.081332
O O8 0.599331 0.433996 0.965927
O O9 0.913621 0.717356 0.063844
O O10 0.912643 0.761188 0.941446
O O11 0.000000 0.500000 0.000000
O O12 0.900373 0.496032 0.650003
O O13 0.250000 0.250000 0.640562
O O14 0.037295 0.269623 0.675649
O O15 0.124007 0.750000 0.250000
#
# Coordination Sequence:
#
# PCOD9390623 Si02
#       6
#     8   8   8   8   8   8
#     4  10  21  34  55  89 125 168 225 277 346 421
#     4  11  23  41  65 102 139 185 235 289 362 434
#     4  12  25  40  63 101 140 188 235 289 368 424
#     4  11  23  43  67  95 144 186 234 293 357 437
#     4  11  20  37  58  85 132 176 219 279 350 434
#     4  10  22  38  62  89 125 177 223 282 350 422
#
# _framework density 22.967055999999999
#
# number of rings (size 3 to 8) (size 9 to 14) (size 15 to 20)
#    0.000    1.167    3.333    4.500    2.333    0.000 
#    0.000    0.000    0.000    0.500    0.000    0.000 
#    0.000    0.000    0.000    0.000    0.000    0.000 
#
# Total GULP energy -267393.344785 kJ/mol
# GULP energy per Si atom -5570.694683 kJ/mol
# Density = 2.291478 g / cm^3
# Si number density = 22.967056 Si / 1000 Ang^3
#
#
#
# Elastic Constant Matrix: (Units=GPa)
#
#
# Indices 1 2 3 4 5 6 
#
# 1 96.8003 33.0763 12.2180 0.0000 0.0000 0.0000
# 2 33.0763 143.9468 46.5998 0.0000 0.0000 0.0000
# 3 12.2180 46.5998 95.5182 0.0000 0.0000 0.0000
# 4 0.0000 0.0000 0.0000 43.1813 0.0000 0.0000
# 5 0.0000 0.0000 0.0000 0.0000 -10.1387 0.0000
# 6 0.0000 0.0000 0.0000 0.0000 0.0000 29.6126
#
#
#
# Elastic Compliance Matrix: (Units=1/GPa)
#
#
# Indices 1 2 3 4 5 6 
#
# 1 0.011214 -0.002509 -0.000211 0.000000 0.000000 0.000000
# 2 -0.002509 0.008811 -0.003978 0.000000 0.000000 0.000000
# 3 -0.000211 -0.003978 0.012437 0.000000 0.000000 0.000000
# 4 0.000000 0.000000 0.000000 0.023158 0.000000 0.000000
# 5 0.000000 0.000000 0.000000 0.000000 -0.098632 0.000000
# 6 0.000000 0.000000 0.000000 0.000000 0.000000 0.033769
#
#
# Mechanical properties :
#
#
# Convention : Reuss Voigt Hill
#
# Bulk Modulus (GPa) = 52.44318 57.78371 55.11345
# Shear Modulus (GPa) = 475.83573 28.82247 252.32910
#
# Velocity S-wave (km/s) = 14.40943 3.54637 10.49305
# Velocity P-wave (km/s) = 17.31259 6.47943 13.07113
#
# Compressibility (1/GPa) = 0.01906826
#
# Stress axis : x y z
#
# Youngs Moduli (GPa) = 89.17162 113.49229 80.40689
#
# Poissons Ratio (x) = 0.28472 0.01693
# Poissons Ratio (y) = 0.22370 0.31984
# Poissons Ratio (z) = 0.01878 0.45144
#
# Static dielectric constant tensor:
#      x y z
#    x 1.873630 0.000000 0.000000 
#    y 0.000000 2.139170 0.000000 
#    z 0.000000 0.000000 1.948060 
# 
# From -- ./inp_files/36241.got.cif
#   From: 2010.05.17/outbox.cif.g08.bks.cpg/sg48_19_cif.got.tgz:36241.got - 2010.06.03 20:39:00.
