data_PCOD9390051
_publ_section_title
;
Structure prediction by ZEFSAII (Michael W. Deem and Ramdas Pophale) SiO2 
 PCOD9390051
Probable space group: P N N N
;
_chemical_formula_sum "Si O2"
_cell_formula_units_Z 46
_cell_length_a 6.963986
_cell_length_b 14.619426
_cell_length_c 18.307011
_cell_angle_alpha 90.000000
_cell_angle_beta 90.000000
_cell_angle_gamma 90.000000
_cell_volume 1863.827234
_symmetry_space_group_name_H-M "P N N N"
_symmetry_group_IT_number 48
_space_group.IT_coordinate_system_code '2'
_symmetry_cell_setting 'orthorhombic'
loop_
_space_group_symop_operation_xyz
x,y,z
1/2-x,1/2-y,z
x,1/2-y,1/2-z
1/2-x,y,1/2-z
-x,-y,-z
1/2+x,1/2+y,-z
-x,1/2+y,1/2+z
1/2+x,-y,1/2+z
loop_
_atom_site_type_symbol
_atom_site_label
_atom_site_fract_x
_atom_site_fract_y
_atom_site_fract_z
Si Si1 0.855859 0.392877 0.681434
Si Si2 0.250000 0.250000 0.250000
Si Si3 0.111677 0.401620 0.354939
Si Si4 0.715033 0.643125 0.010981
Si Si5 0.267010 0.646468 0.021447
Si Si6 0.309196 0.524517 0.605138
Si Si7 0.250000 0.440796 0.750000
O O1 0.750000 0.352669 0.750000
O O2 0.819662 0.501630 0.674820
O O3 0.748571 0.356712 0.608792
O O4 0.085878 0.387680 0.702241
O O5 0.125044 0.317578 0.299980
O O6 0.240626 0.376386 0.425147
O O7 0.895199 0.425808 0.377985
O O8 0.750000 0.750000 0.026109
O O9 0.490260 0.617945 0.019789
O O10 0.812414 0.574928 0.067321
O O11 0.250000 0.750000 0.995682
O O12 0.139204 0.587241 0.965948
O O13 0.365596 0.502376 0.689517
#
# Coordination Sequence:
#
# PCOD9390051 Si02
#       7
#     8   2   8   8   8   8   4
#     4  11  22  43  71  94 137 181 225 286 347 414
#     4  12  20  32  64 110 130 166 238 280 344 446
#     4  10  19  36  63  92 134 174 215 274 355 406
#     4  11  20  39  69  93 122 180 234 271 336 421
#     4  11  23  44  66  93 136 183 225 288 354 411
#     4  10  21  45  66  89 141 185 219 288 358 404
#     4  10  22  42  72  96 126 184 226 276 366 404
#
# _framework density 24.680398
#
# number of rings (size 3 to 8) (size 9 to 14) (size 15 to 20)
#    0.000    1.391    6.957    1.043    0.000    1.739 
#   15.652    2.174    0.000    0.000    0.000    0.000 
#    0.000    0.000    0.000    0.000    0.000    0.000 
#
# Total GULP energy -256184.420113 kJ/mol
# GULP energy per Si atom -5569.226524 kJ/mol
# Density = 2.462422 g / cm^3
# Si number density = 24.680398 Si / 1000 Ang^3
#
#
#
# Elastic Constant Matrix: (Units=GPa)
#
#
# Indices 1 2 3 4 5 6 
#
# 1 92.6863 -8.3600 10.5004 0.0000 0.0000 0.0000
# 2 -8.3600 145.9280 39.7287 0.0000 0.0000 0.0000
# 3 10.5004 39.7287 160.2233 0.0000 0.0000 0.0000
# 4 0.0000 0.0000 0.0000 40.9897 0.0000 0.0000
# 5 0.0000 0.0000 0.0000 0.0000 44.7141 0.0000
# 6 0.0000 0.0000 0.0000 0.0000 0.0000 8.4021
#
#
#
# Elastic Compliance Matrix: (Units=1/GPa)
#
#
# Indices 1 2 3 4 5 6 
#
# 1 0.010975 0.000884 -0.000939 0.000000 0.000000 0.000000
# 2 0.000884 0.007420 -0.001898 0.000000 0.000000 0.000000
# 3 -0.000939 -0.001898 0.006773 0.000000 0.000000 0.000000
# 4 0.000000 0.000000 0.000000 0.024396 0.000000 0.000000
# 5 0.000000 0.000000 0.000000 0.000000 0.022364 0.000000
# 6 0.000000 0.000000 0.000000 0.000000 0.000000 0.119018
#
#
# Mechanical properties :
#
#
# Convention : Reuss Voigt Hill
#
# Bulk Modulus (GPa) = 47.02692 53.61954 50.32323
# Shear Modulus (GPa) = 24.75993 42.61908 33.68951
#
# Velocity S-wave (km/s) = 3.17081 4.16003 3.69864
# Velocity P-wave (km/s) = 5.70097 6.69681 6.21885
#
# Compressibility (1/GPa) = 0.02126441
#
# Stress axis : x y z
#
# Youngs Moduli (GPa) = 91.11483 134.77040 147.63691
#
# Poissons Ratio (x) = -0.11917 0.13856
# Poissons Ratio (y) = -0.08057 0.28019
# Poissons Ratio (z) = 0.08551 0.25577
#
# Static dielectric constant tensor:
#      x y z
#    x 1.974610 0.000000 0.000000 
#    y 0.000000 1.919090 0.000000 
#    z 0.000000 0.000000 2.128120 
# 
# From -- ./inp_files/30218.got.cif
#   From: 2010.05.17/outbox.cif.g08.bks.cpg/sg48_16_cif.got.tgz:30218.got - 2010.06.03 20:39:00.
