data_PCOD9390151
_publ_section_title
;
Structure prediction by ZEFSAII (Michael W. Deem and Ramdas Pophale) SiO2 
 PCOD9390151
Probable space group: P N N N
;
_chemical_formula_sum "Si O2"
_cell_formula_units_Z 56
_cell_length_a 31.074361
_cell_length_b 7.197804
_cell_length_c 10.554395
_cell_angle_alpha 90.000000
_cell_angle_beta 90.000000
_cell_angle_gamma 90.000000
_cell_volume 2360.671554
_symmetry_space_group_name_H-M "P N N N"
_symmetry_group_IT_number 48
_space_group.IT_coordinate_system_code '2'
_symmetry_cell_setting 'orthorhombic'
loop_
_space_group_symop_operation_xyz
x,y,z
1/2-x,1/2-y,z
x,1/2-y,1/2-z
1/2-x,y,1/2-z
-x,-y,-z
1/2+x,1/2+y,-z
-x,1/2+y,1/2+z
1/2+x,-y,1/2+z
loop_
_atom_site_type_symbol
_atom_site_label
_atom_site_fract_x
_atom_site_fract_y
_atom_site_fract_z
Si Si1 0.352113 0.508516 0.009765
Si Si2 0.484974 0.968622 0.791039
Si Si3 0.847055 0.038364 0.497249
Si Si4 0.300235 0.523535 0.758489
Si Si5 0.298888 0.976049 0.243955
Si Si6 0.448960 0.519633 0.964566
Si Si7 0.941875 0.447985 0.952544
O O1 0.350309 0.735612 0.999438
O O2 0.323807 0.457061 0.886402
O O3 0.402224 0.444778 0.008515
O O4 0.328478 0.458709 0.140300
O O5 0.486625 0.750000 0.750000
O O6 0.453623 0.038176 0.682151
O O7 0.534470 0.023941 0.818024
O O8 0.465865 0.034884 0.925509
O O9 0.829725 0.974113 0.362126
O O10 0.815476 0.974632 0.606119
O O11 0.894104 0.978913 0.541291
O O12 0.299293 0.750000 0.750000
O O13 0.250000 0.465940 0.750000
O O14 0.299762 0.750000 0.250000
O O15 0.250000 0.035901 0.250000
O O16 0.500000 0.500000 0.000000
O O17 0.443003 0.734149 0.004962
#
# Coordination Sequence:
#
# PCOD9390151 Si02
#       7
#     8   8   8   8   8   8   8
#     4   9  17  27  38  58  90 122 156 200 241 284
#     4   9  18  33  49  66  90 124 164 209 251 293
#     4   9  16  25  41  60  83 121 162 189 233 294
#     4   9  15  24  40  61  86 122 164 200 236 287
#     4   9  16  25  37  57  87 121 153 189 234 287
#     4  10  20  30  45  69  97 132 169 204 246 298
#     4   9  18  32  49  66  91 129 168 207 245 301
#
# _framework density 23.722062999999999
#
# number of rings (size 3 to 8) (size 9 to 14) (size 15 to 20)
#    0.000    2.857    0.000    1.714    2.000    7.429 
#    0.000    0.000    0.000    0.000    0.000    0.000 
#    0.000    0.571    1.143   28.714    0.000   24.857 
#
# Total GULP energy -311916.752230 kJ/mol
# GULP energy per Si atom -5569.942004 kJ/mol
# Density = 2.366807 g / cm^3
# Si number density = 23.722063 Si / 1000 Ang^3
#
#
#
# Elastic Constant Matrix: (Units=GPa)
#
#
# Indices 1 2 3 4 5 6 
#
# 1 204.5656 -5.7812 58.6385 0.0000 0.0000 0.0000
# 2 -5.7812 86.5176 -8.2845 0.0000 0.0000 0.0000
# 3 58.6385 -8.2845 108.2584 0.0000 0.0000 0.0000
# 4 0.0000 0.0000 0.0000 -5.2797 0.0000 0.0000
# 5 0.0000 0.0000 0.0000 0.0000 40.1001 0.0000
# 6 0.0000 0.0000 0.0000 0.0000 0.0000 -59.1711
#
#
#
# Elastic Compliance Matrix: (Units=1/GPa)
#
#
# Indices 1 2 3 4 5 6 
#
# 1 0.005788 0.000087 -0.003128 0.000000 0.000000 0.000000
# 2 0.000087 0.011645 0.000844 0.000000 0.000000 0.000000
# 3 -0.003128 0.000844 0.010996 0.000000 0.000000 0.000000
# 4 0.000000 0.000000 0.000000 -0.189404 0.000000 0.000000
# 5 0.000000 0.000000 0.000000 0.000000 0.024938 0.000000
# 6 0.000000 0.000000 0.000000 0.000000 0.000000 -0.016900
#
#
# Mechanical properties :
#
#
# Convention : Reuss Voigt Hill
#
# Bulk Modulus (GPa) = 41.60685 54.27636 47.94161
# Shear Modulus (GPa) = -35.57898 18.78111 -8.39893
#
# Velocity S-wave (km/s) = -3.87696 2.81680 -1.88368
# Velocity P-wave (km/s) = 1.56962 5.78869 3.93987
#
# Compressibility (1/GPa) = 0.02403451
#
# Stress axis : x y z
#
# Youngs Moduli (GPa) = 172.78435 85.87394 90.94112
#
# Poissons Ratio (x) = -0.00749 0.28448
# Poissons Ratio (y) = -0.01507 -0.07675
# Poissons Ratio (z) = 0.54050 -0.07247
#
# Static dielectric constant tensor:
#      x y z
#    x 1.974710 0.000000 0.000000 
#    y 0.000000 2.000560 0.000000 
#    z 0.000000 0.000000 1.970340 
# 
# From -- ./inp_files/23682.got.cif
#   From: 2010.05.17/outbox.cif.g08.bks.cpg/sg48_12_cif.got.tgz:23682.got - 2010.06.03 20:39:00.
