data_PCOD9390767
_publ_section_title
;
Structure prediction by ZEFSAII (Michael W. Deem and Ramdas Pophale) SiO2 
 PCOD9390767
Probable space group: P N N N
;
_chemical_formula_sum "Si O2"
_cell_formula_units_Z 46
_cell_length_a 18.374365
_cell_length_b 7.902536
_cell_length_c 14.351026
_cell_angle_alpha 90.000000
_cell_angle_beta 90.000000
_cell_angle_gamma 90.000000
_cell_volume 2083.827540
_symmetry_space_group_name_H-M "P N N N"
_symmetry_group_IT_number 48
_space_group.IT_coordinate_system_code '2'
_symmetry_cell_setting 'orthorhombic'
loop_
_space_group_symop_operation_xyz
x,y,z
1/2-x,1/2-y,z
x,1/2-y,1/2-z
1/2-x,y,1/2-z
-x,-y,-z
1/2+x,1/2+y,-z
-x,1/2+y,1/2+z
1/2+x,-y,1/2+z
loop_
_atom_site_type_symbol
_atom_site_label
_atom_site_fract_x
_atom_site_fract_y
_atom_site_fract_z
Si Si1 0.750000 0.750000 0.595138
Si Si2 0.750000 0.750000 0.250000
Si Si3 0.378803 0.865750 0.118405
Si Si4 0.615586 0.572432 0.153143
Si Si5 0.166388 0.772816 0.578121
Si Si6 0.620068 0.616180 0.474647
Si Si7 0.250000 0.999505 0.250000
Si Si8 0.001261 0.750000 0.250000
O O1 0.695408 0.658525 0.526689
O O2 0.715899 0.884744 0.667368
O O3 0.694519 0.636520 0.189350
O O4 0.444225 0.768864 0.164834
O O5 0.316723 0.911306 0.194858
O O6 0.340272 0.765450 0.034592
O O7 0.417266 0.024409 0.063253
O O8 0.621909 0.381983 0.119470
O O9 0.595194 0.712281 0.073585
O O10 0.553580 0.596910 0.230139
O O11 0.250000 0.750000 0.606069
O O12 0.363153 0.537630 0.596689
#
# Coordination Sequence:
#
# PCOD9390767 Si02
#       8
#     4   2   8   8   8   8   4   4
#     4   9  15  32  61 103 132 158 214 271 347 370
#     4  10  22  40  64  98 116 162 212 286 312 388
#     4   9  23  38  62  96 135 165 225 262 325 387
#     4  11  23  43  69  86 133 167 217 264 336 373
#     4  10  21  38  67 100 120 166 217 274 317 389
#     4   9  20  37  63  91 121 167 213 261 303 408
#     4   9  18  31  64 100 135 171 210 285 327 382
#     4  11  26  42  60  95 136 180 208 273 328 390
#
# _framework density 22.074763000000001
#
# number of rings (size 3 to 8) (size 9 to 14) (size 15 to 20)
#    1.043    1.217    0.000    2.609    2.435    1.391 
#    0.000    8.261   15.304    0.000    0.000    0.000 
#    0.000    0.000    0.000    0.000    0.000    0.000 
#
# Total GULP energy -256220.220481 kJ/mol
# GULP energy per Si atom -5570.004793 kJ/mol
# Density = 2.202452 g / cm^3
# Si number density = 22.074763 Si / 1000 Ang^3
#
#
#
# Elastic Constant Matrix: (Units=GPa)
#
#
# Indices 1 2 3 4 5 6 
#
# 1 71.2081 13.8971 18.6410 0.0000 0.0000 0.0000
# 2 13.8971 92.0817 16.4133 0.0000 0.0000 0.0000
# 3 18.6410 16.4133 50.5637 0.0000 0.0000 0.0000
# 4 0.0000 0.0000 0.0000 34.7428 0.0000 0.0000
# 5 0.0000 0.0000 0.0000 0.0000 -1.4643 0.0000
# 6 0.0000 0.0000 0.0000 0.0000 0.0000 7.1821
#
#
#
# Elastic Compliance Matrix: (Units=1/GPa)
#
#
# Indices 1 2 3 4 5 6 
#
# 1 0.015717 -0.001421 -0.005333 0.000000 0.000000 0.000000
# 2 -0.001421 0.011655 -0.003259 0.000000 0.000000 0.000000
# 3 -0.005333 -0.003259 0.022801 0.000000 0.000000 0.000000
# 4 0.000000 0.000000 0.000000 0.028783 0.000000 0.000000
# 5 0.000000 0.000000 0.000000 0.000000 -0.682913 0.000000
# 6 0.000000 0.000000 0.000000 0.000000 0.000000 0.139236
#
#
# Mechanical properties :
#
#
# Convention : Reuss Voigt Hill
#
# Bulk Modulus (GPa) = 33.17188 34.63958 33.90573
# Shear Modulus (GPa) = -11.50364 19.08560 3.79098
#
# Velocity S-wave (km/s) = -2.28529 2.94358 1.31189
# Velocity P-wave (km/s) = 2.84540 5.22292 4.20566
#
# Compressibility (1/GPa) = 0.03014602
#
# Stress axis : x y z
#
# Youngs Moduli (GPa) = 63.62628 85.79696 43.85763
#
# Poissons Ratio (x) = 0.12196 0.23388
# Poissons Ratio (y) = 0.09044 0.14295
# Poissons Ratio (z) = 0.33931 0.27964
#
# Static dielectric constant tensor:
#      x y z
#    x 1.791460 0.000000 0.000000 
#    y 0.000000 1.927810 0.000000 
#    z 0.000000 0.000000 1.864530 
# 
# From -- ./inp_files/28279.got.cif
#   From: 2010.05.17/outbox.cif.g08.bks.cpg/sg48_15_cif.got.tgz:28279.got - 2010.06.03 20:39:00.
