data_PCOD9390723
_publ_section_title
;
Structure prediction by ZEFSAII (Michael W. Deem and Ramdas Pophale) SiO2 
 PCOD9390723
Probable space group: P N N N
;
_chemical_formula_sum "Si O2"
_cell_formula_units_Z 64
_cell_length_a 24.428982
_cell_length_b 15.544126
_cell_length_c 7.385142
_cell_angle_alpha 90.000000
_cell_angle_beta 90.000000
_cell_angle_gamma 90.000000
_cell_volume 2804.339103
_symmetry_space_group_name_H-M "P N N N"
_symmetry_group_IT_number 48
_space_group.IT_coordinate_system_code '2'
_symmetry_cell_setting 'orthorhombic'
loop_
_space_group_symop_operation_xyz
x,y,z
1/2-x,1/2-y,z
x,1/2-y,1/2-z
1/2-x,y,1/2-z
-x,-y,-z
1/2+x,1/2+y,-z
-x,1/2+y,1/2+z
1/2+x,-y,1/2+z
loop_
_atom_site_type_symbol
_atom_site_label
_atom_site_fract_x
_atom_site_fract_y
_atom_site_fract_z
Si Si1 0.937311 0.069809 0.502527
Si Si2 0.055031 0.386483 0.881741
Si Si3 0.952008 0.790499 0.933390
Si Si4 0.773434 0.019703 0.070497
Si Si5 0.682618 0.129053 0.900456
Si Si6 0.059244 0.884318 0.925520
Si Si7 0.673347 0.311878 0.013591
Si Si8 0.112656 0.060427 0.993588
O O1 0.880002 0.107156 0.563459
O O2 0.946289 0.092638 0.288631
O O3 0.988676 0.104338 0.615928
O O4 0.932358 0.966497 0.514948
O O5 0.091373 0.407620 0.704951
O O6 0.065781 0.289653 0.945769
O O7 0.973944 0.750000 0.750000
O O8 0.003245 0.846325 0.001329
O O9 0.904556 0.858268 0.888470
O O10 0.750000 0.976360 0.250000
O O11 0.823894 0.964991 0.994281
O O12 0.722671 0.050811 0.949083
O O13 0.802063 0.110340 0.130185
O O14 0.694044 0.214797 0.019117
O O15 0.686486 0.156208 0.690936
O O16 0.078673 0.972385 0.022689
O O17 0.108431 0.816686 0.952459
#
# Coordination Sequence:
#
# PCOD9390723 Si02
#       8
#     8   8   8   8   8   8   8   8
#     4  10  21  38  62  95 132 174 212 262 320 401
#     4  10  21  38  60  90 131 167 219 264 326 391
#     4  12  23  38  64  97 132 173 215 273 323 392
#     4  11  23  43  65  88 120 171 223 276 324 388
#     4  11  22  38  62  94 133 172 219 261 331 394
#     4  10  21  40  60  96 140 175 214 253 325 402
#     4  10  23  36  60  98 134 171 210 265 324 403
#     4  10  24  42  63  91 130 174 220 268 334 397
#
# _framework density 22.821777999999998
#
# number of rings (size 3 to 8) (size 9 to 14) (size 15 to 20)
#    0.000    1.500    1.250    4.500    1.750    5.000 
#    0.000    1.250    0.000    5.250    0.000    3.500 
#    0.000    0.000    0.000    0.000    0.000    0.000 
#
# Total GULP energy -357797.346060 kJ/mol
# GULP energy per Si atom -5590.583532 kJ/mol
# Density = 2.276983 g / cm^3
# Si number density = 22.821778 Si / 1000 Ang^3
#
#
#
# Elastic Constant Matrix: (Units=GPa)
#
#
# Indices 1 2 3 4 5 6 
#
# 1 86.7669 34.5434 -15.6805 0.0000 0.0000 0.0000
# 2 34.5434 118.3830 15.8314 0.0000 0.0000 0.0000
# 3 -15.6805 15.8314 45.6479 0.0000 0.0000 0.0000
# 4 0.0000 0.0000 0.0000 28.5326 0.0000 0.0000
# 5 0.0000 0.0000 0.0000 0.0000 28.0911 0.0000
# 6 0.0000 0.0000 0.0000 0.0000 0.0000 21.9445
#
#
#
# Elastic Compliance Matrix: (Units=1/GPa)
#
#
# Indices 1 2 3 4 5 6 
#
# 1 0.014876 -0.005269 0.006937 0.000000 0.000000 0.000000
# 2 -0.005269 0.010724 -0.005529 0.000000 0.000000 0.000000
# 3 0.006937 -0.005529 0.026207 0.000000 0.000000 0.000000
# 4 0.000000 0.000000 0.000000 0.035048 0.000000 0.000000
# 5 0.000000 0.000000 0.000000 0.000000 0.035598 0.000000
# 6 0.000000 0.000000 0.000000 0.000000 0.000000 0.045570
#
#
# Mechanical properties :
#
#
# Convention : Reuss Voigt Hill
#
# Bulk Modulus (GPa) = 22.68228 35.57627 29.12928
# Shear Modulus (GPa) = 26.25507 30.12054 28.18780
#
# Velocity S-wave (km/s) = 3.39549 3.63687 3.51825
# Velocity P-wave (km/s) = 5.03318 5.76700 5.41254
#
# Compressibility (1/GPa) = 0.04408727
#
# Stress axis : x y z
#
# Youngs Moduli (GPa) = 67.22073 93.24973 38.15716
#
# Poissons Ratio (x) = 0.49129 -0.26471
# Poissons Ratio (y) = 0.35416 0.21097
# Poissons Ratio (z) = -0.46634 0.51558
#
# Static dielectric constant tensor:
#      x y z
#    x 1.847210 0.000000 0.000000 
#    y 0.000000 1.869390 0.000000 
#    z 0.000000 0.000000 1.981000 
# 
# From -- ./inp_files/16038.got.cif
#   From: 2010.05.17/outbox.cif.g08.bks.cpg/sg48_9_cif.got.tgz:16038.got - 2010.06.03 20:39:00.
