data_PCOD9390782
_publ_section_title
;
Structure prediction by ZEFSAII (Michael W. Deem and Ramdas Pophale) SiO2 
 PCOD9390782
Probable space group: P N N N
;
_chemical_formula_sum "Si O2"
_cell_formula_units_Z 58
_cell_length_a 7.040255
_cell_length_b 25.595702
_cell_length_c 16.804530
_cell_angle_alpha 90.000000
_cell_angle_beta 90.000000
_cell_angle_gamma 90.000000
_cell_volume 3028.180826
_symmetry_space_group_name_H-M "P N N N"
_symmetry_group_IT_number 48
_space_group.IT_coordinate_system_code '2'
_symmetry_cell_setting 'orthorhombic'
loop_
_space_group_symop_operation_xyz
x,y,z
1/2-x,1/2-y,z
x,1/2-y,1/2-z
1/2-x,y,1/2-z
-x,-y,-z
1/2+x,1/2+y,-z
-x,1/2+y,1/2+z
1/2+x,-y,1/2+z
loop_
_atom_site_type_symbol
_atom_site_label
_atom_site_fract_x
_atom_site_fract_y
_atom_site_fract_z
Si Si1 0.250000 0.750000 0.250000
Si Si2 0.609277 0.182219 0.889956
Si Si3 0.001051 0.136395 0.937176
Si Si4 0.175695 0.403550 0.832115
Si Si5 0.443913 0.950883 0.554883
Si Si6 0.173770 0.305208 0.032035
Si Si7 0.125486 0.976680 0.674903
Si Si8 0.280487 0.398352 0.341837
O O1 0.386403 0.781531 0.188500
O O2 0.830731 0.167865 0.898317
O O3 0.487494 0.130948 0.870158
O O4 0.509219 0.201508 0.972723
O O5 0.133824 0.098083 0.884981
O O6 0.903367 0.099242 0.001168
O O7 0.154507 0.174728 0.976057
O O8 0.250000 0.379806 0.750000
O O9 0.096242 0.461335 0.816686
O O10 0.256881 0.968110 0.599555
O O11 0.603403 0.928932 0.616608
O O12 0.500000 0.000000 0.500000
O O13 0.250000 0.250000 0.065284
O O14 0.157702 0.350332 0.099883
O O15 0.250000 0.958972 0.750000
O O16 0.940872 0.942379 0.665441
O O17 0.250000 0.380384 0.250000
#
# Coordination Sequence:
#
# PCOD9390782 Si02
#       8
#     2   8   8   8   8   8   8   8
#     4  12  24  40  66  92 124 172 228 268 320 388
#     4  11  23  41  63  92 125 172 216 270 329 383
#     4  10  21  39  60  90 125 160 214 258 317 393
#     4  10  22  36  55  89 127 165 207 254 309 377
#     4  11  22  38  62  95 130 168 210 260 316 390
#     4  10  23  43  65  91 124 163 215 280 334 388
#     4  11  22  39  62  91 132 170 206 256 317 387
#     4  11  24  42  66  96 127 174 222 268 334 395
#
# _framework density 19.153414000000001
#
# number of rings (size 3 to 8) (size 9 to 14) (size 15 to 20)
#    0.000    1.379    2.759    2.483    1.931    1.931 
#    1.241    2.759    0.000    0.000    0.000    0.000 
#    0.000    0.000    0.000    0.000    0.000    0.000 
#
# Total GULP energy -323289.492599 kJ/mol
# GULP energy per Si atom -5573.956769 kJ/mol
# Density = 1.910982 g / cm^3
# Si number density = 19.153414 Si / 1000 Ang^3
#
#
#
# Elastic Constant Matrix: (Units=GPa)
#
#
# Indices 1 2 3 4 5 6 
#
# 1 57.0616 25.1064 28.4517 0.0000 0.0000 0.0000
# 2 25.1064 66.8022 21.6880 0.0000 0.0000 0.0000
# 3 28.4517 21.6880 90.3732 0.0000 0.0000 0.0000
# 4 0.0000 0.0000 0.0000 29.8727 0.0000 0.0000
# 5 0.0000 0.0000 0.0000 0.0000 29.9498 0.0000
# 6 0.0000 0.0000 0.0000 0.0000 0.0000 9.6755
#
#
#
# Elastic Compliance Matrix: (Units=1/GPa)
#
#
# Indices 1 2 3 4 5 6 
#
# 1 0.023430 -0.006953 -0.005708 0.000000 0.000000 0.000000
# 2 -0.006953 0.018298 -0.002202 0.000000 0.000000 0.000000
# 3 -0.005708 -0.002202 0.013391 0.000000 0.000000 0.000000
# 4 0.000000 0.000000 0.000000 0.033475 0.000000 0.000000
# 5 0.000000 0.000000 0.000000 0.000000 0.033389 0.000000
# 6 0.000000 0.000000 0.000000 0.000000 0.000000 0.103353
#
#
# Mechanical properties :
#
#
# Convention : Reuss Voigt Hill
#
# Bulk Modulus (GPa) = 39.38116 40.52548 39.95332
# Shear Modulus (GPa) = 18.97346 23.16567 21.06957
#
# Velocity S-wave (km/s) = 3.15080 3.48153 3.32029
# Velocity P-wave (km/s) = 5.81741 6.11275 5.96691
#
# Compressibility (1/GPa) = 0.02539285
#
# Stress axis : x y z
#
# Youngs Moduli (GPa) = 42.68032 54.65214 74.67873
#
# Poissons Ratio (x) = 0.37998 0.42625
# Poissons Ratio (y) = 0.29674 0.16446
# Poissons Ratio (z) = 0.24361 0.12036
#
# Static dielectric constant tensor:
#      x y z
#    x 1.701380 0.000000 0.000000 
#    y 0.000000 1.822870 0.000000 
#    z 0.000000 0.000000 2.011200 
# 
# From -- ./inp_files/29620.got.cif
#   From: 2010.05.17/outbox.cif.g08.bks.cpg/sg48_15_cif.got.tgz:29620.got - 2010.06.03 20:39:00.
