data_PCOD9390586
_publ_section_title
;
Structure prediction by ZEFSAII (Michael W. Deem and Ramdas Pophale) SiO2 
 PCOD9390586
Probable space group: P N N N
;
_chemical_formula_sum "Si O2"
_cell_formula_units_Z 40
_cell_length_a 15.612036
_cell_length_b 8.112321
_cell_length_c 12.475913
_cell_angle_alpha 90.000000
_cell_angle_beta 90.000000
_cell_angle_gamma 90.000000
_cell_volume 1580.072479
_symmetry_space_group_name_H-M "P N N N"
_symmetry_group_IT_number 48
_space_group.IT_coordinate_system_code '2'
_symmetry_cell_setting 'orthorhombic'
loop_
_space_group_symop_operation_xyz
x,y,z
1/2-x,1/2-y,z
x,1/2-y,1/2-z
1/2-x,y,1/2-z
-x,-y,-z
1/2+x,1/2+y,-z
-x,1/2+y,1/2+z
1/2+x,-y,1/2+z
loop_
_atom_site_type_symbol
_atom_site_label
_atom_site_fract_x
_atom_site_fract_y
_atom_site_fract_z
Si Si1 0.053934 0.565826 0.890778
Si Si2 0.743969 0.564510 0.425043
Si Si3 0.086338 0.926581 0.861466
Si Si4 0.016809 0.773524 0.126604
Si Si5 0.206433 0.917971 0.134796
O O1 0.147108 0.495334 0.919230
O O2 0.053602 0.761199 0.920129
O O3 0.054567 0.579264 0.760269
O O4 0.985906 0.417129 0.914365
O O5 0.750000 0.750000 0.382906
O O6 0.811185 0.444802 0.365597
O O7 0.774158 0.556721 0.548852
O O8 0.051622 0.093837 0.915474
O O9 0.987334 0.750000 0.250000
O O10 0.107410 0.867027 0.138613
O O11 0.250000 0.750000 0.092833
O O12 0.250000 0.950711 0.250000
#
# Coordination Sequence:
#
# PCOD9390586 Si02
#       5
#     8   8   8   8   8
#     4  10  21  40  70 106 138 175 218 281 352 411
#     4  12  24  42  64 104 142 182 228 278 345 413
#     4  10  21  39  70 106 142 173 217 284 350 412
#     4  10  20  42  72  97 132 173 230 280 341 395
#     4  11  24  47  70  89 133 189 233 281 334 400
#
# _framework density 25.315294000000002
#
# number of rings (size 3 to 8) (size 9 to 14) (size 15 to 20)
#    0.000    1.400    4.000    2.400    0.000    3.600 
#    3.600    4.000    0.000    0.000    0.000    0.000 
#    0.000    0.000    0.000    0.000    0.000    0.000 
#
# Total GULP energy -223682.952282 kJ/mol
# GULP energy per Si atom -5592.073807 kJ/mol
# Density = 2.525768 g / cm^3
# Si number density = 25.315294 Si / 1000 Ang^3
#
#
#
# Elastic Constant Matrix: (Units=GPa)
#
#
# Indices 1 2 3 4 5 6 
#
# 1 125.5795 51.4773 11.6062 0.0000 0.0000 0.0000
# 2 51.4773 165.6038 39.4217 0.0000 0.0000 0.0000
# 3 11.6062 39.4217 27.2160 0.0000 0.0000 0.0000
# 4 0.0000 0.0000 0.0000 28.7411 0.0000 0.0000
# 5 0.0000 0.0000 0.0000 0.0000 23.4905 0.0000
# 6 0.0000 0.0000 0.0000 0.0000 0.0000 72.0179
#
#
#
# Elastic Compliance Matrix: (Units=1/GPa)
#
#
# Indices 1 2 3 4 5 6 
#
# 1 0.009128 -0.002916 0.000332 0.000000 0.000000 0.000000
# 2 -0.002916 0.010148 -0.013456 0.000000 0.000000 0.000000
# 3 0.000332 -0.013456 0.056092 0.000000 0.000000 0.000000
# 4 0.000000 0.000000 0.000000 0.034793 0.000000 0.000000
# 5 0.000000 0.000000 0.000000 0.000000 0.042570 0.000000
# 6 0.000000 0.000000 0.000000 0.000000 0.000000 0.013885
#
#
# Mechanical properties :
#
#
# Convention : Reuss Voigt Hill
#
# Bulk Modulus (GPa) = 23.10156 58.15663 40.62910
# Shear Modulus (GPa) = 23.46024 39.24285 31.35155
#
# Velocity S-wave (km/s) = 3.04751 3.94148 3.52297
# Velocity P-wave (km/s) = 4.63988 6.61336 5.71249
#
# Compressibility (1/GPa) = 0.04328712
#
# Stress axis : x y z
#
# Youngs Moduli (GPa) = 109.55448 98.54039 17.82794
#
# Poissons Ratio (x) = 0.28737 -0.00591
# Poissons Ratio (y) = 0.31949 0.23989
# Poissons Ratio (z) = -0.03633 1.32592
#
# Static dielectric constant tensor:
#      x y z
#    x 2.006660 0.000000 0.000000 
#    y 0.000000 2.053100 0.000000 
#    z 0.000000 0.000000 2.197700 
# 
# From -- ./inp_files/27058.got.cif
#   From: 2010.05.17/outbox.cif.g08.bks.cpg/sg48_14_cif.got.tgz:27058.got - 2010.06.03 20:39:00.
