data_PCOD9390098
_publ_section_title
;
Structure prediction by ZEFSAII (Michael W. Deem and Ramdas Pophale) SiO2 
 PCOD9390098
Probable space group: P N N N
;
_chemical_formula_sum "Si O2"
_cell_formula_units_Z 60
_cell_length_a 11.935221
_cell_length_b 11.611474
_cell_length_c 23.131035
_cell_angle_alpha 90.000000
_cell_angle_beta 90.000000
_cell_angle_gamma 90.000000
_cell_volume 3205.626244
_symmetry_space_group_name_H-M "P N N N"
_symmetry_group_IT_number 48
_space_group.IT_coordinate_system_code '2'
_symmetry_cell_setting 'orthorhombic'
loop_
_space_group_symop_operation_xyz
x,y,z
1/2-x,1/2-y,z
x,1/2-y,1/2-z
1/2-x,y,1/2-z
-x,-y,-z
1/2+x,1/2+y,-z
-x,1/2+y,1/2+z
1/2+x,-y,1/2+z
loop_
_atom_site_type_symbol
_atom_site_label
_atom_site_fract_x
_atom_site_fract_y
_atom_site_fract_z
Si Si1 0.034350 0.413945 0.446042
Si Si2 0.546672 0.663088 0.509488
Si Si3 0.787035 0.410959 0.583950
Si Si4 0.750000 0.034690 0.250000
Si Si5 0.312806 0.872789 0.629684
Si Si6 0.856058 0.680445 0.191278
Si Si7 0.675680 0.456404 0.468322
Si Si8 0.071196 0.687384 0.113275
O O1 0.071590 0.290335 0.469822
O O2 0.136625 0.477342 0.414875
O O3 0.000000 0.500000 0.500000
O O4 0.932895 0.386986 0.401575
O O5 0.648681 0.575945 0.500590
O O6 0.444349 0.603052 0.544105
O O7 0.490641 0.671623 0.447046
O O8 0.750961 0.389798 0.516312
O O9 0.863133 0.307770 0.608085
O O10 0.669369 0.407522 0.617666
O O11 0.688351 0.104607 0.301347
O O12 0.673714 0.947588 0.212451
O O13 0.250000 0.750000 0.619318
O O14 0.239849 0.963602 0.591810
O O15 0.750000 0.750000 0.162569
O O16 0.872818 0.750000 0.250000
O O17 0.971695 0.684140 0.158036
#
# Coordination Sequence:
#
# PCOD9390098 Si02
#       8
#     8   8   8   4   8   8   8   8
#     4  12  22  35  59  94 125 166 206 267 318 395
#     4  10  20  34  57  86 123 161 203 254 315 383
#     4  10  22  35  57  91 128 165 205 242 318 401
#     4  10  24  40  62  94 118 160 216 276 316 372
#     4  12  23  40  63  85 125 167 218 265 325 380
#     4   9  21  39  63  94 121 148 205 271 322 372
#     4  10  20  37  57  87 123 164 205 253 315 386
#     4  10  19  38  61  84 128 165 201 254 318 391
#
# _framework density 18.717092000000001
#
# number of rings (size 3 to 8) (size 9 to 14) (size 15 to 20)
#    0.000    1.733    4.000    1.000    5.600    0.533 
#    2.400    1.333    0.000    0.000    0.000    0.000 
#    0.000    0.000    0.000    0.000    0.000    0.000 
#
# Total GULP energy -334320.186534 kJ/mol
# GULP energy per Si atom -5572.003109 kJ/mol
# Density = 1.867449 g / cm^3
# Si number density = 18.717092 Si / 1000 Ang^3
#
#
#
# Elastic Constant Matrix: (Units=GPa)
#
#
# Indices 1 2 3 4 5 6 
#
# 1 131.4259 57.3595 55.8772 0.0000 0.0000 0.0000
# 2 57.3595 117.3217 24.3648 0.0000 0.0000 0.0000
# 3 55.8772 24.3648 70.4745 0.0000 0.0000 0.0000
# 4 0.0000 0.0000 0.0000 35.2788 0.0000 0.0000
# 5 0.0000 0.0000 0.0000 0.0000 41.1468 0.0000
# 6 0.0000 0.0000 0.0000 0.0000 0.0000 -14.2956
#
#
#
# Elastic Compliance Matrix: (Units=1/GPa)
#
#
# Indices 1 2 3 4 5 6 
#
# 1 0.013544 -0.004731 -0.009103 0.000000 0.000000 0.000000
# 2 -0.004731 0.010836 0.000005 0.000000 0.000000 0.000000
# 3 -0.009103 0.000005 0.021405 0.000000 0.000000 0.000000
# 4 0.000000 0.000000 0.000000 0.028346 0.000000 0.000000
# 5 0.000000 0.000000 0.000000 0.000000 0.024303 0.000000
# 6 0.000000 0.000000 0.000000 0.000000 0.000000 -0.069952
#
#
# Mechanical properties :
#
#
# Convention : Reuss Voigt Hill
#
# Bulk Modulus (GPa) = 55.16720 66.04725 60.60723
# Shear Modulus (GPa) = 80.40849 24.53404 52.47127
#
# Velocity S-wave (km/s) = 6.56149 3.62440 5.30045
# Velocity P-wave (km/s) = 9.32429 7.27178 8.36126
#
# Compressibility (1/GPa) = 0.01812671
#
# Stress axis : x y z
#
# Youngs Moduli (GPa) = 73.83351 92.28774 46.71768
#
# Poissons Ratio (x) = 0.43664 0.42527
# Poissons Ratio (y) = 0.34933 -0.00024
# Poissons Ratio (z) = 0.67210 -0.00048
#
# Static dielectric constant tensor:
#      x y z
#    x 1.761130 0.000000 0.000000 
#    y 0.000000 1.604040 0.000000 
#    z 0.000000 0.000000 1.643810 
# 
# From -- ./inp_files/34202.got.cif
#   From: 2010.05.17/outbox.cif.g08.bks.cpg/sg48_18_cif.got.tgz:34202.got - 2010.06.03 20:39:00.
