data_PCOD9390110
_publ_section_title
;
Structure prediction by ZEFSAII (Michael W. Deem and Ramdas Pophale) SiO2 
 PCOD9390110
Probable space group: P N N N
;
_chemical_formula_sum "Si O2"
_cell_formula_units_Z 64
_cell_length_a 24.052768
_cell_length_b 8.009703
_cell_length_c 15.169067
_cell_angle_alpha 90.000000
_cell_angle_beta 90.000000
_cell_angle_gamma 90.000000
_cell_volume 2922.404612
_symmetry_space_group_name_H-M "P N N N"
_symmetry_group_IT_number 48
_space_group.IT_coordinate_system_code '2'
_symmetry_cell_setting 'orthorhombic'
loop_
_space_group_symop_operation_xyz
x,y,z
1/2-x,1/2-y,z
x,1/2-y,1/2-z
1/2-x,y,1/2-z
-x,-y,-z
1/2+x,1/2+y,-z
-x,1/2+y,1/2+z
1/2+x,-y,1/2+z
loop_
_atom_site_type_symbol
_atom_site_label
_atom_site_fract_x
_atom_site_fract_y
_atom_site_fract_z
Si Si1 0.039849 0.440216 0.783199
Si Si2 0.194017 0.430726 0.207332
Si Si3 0.568817 0.377582 0.447390
Si Si4 0.814813 0.715388 0.349288
Si Si5 0.925748 0.053307 0.765539
Si Si6 0.867254 0.369319 0.327063
Si Si7 0.534914 0.867466 0.557540
Si Si8 0.137964 0.370267 0.025694
O O1 0.039454 0.250000 0.750000
O O2 0.063874 0.467867 0.879404
O O3 0.077313 0.548985 0.716891
O O4 0.977566 0.512096 0.791727
O O5 0.194437 0.250000 0.250000
O O6 0.250000 0.513230 0.250000
O O7 0.136189 0.504557 0.242017
O O8 0.184204 0.399269 0.102345
O O9 0.611561 0.245930 0.405377
O O10 0.509934 0.284873 0.448334
O O11 0.599636 0.462433 0.528723
O O12 0.750000 0.750000 0.343746
O O13 0.838320 0.750000 0.250000
O O14 0.829600 0.520363 0.360614
O O15 0.834623 0.828437 0.430999
O O16 0.927379 0.250000 0.750000
O O17 0.947327 0.979770 0.858190
O O18 0.842546 0.250000 0.250000
O O19 0.594312 0.782033 0.536945
O O20 0.500000 0.000000 0.500000
#
# Coordination Sequence:
#
# PCOD9390110 Si02
#       8
#     8   8   8   8   8   8   8   8
#     4  10  20  35  67 102 145 190 228 282 373 464
#     4  11  26  50  78 101 134 198 265 328 371 427
#     4  11  23  38  64 105 145 184 224 297 366 456
#     4  11  25  46  71 103 142 190 242 299 371 451
#     4  11  25  43  71 104 147 196 247 312 381 456
#     4  10  19  38  67 102 147 184 235 282 362 450
#     4  12  26  42  64 107 151 192 237 305 375 466
#     4  12  26  44  75 103 145 190 255 304 380 450
#
# _framework density 21.899774000000001
#
# number of rings (size 3 to 8) (size 9 to 14) (size 15 to 20)
#    0.000    1.000    2.500    4.500    7.000    0.250 
#    0.000    4.375    2.750    0.000    0.000    0.000 
#    0.000    0.000    0.000    0.000    0.000    0.000 
#
# Total GULP energy -356565.179355 kJ/mol
# GULP energy per Si atom -5571.330927 kJ/mol
# Density = 2.184993 g / cm^3
# Si number density = 21.899774 Si / 1000 Ang^3
#
#
#
# Elastic Constant Matrix: (Units=GPa)
#
#
# Indices 1 2 3 4 5 6 
#
# 1 158.7472 36.2557 58.4560 0.0000 0.0000 0.0000
# 2 36.2557 72.2255 31.8497 0.0000 0.0000 0.0000
# 3 58.4560 31.8497 117.8894 0.0000 0.0000 0.0000
# 4 0.0000 0.0000 0.0000 31.1131 0.0000 0.0000
# 5 0.0000 0.0000 0.0000 0.0000 -192.9950 0.0000
# 6 0.0000 0.0000 0.0000 0.0000 0.0000 29.0815
#
#
#
# Elastic Compliance Matrix: (Units=1/GPa)
#
#
# Indices 1 2 3 4 5 6 
#
# 1 0.008118 -0.002611 -0.003320 0.000000 0.000000 0.000000
# 2 -0.002611 0.016558 -0.003179 0.000000 0.000000 0.000000
# 3 -0.003320 -0.003179 0.010988 0.000000 0.000000 0.000000
# 4 0.000000 0.000000 0.000000 0.032141 0.000000 0.000000
# 5 0.000000 0.000000 0.000000 0.000000 -0.005181 0.000000
# 6 0.000000 0.000000 0.000000 0.000000 0.000000 0.034386
#
#
# Mechanical properties :
#
#
# Convention : Reuss Voigt Hill
#
# Bulk Modulus (GPa) = 57.32592 66.88722 62.10657
# Shear Modulus (GPa) = 41.30747 -11.74004 14.78371
#
# Velocity S-wave (km/s) = 4.34776 -2.31785 2.60102
# Velocity P-wave (km/s) = 7.17198 4.84205 6.11894
#
# Compressibility (1/GPa) = 0.01744411
#
# Stress axis : x y z
#
# Youngs Moduli (GPa) = 123.17990 60.39384 91.01219
#
# Poissons Ratio (x) = 0.15770 0.30216
# Poissons Ratio (y) = 0.32164 0.28930
# Poissons Ratio (z) = 0.40896 0.19197
#
# Static dielectric constant tensor:
#      x y z
#    x 1.907630 0.000000 0.000000 
#    y 0.000000 1.627580 0.000000 
#    z 0.000000 0.000000 1.924050 
# 
# From -- ./inp_files/28644.got.cif
#   From: 2010.05.17/outbox.cif.g08.bks.cpg/sg48_15_cif.got.tgz:28644.got - 2010.06.03 20:39:00.
