data_PCOD9390245
_publ_section_title
;
Structure prediction by ZEFSAII (Michael W. Deem and Ramdas Pophale) SiO2 
 PCOD9390245
Probable space group: P N N N
;
_chemical_formula_sum "Si O2"
_cell_formula_units_Z 52
_cell_length_a 21.087707
_cell_length_b 8.275844
_cell_length_c 16.667284
_cell_angle_alpha 90.000000
_cell_angle_beta 90.000000
_cell_angle_gamma 90.000000
_cell_volume 2908.750627
_symmetry_space_group_name_H-M "P N N N"
_symmetry_group_IT_number 48
_space_group.IT_coordinate_system_code '2'
_symmetry_cell_setting 'orthorhombic'
loop_
_space_group_symop_operation_xyz
x,y,z
1/2-x,1/2-y,z
x,1/2-y,1/2-z
1/2-x,y,1/2-z
-x,-y,-z
1/2+x,1/2+y,-z
-x,1/2+y,1/2+z
1/2+x,-y,1/2+z
loop_
_atom_site_type_symbol
_atom_site_label
_atom_site_fract_x
_atom_site_fract_y
_atom_site_fract_z
Si Si1 0.912750 0.767888 0.112096
Si Si2 0.463965 0.910428 0.302012
Si Si3 0.601515 0.418711 0.346208
Si Si4 0.316223 0.794530 0.554329
Si Si5 0.493395 0.750000 0.750000
Si Si6 0.074444 0.007788 0.025967
Si Si7 0.813230 0.962948 0.200961
O O1 0.929816 0.582126 0.122813
O O2 0.847570 0.812170 0.157910
O O3 0.967257 0.864360 0.160346
O O4 0.907390 0.825673 0.020098
O O5 0.444909 0.750000 0.250000
O O6 0.470957 0.079204 0.254338
O O7 0.424000 0.966489 0.379862
O O8 0.652861 0.365976 0.410236
O O9 0.551761 0.276634 0.327542
O O10 0.637046 0.459266 0.263317
O O11 0.250000 0.750000 0.511933
O O12 0.373815 0.884247 0.510072
O O13 0.300095 0.907561 0.630945
O O14 0.000000 0.000000 0.000000
O O15 0.750000 0.929638 0.250000
#
# Coordination Sequence:
#
# PCOD9390245 Si02
#       7
#     8   8   8   8   4   8   8
#     4  10  20  35  50  77 119 157 188 236 286 350
#     4  11  20  39  60  82 107 145 196 249 301 354
#     4  12  19  30  51  80 114 157 198 225 277 352
#     4  11  21  35  52  78 115 156 196 240 291 353
#     4  12  20  32  57  84 114 145 194 252 286 344
#     4   9  21  40  55  77 119 151 185 248 302 350
#     4  11  19  30  45  73 114 154 195 229 267 335
#
# _framework density 17.877091
#
# number of rings (size 3 to 8) (size 9 to 14) (size 15 to 20)
#    0.000    1.231    6.154    2.308    0.000    1.231 
#    2.769    2.308    0.000    0.462    0.000    0.000 
#    0.000    0.000    0.000    0.000    0.000    0.000 
#
# Total GULP energy -289527.344662 kJ/mol
# GULP energy per Si atom -5567.833551 kJ/mol
# Density = 1.783640 g / cm^3
# Si number density = 17.877091 Si / 1000 Ang^3
#
#
#
# Elastic Constant Matrix: (Units=GPa)
#
#
# Indices 1 2 3 4 5 6 
#
# 1 61.8494 17.4414 27.9487 0.0000 0.0000 0.0000
# 2 17.4414 101.5510 26.6979 0.0000 0.0000 0.0000
# 3 27.9487 26.6979 78.1904 0.0000 0.0000 0.0000
# 4 0.0000 0.0000 0.0000 13.5865 0.0000 0.0000
# 5 0.0000 0.0000 0.0000 0.0000 26.8294 0.0000
# 6 0.0000 0.0000 0.0000 0.0000 0.0000 14.9282
#
#
#
# Elastic Compliance Matrix: (Units=1/GPa)
#
#
# Indices 1 2 3 4 5 6 
#
# 1 0.019537 -0.001669 -0.006413 0.000000 0.000000 0.000000
# 2 -0.001669 0.010961 -0.003146 0.000000 0.000000 0.000000
# 3 -0.006413 -0.003146 0.016156 0.000000 0.000000 0.000000
# 4 0.000000 0.000000 0.000000 0.073602 0.000000 0.000000
# 5 0.000000 0.000000 0.000000 0.000000 0.037273 0.000000
# 6 0.000000 0.000000 0.000000 0.000000 0.000000 0.066987
#
#
# Mechanical properties :
#
#
# Convention : Reuss Voigt Hill
#
# Bulk Modulus (GPa) = 41.32803 42.86297 42.09550
# Shear Modulus (GPa) = 19.60479 22.36900 20.98690
#
# Velocity S-wave (km/s) = 3.31515 3.54116 3.43002
# Velocity P-wave (km/s) = 6.14994 6.38344 6.26778
#
# Compressibility (1/GPa) = 0.02419665
#
# Stress axis : x y z
#
# Youngs Moduli (GPa) = 51.18436 91.23208 61.89686
#
# Poissons Ratio (x) = 0.15230 0.39697
# Poissons Ratio (y) = 0.08545 0.19472
# Poissons Ratio (z) = 0.32827 0.28701
#
# Static dielectric constant tensor:
#      x y z
#    x 1.644410 0.000000 0.000000 
#    y 0.000000 1.672690 0.000000 
#    z 0.000000 0.000000 1.644030 
# 
# From -- ./inp_files/31983.got.cif
#   From: 2010.05.17/outbox.cif.g08.bks.cpg/sg48_16_cif.got.tgz:31983.got - 2010.06.03 20:39:00.
