data_PCOD9390122
_publ_section_title
;
Structure prediction by ZEFSAII (Michael W. Deem and Ramdas Pophale) SiO2 
 PCOD9390122
Probable space group: P N N N
;
_chemical_formula_sum "Si O2"
_cell_formula_units_Z 40
_cell_length_a 9.020585
_cell_length_b 13.844064
_cell_length_c 16.195093
_cell_angle_alpha 90.000000
_cell_angle_beta 90.000000
_cell_angle_gamma 90.000000
_cell_volume 2022.468414
_symmetry_space_group_name_H-M "P N N N"
_symmetry_group_IT_number 48
_space_group.IT_coordinate_system_code '2'
_symmetry_cell_setting 'orthorhombic'
loop_
_space_group_symop_operation_xyz
x,y,z
1/2-x,1/2-y,z
x,1/2-y,1/2-z
1/2-x,y,1/2-z
-x,-y,-z
1/2+x,1/2+y,-z
-x,1/2+y,1/2+z
1/2+x,-y,1/2+z
loop_
_atom_site_type_symbol
_atom_site_label
_atom_site_fract_x
_atom_site_fract_y
_atom_site_fract_z
Si Si1 0.250000 0.581484 0.750000
Si Si2 0.426376 0.735441 0.157864
Si Si3 0.463297 0.294866 0.494498
Si Si4 0.250000 0.750000 0.885716
Si Si5 0.035718 0.480553 0.631955
Si Si6 0.306039 0.089064 0.474332
O O1 0.243142 0.656295 0.826701
O O2 0.115317 0.514557 0.716276
O O3 0.250000 0.750000 0.155521
O O4 0.482145 0.750000 0.250000
O O5 0.468347 0.625987 0.137130
O O6 0.497146 0.806388 0.090641
O O7 0.609277 0.267522 0.443836
O O8 0.372465 0.195129 0.489647
O O9 0.367285 0.386034 0.463472
O O10 0.153274 0.475388 0.554974
O O11 0.898793 0.546798 0.602091
#
# Coordination Sequence:
#
# PCOD9390122 Si02
#       6
#     4   8   8   4   8   8
#     4  11  24  40  65  94 126 170 211 272 318 391
#     4  10  22  40  60  87 129 168 209 271 326 379
#     4  10  19  39  65  93 127 170 214 257 340 391
#     4  11  22  42  65  92 132 170 213 262 336 391
#     4  10  21  41  63  91 128 164 219 269 318 393
#     4   9  20  38  66  94 123 167 213 270 316 391
#
# _framework density 19.777812000000001
#
# number of rings (size 3 to 8) (size 9 to 14) (size 15 to 20)
#    0.000    2.000    3.000    0.000    2.800    0.000 
#    7.200    2.000    0.000    0.000    0.000    0.000 
#    0.000    0.000    0.000    0.000    0.000    0.000 
#
# Total GULP energy -222698.267756 kJ/mol
# GULP energy per Si atom -5567.456694 kJ/mol
# Density = 1.973280 g / cm^3
# Si number density = 19.777812 Si / 1000 Ang^3
#
#
#
# Elastic Constant Matrix: (Units=GPa)
#
#
# Indices 1 2 3 4 5 6 
#
# 1 116.0938 43.3303 59.9660 0.0000 0.0000 0.0000
# 2 43.3303 62.8743 25.8389 0.0000 0.0000 0.0000
# 3 59.9660 25.8389 102.8006 0.0000 0.0000 0.0000
# 4 0.0000 0.0000 0.0000 19.4299 0.0000 0.0000
# 5 0.0000 0.0000 0.0000 0.0000 9.2601 0.0000
# 6 0.0000 0.0000 0.0000 0.0000 0.0000 33.8157
#
#
#
# Elastic Compliance Matrix: (Units=1/GPa)
#
#
# Indices 1 2 3 4 5 6 
#
# 1 0.014936 -0.007486 -0.006831 0.000000 0.000000 0.000000
# 2 -0.007486 0.021489 -0.001034 0.000000 0.000000 0.000000
# 3 -0.006831 -0.001034 0.013972 0.000000 0.000000 0.000000
# 4 0.000000 0.000000 0.000000 0.051467 0.000000 0.000000
# 5 0.000000 0.000000 0.000000 0.000000 0.107990 0.000000
# 6 0.000000 0.000000 0.000000 0.000000 0.000000 0.029572
#
#
# Mechanical properties :
#
#
# Convention : Reuss Voigt Hill
#
# Bulk Modulus (GPa) = 50.77598 60.00435 55.39017
# Shear Modulus (GPa) = 18.07045 22.67670 20.37358
#
# Velocity S-wave (km/s) = 3.02598 3.38978 3.21303
# Velocity P-wave (km/s) = 6.15936 6.76209 6.46775
#
# Compressibility (1/GPa) = 0.01969435
#
# Stress axis : x y z
#
# Youngs Moduli (GPa) = 66.95119 46.53550 71.57035
#
# Poissons Ratio (x) = 0.34837 0.48890
# Poissons Ratio (y) = 0.50121 0.07403
# Poissons Ratio (z) = 0.45735 0.04814
#
# Static dielectric constant tensor:
#      x y z
#    x 1.768390 0.000000 0.000000 
#    y 0.000000 1.685020 0.000000 
#    z 0.000000 0.000000 1.716790 
# 
# From -- ./inp_files/25138.got.cif
#   From: 2010.05.17/outbox.cif.g08.bks.cpg/sg48_13_cif.got.tgz:25138.got - 2010.06.03 20:39:00.
