data_PCOD9390932
_publ_section_title
;
Structure prediction by ZEFSAII (Michael W. Deem and Ramdas Pophale) SiO2 
 PCOD9390932
Probable space group: P N N N
;
_chemical_formula_sum "Si O2"
_cell_formula_units_Z 48
_cell_length_a 9.662094
_cell_length_b 25.027282
_cell_length_c 8.135553
_cell_angle_alpha 90.000000
_cell_angle_beta 90.000000
_cell_angle_gamma 90.000000
_cell_volume 1967.306488
_symmetry_space_group_name_H-M "P N N N"
_symmetry_group_IT_number 48
_space_group.IT_coordinate_system_code '2'
_symmetry_cell_setting 'orthorhombic'
loop_
_space_group_symop_operation_xyz
x,y,z
1/2-x,1/2-y,z
x,1/2-y,1/2-z
1/2-x,y,1/2-z
-x,-y,-z
1/2+x,1/2+y,-z
-x,1/2+y,1/2+z
1/2+x,-y,1/2+z
loop_
_atom_site_type_symbol
_atom_site_label
_atom_site_fract_x
_atom_site_fract_y
_atom_site_fract_z
Si Si1 0.159474 0.454065 0.098028
Si Si2 0.172762 0.901583 0.908681
Si Si3 0.393527 0.777959 0.578353
Si Si4 0.401827 0.415262 0.939281
Si Si5 0.169411 0.202416 0.924793
Si Si6 0.928375 0.075562 0.613155
O O1 0.250000 0.435069 0.250000
O O2 0.101485 0.512614 0.136787
O O3 0.273708 0.455408 0.951484
O O4 0.031826 0.418533 0.041082
O O5 0.250000 0.923383 0.750000
O O6 0.134595 0.839861 0.881975
O O7 0.280105 0.901853 0.061232
O O8 0.029834 0.931484 0.945597
O O9 0.250000 0.750000 0.528426
O O10 0.437955 0.750000 0.750000
O O11 0.510744 0.777867 0.438475
O O12 0.337031 0.357925 0.989152
O O13 0.481606 0.405566 0.767614
O O14 0.250000 0.250000 0.016317
O O15 0.250000 0.197711 0.750000
#
# Coordination Sequence:
#
# PCOD9390932 Si02
#       6
#     8   8   8   8   8   8
#     4  11  24  43  66  98 136 181 230 283 345 406
#     4  11  22  40  67 100 131 172 229 278 347 416
#     4  10  21  42  67  97 134 175 220 291 350 407
#     4  11  24  45  67  96 138 179 227 288 342 417
#     4  10  23  43  65  97 132 178 227 277 346 421
#     4  11  25  42  69  99 136 184 227 290 346 413
#
# _framework density 24.398841999999998
#
# number of rings (size 3 to 8) (size 9 to 14) (size 15 to 20)
#    0.000    1.333    1.667    4.000    0.000    9.667 
#    6.000    5.000    0.000    0.000    0.000    0.000 
#    0.000    0.000    0.000    0.000    0.000    0.000 
#
# Total GULP energy -268135.792476 kJ/mol
# GULP energy per Si atom -5586.162343 kJ/mol
# Density = 2.434331 g / cm^3
# Si number density = 24.398842 Si / 1000 Ang^3
#
#
#
# Elastic Constant Matrix: (Units=GPa)
#
#
# Indices 1 2 3 4 5 6 
#
# 1 149.6995 14.3869 34.1082 0.0000 0.0000 0.0000
# 2 14.3869 66.9682 4.8517 0.0000 0.0000 0.0000
# 3 34.1082 4.8517 86.7913 0.0000 0.0000 0.0000
# 4 0.0000 0.0000 0.0000 12.5848 0.0000 0.0000
# 5 0.0000 0.0000 0.0000 0.0000 54.9460 0.0000
# 6 0.0000 0.0000 0.0000 0.0000 0.0000 31.4763
#
#
#
# Elastic Compliance Matrix: (Units=1/GPa)
#
#
# Indices 1 2 3 4 5 6 
#
# 1 0.007465 -0.001397 -0.002856 0.000000 0.000000 0.000000
# 2 -0.001397 0.015255 -0.000304 0.000000 0.000000 0.000000
# 3 -0.002856 -0.000304 0.012661 0.000000 0.000000 0.000000
# 4 0.000000 0.000000 0.000000 0.079461 0.000000 0.000000
# 5 0.000000 0.000000 0.000000 0.000000 0.018200 0.000000
# 6 0.000000 0.000000 0.000000 0.000000 0.000000 0.031770
#
#
# Mechanical properties :
#
#
# Convention : Reuss Voigt Hill
#
# Bulk Modulus (GPa) = 38.06888 45.57251 41.82069
# Shear Modulus (GPa) = 27.37034 36.47556 31.92295
#
# Velocity S-wave (km/s) = 3.35294 3.87068 3.62108
# Velocity P-wave (km/s) = 5.53410 6.22052 5.88732
#
# Compressibility (1/GPa) = 0.02626817
#
# Stress axis : x y z
#
# Youngs Moduli (GPa) = 133.96003 65.55425 78.98223
#
# Poissons Ratio (x) = 0.09157 0.22554
# Poissons Ratio (y) = 0.18712 0.02399
# Poissons Ratio (z) = 0.38253 0.01992
#
# Static dielectric constant tensor:
#      x y z
#    x 1.944890 0.000000 0.000000 
#    y 0.000000 1.926940 0.000000 
#    z 0.000000 0.000000 2.077900 
# 
# From -- ./inp_files/9456.got.cif
#   From: 2010.05.17/outbox.cif.g08.bks.cpg/sg48_5_cif.got.tgz:9456.got - 2010.06.03 20:39:00.
