data_PCOD9390995
_publ_section_title
;
Structure prediction by ZEFSAII (Michael W. Deem and Ramdas Pophale) SiO2 
 PCOD9390995
Probable space group: P N N N
;
_chemical_formula_sum "Si O2"
_cell_formula_units_Z 64
_cell_length_a 9.304648
_cell_length_b 21.125721
_cell_length_c 15.676268
_cell_angle_alpha 90.000000
_cell_angle_beta 90.000000
_cell_angle_gamma 90.000000
_cell_volume 3081.443206
_symmetry_space_group_name_H-M "P N N N"
_symmetry_group_IT_number 48
_space_group.IT_coordinate_system_code '2'
_symmetry_cell_setting 'orthorhombic'
loop_
_space_group_symop_operation_xyz
x,y,z
1/2-x,1/2-y,z
x,1/2-y,1/2-z
1/2-x,y,1/2-z
-x,-y,-z
1/2+x,1/2+y,-z
-x,1/2+y,1/2+z
1/2+x,-y,1/2+z
loop_
_atom_site_type_symbol
_atom_site_label
_atom_site_fract_x
_atom_site_fract_y
_atom_site_fract_z
Si Si1 0.751009 0.054418 0.012465
Si Si2 0.859585 0.455430 0.680734
Si Si3 0.416537 0.731051 0.657851
Si Si4 0.745945 0.824245 0.079443
Si Si5 0.009707 0.841784 0.958722
Si Si6 0.700207 0.591931 0.830957
Si Si7 0.036241 0.382285 0.060275
Si Si8 0.190553 0.449634 0.661526
O O1 0.846721 0.117244 0.031450
O O2 0.583959 0.072830 0.019741
O O3 0.789568 0.997826 0.080175
O O4 0.795639 0.042003 0.914691
O O5 0.750000 0.425405 0.750000
O O6 0.870497 0.528961 0.706501
O O7 0.022746 0.433197 0.675384
O O8 0.250000 0.750000 0.662926
O O9 0.479419 0.750000 0.750000
O O10 0.468095 0.772867 0.578790
O O11 0.454079 0.660293 0.630580
O O12 0.750000 0.750000 0.105855
O O13 0.728731 0.882812 0.144641
O O14 0.623055 0.838863 0.008153
O O15 0.902976 0.837674 0.038338
O O16 0.918710 0.876572 0.887009
O O17 0.750000 0.632296 0.750000
O O18 0.837724 0.581157 0.890731
O O19 0.250000 0.478445 0.750000
#
# Coordination Sequence:
#
# PCOD9390995 Si02
#       8
#     8   8   8   8   8   8   8   8
#     4  12  24  43  72  98 144 180 227 287 351 422
#     4  11  25  45  68 100 137 178 222 283 352 420
#     4  11  22  35  56  94 137 178 227 282 345 418
#     4  11  24  45  71  95 133 177 240 289 342 407
#     4  11  20  40  63  90 130 184 223 273 346 415
#     4  10  22  37  58  88 134 173 218 273 335 402
#     4  11  24  38  63 101 130 182 234 281 343 417
#     4  12  28  45  72 107 140 185 235 287 359 419
#
# _framework density 20.769489
#
# number of rings (size 3 to 8) (size 9 to 14) (size 15 to 20)
#    0.000    0.875    5.000    2.625    5.250    2.250 
#    0.000    1.875    0.000    0.000    0.000    0.000 
#    0.000    0.000    0.000    0.000    0.000    0.000 
#
# Total GULP energy -356801.085095 kJ/mol
# GULP energy per Si atom -5575.016955 kJ/mol
# Density = 2.072222 g / cm^3
# Si number density = 20.769489 Si / 1000 Ang^3
#
#
#
# Elastic Constant Matrix: (Units=GPa)
#
#
# Indices 1 2 3 4 5 6 
#
# 1 101.4476 10.2820 22.6503 0.0000 0.0000 0.0000
# 2 10.2820 67.2006 10.0098 0.0000 0.0000 0.0000
# 3 22.6503 10.0098 103.9783 0.0000 0.0000 0.0000
# 4 0.0000 0.0000 0.0000 23.5304 0.0000 0.0000
# 5 0.0000 0.0000 0.0000 0.0000 15.7528 0.0000
# 6 0.0000 0.0000 0.0000 0.0000 0.0000 30.5692
#
#
#
# Elastic Compliance Matrix: (Units=1/GPa)
#
#
# Indices 1 2 3 4 5 6 
#
# 1 0.010469 -0.001280 -0.002157 0.000000 0.000000 0.000000
# 2 -0.001280 0.015254 -0.001190 0.000000 0.000000 0.000000
# 3 -0.002157 -0.001190 0.010202 0.000000 0.000000 0.000000
# 4 0.000000 0.000000 0.000000 0.042498 0.000000 0.000000
# 5 0.000000 0.000000 0.000000 0.000000 0.063481 0.000000
# 6 0.000000 0.000000 0.000000 0.000000 0.000000 0.032713
#
#
# Mechanical properties :
#
#
# Convention : Reuss Voigt Hill
#
# Bulk Modulus (GPa) = 37.49518 39.83453 38.66485
# Shear Modulus (GPa) = 25.93889 29.28276 27.61083
#
# Velocity S-wave (km/s) = 3.53780 3.75893 3.65004
# Velocity P-wave (km/s) = 5.89748 6.16931 6.03493
#
# Compressibility (1/GPa) = 0.02667009
#
# Stress axis : x y z
#
# Youngs Moduli (GPa) = 95.52260 65.55692 98.02169
#
# Poissons Ratio (x) = 0.08394 0.21145
# Poissons Ratio (y) = 0.12231 0.11660
# Poissons Ratio (z) = 0.20606 0.07798
#
# Static dielectric constant tensor:
#      x y z
#    x 1.774130 0.000000 0.000000 
#    y 0.000000 1.698340 0.000000 
#    z 0.000000 0.000000 1.921690 
# 
# From -- ./inp_files/25752.got.cif
#   From: 2010.05.17/outbox.cif.g08.bks.cpg/sg48_13_cif.got.tgz:25752.got - 2010.06.03 20:39:00.
