data_PCOD9390471
_publ_section_title
;
Structure prediction by ZEFSAII (Michael W. Deem and Ramdas Pophale) SiO2 
 PCOD9390471
Probable space group: P N N N
;
_chemical_formula_sum "Si O2"
_cell_formula_units_Z 56
_cell_length_a 13.347374
_cell_length_b 11.933395
_cell_length_c 14.620766
_cell_angle_alpha 90.000000
_cell_angle_beta 90.000000
_cell_angle_gamma 90.000000
_cell_volume 2328.788096
_symmetry_space_group_name_H-M "P N N N"
_symmetry_group_IT_number 48
_space_group.IT_coordinate_system_code '2'
_symmetry_cell_setting 'orthorhombic'
loop_
_space_group_symop_operation_xyz
x,y,z
1/2-x,1/2-y,z
x,1/2-y,1/2-z
1/2-x,y,1/2-z
-x,-y,-z
1/2+x,1/2+y,-z
-x,1/2+y,1/2+z
1/2+x,-y,1/2+z
loop_
_atom_site_type_symbol
_atom_site_label
_atom_site_fract_x
_atom_site_fract_y
_atom_site_fract_z
Si Si1 0.534350 0.895137 0.382440
Si Si2 0.808182 0.140253 0.886832
Si Si3 0.637161 0.131284 0.402284
Si Si4 0.859599 0.795041 0.486901
Si Si5 0.072737 0.092207 0.687315
Si Si6 0.883714 0.475795 0.924045
Si Si7 0.134060 0.627655 0.871804
O O1 0.418121 0.889064 0.352700
O O2 0.567345 0.808918 0.461997
O O3 0.585937 0.859583 0.287448
O O4 0.571327 0.019751 0.405533
O O5 0.750000 0.250000 0.852184
O O6 0.726346 0.042649 0.882775
O O7 0.833298 0.160489 0.993304
O O8 0.746637 0.117212 0.358283
O O9 0.595511 0.246667 0.362634
O O10 0.750000 0.750000 0.512579
O O11 0.852587 0.860181 0.389150
O O12 0.897379 0.891542 0.556544
O O13 0.964098 0.091981 0.636859
O O14 0.086900 0.959008 0.697821
O O15 0.885560 0.418676 0.024854
#
# Coordination Sequence:
#
# PCOD9390471 Si02
#       7
#     8   8   8   8   8   8   8
#     4  12  26  38  62 102 130 165 204 274 331 384
#     4  11  21  41  67  93 123 162 224 268 311 377
#     4  10  20  38  65  95 124 154 224 267 311 372
#     4  11  23  40  65  94 128 167 217 268 325 382
#     4  11  24  40  61  92 136 169 206 251 342 398
#     4  10  21  42  65  89 120 175 219 260 311 388
#     4   9  18  38  68  90 119 172 213 261 307 386
#
# _framework density 24.046844
#
# number of rings (size 3 to 8) (size 9 to 14) (size 15 to 20)
#    0.000    1.429    2.857    6.000    2.000    4.000 
#    0.000    2.143    0.000    0.000    0.000    0.000 
#    0.000    0.000    0.000    0.000    0.000    0.000 
#
# Total GULP energy -312889.388212 kJ/mol
# GULP energy per Si atom -5587.310504 kJ/mol
# Density = 2.399211 g / cm^3
# Si number density = 24.046844 Si / 1000 Ang^3
#
#
#
# Elastic Constant Matrix: (Units=GPa)
#
#
# Indices 1 2 3 4 5 6 
#
# 1 88.7337 48.0604 -9.4526 0.0000 0.0000 0.0000
# 2 48.0604 172.3308 -0.8835 0.0000 0.0000 0.0000
# 3 -9.4526 -0.8835 57.5331 0.0000 0.0000 0.0000
# 4 0.0000 0.0000 0.0000 4.7743 0.0000 0.0000
# 5 0.0000 0.0000 0.0000 0.0000 8.2614 0.0000
# 6 0.0000 0.0000 0.0000 0.0000 0.0000 34.0578
#
#
#
# Elastic Compliance Matrix: (Units=1/GPa)
#
#
# Indices 1 2 3 4 5 6 
#
# 1 0.013540 -0.003765 0.002167 0.000000 0.000000 0.000000
# 2 -0.003765 0.006850 -0.000513 0.000000 0.000000 0.000000
# 3 0.002167 -0.000513 0.017729 0.000000 0.000000 0.000000
# 4 0.000000 0.000000 0.000000 0.209454 0.000000 0.000000
# 5 0.000000 0.000000 0.000000 0.000000 0.121044 0.000000
# 6 0.000000 0.000000 0.000000 0.000000 0.000000 0.029362
#
#
# Mechanical properties :
#
#
# Convention : Reuss Voigt Hill
#
# Bulk Modulus (GPa) = 29.50190 43.78292 36.64241
# Shear Modulus (GPa) = 12.09185 28.14359 20.11772
#
# Velocity S-wave (km/s) = 2.24485 3.42477 2.89555
# Velocity P-wave (km/s) = 4.36054 5.82114 5.14295
#
# Compressibility (1/GPa) = 0.03389612
#
# Stress axis : x y z
#
# Youngs Moduli (GPa) = 73.85713 145.98257 56.40346
#
# Poissons Ratio (x) = 0.54961 -0.12221
# Poissons Ratio (y) = 0.27806 0.02896
# Poissons Ratio (z) = -0.16003 0.07494
#
# Static dielectric constant tensor:
#      x y z
#    x 2.000210 0.000000 0.000000 
#    y 0.000000 2.000300 0.000000 
#    z 0.000000 0.000000 1.976830 
# 
# From -- ./inp_files/27332.got.cif
#   From: 2010.05.17/outbox.cif.g08.bks.cpg/sg48_14_cif.got.tgz:27332.got - 2010.06.03 20:39:00.
