data_PCOD9390574
_publ_section_title
;
Structure prediction by ZEFSAII (Michael W. Deem and Ramdas Pophale) SiO2 
 PCOD9390574
Probable space group: P N N N
;
_chemical_formula_sum "Si O2"
_cell_formula_units_Z 56
_cell_length_a 15.200523
_cell_length_b 8.431658
_cell_length_c 19.395547
_cell_angle_alpha 90.000000
_cell_angle_beta 90.000000
_cell_angle_gamma 90.000000
_cell_volume 2485.842139
_symmetry_space_group_name_H-M "P N N N"
_symmetry_group_IT_number 48
_space_group.IT_coordinate_system_code '2'
_symmetry_cell_setting 'orthorhombic'
loop_
_space_group_symop_operation_xyz
x,y,z
1/2-x,1/2-y,z
x,1/2-y,1/2-z
1/2-x,y,1/2-z
-x,-y,-z
1/2+x,1/2+y,-z
-x,1/2+y,1/2+z
1/2+x,-y,1/2+z
loop_
_atom_site_type_symbol
_atom_site_label
_atom_site_fract_x
_atom_site_fract_y
_atom_site_fract_z
Si Si1 0.250000 0.250000 0.607009
Si Si2 0.750000 0.250000 0.411805
Si Si3 0.648933 0.565618 0.731945
Si Si4 0.458416 0.928349 0.429999
Si Si5 0.663936 0.132828 0.904840
Si Si6 0.828971 0.479437 0.195725
Si Si7 0.701521 0.984976 0.505318
Si Si8 0.481467 0.420164 0.785056
O O1 0.188370 0.145122 0.656023
O O2 0.196117 0.353999 0.552730
O O3 0.686921 0.351156 0.363035
O O4 0.689242 0.145163 0.461245
O O5 0.628547 0.750000 0.750000
O O6 0.750000 0.542536 0.750000
O O7 0.638667 0.486988 0.656465
O O8 0.583260 0.461688 0.776655
O O9 0.417539 0.749005 0.423663
O O10 0.366796 0.030110 0.432369
O O11 0.526715 0.939733 0.366983
O O12 0.500000 0.000000 0.500000
O O13 0.750000 0.250000 0.889523
O O14 0.701379 0.016430 0.964313
O O15 0.750000 0.463896 0.250000
O O16 0.917815 0.470318 0.239383
O O17 0.466675 0.250000 0.750000
#
# Coordination Sequence:
#
# PCOD9390574 Si02
#       8
#     4   4   8   8   8   8   8   8
#     4  10  23  40  72 108 139 196 242 312 372 447
#     4  10  21  42  72 100 135 186 244 298 373 440
#     4  11  25  43  69 107 151 191 248 310 377 450
#     4  11  24  40  69 103 139 183 244 305 363 443
#     4  10  20  41  71 103 137 198 246 294 371 458
#     4  11  25  43  70 100 141 189 248 304 368 443
#     4  10  21  41  72 103 142 189 244 296 374 460
#     4  12  26  44  73 105 146 195 252 305 374 466
#
# _framework density 22.527577000000001
#
# number of rings (size 3 to 8) (size 9 to 14) (size 15 to 20)
#    0.000    1.286    3.571    3.000    6.000    3.429 
#    0.000    0.000    0.000    4.286    0.000    0.000 
#    0.000    0.000    0.000    0.000    0.000    0.000 
#
# Total GULP energy -312159.589247 kJ/mol
# GULP energy per Si atom -5574.278379 kJ/mol
# Density = 2.247630 g / cm^3
# Si number density = 22.527577 Si / 1000 Ang^3
#
#
#
# Elastic Constant Matrix: (Units=GPa)
#
#
# Indices 1 2 3 4 5 6 
#
# 1 42.3219 13.6722 23.9282 0.0000 0.0000 0.0000
# 2 13.6722 68.6533 49.4317 0.0000 0.0000 0.0000
# 3 23.9282 49.4317 161.9094 0.0000 0.0000 0.0000
# 4 0.0000 0.0000 0.0000 25.4960 0.0000 0.0000
# 5 0.0000 0.0000 0.0000 0.0000 49.4425 0.0000
# 6 0.0000 0.0000 0.0000 0.0000 0.0000 23.2255
#
#
#
# Elastic Compliance Matrix: (Units=1/GPa)
#
#
# Indices 1 2 3 4 5 6 
#
# 1 0.026296 -0.003126 -0.002932 0.000000 0.000000 0.000000
# 2 -0.003126 0.019042 -0.005352 0.000000 0.000000 0.000000
# 3 -0.002932 -0.005352 0.008243 0.000000 0.000000 0.000000
# 4 0.000000 0.000000 0.000000 0.039222 0.000000 0.000000
# 5 0.000000 0.000000 0.000000 0.000000 0.020226 0.000000
# 6 0.000000 0.000000 0.000000 0.000000 0.000000 0.043056
#
#
# Mechanical properties :
#
#
# Convention : Reuss Voigt Hill
#
# Bulk Modulus (GPa) = 32.50709 49.66099 41.08404
# Shear Modulus (GPa) = 26.43307 32.02297 29.22802
#
# Velocity S-wave (km/s) = 3.42916 3.77437 3.60590
# Velocity P-wave (km/s) = 5.49000 6.40990 5.96770
#
# Compressibility (1/GPa) = 0.03076252
#
# Stress axis : x y z
#
# Youngs Moduli (GPa) = 38.02884 52.51644 121.30843
#
# Poissons Ratio (x) = 0.16415 0.35566
# Poissons Ratio (y) = 0.11887 0.64919
# Poissons Ratio (z) = 0.11150 0.28105
#
# Static dielectric constant tensor:
#      x y z
#    x 1.893430 0.000000 0.000000 
#    y 0.000000 1.943170 0.000000 
#    z 0.000000 0.000000 1.854980 
# 
# From -- ./inp_files/34492.got.cif
#   From: 2010.05.17/outbox.cif.g08.bks.cpg/sg48_18_cif.got.tgz:34492.got - 2010.06.03 20:39:00.
