data_PCOD9390158
_publ_section_title
;
Structure prediction by ZEFSAII (Michael W. Deem and Ramdas Pophale) SiO2 
 PCOD9390158
Probable space group: P N N N
;
_chemical_formula_sum "Si O2"
_cell_formula_units_Z 44
_cell_length_a 11.819627
_cell_length_b 9.034783
_cell_length_c 22.119343
_cell_angle_alpha 90.000000
_cell_angle_beta 90.000000
_cell_angle_gamma 90.000000
_cell_volume 2362.075204
_symmetry_space_group_name_H-M "P N N N"
_symmetry_group_IT_number 48
_space_group.IT_coordinate_system_code '2'
_symmetry_cell_setting 'orthorhombic'
loop_
_space_group_symop_operation_xyz
x,y,z
1/2-x,1/2-y,z
x,1/2-y,1/2-z
1/2-x,y,1/2-z
-x,-y,-z
1/2+x,1/2+y,-z
-x,1/2+y,1/2+z
1/2+x,-y,1/2+z
loop_
_atom_site_type_symbol
_atom_site_label
_atom_site_fract_x
_atom_site_fract_y
_atom_site_fract_z
Si Si1 0.933752 0.525006 0.405271
Si Si2 0.380407 0.577290 0.767890
Si Si3 0.448990 0.045443 0.849566
Si Si4 0.117990 0.724803 0.078297
Si Si5 0.750000 0.750000 0.396255
Si Si6 0.117864 0.787896 0.558282
O O1 0.905270 0.474955 0.335932
O O2 0.825920 0.623092 0.428345
O O3 0.945183 0.369032 0.438217
O O4 0.043991 0.626010 0.413106
O O5 0.396923 0.750000 0.750000
O O6 0.250000 0.546345 0.750000
O O7 0.456002 0.489447 0.720505
O O8 0.563231 0.112396 0.875045
O O9 0.346522 0.161911 0.859843
O O10 0.418625 0.902375 0.890332
O O11 0.250000 0.750000 0.087050
O O12 0.102563 0.660091 0.010448
O O13 0.250000 0.750000 0.568530
#
# Coordination Sequence:
#
# PCOD9390158 Si02
#       6
#     8   8   8   8   4   8
#     4  11  21  37  60  91 124 152 193 243 303 358
#     4  11  20  34  62  95 123 147 182 247 317 370
#     4  11  21  37  60  91 124 152 193 243 303 358
#     4  10  25  41  58  81 122 165 209 238 281 343
#     4  10  20  31  52  94 122 148 180 235 302 352
#     4  11  19  38  64  89 122 154 194 249 302 356
#
# _framework density 18.627687999999999
#
# number of rings (size 3 to 8) (size 9 to 14) (size 15 to 20)
#    0.000    1.273    5.455    1.091    0.000    3.636 
#    0.000    2.727    0.000    1.091    0.000    0.000 
#    0.000    0.000    0.000    0.000    0.000    0.000 
#
# Total GULP energy -245456.990382 kJ/mol
# GULP energy per Si atom -5578.567963 kJ/mol
# Density = 1.858529 g / cm^3
# Si number density = 18.627688 Si / 1000 Ang^3
#
#
#
# Elastic Constant Matrix: (Units=GPa)
#
#
# Indices 1 2 3 4 5 6 
#
# 1 76.2137 7.5194 20.7873 0.0000 0.0000 0.0000
# 2 7.5194 60.7928 3.0548 0.0000 0.0000 0.0000
# 3 20.7873 3.0548 75.7815 0.0000 0.0000 0.0000
# 4 0.0000 0.0000 0.0000 20.0018 0.0000 0.0000
# 5 0.0000 0.0000 0.0000 0.0000 7.9260 0.0000
# 6 0.0000 0.0000 0.0000 0.0000 0.0000 18.8911
#
#
#
# Elastic Compliance Matrix: (Units=1/GPa)
#
#
# Indices 1 2 3 4 5 6 
#
# 1 0.014332 -0.001578 -0.003868 0.000000 0.000000 0.000000
# 2 -0.001578 0.016657 -0.000239 0.000000 0.000000 0.000000
# 3 -0.003868 -0.000239 0.014266 0.000000 0.000000 0.000000
# 4 0.000000 0.000000 0.000000 0.049996 0.000000 0.000000
# 5 0.000000 0.000000 0.000000 0.000000 0.126167 0.000000
# 6 0.000000 0.000000 0.000000 0.000000 0.000000 0.052935
#
#
# Mechanical properties :
#
#
# Convention : Reuss Voigt Hill
#
# Bulk Modulus (GPa) = 29.51102 30.61232 30.06167
# Shear Modulus (GPa) = 16.83413 21.45889 19.14651
#
# Velocity S-wave (km/s) = 3.00945 3.39778 3.20949
# Velocity P-wave (km/s) = 5.28703 5.64470 5.46879
#
# Compressibility (1/GPa) = 0.03388565
#
# Stress axis : x y z
#
# Youngs Moduli (GPa) = 69.77587 60.03653 70.09501
#
# Poissons Ratio (x) = 0.09476 0.27110
# Poissons Ratio (y) = 0.11013 0.01672
# Poissons Ratio (z) = 0.26987 0.01432
#
# Static dielectric constant tensor:
#      x y z
#    x 1.613910 0.000000 0.000000 
#    y 0.000000 1.704880 0.000000 
#    z 0.000000 0.000000 1.647880 
# 
# From -- ./inp_files/36206.got.cif
#   From: 2010.05.17/outbox.cif.g08.bks.cpg/sg48_19_cif.got.tgz:36206.got - 2010.06.03 20:39:00.
