data_PCOD9390693
_publ_section_title
;
Structure prediction by ZEFSAII (Michael W. Deem and Ramdas Pophale) SiO2 
 PCOD9390693
Probable space group: P N N N
;
_chemical_formula_sum "Si O2"
_cell_formula_units_Z 52
_cell_length_a 11.101969
_cell_length_b 8.185722
_cell_length_c 24.419292
_cell_angle_alpha 90.000000
_cell_angle_beta 90.000000
_cell_angle_gamma 90.000000
_cell_volume 2219.167429
_symmetry_space_group_name_H-M "P N N N"
_symmetry_group_IT_number 48
_space_group.IT_coordinate_system_code '2'
_symmetry_cell_setting 'orthorhombic'
loop_
_space_group_symop_operation_xyz
x,y,z
1/2-x,1/2-y,z
x,1/2-y,1/2-z
1/2-x,y,1/2-z
-x,-y,-z
1/2+x,1/2+y,-z
-x,1/2+y,1/2+z
1/2+x,-y,1/2+z
loop_
_atom_site_type_symbol
_atom_site_label
_atom_site_fract_x
_atom_site_fract_y
_atom_site_fract_z
Si Si1 0.011258 0.789083 0.421066
Si Si2 0.908860 0.429367 0.423729
Si Si3 0.750000 0.250000 0.994130
Si Si4 0.683266 0.430375 0.803162
Si Si5 0.384624 0.043766 0.136988
Si Si6 0.474225 0.672433 0.806457
Si Si7 0.388301 0.206078 0.024165
O O1 0.138021 0.768638 0.452882
O O2 0.944800 0.616011 0.413957
O O3 0.925526 0.868990 0.466526
O O4 0.038031 0.876014 0.362967
O O5 0.795858 0.389719 0.463151
O O6 0.897994 0.351074 0.362636
O O7 0.022265 0.352133 0.457381
O O8 0.750000 0.250000 0.805794
O O9 0.750000 0.501180 0.750000
O O10 0.743496 0.515649 0.855157
O O11 0.548020 0.500236 0.798263
O O12 0.431448 0.185901 0.175522
O O13 0.405907 0.089078 0.074917
O O14 0.421176 0.750000 0.750000
O O15 0.250000 0.250000 0.022599
#
# Coordination Sequence:
#
# PCOD9390693 Si02
#       7
#     8   8   4   8   8   8   8
#     4  11  24  39  61  95 130 171 220 267 322 393
#     4  10  23  43  62  91 125 175 224 267 326 388
#     4  10  22  40  65  86 129 176 226 268 316 396
#     4  11  22  36  58  88 122 166 211 261 331 406
#     4  11  22  34  56  90 127 165 204 261 328 398
#     4  11  22  41  61  88 128 164 213 276 333 401
#     4  10  21  37  60  88 126 168 209 259 321 392
#
# _framework density 23.432210999999999
#
# number of rings (size 3 to 8) (size 9 to 14) (size 15 to 20)
#    0.000    1.385    1.538    5.538    7.538    0.000 
#    0.000    0.385    0.000    0.000    0.000    0.000 
#    0.000    0.000    0.000    0.000    0.000    0.000 
#
# Total GULP energy -289601.008743 kJ/mol
# GULP energy per Si atom -5569.250168 kJ/mol
# Density = 2.337888 g / cm^3
# Si number density = 23.432211 Si / 1000 Ang^3
#
#
#
# Elastic Constant Matrix: (Units=GPa)
#
#
# Indices 1 2 3 4 5 6 
#
# 1 31.3137 26.9795 7.8013 0.0000 0.0000 0.0000
# 2 26.9795 80.9939 18.9902 0.0000 0.0000 0.0000
# 3 7.8013 18.9902 87.2712 0.0000 0.0000 0.0000
# 4 0.0000 0.0000 0.0000 28.4271 0.0000 0.0000
# 5 0.0000 0.0000 0.0000 0.0000 17.0124 0.0000
# 6 0.0000 0.0000 0.0000 0.0000 0.0000 21.3352
#
#
#
# Elastic Compliance Matrix: (Units=1/GPa)
#
#
# Indices 1 2 3 4 5 6 
#
# 1 0.044842 -0.014750 -0.000799 0.000000 0.000000 0.000000
# 2 -0.014750 0.017862 -0.002568 0.000000 0.000000 0.000000
# 3 -0.000799 -0.002568 0.012089 0.000000 0.000000 0.000000
# 4 0.000000 0.000000 0.000000 0.035178 0.000000 0.000000
# 5 0.000000 0.000000 0.000000 0.000000 0.058781 0.000000
# 6 0.000000 0.000000 0.000000 0.000000 0.000000 0.046871
#
#
# Mechanical properties :
#
#
# Convention : Reuss Voigt Hill
#
# Bulk Modulus (GPa) = 25.93435 34.12452 30.02944
# Shear Modulus (GPa) = 18.88863 23.07544 20.98204
#
# Velocity S-wave (km/s) = 2.84226 3.14152 2.99563
# Velocity P-wave (km/s) = 4.67580 5.26816 4.98080
#
# Compressibility (1/GPa) = 0.03855890
#
# Stress axis : x y z
#
# Youngs Moduli (GPa) = 22.30043 55.98470 82.72116
#
# Poissons Ratio (x) = 0.82576 0.06609
# Poissons Ratio (y) = 0.32893 0.21245
# Poissons Ratio (z) = 0.01782 0.14378
#
# Static dielectric constant tensor:
#      x y z
#    x 1.919570 0.000000 0.000000 
#    y 0.000000 2.323410 0.000000 
#    z 0.000000 0.000000 1.941140 
# 
# From -- ./inp_files/37738.got.cif
#   From: 2010.05.17/outbox.cif.g08.bks.cpg/sg48_19_cif.got.tgz:37738.got - 2010.06.03 20:39:00.
