data_PCOD9390343
_publ_section_title
;
Structure prediction by ZEFSAII (Michael W. Deem and Ramdas Pophale) SiO2 
 PCOD9390343
Probable space group: P N N N
;
_chemical_formula_sum "Si O2"
_cell_formula_units_Z 30
_cell_length_a 8.146019
_cell_length_b 23.747785
_cell_length_c 6.986037
_cell_angle_alpha 90.000000
_cell_angle_beta 90.000000
_cell_angle_gamma 90.000000
_cell_volume 1351.448214
_symmetry_space_group_name_H-M "P N N N"
_symmetry_group_IT_number 48
_space_group.IT_coordinate_system_code '2'
_symmetry_cell_setting 'orthorhombic'
loop_
_space_group_symop_operation_xyz
x,y,z
1/2-x,1/2-y,z
x,1/2-y,1/2-z
1/2-x,y,1/2-z
-x,-y,-z
1/2+x,1/2+y,-z
-x,1/2+y,1/2+z
1/2+x,-y,1/2+z
loop_
_atom_site_type_symbol
_atom_site_label
_atom_site_fract_x
_atom_site_fract_y
_atom_site_fract_z
Si Si1 0.267409 0.411407 0.020380
Si Si2 0.914176 0.340090 0.489395
Si Si3 0.250000 0.750000 0.250000
Si Si4 0.250000 0.986704 0.750000
Si Si5 0.423911 0.884942 0.912748
O O1 0.250000 0.414148 0.250000
O O2 0.417868 0.371776 0.963171
O O3 0.088115 0.386851 0.966234
O O4 0.288466 0.471980 0.924817
O O5 0.870121 0.285400 0.610479
O O6 0.928897 0.337855 0.255709
O O7 0.747263 0.376302 0.520267
O O8 0.398071 0.945034 0.806591
#
# Coordination Sequence:
#
# PCOD9390343 Si02
#       5
#     8   8   2   4   8
#     4  10  21  39  62  94 135 169 207 254 314 389
#     4   9  22  40  61  87 123 161 218 271 320 374
#     4  12  24  42  66  96 112 172 228 288 346 368
#     4  10  20  36  64 102 136 176 200 246 318 398
#     4   9  21  42  60  96 131 167 208 257 315 397
#
# _framework density 22.198407
#
# number of rings (size 3 to 8) (size 9 to 14) (size 15 to 20)
#    0.000    2.667    0.000    0.800    3.733   11.733 
#    9.600    2.667    0.000    8.000    0.000    0.000 
#    0.000    0.000    0.000    0.000    0.000    0.000 
#
# Total GULP energy -167243.204306 kJ/mol
# GULP energy per Si atom -5574.773477 kJ/mol
# Density = 2.214788 g / cm^3
# Si number density = 22.198407 Si / 1000 Ang^3
#
#
#
# Elastic Constant Matrix: (Units=GPa)
#
#
# Indices 1 2 3 4 5 6 
#
# 1 221.7384 64.0289 37.1264 0.0000 0.0000 0.0000
# 2 64.0289 110.9309 61.3469 0.0000 0.0000 0.0000
# 3 37.1264 61.3469 123.8807 0.0000 0.0000 0.0000
# 4 0.0000 0.0000 0.0000 45.4078 0.0000 0.0000
# 5 0.0000 0.0000 0.0000 0.0000 -14.1839 0.0000
# 6 0.0000 0.0000 0.0000 0.0000 0.0000 -3.6034
#
#
#
# Elastic Compliance Matrix: (Units=1/GPa)
#
#
# Indices 1 2 3 4 5 6 
#
# 1 0.005413 -0.003067 -0.000103 0.000000 0.000000 0.000000
# 2 -0.003067 0.014152 -0.006089 0.000000 0.000000 0.000000
# 3 -0.000103 -0.006089 0.011119 0.000000 0.000000 0.000000
# 4 0.000000 0.000000 0.000000 0.022023 0.000000 0.000000
# 5 0.000000 0.000000 0.000000 0.000000 -0.070503 0.000000
# 6 0.000000 0.000000 0.000000 0.000000 0.000000 -0.277515
#
#
# Mechanical properties :
#
#
# Convention : Reuss Voigt Hill
#
# Bulk Modulus (GPa) = 82.20579 86.83937 84.52258
# Shear Modulus (GPa) = -18.33268 25.12730 3.39731
#
# Velocity S-wave (km/s) = -2.87689 3.36808 1.23845
# Velocity P-wave (km/s) = 5.10660 7.37088 6.34063
#
# Compressibility (1/GPa) = 0.01216459
#
# Stress axis : x y z
#
# Youngs Moduli (GPa) = 184.74836 70.65953 89.93879
#
# Poissons Ratio (x) = 0.21672 0.00929
# Poissons Ratio (y) = 0.56664 0.54765
# Poissons Ratio (z) = 0.01909 0.43026
#
# Static dielectric constant tensor:
#      x y z
#    x 1.902730 0.000000 0.000000 
#    y 0.000000 1.811690 0.000000 
#    z 0.000000 0.000000 1.934280 
# 
# From -- ./inp_files/8685.got.cif
#   From: 2010.05.17/outbox.cif.g08.bks.cpg/sg48_5_cif.got.tgz:8685.got - 2010.06.03 20:39:00.
