data_PCOD9390346
_publ_section_title
;
Structure prediction by ZEFSAII (Michael W. Deem and Ramdas Pophale) SiO2 
 PCOD9390346
Probable space group: P N N N
;
_chemical_formula_sum "Si O2"
_cell_formula_units_Z 52
_cell_length_a 11.546416
_cell_length_b 8.516491
_cell_length_c 23.471431
_cell_angle_alpha 90.000000
_cell_angle_beta 90.000000
_cell_angle_gamma 90.000000
_cell_volume 2308.061946
_symmetry_space_group_name_H-M "P N N N"
_symmetry_group_IT_number 48
_space_group.IT_coordinate_system_code '2'
_symmetry_cell_setting 'orthorhombic'
loop_
_space_group_symop_operation_xyz
x,y,z
1/2-x,1/2-y,z
x,1/2-y,1/2-z
1/2-x,y,1/2-z
-x,-y,-z
1/2+x,1/2+y,-z
-x,1/2+y,1/2+z
1/2+x,-y,1/2+z
loop_
_atom_site_type_symbol
_atom_site_label
_atom_site_fract_x
_atom_site_fract_y
_atom_site_fract_z
Si Si1 0.987121 0.649746 0.172514
Si Si2 0.272657 0.065059 0.883583
Si Si3 0.583714 0.396226 0.039117
Si Si4 0.290701 0.506629 0.360282
Si Si5 0.067343 0.314508 0.351751
Si Si6 0.750000 0.250000 0.541490
Si Si7 0.090757 0.480600 0.706485
O O1 0.912243 0.560476 0.123400
O O2 0.932507 0.582455 0.230656
O O3 0.963321 0.835715 0.169155
O O4 0.124450 0.625226 0.172492
O O5 0.250000 0.250000 0.890484
O O6 0.216385 0.010528 0.822955
O O7 0.197369 0.978311 0.931879
O O8 0.503177 0.341626 0.090441
O O9 0.500000 0.500000 0.000000
O O10 0.637795 0.266465 0.997943
O O11 0.168319 0.441837 0.339577
O O12 0.370323 0.350976 0.358229
O O13 0.264205 0.595924 0.419293
O O14 0.973459 0.355805 0.303949
#
# Coordination Sequence:
#
# PCOD9390346 Si02
#       7
#     8   8   8   8   8   4   8
#     4  10  20  36  65  96 122 163 215 258 318 387
#     4   9  20  37  63  92 126 164 210 258 320 387
#     4  11  24  42  64  91 128 168 210 273 327 380
#     4  11  24  40  63  89 125 164 212 265 317 393
#     4  10  23  44  60  88 129 165 205 266 330 385
#     4  12  26  42  66  93 123 174 226 268 324 390
#     4   9  19  39  63  91 130 164 202 265 319 385
#
# _framework density 22.529724000000002
#
# number of rings (size 3 to 8) (size 9 to 14) (size 15 to 20)
#    0.000    1.846    1.538    1.385    6.462    4.923 
#    0.000    3.077    0.000    1.846    0.000    0.000 
#    0.000    0.000    0.000    0.000    0.000    0.000 
#
# Total GULP energy -289809.446045 kJ/mol
# GULP energy per Si atom -5573.258578 kJ/mol
# Density = 2.247845 g / cm^3
# Si number density = 22.529724 Si / 1000 Ang^3
#
#
#
# Elastic Constant Matrix: (Units=GPa)
#
#
# Indices 1 2 3 4 5 6 
#
# 1 80.8594 17.0175 -7.7311 0.0000 0.0000 0.0000
# 2 17.0175 41.0470 0.5498 0.0000 0.0000 0.0000
# 3 -7.7311 0.5498 35.7381 0.0000 0.0000 0.0000
# 4 0.0000 0.0000 0.0000 8.6050 0.0000 0.0000
# 5 0.0000 0.0000 0.0000 0.0000 1009.0653 0.0000
# 6 0.0000 0.0000 0.0000 0.0000 0.0000 29.7087
#
#
#
# Elastic Compliance Matrix: (Units=1/GPa)
#
#
# Indices 1 2 3 4 5 6 
#
# 1 0.013883 -0.005797 0.003092 0.000000 0.000000 0.000000
# 2 -0.005797 0.026788 -0.001666 0.000000 0.000000 0.000000
# 3 0.003092 -0.001666 0.028676 0.000000 0.000000 0.000000
# 4 0.000000 0.000000 0.000000 0.116212 0.000000 0.000000
# 5 0.000000 0.000000 0.000000 0.000000 0.000991 0.000000
# 6 0.000000 0.000000 0.000000 0.000000 0.000000 0.033660
#
#
# Mechanical properties :
#
#
# Convention : Reuss Voigt Hill
#
# Bulk Modulus (GPa) = 16.50022 19.70186 18.10104
# Shear Modulus (GPa) = 20.06796 219.32969 119.69883
#
# Velocity S-wave (km/s) = 2.98775 9.87738 7.29689
# Velocity P-wave (km/s) = 4.38656 11.78335 8.89070
#
# Compressibility (1/GPa) = 0.06060527
#
# Stress axis : x y z
#
# Youngs Moduli (GPa) = 72.03136 37.33019 34.87240
#
# Poissons Ratio (x) = 0.21640 -0.10784
# Poissons Ratio (y) = 0.41757 0.05810
# Poissons Ratio (z) = -0.22275 0.06220
#
# Static dielectric constant tensor:
#      x y z
#    x 1.853180 0.000000 0.000000 
#    y 0.000000 1.872840 0.000000 
#    z 0.000000 0.000000 1.862560 
# 
# From -- ./inp_files/37746.got.cif
#   From: 2010.05.17/outbox.cif.g08.bks.cpg/sg48_19_cif.got.tgz:37746.got - 2010.06.03 20:39:00.
