data_PCOD9390276
_publ_section_title
;
Structure prediction by ZEFSAII (Michael W. Deem and Ramdas Pophale) SiO2 
 PCOD9390276
Probable space group: P N N N
;
_chemical_formula_sum "Si O2"
_cell_formula_units_Z 48
_cell_length_a 13.575002
_cell_length_b 9.527366
_cell_length_c 14.834867
_cell_angle_alpha 90.000000
_cell_angle_beta 90.000000
_cell_angle_gamma 90.000000
_cell_volume 1918.652874
_symmetry_space_group_name_H-M "P N N N"
_symmetry_group_IT_number 48
_space_group.IT_coordinate_system_code '2'
_symmetry_cell_setting 'orthorhombic'
loop_
_space_group_symop_operation_xyz
x,y,z
1/2-x,1/2-y,z
x,1/2-y,1/2-z
1/2-x,y,1/2-z
-x,-y,-z
1/2+x,1/2+y,-z
-x,1/2+y,1/2+z
1/2+x,-y,1/2+z
loop_
_atom_site_type_symbol
_atom_site_label
_atom_site_fract_x
_atom_site_fract_y
_atom_site_fract_z
Si Si1 0.563711 0.458203 0.415717
Si Si2 0.755299 0.947868 0.523201
Si Si3 0.378989 0.530169 0.315879
Si Si4 0.874814 0.343877 0.627252
Si Si5 0.138687 0.694929 0.651384
Si Si6 0.425778 0.082312 0.566277
O O1 0.500000 0.500000 0.500000
O O2 0.669861 0.522836 0.440779
O O3 0.494895 0.503307 0.332871
O O4 0.575283 0.290738 0.415168
O O5 0.818316 0.928429 0.615541
O O6 0.688172 0.087717 0.546397
O O7 0.664932 0.850087 0.489072
O O8 0.346959 0.685629 0.348686
O O9 0.361222 0.543891 0.209264
O O10 0.993141 0.325426 0.615680
O O11 0.250000 0.750000 0.641930
O O12 0.108824 0.750000 0.750000
O O13 0.120595 0.532283 0.634431
O O14 0.500000 0.000000 0.500000
#
# Coordination Sequence:
#
# PCOD9390276 Si02
#       6
#     8   8   8   8   8   8
#     4  10  22  34  60  86 118 149 191 243 285 344
#     4  10  20  35  57  87 113 147 197 236 281 340
#     4  10  21  37  60  87 117 148 186 241 298 347
#     4  10  21  37  60  87 117 148 186 241 298 347
#     4  11  22  38  62  85 115 154 197 244 290 344
#     4  10  22  34  60  86 118 149 191 243 285 344
#
# _framework density 25.017552999999999
#
# number of rings (size 3 to 8) (size 9 to 14) (size 15 to 20)
#    0.000    1.833    1.667    2.000   11.667    1.333 
#    0.000    0.833    3.667    2.000    0.000    9.333 
#    0.000    0.000    0.000    0.000    0.000    0.000 
#
# Total GULP energy -267726.399094 kJ/mol
# GULP energy per Si atom -5577.633314 kJ/mol
# Density = 2.496061 g / cm^3
# Si number density = 25.017553 Si / 1000 Ang^3
#
#
#
# Elastic Constant Matrix: (Units=GPa)
#
#
# Indices 1 2 3 4 5 6 
#
# 1 170.0519 5.8012 38.8818 0.0000 0.0000 0.0000
# 2 5.8012 48.5172 8.1947 0.0000 0.0000 0.0000
# 3 38.8818 8.1947 79.1656 0.0000 0.0000 0.0000
# 4 0.0000 0.0000 0.0000 26.9280 0.0000 0.0000
# 5 0.0000 0.0000 0.0000 0.0000 50.9954 0.0000
# 6 0.0000 0.0000 0.0000 0.0000 0.0000 33.7945
#
#
#
# Elastic Compliance Matrix: (Units=1/GPa)
#
#
# Indices 1 2 3 4 5 6 
#
# 1 0.006627 -0.000247 -0.003229 0.000000 0.000000 0.000000
# 2 -0.000247 0.020987 -0.002051 0.000000 0.000000 0.000000
# 3 -0.003229 -0.002051 0.014430 0.000000 0.000000 0.000000
# 4 0.000000 0.000000 0.000000 0.037136 0.000000 0.000000
# 5 0.000000 0.000000 0.000000 0.000000 0.019610 0.000000
# 6 0.000000 0.000000 0.000000 0.000000 0.000000 0.029591
#
#
# Mechanical properties :
#
#
# Convention : Reuss Voigt Hill
#
# Bulk Modulus (GPa) = 32.26884 44.83223 38.55053
# Shear Modulus (GPa) = 33.38541 38.66740 36.02641
#
# Velocity S-wave (km/s) = 3.65702 3.93569 3.79891
# Velocity P-wave (km/s) = 5.54600 6.21386 5.88941
#
# Compressibility (1/GPa) = 0.03098965
#
# Stress axis : x y z
#
# Youngs Moduli (GPa) = 150.88909 47.64808 69.29912
#
# Poissons Ratio (x) = 0.01177 0.22380
# Poissons Ratio (y) = 0.03727 0.14214
# Poissons Ratio (z) = 0.48729 0.09773
#
# Static dielectric constant tensor:
#      x y z
#    x 2.134340 0.000000 0.000000 
#    y 0.000000 2.025200 0.000000 
#    z 0.000000 0.000000 2.136630 
# 
# From -- ./inp_files/31010.got.cif
#   From: 2010.05.17/outbox.cif.g08.bks.cpg/sg48_16_cif.got.tgz:31010.got - 2010.06.03 20:39:00.
