data_PCOD9390058
_publ_section_title
;
Structure prediction by ZEFSAII (Michael W. Deem and Ramdas Pophale) SiO2 
 PCOD9390058
Probable space group: P N N N
;
_chemical_formula_sum "Si O2"
_cell_formula_units_Z 54
_cell_length_a 5.816622
_cell_length_b 25.471712
_cell_length_c 21.253729
_cell_angle_alpha 90.000000
_cell_angle_beta 90.000000
_cell_angle_gamma 90.000000
_cell_volume 3148.938045
_symmetry_space_group_name_H-M "P N N N"
_symmetry_group_IT_number 48
_space_group.IT_coordinate_system_code '2'
_symmetry_cell_setting 'orthorhombic'
loop_
_space_group_symop_operation_xyz
x,y,z
1/2-x,1/2-y,z
x,1/2-y,1/2-z
1/2-x,y,1/2-z
-x,-y,-z
1/2+x,1/2+y,-z
-x,1/2+y,1/2+z
1/2+x,-y,1/2+z
loop_
_atom_site_type_symbol
_atom_site_label
_atom_site_fract_x
_atom_site_fract_y
_atom_site_fract_z
Si Si1 0.744859 0.806323 0.032495
Si Si2 0.006569 0.828833 0.342589
Si Si3 0.509322 0.999585 0.892866
Si Si4 0.750000 0.904574 0.250000
Si Si5 0.499516 0.413140 0.495727
Si Si6 0.880234 0.376491 0.571532
Si Si7 0.516466 0.968832 0.347349
Si Si8 0.750000 0.250000 0.750000
O O1 0.750000 0.750000 0.999092
O O2 0.597781 0.801340 0.096288
O O3 0.651106 0.859968 0.000291
O O4 0.992699 0.822945 0.057092
O O5 0.205987 0.864568 0.371816
O O6 0.097314 0.786878 0.293658
O O7 0.836442 0.867464 0.306008
O O8 0.482807 0.046491 0.944859
O O9 0.261197 0.999900 0.856758
O O10 0.534309 0.946535 0.933444
O O11 0.757103 0.007663 0.857090
O O12 0.551078 0.940340 0.280251
O O13 0.758065 0.393319 0.507299
O O14 0.026658 0.424476 0.597809
#
# Coordination Sequence:
#
# PCOD9390058 Si02
#       8
#     8   8   8   4   8   8   8   2
#     4  11  21  35  52  73 103 140 184 234 271 326
#     4  11  24  35  46  69  97 143 192 238 269 314
#     4  10  21  35  56  81 101 132 179 230 275 339
#     4  12  22  37  54  70 104 144 181 230 282 324
#     4   9  20  33  54  75  99 132 174 227 290 322
#     4  10  19  37  50  70 101 133 180 233 278 326
#     4  11  21  35  54  78 105 134 180 222 275 325
#     4  12  24  34  48  60  94 148 200 238 272 296
#
# _framework density 17.148638999999999
#
# number of rings (size 3 to 8) (size 9 to 14) (size 15 to 20)
#    0.000    1.481    2.963    3.556    4.148    5.333 
#    0.000    0.000    0.000    0.000    0.000    0.000 
#    0.000    0.000    0.000    4.000    0.000    0.000 
#
# Total GULP energy -300638.914097 kJ/mol
# GULP energy per Si atom -5567.387298 kJ/mol
# Density = 1.710961 g / cm^3
# Si number density = 17.148639 Si / 1000 Ang^3
#
#
#
# Elastic Constant Matrix: (Units=GPa)
#
#
# Indices 1 2 3 4 5 6 
#
# 1 90.8244 32.8219 21.3952 0.0000 0.0000 0.0000
# 2 32.8219 100.0625 29.0590 0.0000 0.0000 0.0000
# 3 21.3952 29.0590 25.4811 0.0000 0.0000 0.0000
# 4 0.0000 0.0000 0.0000 55.5683 0.0000 0.0000
# 5 0.0000 0.0000 0.0000 0.0000 111.2622 0.0000
# 6 0.0000 0.0000 0.0000 0.0000 0.0000 5.6466
#
#
#
# Elastic Compliance Matrix: (Units=1/GPa)
#
#
# Indices 1 2 3 4 5 6 
#
# 1 0.013928 -0.001753 -0.009695 0.000000 0.000000 0.000000
# 2 -0.001753 0.015163 -0.015820 0.000000 0.000000 0.000000
# 3 -0.009695 -0.015820 0.065428 0.000000 0.000000 0.000000
# 4 0.000000 0.000000 0.000000 0.017996 0.000000 0.000000
# 5 0.000000 0.000000 0.000000 0.000000 0.008988 0.000000
# 6 0.000000 0.000000 0.000000 0.000000 0.000000 0.177098
#
#
# Mechanical properties :
#
#
# Convention : Reuss Voigt Hill
#
# Bulk Modulus (GPa) = 25.01200 42.54668 33.77934
# Shear Modulus (GPa) = 13.64388 43.36821 28.50604
#
# Velocity S-wave (km/s) = 2.82374 5.03433 4.08154
# Velocity P-wave (km/s) = 5.02478 7.65879 6.47709
#
# Compressibility (1/GPa) = 0.03998081
#
# Stress axis : x y z
#
# Youngs Moduli (GPa) = 71.79986 65.94951 15.28408
#
# Poissons Ratio (x) = 0.11560 0.14819
# Poissons Ratio (y) = 0.12585 0.24180
# Poissons Ratio (z) = 0.69613 1.04335
#
# Static dielectric constant tensor:
#      x y z
#    x 1.713420 0.000000 0.000000 
#    y 0.000000 1.639810 0.000000 
#    z 0.000000 0.000000 1.607190 
# 
# From -- ./inp_files/32985.got.cif
#   From: 2010.05.17/outbox.cif.g08.bks.cpg/sg48_17_cif.got.tgz:32985.got - 2010.06.03 20:39:00.
