data_PCOD9390402
_publ_section_title
;
Structure prediction by ZEFSAII (Michael W. Deem and Ramdas Pophale) SiO2 
 PCOD9390402
Probable space group: P N N N
;
_chemical_formula_sum "Si O2"
_cell_formula_units_Z 48
_cell_length_a 10.949470
_cell_length_b 24.131805
_cell_length_c 7.785484
_cell_angle_alpha 90.000000
_cell_angle_beta 90.000000
_cell_angle_gamma 90.000000
_cell_volume 2057.162135
_symmetry_space_group_name_H-M "P N N N"
_symmetry_group_IT_number 48
_space_group.IT_coordinate_system_code '2'
_symmetry_cell_setting 'orthorhombic'
loop_
_space_group_symop_operation_xyz
x,y,z
1/2-x,1/2-y,z
x,1/2-y,1/2-z
1/2-x,y,1/2-z
-x,-y,-z
1/2+x,1/2+y,-z
-x,1/2+y,1/2+z
1/2+x,-y,1/2+z
loop_
_atom_site_type_symbol
_atom_site_label
_atom_site_fract_x
_atom_site_fract_y
_atom_site_fract_z
Si Si1 0.110941 0.456646 0.710958
Si Si2 0.256056 0.603152 0.543470
Si Si3 0.636884 0.996734 0.651056
Si Si4 0.067638 0.699409 0.515187
Si Si5 0.534126 0.180148 0.096870
Si Si6 0.385700 0.328457 0.710590
O O1 0.250000 0.476921 0.750000
O O2 0.098492 0.457564 0.504732
O O3 0.105847 0.394889 0.776982
O O4 0.985858 0.489454 0.759252
O O5 0.250000 0.594916 0.750000
O O6 0.200480 0.551666 0.437005
O O7 0.175290 0.655737 0.488689
O O8 0.393474 0.626396 0.526694
O O9 0.750000 0.970435 0.750000
O O10 0.013240 0.679636 0.699858
O O11 0.105590 0.762893 0.550272
O O12 0.978629 0.694834 0.352907
O O13 0.415158 0.186588 0.983925
O O14 0.250000 0.311541 0.750000
#
# Coordination Sequence:
#
# PCOD9390402 Si02
#       6
#     8   8   8   8   8   8
#     4  10  23  43  61  90 130 166 215 275 324 393
#     4  10  20  37  63  92 127 159 201 263 329 392
#     4  11  22  40  66  94 123 167 219 271 333 398
#     4  10  21  39  61  93 128 159 208 260 318 396
#     4  10  22  38  63  94 123 165 206 260 328 381
#     4  11  23  42  60  86 127 170 215 261 313 381
#
# _framework density 23.333114999999999
#
# number of rings (size 3 to 8) (size 9 to 14) (size 15 to 20)
#    0.000    1.667    1.667    2.500    0.000    4.667 
#    6.000    3.333    0.000    0.000    0.000    0.000 
#    0.000    0.000    0.000    0.000    0.000    0.000 
#
# Total GULP energy -267863.102267 kJ/mol
# GULP energy per Si atom -5580.481297 kJ/mol
# Density = 2.328001 g / cm^3
# Si number density = 23.333115 Si / 1000 Ang^3
#
#
#
# Elastic Constant Matrix: (Units=GPa)
#
#
# Indices 1 2 3 4 5 6 
#
# 1 107.5648 -13.1963 38.2538 0.0000 0.0000 0.0000
# 2 -13.1963 44.9990 -10.6580 0.0000 0.0000 0.0000
# 3 38.2538 -10.6580 61.7744 0.0000 0.0000 0.0000
# 4 0.0000 0.0000 0.0000 24.1624 0.0000 0.0000
# 5 0.0000 0.0000 0.0000 0.0000 36.9233 0.0000
# 6 0.0000 0.0000 0.0000 0.0000 0.0000 -35.3380
#
#
#
# Elastic Compliance Matrix: (Units=1/GPa)
#
#
# Indices 1 2 3 4 5 6 
#
# 1 0.012067 0.001844 -0.007155 0.000000 0.000000 0.000000
# 2 0.001844 0.023451 0.002904 0.000000 0.000000 0.000000
# 3 -0.007155 0.002904 0.021119 0.000000 0.000000 0.000000
# 4 0.000000 0.000000 0.000000 0.041387 0.000000 0.000000
# 5 0.000000 0.000000 0.000000 0.000000 0.027083 0.000000
# 6 0.000000 0.000000 0.000000 0.000000 0.000000 -0.028298
#
#
# Mechanical properties :
#
#
# Convention : Reuss Voigt Hill
#
# Bulk Modulus (GPa) = 19.29543 27.01524 23.15534
# Shear Modulus (GPa) = 42.05301 18.47878 30.26589
#
# Velocity S-wave (km/s) = 4.24994 2.81722 3.60547
# Velocity P-wave (km/s) = 5.68948 4.71015 5.22282
#
# Compressibility (1/GPa) = 0.05182574
#
# Stress axis : x y z
#
# Youngs Moduli (GPa) = 82.86799 42.64141 47.34978
#
# Poissons Ratio (x) = -0.07864 0.33877
# Poissons Ratio (y) = -0.15283 -0.13750
# Poissons Ratio (z) = 0.59288 -0.12383
#
# Static dielectric constant tensor:
#      x y z
#    x 1.906600 0.000000 0.000000 
#    y 0.000000 1.910410 0.000000 
#    z 0.000000 0.000000 1.872950 
# 
# From -- ./inp_files/9457.got.cif
#   From: 2010.05.17/outbox.cif.g08.bks.cpg/sg48_5_cif.got.tgz:9457.got - 2010.06.03 20:39:00.
