data_PCOD9390595
_publ_section_title
;
Structure prediction by ZEFSAII (Michael W. Deem and Ramdas Pophale) SiO2 
 PCOD9390595
Probable space group: P N N N
;
_chemical_formula_sum "Si O2"
_cell_formula_units_Z 32
_cell_length_a 15.689105
_cell_length_b 18.341998
_cell_length_c 5.202135
_cell_angle_alpha 90.000000
_cell_angle_beta 90.000000
_cell_angle_gamma 90.000000
_cell_volume 1497.015957
_symmetry_space_group_name_H-M "P N N N"
_symmetry_group_IT_number 48
_space_group.IT_coordinate_system_code '2'
_symmetry_cell_setting 'orthorhombic'
loop_
_space_group_symop_operation_xyz
x,y,z
1/2-x,1/2-y,z
x,1/2-y,1/2-z
1/2-x,y,1/2-z
-x,-y,-z
1/2+x,1/2+y,-z
-x,1/2+y,1/2+z
1/2+x,-y,1/2+z
loop_
_atom_site_type_symbol
_atom_site_label
_atom_site_fract_x
_atom_site_fract_y
_atom_site_fract_z
Si Si1 0.750000 0.750000 0.250000
Si Si2 0.250000 0.750000 0.250000
Si Si3 0.750000 0.506752 0.250000
Si Si4 0.118043 0.131945 0.640843
Si Si5 0.488051 0.165102 0.337690
Si Si6 0.678518 0.368360 0.058783
O O1 0.812456 0.803652 0.403513
O O2 0.319130 0.812073 0.329364
O O3 0.672082 0.558914 0.317785
O O4 0.715105 0.449812 0.035960
O O5 0.062751 0.125377 0.387578
O O6 0.061207 0.153370 0.890900
O O7 0.492140 0.250000 0.250000
O O8 0.583004 0.132797 0.342816
O O9 0.750000 0.333568 0.250000
#
# Coordination Sequence:
#
# PCOD9390595 Si02
#       6
#     2   2   4   8   8   8
#     4  10  20  44  64 100 134 188 228 280 346 430
#     4  12  22  42  80  94 136 200 230 300 340 444
#     4   9  26  50  62 105 144 196 226 287 372 428
#     4  11  25  43  73 100 148 185 235 295 355 422
#     4  12  24  42  71 111 133 182 245 303 345 411
#     4  10  26  45  68 102 142 184 240 288 362 424
#
# _framework density 21.375857
#
# number of rings (size 3 to 8) (size 9 to 14) (size 15 to 20)
#    0.750    0.500    2.500    1.875    7.000    9.000 
#    0.000    0.000    0.000    0.000    0.000    0.000 
#    0.000    0.000    0.000    0.000    0.000    0.000 
#
# Total GULP energy -178204.946259 kJ/mol
# GULP energy per Si atom -5568.904571 kJ/mol
# Density = 2.132720 g / cm^3
# Si number density = 21.375857 Si / 1000 Ang^3
#
#
#
# Elastic Constant Matrix: (Units=GPa)
#
#
# Indices 1 2 3 4 5 6 
#
# 1 161.1603 39.9956 44.5137 0.0000 0.0000 0.0000
# 2 39.9956 147.7472 6.7315 0.0000 0.0000 0.0000
# 3 44.5137 6.7315 66.1065 0.0000 0.0000 0.0000
# 4 0.0000 0.0000 0.0000 19.4345 0.0000 0.0000
# 5 0.0000 0.0000 0.0000 0.0000 -15.8001 0.0000
# 6 0.0000 0.0000 0.0000 0.0000 0.0000 33.8770
#
#
#
# Elastic Compliance Matrix: (Units=1/GPa)
#
#
# Indices 1 2 3 4 5 6 
#
# 1 0.008154 -0.001966 -0.005291 0.000000 0.000000 0.000000
# 2 -0.001966 0.007274 0.000583 0.000000 0.000000 0.000000
# 3 -0.005291 0.000583 0.018630 0.000000 0.000000 0.000000
# 4 0.000000 0.000000 0.000000 0.051455 0.000000 0.000000
# 5 0.000000 0.000000 0.000000 0.000000 -0.063291 0.000000
# 6 0.000000 0.000000 0.000000 0.000000 0.000000 0.029519
#
#
# Mechanical properties :
#
#
# Convention : Reuss Voigt Hill
#
# Bulk Modulus (GPa) = 48.28256 61.94394 55.11325
# Shear Modulus (GPa) = 69.45186 26.42048 47.93617
#
# Velocity S-wave (km/s) = 5.70625 3.51949 4.74068
# Velocity P-wave (km/s) = 8.12721 6.74960 7.47023
#
# Compressibility (1/GPa) = 0.02071141
#
# Stress axis : x y z
#
# Youngs Moduli (GPa) = 122.63484 137.47522 53.67633
#
# Poissons Ratio (x) = 0.27032 0.28398
# Poissons Ratio (y) = 0.24114 -0.03131
# Poissons Ratio (z) = 0.64881 -0.08020
#
# Static dielectric constant tensor:
#      x y z
#    x 1.890380 0.000000 0.000000 
#    y 0.000000 1.761960 0.000000 
#    z 0.000000 0.000000 2.161260 
# 
# From -- ./inp_files/3119.got.cif
#   From: 2010.05.17/outbox.cif.g08.bks.cpg/sg48_2_cif.got.tgz:3119.got - 2010.06.03 20:39:00.
