data_PCOD9390832
_publ_section_title
;
Structure prediction by ZEFSAII (Michael W. Deem and Ramdas Pophale) SiO2 
 PCOD9390832
Probable space group: P N N N
;
_chemical_formula_sum "Si O2"
_cell_formula_units_Z 48
_cell_length_a 23.847413
_cell_length_b 7.811651
_cell_length_c 12.264463
_cell_angle_alpha 90.000000
_cell_angle_beta 90.000000
_cell_angle_gamma 90.000000
_cell_volume 2284.718207
_symmetry_space_group_name_H-M "P N N N"
_symmetry_group_IT_number 48
_space_group.IT_coordinate_system_code '2'
_symmetry_cell_setting 'orthorhombic'
loop_
_space_group_symop_operation_xyz
x,y,z
1/2-x,1/2-y,z
x,1/2-y,1/2-z
1/2-x,y,1/2-z
-x,-y,-z
1/2+x,1/2+y,-z
-x,1/2+y,1/2+z
1/2+x,-y,1/2+z
loop_
_atom_site_type_symbol
_atom_site_label
_atom_site_fract_x
_atom_site_fract_y
_atom_site_fract_z
Si Si1 0.936963 0.895504 0.616931
Si Si2 0.597534 0.076436 0.677324
Si Si3 0.339346 0.711657 0.626056
Si Si4 0.296995 0.002405 0.466060
Si Si5 0.819233 0.622933 0.997308
Si Si6 0.456699 0.754892 0.983145
O O1 0.874761 0.860988 0.574235
O O2 0.984106 0.764618 0.576665
O O3 0.930770 0.939800 0.743356
O O4 0.952534 0.072788 0.555489
O O5 0.604126 0.250000 0.750000
O O6 0.558395 0.112719 0.572735
O O7 0.658177 0.021912 0.630560
O O8 0.325100 0.750000 0.750000
O O9 0.328339 0.514993 0.592693
O O10 0.405238 0.744215 0.601706
O O11 0.306781 0.841388 0.545232
O O12 0.232823 0.037926 0.431275
O O13 0.308360 0.180893 0.530165
#
# Coordination Sequence:
#
# PCOD9390832 Si02
#       6
#     8   8   8   8   8   8
#     4   9  17  35  59  84 119 162 195 246 312 359
#     4   9  18  35  61  90 121 162 208 250 312 373
#     4  10  21  40  62  89 119 159 206 258 314 363
#     4  10  22  40  58  89 125 157 206 257 303 372
#     4  10  22  39  61  86 123 163 202 256 307 369
#     4   8  17  36  57  84 121 153 201 254 299 368
#
# _framework density 21.009156999999998
#
# number of rings (size 3 to 8) (size 9 to 14) (size 15 to 20)
#    0.000    2.667    0.000    1.500    0.000    3.333 
#    6.000    9.167    0.000    0.000    0.000    0.000 
#    0.000    0.000    0.000    0.000    0.000    0.000 
#
# Total GULP energy -267715.408978 kJ/mol
# GULP energy per Si atom -5577.404354 kJ/mol
# Density = 2.096134 g / cm^3
# Si number density = 21.009157 Si / 1000 Ang^3
#
#
#
# Elastic Constant Matrix: (Units=GPa)
#
#
# Indices 1 2 3 4 5 6 
#
# 1 171.1382 30.6384 43.7699 0.0000 0.0000 0.0000
# 2 30.6384 100.9818 7.5975 0.0000 0.0000 0.0000
# 3 43.7699 7.5975 61.6986 0.0000 0.0000 0.0000
# 4 0.0000 0.0000 0.0000 17.1318 0.0000 0.0000
# 5 0.0000 0.0000 0.0000 0.0000 -5.7113 0.0000
# 6 0.0000 0.0000 0.0000 0.0000 0.0000 25.1095
#
#
#
# Elastic Compliance Matrix: (Units=1/GPa)
#
#
# Indices 1 2 3 4 5 6 
#
# 1 0.007479 -0.001887 -0.005073 0.000000 0.000000 0.000000
# 2 -0.001887 0.010472 0.000049 0.000000 0.000000 0.000000
# 3 -0.005073 0.000049 0.019801 0.000000 0.000000 0.000000
# 4 0.000000 0.000000 0.000000 0.058371 0.000000 0.000000
# 5 0.000000 0.000000 0.000000 0.000000 -0.175090 0.000000
# 6 0.000000 0.000000 0.000000 0.000000 0.000000 0.039826
#
#
# Mechanical properties :
#
#
# Convention : Reuss Voigt Hill
#
# Bulk Modulus (GPa) = 41.79026 55.31447 48.55236
# Shear Modulus (GPa) = -288.27421 24.09352 -132.09035
#
# Velocity S-wave (km/s) = -11.72653 3.39013 -7.93784
# Velocity P-wave (km/s) = 12.78335 6.45832 7.80077
#
# Compressibility (1/GPa) = 0.02392902
#
# Stress axis : x y z
#
# Youngs Moduli (GPa) = 133.71520 95.49558 50.50354
#
# Poissons Ratio (x) = 0.18024 0.25620
# Poissons Ratio (y) = 0.25237 -0.00250
# Poissons Ratio (z) = 0.67834 -0.00472
#
# Static dielectric constant tensor:
#      x y z
#    x 1.797820 0.000000 0.000000 
#    y 0.000000 1.794160 0.000000 
#    z 0.000000 0.000000 1.703520 
# 
# From -- ./inp_files/23264.got.cif
#   From: 2010.05.17/outbox.cif.g08.bks.cpg/sg48_12_cif.got.tgz:23264.got - 2010.06.03 20:39:00.
