data_PCOD9390929
_publ_section_title
;
Structure prediction by ZEFSAII (Michael W. Deem and Ramdas Pophale) SiO2 
 PCOD9390929
Probable space group: P N N N
;
_chemical_formula_sum "Si O2"
_cell_formula_units_Z 32
_cell_length_a 11.178059
_cell_length_b 8.810519
_cell_length_c 15.889719
_cell_angle_alpha 90.000000
_cell_angle_beta 90.000000
_cell_angle_gamma 90.000000
_cell_volume 1564.891050
_symmetry_space_group_name_H-M "P N N N"
_symmetry_group_IT_number 48
_space_group.IT_coordinate_system_code '2'
_symmetry_cell_setting 'orthorhombic'
loop_
_space_group_symop_operation_xyz
x,y,z
1/2-x,1/2-y,z
x,1/2-y,1/2-z
1/2-x,y,1/2-z
-x,-y,-z
1/2+x,1/2+y,-z
-x,1/2+y,1/2+z
1/2+x,-y,1/2+z
loop_
_atom_site_type_symbol
_atom_site_label
_atom_site_fract_x
_atom_site_fract_y
_atom_site_fract_z
Si Si1 0.499669 0.863550 0.317135
Si Si2 0.250000 0.494008 0.250000
Si Si3 0.514400 0.681432 0.997715
Si Si4 0.750000 0.750000 0.604794
Si Si5 0.884212 0.311068 0.335154
O O1 0.554491 0.750000 0.250000
O O2 0.488917 0.776227 0.406294
O O3 0.369558 0.916358 0.280577
O O4 0.584820 0.010098 0.330567
O O5 0.277844 0.388246 0.331154
O O6 0.500000 0.500000 0.000000
O O7 0.642278 0.713924 0.957673
O O8 0.429307 0.745893 0.925333
O O9 0.750000 0.250000 0.331387
O O10 0.947157 0.250000 0.250000
#
# Coordination Sequence:
#
# PCOD9390929 Si02
#       5
#     8   4   8   4   8
#     4  11  24  44  64 105 139 169 223 298 346 388
#     4  11  21  38  76  98 132 178 236 276 340 408
#     4  10  21  42  65  98 139 170 226 281 336 400
#     4  11  20  40  73  96 130 190 229 278 329 408
#     4  10  21  43  68  91 132 185 223 264 327 422
#
# _framework density 20.448706999999999
#
# number of rings (size 3 to 8) (size 9 to 14) (size 15 to 20)
#    0.000    1.500    5.000    1.875    0.000    2.000 
#   18.000    2.500    0.000    0.000    0.000    0.000 
#    0.000    0.000    0.000    0.000    0.000    0.000 
#
# Total GULP energy -178221.577608 kJ/mol
# GULP energy per Si atom -5569.424300 kJ/mol
# Density = 2.040217 g / cm^3
# Si number density = 20.448707 Si / 1000 Ang^3
#
#
#
# Elastic Constant Matrix: (Units=GPa)
#
#
# Indices 1 2 3 4 5 6 
#
# 1 131.2182 35.9939 54.4852 0.0000 0.0000 0.0000
# 2 35.9939 50.9354 45.0626 0.0000 0.0000 0.0000
# 3 54.4852 45.0626 219.0636 0.0000 0.0000 0.0000
# 4 0.0000 0.0000 0.0000 31.0174 0.0000 0.0000
# 5 0.0000 0.0000 0.0000 0.0000 31.7917 0.0000
# 6 0.0000 0.0000 0.0000 0.0000 0.0000 18.4567
#
#
#
# Elastic Compliance Matrix: (Units=1/GPa)
#
#
# Indices 1 2 3 4 5 6 
#
# 1 0.009716 -0.005780 -0.001228 0.000000 0.000000 0.000000
# 2 -0.005780 0.027439 -0.004207 0.000000 0.000000 0.000000
# 3 -0.001228 -0.004207 0.005736 0.000000 0.000000 0.000000
# 4 0.000000 0.000000 0.000000 0.032240 0.000000 0.000000
# 5 0.000000 0.000000 0.000000 0.000000 0.031455 0.000000
# 6 0.000000 0.000000 0.000000 0.000000 0.000000 0.054181
#
#
# Mechanical properties :
#
#
# Convention : Reuss Voigt Hill
#
# Bulk Modulus (GPa) = 48.87115 74.70007 61.78561
# Shear Modulus (GPa) = 26.31370 33.96487 30.13929
#
# Velocity S-wave (km/s) = 3.59111 4.07993 3.84330
# Velocity P-wave (km/s) = 6.41452 7.66839 7.06931
#
# Compressibility (1/GPa) = 0.02046197
#
# Stress axis : x y z
#
# Youngs Moduli (GPa) = 102.92215 36.44474 174.35061
#
# Poissons Ratio (x) = 0.21065 0.21404
# Poissons Ratio (y) = 0.59488 0.73345
# Poissons Ratio (z) = 0.12635 0.15331
#
# Static dielectric constant tensor:
#      x y z
#    x 1.139100 0.000000 0.000000 
#    y 0.000000 1.768330 0.000000 
#    z 0.000000 0.000000 1.759940 
# 
# From -- ./inp_files/10287.got.cif
#   From: 2010.05.17/outbox.cif.g08.bks.cpg/sg48_6_cif.got.tgz:10287.got - 2010.06.03 20:39:00.
