data_PCOD9390078
_publ_section_title
;
Structure prediction by ZEFSAII (Michael W. Deem and Ramdas Pophale) SiO2 
 PCOD9390078
Probable space group: P N N N
;
_chemical_formula_sum "Si O2"
_cell_formula_units_Z 56
_cell_length_a 10.650959
_cell_length_b 11.054329
_cell_length_c 20.817619
_cell_angle_alpha 90.000000
_cell_angle_beta 90.000000
_cell_angle_gamma 90.000000
_cell_volume 2451.049910
_symmetry_space_group_name_H-M "P N N N"
_symmetry_group_IT_number 48
_space_group.IT_coordinate_system_code '2'
_symmetry_cell_setting 'orthorhombic'
loop_
_space_group_symop_operation_xyz
x,y,z
1/2-x,1/2-y,z
x,1/2-y,1/2-z
1/2-x,y,1/2-z
-x,-y,-z
1/2+x,1/2+y,-z
-x,1/2+y,1/2+z
1/2+x,-y,1/2+z
loop_
_atom_site_type_symbol
_atom_site_label
_atom_site_fract_x
_atom_site_fract_y
_atom_site_fract_z
Si Si1 0.377373 0.016909 0.711557
Si Si2 0.070690 0.683304 0.619446
Si Si3 0.113480 0.183158 0.906781
Si Si4 0.956335 0.575073 0.824445
Si Si5 0.785878 0.617211 0.600953
Si Si6 0.310945 0.966304 0.521587
Si Si7 0.948653 0.565472 0.062047
O O1 0.250000 0.047673 0.750000
O O2 0.412248 0.126796 0.663430
O O3 0.350420 0.898624 0.668287
O O4 0.490532 0.972271 0.757413
O O5 0.136660 0.658841 0.550426
O O6 0.041951 0.814573 0.648225
O O7 0.930847 0.626786 0.618081
O O8 0.250000 0.250000 0.902219
O O9 0.038839 0.291597 0.939564
O O10 0.094579 0.071232 0.954883
O O11 0.810735 0.608239 0.839037
O O12 0.981887 0.469078 0.873869
O O13 0.750000 0.750000 0.569597
O O14 0.775483 0.505256 0.550907
O O15 0.190984 0.010351 0.563405
O O16 0.000000 0.500000 0.000000
#
# Coordination Sequence:
#
# PCOD9390078 Si02
#       7
#     8   8   8   8   8   8   8
#     4  11  23  41  63  90 128 166 222 274 321 393
#     4  10  23  38  61  93 122 168 218 272 333 388
#     4   9  20  36  63  94 122 170 218 263 318 384
#     4  11  23  37  62  91 130 172 208 273 333 397
#     4  10  20  37  59  89 125 170 220 263 329 402
#     4  10  19  37  63  90 127 166 213 270 322 395
#     4  11  21  36  60  96 129 158 209 265 328 389
#
# _framework density 22.847352999999998
#
# number of rings (size 3 to 8) (size 9 to 14) (size 15 to 20)
#    0.000    1.714    1.429    4.714    2.000    5.429 
#    0.000    2.143    0.000    3.429    0.000   12.000 
#    0.000    0.000    0.000    0.000    0.000    0.000 
#
# Total GULP energy -312087.047703 kJ/mol
# GULP energy per Si atom -5572.982995 kJ/mol
# Density = 2.279535 g / cm^3
# Si number density = 22.847353 Si / 1000 Ang^3
#
#
#
# Elastic Constant Matrix: (Units=GPa)
#
#
# Indices 1 2 3 4 5 6 
#
# 1 68.1165 27.9255 32.9107 0.0000 0.0000 0.0000
# 2 27.9255 92.8840 40.2171 0.0000 0.0000 0.0000
# 3 32.9107 40.2171 116.4799 0.0000 0.0000 0.0000
# 4 0.0000 0.0000 0.0000 42.6597 0.0000 0.0000
# 5 0.0000 0.0000 0.0000 0.0000 34.7548 0.0000
# 6 0.0000 0.0000 0.0000 0.0000 0.0000 28.8349
#
#
#
# Elastic Compliance Matrix: (Units=1/GPa)
#
#
# Indices 1 2 3 4 5 6 
#
# 1 0.018068 -0.003788 -0.003797 0.000000 0.000000 0.000000
# 2 -0.003788 0.013453 -0.003575 0.000000 0.000000 0.000000
# 3 -0.003797 -0.003575 0.010892 0.000000 0.000000 0.000000
# 4 0.000000 0.000000 0.000000 0.023441 0.000000 0.000000
# 5 0.000000 0.000000 0.000000 0.000000 0.028773 0.000000
# 6 0.000000 0.000000 0.000000 0.000000 0.000000 0.034680
#
#
# Mechanical properties :
#
#
# Convention : Reuss Voigt Hill
#
# Bulk Modulus (GPa) = 49.76699 53.28745 51.52722
# Shear Modulus (GPa) = 31.58054 33.01168 32.29611
#
# Velocity S-wave (km/s) = 3.72188 3.80528 3.76381
# Velocity P-wave (km/s) = 6.34819 6.53305 6.44129
#
# Compressibility (1/GPa) = 0.02009364
#
# Stress axis : x y z
#
# Youngs Moduli (GPa) = 55.34540 74.33438 91.80866
#
# Poissons Ratio (x) = 0.28159 0.34861
# Poissons Ratio (y) = 0.20966 0.32817
# Poissons Ratio (z) = 0.21016 0.26571
#
# Static dielectric constant tensor:
#      x y z
#    x 2.007280 0.000000 0.000000 
#    y 0.000000 1.767030 0.000000 
#    z 0.000000 0.000000 1.551580 
# 
# From -- ./inp_files/34181.got.cif
#   From: 2010.05.17/outbox.cif.g08.bks.cpg/sg48_18_cif.got.tgz:34181.got - 2010.06.03 20:39:00.
