data_PCOD9390674
_publ_section_title
;
Structure prediction by ZEFSAII (Michael W. Deem and Ramdas Pophale) SiO2 
 PCOD9390674
Probable space group: P N N N
;
_chemical_formula_sum "Si O2"
_cell_formula_units_Z 64
_cell_length_a 16.952968
_cell_length_b 12.510265
_cell_length_c 14.271715
_cell_angle_alpha 90.000000
_cell_angle_beta 90.000000
_cell_angle_gamma 90.000000
_cell_volume 3026.832692
_symmetry_space_group_name_H-M "P N N N"
_symmetry_group_IT_number 48
_space_group.IT_coordinate_system_code '2'
_symmetry_cell_setting 'orthorhombic'
loop_
_space_group_symop_operation_xyz
x,y,z
1/2-x,1/2-y,z
x,1/2-y,1/2-z
1/2-x,y,1/2-z
-x,-y,-z
1/2+x,1/2+y,-z
-x,1/2+y,1/2+z
1/2+x,-y,1/2+z
loop_
_atom_site_type_symbol
_atom_site_label
_atom_site_fract_x
_atom_site_fract_y
_atom_site_fract_z
Si Si1 0.797232 0.424073 0.946186
Si Si2 0.066190 0.837944 0.831000
Si Si3 0.966201 0.310811 0.899514
Si Si4 0.264551 0.877169 0.643744
Si Si5 0.466543 0.513914 0.273739
Si Si6 0.958970 0.666222 0.916393
Si Si7 0.352716 0.846907 0.325525
Si Si8 0.792995 0.847224 0.649440
O O1 0.882871 0.370558 0.928431
O O2 0.723747 0.367035 0.890779
O O3 0.794990 0.543405 0.906637
O O4 0.783538 0.423654 0.057468
O O5 0.089209 0.750000 0.750000
O O6 0.143146 0.889088 0.874712
O O7 0.020945 0.759685 0.898860
O O8 0.012162 0.934045 0.794222
O O9 0.993348 0.367891 0.803433
O O10 0.929825 0.193003 0.883357
O O11 0.036472 0.333091 0.972193
O O12 0.250000 0.750000 0.641706
O O13 0.250000 0.915830 0.750000
O O14 0.477670 0.448471 0.371417
O O15 0.380529 0.544891 0.229266
O O16 0.883079 0.692277 0.852967
O O17 0.338967 0.750000 0.250000
O O18 0.750000 0.750000 0.598290
O O19 0.750000 0.859329 0.750000
#
# Coordination Sequence:
#
# PCOD9390674 Si02
#       8
#     8   8   8   8   8   8   8   8
#     4  12  24  39  66  96 130 168 211 259 326 387
#     4  10  21  36  63  89 117 163 210 259 310 363
#     4  11  23  39  63  95 126 164 209 256 321 380
#     4  11  22  41  62  94 131 165 215 272 321 376
#     4  10  22  37  62  90 124 166 207 250 320 384
#     4  11  22  40  62  87 124 163 213 261 300 383
#     4  10  23  40  61  97 136 168 201 263 326 391
#     4  11  27  43  64  94 128 168 214 263 320 390
#
# _framework density 21.144214999999999
#
# number of rings (size 3 to 8) (size 9 to 14) (size 15 to 20)
#    0.000    1.250    2.500    3.750   10.500    1.500 
#    2.250    1.250    0.000    0.375    0.000    0.000 
#    0.000    0.000    0.000    0.000    0.000    0.000 
#
# Total GULP energy -356385.044601 kJ/mol
# GULP energy per Si atom -5568.516322 kJ/mol
# Density = 2.109609 g / cm^3
# Si number density = 21.144215 Si / 1000 Ang^3
#
#
#
# Elastic Constant Matrix: (Units=GPa)
#
#
# Indices 1 2 3 4 5 6 
#
# 1 58.0287 18.8258 21.5732 0.0000 0.0000 0.0000
# 2 18.8258 74.6658 20.8816 0.0000 0.0000 0.0000
# 3 21.5732 20.8816 103.2047 0.0000 0.0000 0.0000
# 4 0.0000 0.0000 0.0000 11.7345 0.0000 0.0000
# 5 0.0000 0.0000 0.0000 0.0000 21.2405 0.0000
# 6 0.0000 0.0000 0.0000 0.0000 0.0000 13.1566
#
#
#
# Elastic Compliance Matrix: (Units=1/GPa)
#
#
# Indices 1 2 3 4 5 6 
#
# 1 0.019782 -0.004061 -0.003313 0.000000 0.000000 0.000000
# 2 -0.004061 0.015030 -0.002192 0.000000 0.000000 0.000000
# 3 -0.003313 -0.002192 0.010826 0.000000 0.000000 0.000000
# 4 0.000000 0.000000 0.000000 0.085219 0.000000 0.000000
# 5 0.000000 0.000000 0.000000 0.000000 0.047080 0.000000
# 6 0.000000 0.000000 0.000000 0.000000 0.000000 0.076007
#
#
# Mechanical properties :
#
#
# Convention : Reuss Voigt Hill
#
# Bulk Modulus (GPa) = 37.72948 39.82893 38.77920
# Shear Modulus (GPa) = 17.73603 20.86756 19.30180
#
# Velocity S-wave (km/s) = 2.89937 3.14493 3.02464
# Velocity P-wave (km/s) = 5.39361 5.66261 5.52975
#
# Compressibility (1/GPa) = 0.02650447
#
# Stress axis : x y z
#
# Youngs Moduli (GPa) = 50.55051 66.53348 92.37325
#
# Poissons Ratio (x) = 0.27020 0.30607
# Poissons Ratio (y) = 0.20529 0.20250
# Poissons Ratio (z) = 0.16750 0.14585
#
# Static dielectric constant tensor:
#      x y z
#    x 1.867430 0.000000 0.000000 
#    y 0.000000 1.471320 0.000000 
#    z 0.000000 0.000000 1.874620 
# 
# From -- ./inp_files/28059.got.cif
#   From: 2010.05.17/outbox.cif.g08.bks.cpg/sg48_15_cif.got.tgz:28059.got - 2010.06.03 20:39:00.
