data_PCOD9390066
_publ_section_title
;
Structure prediction by ZEFSAII (Michael W. Deem and Ramdas Pophale) SiO2 
 PCOD9390066
Probable space group: P N N N
;
_chemical_formula_sum "Si O2"
_cell_formula_units_Z 40
_cell_length_a 9.659951
_cell_length_b 7.177331
_cell_length_c 24.209277
_cell_angle_alpha 90.000000
_cell_angle_beta 90.000000
_cell_angle_gamma 90.000000
_cell_volume 1678.493711
_symmetry_space_group_name_H-M "P N N N"
_symmetry_group_IT_number 48
_space_group.IT_coordinate_system_code '2'
_symmetry_cell_setting 'orthorhombic'
loop_
_space_group_symop_operation_xyz
x,y,z
1/2-x,1/2-y,z
x,1/2-y,1/2-z
1/2-x,y,1/2-z
-x,-y,-z
1/2+x,1/2+y,-z
-x,1/2+y,1/2+z
1/2+x,-y,1/2+z
loop_
_atom_site_type_symbol
_atom_site_label
_atom_site_fract_x
_atom_site_fract_y
_atom_site_fract_z
Si Si1 0.769455 0.529241 0.876722
Si Si2 0.980627 0.045286 0.808002
Si Si3 0.038570 0.027233 0.687136
Si Si4 0.669770 0.542095 0.995173
Si Si5 0.715481 0.974815 0.384076
O O1 0.750000 0.750000 0.874080
O O2 0.676332 0.446542 0.827611
O O3 0.926470 0.495764 0.860881
O O4 0.719000 0.461427 0.936476
O O5 0.997927 0.956199 0.747858
O O6 0.044206 0.250826 0.804919
O O7 0.066076 0.967436 0.860013
O O8 0.179611 0.953604 0.662171
O O9 0.750000 0.750000 0.993402
O O10 0.500000 0.500000 0.000000
O O11 0.727324 0.462573 0.052830
O O12 0.750000 0.750000 0.386991
#
# Coordination Sequence:
#
# PCOD9390066 Si02
#       5
#     8   8   8   8   8
#     4  11  23  37  57  83 121 159 202 247 311 381
#     4  10  19  37  60  85 118 152 198 257 307 372
#     4  10  21  35  59  91 113 152 205 253 308 372
#     4  10  20  38  64  89 121 166 211 260 327 391
#     4   9  18  35  61  85 115 150 200 256 312 361
#
# _framework density 23.830891000000001
#
# number of rings (size 3 to 8) (size 9 to 14) (size 15 to 20)
#    0.000    2.000    2.000    1.800    0.000    6.400 
#    0.000    1.000    0.000    2.400    0.000    0.000 
#    0.000    0.000    0.000    0.000    0.000    0.000 
#
# Total GULP energy -222750.477306 kJ/mol
# GULP energy per Si atom -5568.761933 kJ/mol
# Density = 2.377665 g / cm^3
# Si number density = 23.830891 Si / 1000 Ang^3
#
#
#
# Elastic Constant Matrix: (Units=GPa)
#
#
# Indices 1 2 3 4 5 6 
#
# 1 63.6782 12.7952 -0.8420 0.0000 0.0000 0.0000
# 2 12.7952 89.6598 13.4152 0.0000 0.0000 0.0000
# 3 -0.8420 13.4152 165.4478 0.0000 0.0000 0.0000
# 4 0.0000 0.0000 0.0000 8.8352 0.0000 0.0000
# 5 0.0000 0.0000 0.0000 0.0000 87.3624 0.0000
# 6 0.0000 0.0000 0.0000 0.0000 0.0000 -2.0620
#
#
#
# Elastic Compliance Matrix: (Units=1/GPa)
#
#
# Indices 1 2 3 4 5 6 
#
# 1 0.016180 -0.002350 0.000273 0.000000 0.000000 0.000000
# 2 -0.002350 0.011632 -0.000955 0.000000 0.000000 0.000000
# 3 0.000273 -0.000955 0.006123 0.000000 0.000000 0.000000
# 4 0.000000 0.000000 0.000000 0.113184 0.000000 0.000000
# 5 0.000000 0.000000 0.000000 0.000000 0.011447 0.000000
# 6 0.000000 0.000000 0.000000 0.000000 0.000000 -0.484969
#
#
# Mechanical properties :
#
#
# Convention : Reuss Voigt Hill
#
# Bulk Modulus (GPa) = 35.88060 41.05808 38.46934
# Shear Modulus (GPa) = -16.07460 38.38828 11.15684
#
# Velocity S-wave (km/s) = -2.59998 4.01791 2.16606
# Velocity P-wave (km/s) = 2.46491 6.22825 4.73640
#
# Compressibility (1/GPa) = 0.02787021
#
# Stress axis : x y z
#
# Youngs Moduli (GPa) = 61.80573 85.97339 163.31777
#
# Poissons Ratio (x) = 0.20202 -0.04456
# Poissons Ratio (y) = 0.14523 0.15598
# Poissons Ratio (z) = -0.01687 0.08211
#
# Static dielectric constant tensor:
#      x y z
#    x 1.585890 0.000000 0.000000 
#    y 0.000000 2.067700 0.000000 
#    z 0.000000 0.000000 1.930710 
# 
# From -- ./inp_files/8981.got.cif
#   From: 2010.05.17/outbox.cif.g08.bks.cpg/sg48_5_cif.got.tgz:8981.got - 2010.06.03 20:39:00.
