data_PCOD9390071
_publ_section_title
;
Structure prediction by ZEFSAII (Michael W. Deem and Ramdas Pophale) SiO2 
 PCOD9390071
Probable space group: P N N N
;
_chemical_formula_sum "Si O2"
_cell_formula_units_Z 56
_cell_length_a 12.584024
_cell_length_b 15.722800
_cell_length_c 14.465735
_cell_angle_alpha 90.000000
_cell_angle_beta 90.000000
_cell_angle_gamma 90.000000
_cell_volume 2862.133803
_symmetry_space_group_name_H-M "P N N N"
_symmetry_group_IT_number 48
_space_group.IT_coordinate_system_code '2'
_symmetry_cell_setting 'orthorhombic'
loop_
_space_group_symop_operation_xyz
x,y,z
1/2-x,1/2-y,z
x,1/2-y,1/2-z
1/2-x,y,1/2-z
-x,-y,-z
1/2+x,1/2+y,-z
-x,1/2+y,1/2+z
1/2+x,-y,1/2+z
loop_
_atom_site_type_symbol
_atom_site_label
_atom_site_fract_x
_atom_site_fract_y
_atom_site_fract_z
Si Si1 0.366686 0.630605 0.727609
Si Si2 0.341915 0.990168 0.486319
Si Si3 0.710182 0.948990 0.153950
Si Si4 0.977391 0.810886 0.581674
Si Si5 0.829646 0.963593 0.660662
Si Si6 0.505640 0.074864 0.922796
Si Si7 0.511129 0.123146 0.418843
O O1 0.250000 0.662281 0.750000
O O2 0.342282 0.540555 0.678330
O O3 0.431326 0.688631 0.658638
O O4 0.438228 0.617110 0.817545
O O5 0.304406 0.033483 0.582287
O O6 0.240931 0.995521 0.420724
O O7 0.429339 0.047287 0.435864
O O8 0.392162 0.898989 0.511136
O O9 0.750000 0.911794 0.250000
O O10 0.612350 0.900586 0.109656
O O11 0.885856 0.875222 0.623550
O O12 0.033431 0.846337 0.488694
O O13 0.950513 0.712216 0.568383
O O14 0.750000 0.953433 0.750000
O O15 0.925221 0.034218 0.660741
O O16 0.500000 0.000000 0.000000
#
# Coordination Sequence:
#
# PCOD9390071 Si02
#       7
#     8   8   8   8   8   8   8
#     4  11  20  36  58  94 126 158 195 252 327 385
#     4  11  22  41  58  88 122 165 210 248 311 376
#     4  11  19  37  66  86 115 162 209 250 291 375
#     4  11  22  40  59  90 130 161 202 262 318 374
#     4  11  22  38  66  91 122 166 206 249 314 384
#     4  10  19  37  61  86 118 165 206 238 301 381
#     4  11  25  36  59  91 127 157 204 264 318 371
#
# _framework density 19.565821
#
# number of rings (size 3 to 8) (size 9 to 14) (size 15 to 20)
#    0.000    1.143    8.571    1.286    0.000    1.714 
#    0.000    0.714    0.000    5.143    0.000    0.000 
#    0.000    0.000    0.000    0.000    0.000    0.000 
#
# Total GULP energy -311783.176413 kJ/mol
# GULP energy per Si atom -5567.556722 kJ/mol
# Density = 1.952129 g / cm^3
# Si number density = 19.565821 Si / 1000 Ang^3
#
#
#
# Elastic Constant Matrix: (Units=GPa)
#
#
# Indices 1 2 3 4 5 6 
#
# 1 81.4018 2.2058 29.3034 0.0000 0.0000 0.0000
# 2 2.2058 48.5005 20.4518 0.0000 0.0000 0.0000
# 3 29.3034 20.4518 83.5224 0.0000 0.0000 0.0000
# 4 0.0000 0.0000 0.0000 14.1229 0.0000 0.0000
# 5 0.0000 0.0000 0.0000 0.0000 50.8187 0.0000
# 6 0.0000 0.0000 0.0000 0.0000 0.0000 13.5755
#
#
#
# Elastic Compliance Matrix: (Units=1/GPa)
#
#
# Indices 1 2 3 4 5 6 
#
# 1 0.014174 0.001620 -0.005369 0.000000 0.000000 0.000000
# 2 0.001620 0.023178 -0.006244 0.000000 0.000000 0.000000
# 3 -0.005369 -0.006244 0.015385 0.000000 0.000000 0.000000
# 4 0.000000 0.000000 0.000000 0.070807 0.000000 0.000000
# 5 0.000000 0.000000 0.000000 0.000000 0.019678 0.000000
# 6 0.000000 0.000000 0.000000 0.000000 0.000000 0.073662
#
#
# Mechanical properties :
#
#
# Convention : Reuss Voigt Hill
#
# Bulk Modulus (GPa) = 30.53443 35.26076 32.89760
# Shear Modulus (GPa) = 20.17860 26.46765 23.32313
#
# Velocity S-wave (km/s) = 3.21490 3.68196 3.45633
# Velocity P-wave (km/s) = 5.42408 6.01137 5.72526
#
# Compressibility (1/GPa) = 0.03274991
#
# Stress axis : x y z
#
# Youngs Moduli (GPa) = 70.55295 43.14528 64.99629
#
# Poissons Ratio (x) = -0.06988 0.34899
# Poissons Ratio (y) = -0.11426 0.40581
# Poissons Ratio (z) = 0.37882 0.26938
#
# Static dielectric constant tensor:
#      x y z
#    x 1.800540 0.000000 0.000000 
#    y 0.000000 1.697760 0.000000 
#    z 0.000000 0.000000 1.724940 
# 
# From -- ./inp_files/26552.got.cif
#   From: 2010.05.17/outbox.cif.g08.bks.cpg/sg48_14_cif.got.tgz:26552.got - 2010.06.03 20:39:00.
