data_PCOD9390352
_publ_section_title
;
Structure prediction by ZEFSAII (Michael W. Deem and Ramdas Pophale) SiO2 
 PCOD9390352
Probable space group: P N N N
;
_chemical_formula_sum "Si O2"
_cell_formula_units_Z 64
_cell_length_a 8.851353
_cell_length_b 13.570231
_cell_length_c 27.695796
_cell_angle_alpha 90.000000
_cell_angle_beta 90.000000
_cell_angle_gamma 90.000000
_cell_volume 3326.677902
_symmetry_space_group_name_H-M "P N N N"
_symmetry_group_IT_number 48
_space_group.IT_coordinate_system_code '2'
_symmetry_cell_setting 'orthorhombic'
loop_
_space_group_symop_operation_xyz
x,y,z
1/2-x,1/2-y,z
x,1/2-y,1/2-z
1/2-x,y,1/2-z
-x,-y,-z
1/2+x,1/2+y,-z
-x,1/2+y,1/2+z
1/2+x,-y,1/2+z
loop_
_atom_site_type_symbol
_atom_site_label
_atom_site_fract_x
_atom_site_fract_y
_atom_site_fract_z
Si Si1 0.948723 0.400005 0.399886
Si Si2 0.325195 0.928364 0.431848
Si Si3 0.267580 0.004405 0.965432
Si Si4 0.934911 0.860752 0.802809
Si Si5 0.580843 0.715696 0.552956
Si Si6 0.535317 0.993791 0.900666
Si Si7 0.596759 0.702012 0.049395
Si Si8 0.574774 0.625091 0.692576
O O1 0.795446 0.435034 0.423150
O O2 0.075459 0.473360 0.421751
O O3 0.961732 0.410041 0.342850
O O4 0.977957 0.288904 0.416513
O O5 0.441795 0.836890 0.426029
O O6 0.253310 0.941580 0.485649
O O7 0.180627 0.935561 0.397171
O O8 0.161959 0.099308 0.972259
O O9 0.416926 0.042113 0.937942
O O10 0.962466 0.896788 0.748454
O O11 0.757442 0.880292 0.813827
O O12 0.958178 0.742731 0.809442
O O13 0.750000 0.750000 0.563398
O O14 0.573032 0.604037 0.568433
O O15 0.552278 0.732907 0.496664
O O16 0.502307 0.945965 0.847862
O O17 0.750000 0.750000 0.072938
#
# Coordination Sequence:
#
# PCOD9390352 Si02
#       8
#     8   8   8   8   8   8   8   8
#     4  11  17  32  53  70 102 142 187 210 253 314
#     4  11  19  34  52  72  99 137 185 223 262 317
#     4  11  23  35  46  77 107 135 179 232 265 311
#     4   9  16  29  51  75 100 141 186 216 239 304
#     4  11  17  30  52  71  95 141 187 205 241 319
#     4  12  22  32  52  77 112 143 174 223 268 309
#     4  10  20  37  54  69  95 139 183 223 260 323
#     4   9  17  29  48  77 106 135 182 219 248 298
#
# _framework density 19.238410999999999
#
# number of rings (size 3 to 8) (size 9 to 14) (size 15 to 20)
#    0.000    1.500    6.250    2.625    0.000    0.500 
#    0.000    2.500    0.000    1.500    0.000    0.000 
#    0.000    8.000    2.000    0.000    0.000    0.000 
#
# Total GULP energy -356423.147332 kJ/mol
# GULP energy per Si atom -5569.111677 kJ/mol
# Density = 1.919462 g / cm^3
# Si number density = 19.238411 Si / 1000 Ang^3
#
#
#
# Elastic Constant Matrix: (Units=GPa)
#
#
# Indices 1 2 3 4 5 6 
#
# 1 41.8733 10.7163 17.9770 0.0000 0.0000 0.0000
# 2 10.7163 40.8961 26.5695 0.0000 0.0000 0.0000
# 3 17.9770 26.5695 111.5707 0.0000 0.0000 0.0000
# 4 0.0000 0.0000 0.0000 21.8919 0.0000 0.0000
# 5 0.0000 0.0000 0.0000 0.0000 18.9777 0.0000
# 6 0.0000 0.0000 0.0000 0.0000 0.0000 31.0157
#
#
#
# Elastic Compliance Matrix: (Units=1/GPa)
#
#
# Indices 1 2 3 4 5 6 
#
# 1 0.026470 -0.004928 -0.003092 0.000000 0.000000 0.000000
# 2 -0.004928 0.029845 -0.006313 0.000000 0.000000 0.000000
# 3 -0.003092 -0.006313 0.010965 0.000000 0.000000 0.000000
# 4 0.000000 0.000000 0.000000 0.045679 0.000000 0.000000
# 5 0.000000 0.000000 0.000000 0.000000 0.052693 0.000000
# 6 0.000000 0.000000 0.000000 0.000000 0.000000 0.032242
#
#
# Mechanical properties :
#
#
# Convention : Reuss Voigt Hill
#
# Bulk Modulus (GPa) = 25.89697 33.87395 29.88546
# Shear Modulus (GPa) = 20.88294 23.64890 22.26592
#
# Velocity S-wave (km/s) = 3.29824 3.50988 3.40570
# Velocity P-wave (km/s) = 5.29101 5.83706 5.57073
#
# Compressibility (1/GPa) = 0.03861455
#
# Stress axis : x y z
#
# Youngs Moduli (GPa) = 37.77879 33.50639 91.20332
#
# Poissons Ratio (x) = 0.16510 0.28196
# Poissons Ratio (y) = 0.18616 0.57580
# Poissons Ratio (z) = 0.11679 0.21154
#
# Static dielectric constant tensor:
#      x y z
#    x 1.804660 0.000000 0.000000 
#    y 0.000000 1.700840 0.000000 
#    z 0.000000 0.000000 1.691440 
# 
# From -- ./inp_files/38865.got.cif
#   From: 2010.05.17/outbox.cif.g08.bks.cpg/sg48_20_cif.got.tgz:38865.got - 2010.06.03 20:39:00.
