data_PCOD9390081
_publ_section_title
;
Structure prediction by ZEFSAII (Michael W. Deem and Ramdas Pophale) SiO2 
 PCOD9390081
Probable space group: P N N N
;
_chemical_formula_sum "Si O2"
_cell_formula_units_Z 26
_cell_length_a 13.482522
_cell_length_b 11.049801
_cell_length_c 7.102420
_cell_angle_alpha 90.000000
_cell_angle_beta 90.000000
_cell_angle_gamma 90.000000
_cell_volume 1058.112744
_symmetry_space_group_name_H-M "P N N N"
_symmetry_group_IT_number 48
_space_group.IT_coordinate_system_code '2'
_symmetry_cell_setting 'orthorhombic'
loop_
_space_group_symop_operation_xyz
x,y,z
1/2-x,1/2-y,z
x,1/2-y,1/2-z
1/2-x,y,1/2-z
-x,-y,-z
1/2+x,1/2+y,-z
-x,1/2+y,1/2+z
1/2+x,-y,1/2+z
loop_
_atom_site_type_symbol
_atom_site_label
_atom_site_fract_x
_atom_site_fract_y
_atom_site_fract_z
Si Si1 0.782482 0.066036 0.552496
Si Si2 0.911018 0.581792 0.435199
Si Si3 0.357435 0.324407 0.519407
Si Si4 0.750000 0.250000 0.250000
O O1 0.750000 0.120800 0.750000
O O2 0.811025 0.163899 0.394802
O O3 0.687033 0.996891 0.469878
O O4 0.851087 0.948731 0.596238
O O5 0.921630 0.710552 0.541292
O O6 0.897674 0.624459 0.218373
O O7 0.000000 0.500000 0.500000
O O8 0.250000 0.250000 0.531891
#
# Coordination Sequence:
#
# PCOD9390081 Si02
#       4
#     8   8   8   2
#     4  11  22  41  69  93 121 179 225 259 324 401
#     4  10  19  37  64  98 129 164 213 274 329 378
#     4   9  18  40  68  88 129 182 220 262 323 404
#     4  12  22  44  62  90 136 156 228 278 312 386
#
# _framework density 24.572047999999999
#
# number of rings (size 3 to 8) (size 9 to 14) (size 15 to 20)
#    0.000    1.846    3.077    6.000    0.000    5.538 
#   11.077    4.615    0.000    0.000    0.000    0.000 
#    0.000    0.000    0.000    0.000    0.000    0.000 
#
# Total GULP energy -144828.813339 kJ/mol
# GULP energy per Si atom -5570.338975 kJ/mol
# Density = 2.451612 g / cm^3
# Si number density = 24.572048 Si / 1000 Ang^3
#
#
#
# Elastic Constant Matrix: (Units=GPa)
#
#
# Indices 1 2 3 4 5 6 
#
# 1 25.2800 38.3056 -3.4496 0.0000 0.0000 0.0000
# 2 38.3056 228.7558 73.6993 0.0000 0.0000 0.0000
# 3 -3.4496 73.6993 129.6114 0.0000 0.0000 0.0000
# 4 0.0000 0.0000 0.0000 41.4308 0.0000 0.0000
# 5 0.0000 0.0000 0.0000 0.0000 2.7287 0.0000
# 6 0.0000 0.0000 0.0000 0.0000 0.0000 -10.2613
#
#
#
# Elastic Compliance Matrix: (Units=1/GPa)
#
#
# Indices 1 2 3 4 5 6 
#
# 1 0.060568 -0.013053 0.009034 0.000000 0.000000 0.000000
# 2 -0.013053 0.008165 -0.004990 0.000000 0.000000 0.000000
# 3 0.009034 -0.004990 0.010793 0.000000 0.000000 0.000000
# 4 0.000000 0.000000 0.000000 0.024137 0.000000 0.000000
# 5 0.000000 0.000000 0.000000 0.000000 0.366472 0.000000
# 6 0.000000 0.000000 0.000000 0.000000 0.000000 -0.097453
#
#
# Mechanical properties :
#
#
# Convention : Reuss Voigt Hill
#
# Bulk Modulus (GPa) = 16.25794 66.75088 41.50441
# Shear Modulus (GPa) = 12.15947 25.11909 18.63928
#
# Velocity S-wave (km/s) = 2.22693 3.20075 2.75718
# Velocity P-wave (km/s) = 3.63911 6.39407 5.20227
#
# Compressibility (1/GPa) = 0.06150840
#
# Stress axis : x y z
#
# Youngs Moduli (GPa) = 16.51039 122.47606 92.65048
#
# Poissons Ratio (x) = 1.59865 -0.83701
# Poissons Ratio (y) = 0.21551 0.46233
# Poissons Ratio (z) = -0.14916 0.61116
#
# Static dielectric constant tensor:
#      x y z
#    x 2.136770 0.000000 0.000000 
#    y 0.000000 2.067300 0.000000 
#    z 0.000000 0.000000 2.133520 
# 
# From -- ./inp_files/11806.got.cif
#   From: 2010.05.17/outbox.cif.g08.bks.cpg/sg48_6_cif.got.tgz:11806.got - 2010.06.03 20:39:00.
