data_PCOD9390092
_publ_section_title
;
Structure prediction by ZEFSAII (Michael W. Deem and Ramdas Pophale) SiO2 
 PCOD9390092
Probable space group: P N N N
;
_chemical_formula_sum "Si O2"
_cell_formula_units_Z 38
_cell_length_a 27.244060
_cell_length_b 6.129459
_cell_length_c 10.204949
_cell_angle_alpha 90.000000
_cell_angle_beta 90.000000
_cell_angle_gamma 90.000000
_cell_volume 1704.138198
_symmetry_space_group_name_H-M "P N N N"
_symmetry_group_IT_number 48
_space_group.IT_coordinate_system_code '2'
_symmetry_cell_setting 'orthorhombic'
loop_
_space_group_symop_operation_xyz
x,y,z
1/2-x,1/2-y,z
x,1/2-y,1/2-z
1/2-x,y,1/2-z
-x,-y,-z
1/2+x,1/2+y,-z
-x,1/2+y,1/2+z
1/2+x,-y,1/2+z
loop_
_atom_site_type_symbol
_atom_site_label
_atom_site_fract_x
_atom_site_fract_y
_atom_site_fract_z
Si Si1 0.435248 0.942134 0.597706
Si Si2 0.706086 0.095267 0.040728
Si Si3 0.113941 0.883628 0.379854
Si Si4 0.250000 0.250000 0.750000
Si Si5 0.969245 0.814636 0.573447
Si Si6 0.638296 0.250000 0.250000
O O1 0.411173 0.775840 0.490174
O O2 0.490001 0.854158 0.627802
O O3 0.400639 0.942483 0.725083
O O4 0.439800 0.174950 0.533211
O O5 0.750000 0.250000 0.988734
O O6 0.674474 0.257972 0.129846
O O7 0.721968 0.909318 0.145831
O O8 0.665063 0.019749 0.936533
O O9 0.125258 0.750000 0.250000
O O10 0.072208 0.060406 0.345282
O O11 0.000000 0.000000 0.500000
#
# Coordination Sequence:
#
# PCOD9390092 Si02
#       6
#     8   8   8   2   8   4
#     4   9  20  35  58  84 129 163 214 266 312 373
#     4  11  23  41  64  95 124 158 212 277 344 392
#     4  10  23  39  60  87 127 174 214 254 321 403
#     4  12  22  40  72  96 124 156 210 298 340 402
#     4   9  19  37  55  89 122 169 216 258 314 373
#     4  10  19  38  58  92 120 162 204 273 334 388
#
# _framework density 22.298660999999999
#
# number of rings (size 3 to 8) (size 9 to 14) (size 15 to 20)
#    0.000    2.105    2.105    0.000    2.947    6.316 
#    0.000    0.000    0.000    1.263    0.000    0.000 
#    0.000    0.000    0.000    0.000    0.000    0.000 
#
# Total GULP energy -211623.947312 kJ/mol
# GULP energy per Si atom -5569.051245 kJ/mol
# Density = 2.224791 g / cm^3
# Si number density = 22.298661 Si / 1000 Ang^3
#
#
#
# Elastic Constant Matrix: (Units=GPa)
#
#
# Indices 1 2 3 4 5 6 
#
# 1 136.8398 27.8914 31.3917 0.0000 0.0000 0.0000
# 2 27.8914 72.3436 7.2886 0.0000 0.0000 0.0000
# 3 31.3917 7.2886 61.6210 0.0000 0.0000 0.0000
# 4 0.0000 0.0000 0.0000 32.9235 0.0000 0.0000
# 5 0.0000 0.0000 0.0000 0.0000 3.0130 0.0000
# 6 0.0000 0.0000 0.0000 0.0000 0.0000 0.3841
#
#
#
# Elastic Compliance Matrix: (Units=1/GPa)
#
#
# Indices 1 2 3 4 5 6 
#
# 1 0.008876 -0.003002 -0.004166 0.000000 0.000000 0.000000
# 2 -0.003002 0.015005 -0.000245 0.000000 0.000000 0.000000
# 3 -0.004166 -0.000245 0.018380 0.000000 0.000000 0.000000
# 4 0.000000 0.000000 0.000000 0.030373 0.000000 0.000000
# 5 0.000000 0.000000 0.000000 0.000000 0.331892 0.000000
# 6 0.000000 0.000000 0.000000 0.000000 0.000000 2.603176
#
#
# Mechanical properties :
#
#
# Convention : Reuss Voigt Hill
#
# Bulk Modulus (GPa) = 36.45312 44.88310 40.66811
# Shear Modulus (GPa) = 1.64925 20.87964 11.26445
#
# Velocity S-wave (km/s) = 0.86094 3.06332 2.25002
# Velocity P-wave (km/s) = 4.16791 5.71697 5.00276
#
# Compressibility (1/GPa) = 0.02743249
#
# Stress axis : x y z
#
# Youngs Moduli (GPa) = 112.66956 66.64405 54.40765
#
# Poissons Ratio (x) = 0.20007 0.22668
# Poissons Ratio (y) = 0.33825 0.01335
# Poissons Ratio (z) = 0.46942 0.01636
#
# Static dielectric constant tensor:
#      x y z
#    x 1.860690 0.000000 0.000000 
#    y 0.000000 1.845360 0.000000 
#    z 0.000000 0.000000 2.125140 
# 
# From -- ./inp_files/23546.got.cif
#   From: 2010.05.17/outbox.cif.g08.bks.cpg/sg48_12_cif.got.tgz:23546.got - 2010.06.03 20:39:00.
