data_PCOD9390910
_publ_section_title
;
Structure prediction by ZEFSAII (Michael W. Deem and Ramdas Pophale) SiO2 
 PCOD9390910
Probable space group: P N N N
;
_chemical_formula_sum "Si O2"
_cell_formula_units_Z 40
_cell_length_a 13.229716
_cell_length_b 8.700329
_cell_length_c 15.823521
_cell_angle_alpha 90.000000
_cell_angle_beta 90.000000
_cell_angle_gamma 90.000000
_cell_volume 1821.332867
_symmetry_space_group_name_H-M "P N N N"
_symmetry_group_IT_number 48
_space_group.IT_coordinate_system_code '2'
_symmetry_cell_setting 'orthorhombic'
loop_
_space_group_symop_operation_xyz
x,y,z
1/2-x,1/2-y,z
x,1/2-y,1/2-z
1/2-x,y,1/2-z
-x,-y,-z
1/2+x,1/2+y,-z
-x,1/2+y,1/2+z
1/2+x,-y,1/2+z
loop_
_atom_site_type_symbol
_atom_site_label
_atom_site_fract_x
_atom_site_fract_y
_atom_site_fract_z
Si Si1 0.645321 0.656525 0.132527
Si Si2 0.543580 0.535697 0.409449
Si Si3 0.466495 0.571882 0.237884
Si Si4 0.244382 0.570609 0.979742
Si Si5 0.284477 0.071800 0.341702
O O1 0.750000 0.750000 0.148842
O O2 0.567975 0.783389 0.096802
O O3 0.584620 0.586840 0.211004
O O4 0.666598 0.523994 0.065097
O O5 0.500000 0.500000 0.500000
O O6 0.473131 0.494598 0.330336
O O7 0.651909 0.455676 0.415046
O O8 0.429925 0.750000 0.250000
O O9 0.402977 0.475248 0.169232
O O10 0.250000 0.750000 0.990795
O O11 0.238341 0.500792 0.073927
O O12 0.250000 0.250000 0.343701
O O13 0.250000 0.008618 0.250000
#
# Coordination Sequence:
#
# PCOD9390910 Si02
#       5
#     8   8   8   8   8
#     4   9  21  44  69  98 134 174 230 285 359 426
#     4  10  21  41  68  96 135 173 224 287 353 424
#     4  10  23  41  73 104 129 184 236 291 355 437
#     4  11  25  42  66  98 136 183 225 288 351 428
#     4  11  25  44  66  98 137 183 231 292 356 422
#
# _framework density 21.961938
#
# number of rings (size 3 to 8) (size 9 to 14) (size 15 to 20)
#    0.000    1.800    0.000    3.000    8.400   11.600 
#   10.800    1.000    0.000    0.000    0.000    0.000 
#    0.000    0.000    0.000    0.000    0.000    0.000 
#
# Total GULP energy -222995.142038 kJ/mol
# GULP energy per Si atom -5574.878551 kJ/mol
# Density = 2.191195 g / cm^3
# Si number density = 21.961938 Si / 1000 Ang^3
#
#
#
# Elastic Constant Matrix: (Units=GPa)
#
#
# Indices 1 2 3 4 5 6 
#
# 1 62.3894 24.8745 19.8928 0.0000 0.0000 0.0000
# 2 24.8745 111.7507 46.0263 0.0000 0.0000 0.0000
# 3 19.8928 46.0263 110.5872 0.0000 0.0000 0.0000
# 4 0.0000 0.0000 0.0000 33.2094 0.0000 0.0000
# 5 0.0000 0.0000 0.0000 0.0000 36.4081 0.0000
# 6 0.0000 0.0000 0.0000 0.0000 0.0000 22.3812
#
#
#
# Elastic Compliance Matrix: (Units=1/GPa)
#
#
# Indices 1 2 3 4 5 6 
#
# 1 0.017909 -0.003210 -0.001886 0.000000 0.000000 0.000000
# 2 -0.003210 0.011375 -0.004157 0.000000 0.000000 0.000000
# 3 -0.001886 -0.004157 0.011112 0.000000 0.000000 0.000000
# 4 0.000000 0.000000 0.000000 0.030112 0.000000 0.000000
# 5 0.000000 0.000000 0.000000 0.000000 0.027466 0.000000
# 6 0.000000 0.000000 0.000000 0.000000 0.000000 0.044680
#
#
# Mechanical properties :
#
#
# Convention : Reuss Voigt Hill
#
# Bulk Modulus (GPa) = 45.67962 51.81272 48.74617
# Shear Modulus (GPa) = 29.68116 31.32864 30.50490
#
# Velocity S-wave (km/s) = 3.68024 3.78100 3.73096
# Velocity P-wave (km/s) = 6.23727 6.53487 6.38780
#
# Compressibility (1/GPa) = 0.02189160
#
# Stress axis : x y z
#
# Youngs Moduli (GPa) = 55.83676 87.91178 89.99328
#
# Poissons Ratio (x) = 0.28218 0.16970
# Poissons Ratio (y) = 0.17922 0.37409
# Poissons Ratio (z) = 0.10529 0.36544
#
# Static dielectric constant tensor:
#      x y z
#    x -0.443150 0.000000 0.000000 
#    y 0.000000 1.811850 0.000000 
#    z 0.000000 0.000000 -0.477280 
# 
# From -- ./inp_files/27047.got.cif
#   From: 2010.05.17/outbox.cif.g08.bks.cpg/sg48_14_cif.got.tgz:27047.got - 2010.06.03 20:39:00.
