data_PCOD9390712
_publ_section_title
;
Structure prediction by ZEFSAII (Michael W. Deem and Ramdas Pophale) SiO2 
 PCOD9390712
Probable space group: P N N N
;
_chemical_formula_sum "Si O2"
_cell_formula_units_Z 40
_cell_length_a 7.851101
_cell_length_b 8.188502
_cell_length_c 29.092817
_cell_angle_alpha 90.000000
_cell_angle_beta 90.000000
_cell_angle_gamma 90.000000
_cell_volume 1870.341020
_symmetry_space_group_name_H-M "P N N N"
_symmetry_group_IT_number 48
_space_group.IT_coordinate_system_code '2'
_symmetry_cell_setting 'orthorhombic'
loop_
_space_group_symop_operation_xyz
x,y,z
1/2-x,1/2-y,z
x,1/2-y,1/2-z
1/2-x,y,1/2-z
-x,-y,-z
1/2+x,1/2+y,-z
-x,1/2+y,1/2+z
1/2+x,-y,1/2+z
loop_
_atom_site_type_symbol
_atom_site_label
_atom_site_fract_x
_atom_site_fract_y
_atom_site_fract_z
Si Si1 0.915239 0.356953 0.142016
Si Si2 0.190389 0.563586 0.018594
Si Si3 0.790788 0.932387 0.073136
Si Si4 0.367364 0.447774 0.108187
Si Si5 0.806068 0.940652 0.701494
O O1 0.750000 0.250000 0.153196
O O2 0.853683 0.489603 0.105343
O O3 0.051252 0.231405 0.119037
O O4 0.996444 0.434484 0.187527
O O5 0.250000 0.750000 0.030678
O O6 0.249688 0.461900 0.063150
O O7 0.303771 0.532680 0.973501
O O8 0.000000 0.500000 0.000000
O O9 0.750000 0.750000 0.060102
O O10 0.968250 0.942095 0.098954
O O11 0.280230 0.507042 0.155184
O O12 0.750000 0.750000 0.703860
O O13 0.750000 0.014962 0.750000
#
# Coordination Sequence:
#
# PCOD9390712 Si02
#       5
#     8   8   8   8   8
#     4   9  19  37  60  86 120 156 198 253 308 365
#     4  12  25  41  63  92 126 167 209 252 308 374
#     4  11  23  39  60  88 122 162 207 254 310 372
#     4  10  21  38  59  86 121 160 201 255 309 368
#     4   9  18  35  60  89 116 150 198 251 306 364
#
# _framework density 21.386474
#
# number of rings (size 3 to 8) (size 9 to 14) (size 15 to 20)
#    0.000    1.800    0.000    4.800    0.000    7.200 
#    0.000   17.000    0.000    6.600    0.000    0.000 
#    0.000    0.000    0.000    0.000    0.000    0.000 
#
# Total GULP energy -223044.008998 kJ/mol
# GULP energy per Si atom -5576.100225 kJ/mol
# Density = 2.133780 g / cm^3
# Si number density = 21.386474 Si / 1000 Ang^3
#
#
#
# Elastic Constant Matrix: (Units=GPa)
#
#
# Indices 1 2 3 4 5 6 
#
# 1 111.3418 17.1975 57.3479 0.0000 0.0000 0.0000
# 2 17.1975 43.7995 7.5482 0.0000 0.0000 0.0000
# 3 57.3479 7.5482 160.4265 0.0000 0.0000 0.0000
# 4 0.0000 0.0000 0.0000 16.7595 0.0000 0.0000
# 5 0.0000 0.0000 0.0000 0.0000 24.4560 0.0000
# 6 0.0000 0.0000 0.0000 0.0000 0.0000 13.0608
#
#
#
# Elastic Compliance Matrix: (Units=1/GPa)
#
#
# Indices 1 2 3 4 5 6 
#
# 1 0.011628 -0.003881 -0.003974 0.000000 0.000000 0.000000
# 2 -0.003881 0.024313 0.000243 0.000000 0.000000 0.000000
# 3 -0.003974 0.000243 0.007643 0.000000 0.000000 0.000000
# 4 0.000000 0.000000 0.000000 0.059668 0.000000 0.000000
# 5 0.000000 0.000000 0.000000 0.000000 0.040890 0.000000
# 6 0.000000 0.000000 0.000000 0.000000 0.000000 0.076565
#
#
# Mechanical properties :
#
#
# Convention : Reuss Voigt Hill
#
# Bulk Modulus (GPa) = 35.26021 53.30612 44.28316
# Shear Modulus (GPa) = 20.37640 26.42019 23.39829
#
# Velocity S-wave (km/s) = 3.09005 3.51860 3.31126
# Velocity P-wave (km/s) = 5.40871 6.44101 5.94730
#
# Compressibility (1/GPa) = 0.02836058
#
# Stress axis : x y z
#
# Youngs Moduli (GPa) = 86.00252 41.13008 130.84713
#
# Poissons Ratio (x) = 0.15961 0.51998
# Poissons Ratio (y) = 0.33374 -0.03183
# Poissons Ratio (z) = 0.34177 -0.01001
#
# Static dielectric constant tensor:
#      x y z
#    x 1.872930 0.000000 0.000000 
#    y 0.000000 1.819970 0.000000 
#    z 0.000000 0.000000 1.749520 
# 
# From -- ./inp_files/37394.got.cif
#   From: 2010.05.17/outbox.cif.g08.bks.cpg/sg48_19_cif.got.tgz:37394.got - 2010.06.03 20:39:00.
