data_PCOD9390247
_publ_section_title
;
Structure prediction by ZEFSAII (Michael W. Deem and Ramdas Pophale) SiO2 
 PCOD9390247
Probable space group: P N N N
;
_chemical_formula_sum "Si O2"
_cell_formula_units_Z 48
_cell_length_a 22.750423
_cell_length_b 7.131770
_cell_length_c 11.538088
_cell_angle_alpha 90.000000
_cell_angle_beta 90.000000
_cell_angle_gamma 90.000000
_cell_volume 1872.063827
_symmetry_space_group_name_H-M "P N N N"
_symmetry_group_IT_number 48
_space_group.IT_coordinate_system_code '2'
_symmetry_cell_setting 'orthorhombic'
loop_
_space_group_symop_operation_xyz
x,y,z
1/2-x,1/2-y,z
x,1/2-y,1/2-z
1/2-x,y,1/2-z
-x,-y,-z
1/2+x,1/2+y,-z
-x,1/2+y,1/2+z
1/2+x,-y,1/2+z
loop_
_atom_site_type_symbol
_atom_site_label
_atom_site_fract_x
_atom_site_fract_y
_atom_site_fract_z
Si Si1 0.196099 0.014390 0.494057
Si Si2 0.428600 0.558855 0.460054
Si Si3 0.979730 0.502125 0.200089
Si Si4 0.351732 0.525605 0.751451
Si Si5 0.951203 0.892779 0.924188
Si Si6 0.822691 0.555239 0.511287
O O1 0.187909 0.228708 0.454981
O O2 0.261372 0.953934 0.459660
O O3 0.139839 0.902810 0.445985
O O4 0.183277 0.020823 0.633583
O O5 0.474788 0.637075 0.367498
O O6 0.450276 0.609032 0.589361
O O7 0.521311 0.916040 0.702827
O O8 0.063183 0.328729 0.048641
O O9 0.918001 0.556379 0.256338
O O10 0.355505 0.750000 0.750000
O O11 0.324057 0.461676 0.871547
O O12 0.887518 0.990768 0.941604
O O13 0.000000 0.000000 0.000000
#
# Coordination Sequence:
#
# PCOD9390247 Si02
#       6
#     8   8   8   8   8   8
#     4   9  20  36  53  74 108 148 187 225 278 338
#     4   9  20  36  57  77 109 149 181 229 282 336
#     4  10  20  36  55  82 112 142 184 232 287 339
#     4  11  20  31  54  81 109 143 183 235 286 334
#     4  11  20  33  55  82 111 143 182 231 279 338
#     4  10  20  35  52  78 109 144 185 229 280 337
#
# _framework density 25.640149999999998
#
# number of rings (size 3 to 8) (size 9 to 14) (size 15 to 20)
#    0.000    2.000    1.667    2.500    0.000    3.333 
#    0.000    0.833    0.000    4.000    0.000    0.000 
#    0.000    0.000    0.000    0.000    0.000    0.000 
#
# Total GULP energy -267775.771419 kJ/mol
# GULP energy per Si atom -5578.661905 kJ/mol
# Density = 2.558179 g / cm^3
# Si number density = 25.640150 Si / 1000 Ang^3
#
#
#
# Elastic Constant Matrix: (Units=GPa)
#
#
# Indices 1 2 3 4 5 6 
#
# 1 297.6188 21.4085 26.2160 0.0000 0.0000 0.0000
# 2 21.4085 123.7671 9.8241 0.0000 0.0000 0.0000
# 3 26.2160 9.8241 64.6287 0.0000 0.0000 0.0000
# 4 0.0000 0.0000 0.0000 20.7382 0.0000 0.0000
# 5 0.0000 0.0000 0.0000 0.0000 23.7713 0.0000
# 6 0.0000 0.0000 0.0000 0.0000 0.0000 18.9203
#
#
#
# Elastic Compliance Matrix: (Units=1/GPa)
#
#
# Indices 1 2 3 4 5 6 
#
# 1 0.003515 -0.000501 -0.001350 0.000000 0.000000 0.000000
# 2 -0.000501 0.008250 -0.001051 0.000000 0.000000 0.000000
# 3 -0.001350 -0.001051 0.016180 0.000000 0.000000 0.000000
# 4 0.000000 0.000000 0.000000 0.048220 0.000000 0.000000
# 5 0.000000 0.000000 0.000000 0.000000 0.042067 0.000000
# 6 0.000000 0.000000 0.000000 0.000000 0.000000 0.052853
#
#
# Mechanical properties :
#
#
# Convention : Reuss Voigt Hill
#
# Bulk Modulus (GPa) = 45.16280 66.76798 55.96539
# Shear Modulus (GPa) = 27.13420 41.25703 34.19561
#
# Velocity S-wave (km/s) = 3.25664 4.01568 3.65591
# Velocity P-wave (km/s) = 5.63855 6.89912 6.30044
#
# Compressibility (1/GPa) = 0.02214212
#
# Stress axis : x y z
#
# Youngs Moduli (GPa) = 284.50169 121.21594 61.80388
#
# Poissons Ratio (x) = 0.06071 0.08341
# Poissons Ratio (y) = 0.14250 0.06495
# Poissons Ratio (z) = 0.38398 0.12738
#
# Static dielectric constant tensor:
#      x y z
#    x 2.076790 0.000000 0.000000 
#    y 0.000000 3.765450 0.000000 
#    z 0.000000 0.000000 2.064100 
# 
# From -- ./inp_files/28251.got.cif
#   From: 2010.05.17/outbox.cif.g08.bks.cpg/sg48_15_cif.got.tgz:28251.got - 2010.06.03 20:39:00.
