data_PCOD9390557
_publ_section_title
;
Structure prediction by ZEFSAII (Michael W. Deem and Ramdas Pophale) SiO2 
 PCOD9390557
Probable space group: P N N N
;
_chemical_formula_sum "Si O2"
_cell_formula_units_Z 28
_cell_length_a 10.057693
_cell_length_b 19.249216
_cell_length_c 7.626300
_cell_angle_alpha 90.000000
_cell_angle_beta 90.000000
_cell_angle_gamma 90.000000
_cell_volume 1476.472309
_symmetry_space_group_name_H-M "P N N N"
_symmetry_group_IT_number 48
_space_group.IT_coordinate_system_code '2'
_symmetry_cell_setting 'orthorhombic'
loop_
_space_group_symop_operation_xyz
x,y,z
1/2-x,1/2-y,z
x,1/2-y,1/2-z
1/2-x,y,1/2-z
-x,-y,-z
1/2+x,1/2+y,-z
-x,1/2+y,1/2+z
1/2+x,-y,1/2+z
loop_
_atom_site_type_symbol
_atom_site_label
_atom_site_fract_x
_atom_site_fract_y
_atom_site_fract_z
Si Si1 0.595663 0.668339 0.288241
Si Si2 0.530229 0.419374 0.014467
Si Si3 0.965566 0.824544 0.685652
Si Si4 0.750000 0.135624 0.250000
O O1 0.568258 0.750000 0.250000
O O2 0.750000 0.654626 0.250000
O O3 0.579894 0.655845 0.494062
O O4 0.502462 0.621435 0.164343
O O5 0.440597 0.381449 0.164152
O O6 0.678272 0.407621 0.094570
O O7 0.500000 0.500000 0.000000
O O8 0.914837 0.750000 0.750000
O O9 0.126799 0.821437 0.674900
#
# Coordination Sequence:
#
# PCOD9390557 Si02
#       4
#     8   8   8   4
#     4  11  23  39  63  94 124 171 212 250 313 376
#     4  10  23  41  64  94 128 163 207 262 317 369
#     4  10  20  41  63  93 124 162 213 263 304 367
#     4   8  21  40  62  88 125 156 208 254 321 346
#
# _framework density 18.964122
#
# number of rings (size 3 to 8) (size 9 to 14) (size 15 to 20)
#    1.714    0.286    2.857    0.429    2.000    3.429 
#    0.000    4.286    0.000    0.000    0.000    0.000 
#    0.000    0.000    0.000    0.000    0.000    0.000 
#
# Total GULP energy -155886.991683 kJ/mol
# GULP energy per Si atom -5567.392560 kJ/mol
# Density = 1.892096 g / cm^3
# Si number density = 18.964122 Si / 1000 Ang^3
#
#
#
# Elastic Constant Matrix: (Units=GPa)
#
#
# Indices 1 2 3 4 5 6 
#
# 1 71.1703 27.1302 31.1778 0.0000 0.0000 0.0000
# 2 27.1302 133.1437 66.6931 0.0000 0.0000 0.0000
# 3 31.1778 66.6931 176.2959 0.0000 0.0000 0.0000
# 4 0.0000 0.0000 0.0000 28.3891 0.0000 0.0000
# 5 0.0000 0.0000 0.0000 0.0000 38.0039 0.0000
# 6 0.0000 0.0000 0.0000 0.0000 0.0000 17.5411
#
#
#
# Elastic Compliance Matrix: (Units=1/GPa)
#
#
# Indices 1 2 3 4 5 6 
#
# 1 0.015754 -0.002239 -0.001939 0.000000 0.000000 0.000000
# 2 -0.002239 0.009585 -0.003230 0.000000 0.000000 0.000000
# 3 -0.001939 -0.003230 0.007237 0.000000 0.000000 0.000000
# 4 0.000000 0.000000 0.000000 0.035225 0.000000 0.000000
# 5 0.000000 0.000000 0.000000 0.000000 0.026313 0.000000
# 6 0.000000 0.000000 0.000000 0.000000 0.000000 0.057009
#
#
# Mechanical properties :
#
#
# Convention : Reuss Voigt Hill
#
# Bulk Modulus (GPa) = 56.30672 70.06801 63.18736
# Shear Modulus (GPa) = 29.09375 33.82741 31.46058
#
# Velocity S-wave (km/s) = 3.92107 4.22804 4.07744
# Velocity P-wave (km/s) = 7.08910 7.80147 7.45380
#
# Compressibility (1/GPa) = 0.01775987
#
# Stress axis : x y z
#
# Youngs Moduli (GPa) = 63.47713 104.33157 138.17615
#
# Poissons Ratio (x) = 0.23357 0.26794
# Poissons Ratio (y) = 0.14211 0.44631
# Poissons Ratio (z) = 0.12309 0.33699
#
# Static dielectric constant tensor:
#      x y z
#    x 1.682310 0.000000 0.000000 
#    y 0.000000 1.642930 0.000000 
#    z 0.000000 0.000000 1.651430 
# 
# From -- ./inp_files/8407.got.cif
#   From: 2010.05.17/outbox.cif.g08.bks.cpg/sg48_5_cif.got.tgz:8407.got - 2010.06.03 20:39:00.
