data_PCOD9390789
_publ_section_title
;
Structure prediction by ZEFSAII (Michael W. Deem and Ramdas Pophale) SiO2 
 PCOD9390789
Probable space group: P N N N
;
_chemical_formula_sum "Si O2"
_cell_formula_units_Z 44
_cell_length_a 8.251382
_cell_length_b 7.819348
_cell_length_c 29.451845
_cell_angle_alpha 90.000000
_cell_angle_beta 90.000000
_cell_angle_gamma 90.000000
_cell_volume 1900.245625
_symmetry_space_group_name_H-M "P N N N"
_symmetry_group_IT_number 48
_space_group.IT_coordinate_system_code '2'
_symmetry_cell_setting 'orthorhombic'
loop_
_space_group_symop_operation_xyz
x,y,z
1/2-x,1/2-y,z
x,1/2-y,1/2-z
1/2-x,y,1/2-z
-x,-y,-z
1/2+x,1/2+y,-z
-x,1/2+y,1/2+z
1/2+x,-y,1/2+z
loop_
_atom_site_type_symbol
_atom_site_label
_atom_site_fract_x
_atom_site_fract_y
_atom_site_fract_z
Si Si1 0.867448 0.903350 0.339129
Si Si2 0.750000 0.750000 0.986085
Si Si3 0.567348 0.373799 0.180401
Si Si4 0.648488 0.983208 0.061892
Si Si5 0.568855 0.534533 0.731830
Si Si6 0.492560 0.636979 0.922614
O O1 0.750000 0.750000 0.328199
O O2 0.754674 0.076012 0.332453
O O3 0.908179 0.892077 0.392041
O O4 0.022419 0.901854 0.307139
O O5 0.650563 0.621707 0.953505
O O6 0.866978 0.638022 0.018552
O O7 0.538726 0.497053 0.223583
O O8 0.485249 0.208595 0.205271
O O9 0.481166 0.385171 0.131470
O O10 0.567811 0.169527 0.066331
O O11 0.842627 0.016356 0.064684
O O12 0.750000 0.537297 0.750000
#
# Coordination Sequence:
#
# PCOD9390789 Si02
#       6
#     8   4   8   8   8   8
#     4  11  22  41  66  91 128 180 223 265 328 413
#     4  12  22  36  66  93 129 170 212 276 338 380
#     4  10  21  39  63  92 124 167 218 266 321 402
#     4  10  21  41  59  94 126 169 226 262 315 404
#     4  11  23  39  65  95 129 159 218 281 335 385
#     4  10  22  37  63  90 128 164 217 272 324 377
#
# _framework density 23.154903000000001
#
# number of rings (size 3 to 8) (size 9 to 14) (size 15 to 20)
#    0.000    1.455    2.727    3.273    2.545    2.909 
#    0.000    2.727    0.000    0.000    0.000    0.000 
#    0.000    0.000    0.000    0.000    0.000    0.000 
#
# Total GULP energy -245183.030459 kJ/mol
# GULP energy per Si atom -5572.341601 kJ/mol
# Density = 2.310220 g / cm^3
# Si number density = 23.154903 Si / 1000 Ang^3
#
#
#
# Elastic Constant Matrix: (Units=GPa)
#
#
# Indices 1 2 3 4 5 6 
#
# 1 54.9147 -4.9765 57.5029 0.0000 0.0000 0.0000
# 2 -4.9765 61.2158 7.3559 0.0000 0.0000 0.0000
# 3 57.5029 7.3559 205.4528 0.0000 0.0000 0.0000
# 4 0.0000 0.0000 0.0000 11.8831 0.0000 0.0000
# 5 0.0000 0.0000 0.0000 0.0000 19.0313 0.0000
# 6 0.0000 0.0000 0.0000 0.0000 0.0000 19.9776
#
#
#
# Elastic Compliance Matrix: (Units=1/GPa)
#
#
# Indices 1 2 3 4 5 6 
#
# 1 0.026310 0.003037 -0.007472 0.000000 0.000000 0.000000
# 2 0.003037 0.016757 -0.001450 0.000000 0.000000 0.000000
# 3 -0.007472 -0.001450 0.007011 0.000000 0.000000 0.000000
# 4 0.000000 0.000000 0.000000 0.084153 0.000000 0.000000
# 5 0.000000 0.000000 0.000000 0.000000 0.052545 0.000000
# 6 0.000000 0.000000 0.000000 0.000000 0.000000 0.050056
#
#
# Mechanical properties :
#
#
# Convention : Reuss Voigt Hill
#
# Bulk Modulus (GPa) = 26.10547 49.03864 37.57205
# Shear Modulus (GPa) = 19.12985 27.62512 23.37749
#
# Velocity S-wave (km/s) = 2.87743 3.45781 3.18089
# Velocity P-wave (km/s) = 4.72634 6.09643 5.45457
#
# Compressibility (1/GPa) = 0.03830615
#
# Stress axis : x y z
#
# Youngs Moduli (GPa) = 38.00856 59.67741 142.64080
#
# Poissons Ratio (x) = -0.18123 1.06587
# Poissons Ratio (y) = -0.11542 0.20681
# Poissons Ratio (z) = 0.28402 0.08653
#
# Static dielectric constant tensor:
#      x y z
#    x 1.933400 0.000000 0.000000 
#    y 0.000000 2.113290 0.000000 
#    z 0.000000 0.000000 1.870680 
# 
# From -- ./inp_files/38636.got.cif
#   From: 2010.05.17/outbox.cif.g08.bks.cpg/sg48_20_cif.got.tgz:38636.got - 2010.06.03 20:39:00.
