data_PCOD9390459
_publ_section_title
;
Structure prediction by ZEFSAII (Michael W. Deem and Ramdas Pophale) SiO2 
 PCOD9390459
Probable space group: P N N N
;
_chemical_formula_sum "Si O2"
_cell_formula_units_Z 36
_cell_length_a 18.084879
_cell_length_b 5.370235
_cell_length_c 17.400853
_cell_angle_alpha 90.000000
_cell_angle_beta 90.000000
_cell_angle_gamma 90.000000
_cell_volume 1689.971716
_symmetry_space_group_name_H-M "P N N N"
_symmetry_group_IT_number 48
_space_group.IT_coordinate_system_code '2'
_symmetry_cell_setting 'orthorhombic'
loop_
_space_group_symop_operation_xyz
x,y,z
1/2-x,1/2-y,z
x,1/2-y,1/2-z
1/2-x,y,1/2-z
-x,-y,-z
1/2+x,1/2+y,-z
-x,1/2+y,1/2+z
1/2+x,-y,1/2+z
loop_
_atom_site_type_symbol
_atom_site_label
_atom_site_fract_x
_atom_site_fract_y
_atom_site_fract_z
Si Si1 0.377879 0.499301 0.228619
Si Si2 0.898213 0.474247 0.038233
Si Si3 0.250000 0.750000 0.505697
Si Si4 0.959594 0.999352 0.292397
Si Si5 0.612125 0.990602 0.551374
O O1 0.336978 0.750000 0.250000
O O2 0.451638 0.501393 0.281678
O O3 0.404901 0.491439 0.140990
O O4 0.336307 0.250000 0.250000
O O5 0.811297 0.406607 0.051569
O O6 0.938013 0.500387 0.119032
O O7 0.925064 0.227056 0.992019
O O8 0.901991 0.726227 0.988608
O O9 0.300732 0.937011 0.456493
O O10 0.932064 0.750000 0.250000
O O11 0.932681 0.250000 0.250000
#
# Coordination Sequence:
#
# PCOD9390459 Si02
#       5
#     8   8   4   8   8
#     4  10  21  39  59  87 127 152 189 246 301 360
#     4  10  20  38  64  86 115 156 204 242 293 352
#     4   8  22  36  68  76 122 144 224 236 296 332
#     4  10  21  39  59  87 127 152 189 246 301 360
#     4  10  20  38  64  86 115 156 204 242 293 352
#
# _framework density 21.302130999999999
#
# number of rings (size 3 to 8) (size 9 to 14) (size 15 to 20)
#    1.333    0.889    0.000    3.333    0.000    0.000 
#    0.000   27.778    0.000    0.000    0.000    0.000 
#    0.000    0.000    0.000    0.000    0.000    0.000 
#
# Total GULP energy -200819.295295 kJ/mol
# GULP energy per Si atom -5578.313758 kJ/mol
# Density = 2.125365 g / cm^3
# Si number density = 21.302131 Si / 1000 Ang^3
#
#
#
# Elastic Constant Matrix: (Units=GPa)
#
#
# Indices 1 2 3 4 5 6 
#
# 1 97.1807 14.4377 43.7332 0.0000 0.0000 0.0000
# 2 14.4377 246.3648 87.5955 0.0000 0.0000 0.0000
# 3 43.7332 87.5955 150.8560 0.0000 0.0000 0.0000
# 4 0.0000 0.0000 0.0000 41.1168 0.0000 0.0000
# 5 0.0000 0.0000 0.0000 0.0000 -190.1544 0.0000
# 6 0.0000 0.0000 0.0000 0.0000 0.0000 -4.9252
#
#
#
# Elastic Compliance Matrix: (Units=1/GPa)
#
#
# Indices 1 2 3 4 5 6 
#
# 1 0.011921 0.000668 -0.003844 0.000000 0.000000 0.000000
# 2 0.000668 0.005152 -0.003185 0.000000 0.000000 0.000000
# 3 -0.003844 -0.003185 0.009593 0.000000 0.000000 0.000000
# 4 0.000000 0.000000 0.000000 0.024321 0.000000 0.000000
# 5 0.000000 0.000000 0.000000 0.000000 -0.005259 0.000000
# 6 0.000000 0.000000 0.000000 0.000000 0.000000 -0.203038
#
#
# Mechanical properties :
#
#
# Convention : Reuss Voigt Hill
#
# Bulk Modulus (GPa) = 71.71742 87.32604 79.52173
# Shear Modulus (GPa) = -35.72952 -7.55022 -21.63987
#
# Velocity S-wave (km/s) = -4.09990 -1.88469 -3.19071
# Velocity P-wave (km/s) = 3.36566 6.02885 4.88235
#
# Compressibility (1/GPa) = 0.01394361
#
# Stress axis : x y z
#
# Youngs Moduli (GPa) = 83.88841 194.08132 104.24484
#
# Poissons Ratio (x) = -0.12966 0.40069
# Poissons Ratio (y) = -0.05604 0.33207
# Poissons Ratio (z) = 0.32244 0.61824
#
# Static dielectric constant tensor:
#      x y z
#    x 1.777330 0.000000 0.000000 
#    y 0.000000 1.888210 0.000000 
#    z 0.000000 0.000000 1.713630 
# 
# From -- ./inp_files/28488.got.cif
#   From: 2010.05.17/outbox.cif.g08.bks.cpg/sg48_15_cif.got.tgz:28488.got - 2010.06.03 20:39:00.
