data_PCOD9390793
_publ_section_title
;
Structure prediction by ZEFSAII (Michael W. Deem and Ramdas Pophale) SiO2 
 PCOD9390793
Probable space group: P N N N
;
_chemical_formula_sum "Si O2"
_cell_formula_units_Z 64
_cell_length_a 11.654086
_cell_length_b 30.543462
_cell_length_c 9.577714
_cell_angle_alpha 90.000000
_cell_angle_beta 90.000000
_cell_angle_gamma 90.000000
_cell_volume 3409.246037
_symmetry_space_group_name_H-M "P N N N"
_symmetry_group_IT_number 48
_space_group.IT_coordinate_system_code '2'
_symmetry_cell_setting 'orthorhombic'
loop_
_space_group_symop_operation_xyz
x,y,z
1/2-x,1/2-y,z
x,1/2-y,1/2-z
1/2-x,y,1/2-z
-x,-y,-z
1/2+x,1/2+y,-z
-x,1/2+y,1/2+z
1/2+x,-y,1/2+z
loop_
_atom_site_type_symbol
_atom_site_label
_atom_site_fract_x
_atom_site_fract_y
_atom_site_fract_z
Si Si1 0.613720 0.754848 0.096209
Si Si2 0.613806 0.661206 0.578159
Si Si3 0.014318 0.046684 0.924595
Si Si4 0.520010 0.794306 0.667877
Si Si5 0.999047 0.541977 0.098174
Si Si6 0.258610 0.406473 0.589847
Si Si7 0.119743 0.606208 0.911124
Si Si8 0.877534 0.117802 0.102275
O O1 0.750000 0.750000 0.102864
O O2 0.563492 0.750000 0.250000
O O3 0.594956 0.803124 0.040277
O O4 0.567385 0.721943 0.979669
O O5 0.616014 0.686109 0.726431
O O6 0.717921 0.630540 0.527338
O O7 0.493902 0.635395 0.580686
O O8 0.983983 0.037739 0.763019
O O9 0.145064 0.064929 0.934842
O O10 0.938440 0.086147 0.990719
O O11 0.000000 0.000000 0.000000
O O12 0.475451 0.750000 0.750000
O O13 0.436342 0.835172 0.633852
O O14 0.873762 0.564472 0.084167
O O15 0.000000 0.500000 0.000000
O O16 0.098767 0.571006 0.030051
O O17 0.250000 0.388453 0.750000
O O18 0.244564 0.626826 0.931789
O O19 0.118561 0.591056 0.749384
#
# Coordination Sequence:
#
# PCOD9390793 Si02
#       8
#     8   8   8   8   8   8   8   8
#     4  10  22  35  56  84 118 160 194 243 304 368
#     4   9  19  38  60  85 117 152 204 242 297 371
#     4  11  24  39  58  92 120 156 209 255 312 370
#     4   9  20  39  59  92 122 157 204 253 310 368
#     4  10  21  40  62  82 118 161 205 254 311 370
#     4   9  21  38  61  85 116 160 195 247 310 365
#     4   9  20  40  60  86 114 163 199 246 318 355
#     4  10  21  39  64  87 123 157 205 258 304 373
#
# _framework density 18.772480000000002
#
# number of rings (size 3 to 8) (size 9 to 14) (size 15 to 20)
#    0.000    2.375    0.000    0.750    5.250    4.750 
#    2.250   16.250    0.000    0.750    0.000    0.000 
#    0.000    0.000    0.000    0.000    0.000    0.000 
#
# Total GULP energy -356391.750668 kJ/mol
# GULP energy per Si atom -5568.621104 kJ/mol
# Density = 1.872975 g / cm^3
# Si number density = 18.772480 Si / 1000 Ang^3
#
#
#
# Elastic Constant Matrix: (Units=GPa)
#
#
# Indices 1 2 3 4 5 6 
#
# 1 74.6701 27.6379 42.0504 0.0000 0.0000 0.0000
# 2 27.6379 89.3047 70.5578 0.0000 0.0000 0.0000
# 3 42.0504 70.5578 158.0236 0.0000 0.0000 0.0000
# 4 0.0000 0.0000 0.0000 32.9939 0.0000 0.0000
# 5 0.0000 0.0000 0.0000 0.0000 41.9459 0.0000
# 6 0.0000 0.0000 0.0000 0.0000 0.0000 13.3983
#
#
#
# Elastic Compliance Matrix: (Units=1/GPa)
#
#
# Indices 1 2 3 4 5 6 
#
# 1 0.016097 -0.002468 -0.003182 0.000000 0.000000 0.000000
# 2 -0.002468 0.017679 -0.007237 0.000000 0.000000 0.000000
# 3 -0.003182 -0.007237 0.010406 0.000000 0.000000 0.000000
# 4 0.000000 0.000000 0.000000 0.030309 0.000000 0.000000
# 5 0.000000 0.000000 0.000000 0.000000 0.023840 0.000000
# 6 0.000000 0.000000 0.000000 0.000000 0.000000 0.074637
#
#
# Mechanical properties :
#
#
# Convention : Reuss Voigt Hill
#
# Bulk Modulus (GPa) = 54.32003 66.94340 60.63171
# Shear Modulus (GPa) = 24.40474 29.78445 27.09459
#
# Velocity S-wave (km/s) = 3.60950 3.98754 3.80322
# Velocity P-wave (km/s) = 6.80956 7.54576 7.18709
#
# Compressibility (1/GPa) = 0.01840941
#
# Stress axis : x y z
#
# Youngs Moduli (GPa) = 62.12161 56.56330 96.09720
#
# Poissons Ratio (x) = 0.13961 0.30574
# Poissons Ratio (y) = 0.15333 0.69546
# Poissons Ratio (z) = 0.19764 0.40935
#
# Static dielectric constant tensor:
#      x y z
#    x 1.667560 0.000000 0.000000 
#    y 0.000000 1.673440 0.000000 
#    z 0.000000 0.000000 1.679850 
# 
# From -- ./inp_files/11577.got.cif
#   From: 2010.05.17/outbox.cif.g08.bks.cpg/sg48_6_cif.got.tgz:11577.got - 2010.06.03 20:39:00.
