data_PCOD9390193
_publ_section_title
;
Structure prediction by ZEFSAII (Michael W. Deem and Ramdas Pophale) SiO2 
 PCOD9390193
Probable space group: P N N N
;
_chemical_formula_sum "Si O2"
_cell_formula_units_Z 56
_cell_length_a 33.511569
_cell_length_b 13.548752
_cell_length_c 5.530423
_cell_angle_alpha 90.000000
_cell_angle_beta 90.000000
_cell_angle_gamma 90.000000
_cell_volume 2511.032913
_symmetry_space_group_name_H-M "P N N N"
_symmetry_group_IT_number 48
_space_group.IT_coordinate_system_code '2'
_symmetry_cell_setting 'orthorhombic'
loop_
_space_group_symop_operation_xyz
x,y,z
1/2-x,1/2-y,z
x,1/2-y,1/2-z
1/2-x,y,1/2-z
-x,-y,-z
1/2+x,1/2+y,-z
-x,1/2+y,1/2+z
1/2+x,-y,1/2+z
loop_
_atom_site_type_symbol
_atom_site_label
_atom_site_fract_x
_atom_site_fract_y
_atom_site_fract_z
Si Si1 0.157476 0.039695 0.580557
Si Si2 0.795348 0.788441 0.499300
Si Si3 0.851282 0.075442 0.920146
Si Si4 0.733794 0.360806 0.997556
Si Si5 0.082431 0.349237 0.099914
Si Si6 0.983293 0.921525 0.311322
Si Si7 0.437751 0.543299 0.075751
O O1 0.198672 0.095486 0.522395
O O2 0.154592 0.002263 0.856132
O O3 0.122029 0.119437 0.542835
O O4 0.152820 0.962636 0.357571
O O5 0.750000 0.750000 0.501157
O O6 0.813645 0.750000 0.250000
O O7 0.813514 0.750000 0.750000
O O8 0.813988 0.145266 0.975155
O O9 0.897484 0.106276 0.946940
O O10 0.750000 0.250000 0.998587
O O11 0.750000 0.409371 0.750000
O O12 0.750000 0.405714 0.250000
O O13 0.088267 0.250000 0.250000
O O14 0.073212 0.448475 0.256229
O O15 0.042725 0.338038 0.937592
O O16 0.023045 0.896882 0.160629
O O17 0.000000 0.000000 0.500000
O O18 0.951808 0.986951 0.162474
#
# Coordination Sequence:
#
# PCOD9390193 Si02
#       7
#     8   8   8   8   8   8   8
#     4  11  22  38  57  91 127 166 221 259 311 377
#     4  10  21  39  53  72 114 174 201 253 311 359
#     4  11  22  40  64  98 123 160 219 266 316 401
#     4  10  22  44  69  96 126 158 206 270 345 397
#     4  10  20  33  56  87 127 173 212 261 316 385
#     4   9  17  35  57  84 122 163 210 262 313 374
#     4   9  19  35  59  90 119 168 210 266 316 374
#
# _framework density 22.301577999999999
#
# number of rings (size 3 to 8) (size 9 to 14) (size 15 to 20)
#    0.000    2.000    1.429    2.143    0.000    1.714 
#   15.429    0.000    0.000   10.286    0.000    0.000 
#    0.000    0.000    0.000    0.000    0.000    0.000 
#
# Total GULP energy -311999.661574 kJ/mol
# GULP energy per Si atom -5571.422528 kJ/mol
# Density = 2.225082 g / cm^3
# Si number density = 22.301578 Si / 1000 Ang^3
#
#
#
# Elastic Constant Matrix: (Units=GPa)
#
#
# Indices 1 2 3 4 5 6 
#
# 1 153.1006 30.1252 4.4178 0.0000 0.0000 0.0000
# 2 30.1252 34.9569 1.5045 0.0000 0.0000 0.0000
# 3 4.4178 1.5045 119.4221 0.0000 0.0000 0.0000
# 4 0.0000 0.0000 0.0000 21.7359 0.0000 0.0000
# 5 0.0000 0.0000 0.0000 0.0000 19.0626 0.0000
# 6 0.0000 0.0000 0.0000 0.0000 0.0000 26.2066
#
#
#
# Elastic Compliance Matrix: (Units=1/GPa)
#
#
# Indices 1 2 3 4 5 6 
#
# 1 0.007870 -0.006774 -0.000206 0.000000 0.000000 0.000000
# 2 -0.006774 0.034452 -0.000183 0.000000 0.000000 0.000000
# 3 -0.000206 -0.000183 0.008384 0.000000 0.000000 0.000000
# 4 0.000000 0.000000 0.000000 0.046007 0.000000 0.000000
# 5 0.000000 0.000000 0.000000 0.000000 0.052459 0.000000
# 6 0.000000 0.000000 0.000000 0.000000 0.000000 0.038158
#
#
# Mechanical properties :
#
#
# Convention : Reuss Voigt Hill
#
# Bulk Modulus (GPa) = 27.48756 42.17493 34.83125
# Shear Modulus (GPa) = 23.38822 31.49648 27.44235
#
# Velocity S-wave (km/s) = 3.24192 3.76213 3.51167
# Velocity P-wave (km/s) = 5.13473 6.15010 5.66521
#
# Compressibility (1/GPa) = 0.03638009
#
# Stress axis : x y z
#
# Youngs Moduli (GPa) = 127.05767 29.02583 119.28070
#
# Poissons Ratio (x) = 0.19661 0.02455
# Poissons Ratio (y) = 0.86066 0.02188
# Poissons Ratio (z) = 0.02615 0.00532
#
# Static dielectric constant tensor:
#      x y z
#    x 1.888260 0.000000 0.000000 
#    y 0.000000 1.805690 0.000000 
#    z 0.000000 0.000000 1.945350 
# 
# From -- ./inp_files/7033.got.cif
#   From: 2010.05.17/outbox.cif.g08.bks.cpg/sg48_4_cif.got.tgz:7033.got - 2010.06.03 20:39:00.
