data_PCOD9390660
_publ_section_title
;
Structure prediction by ZEFSAII (Michael W. Deem and Ramdas Pophale) SiO2 
 PCOD9390660
Probable space group: P N N N
;
_chemical_formula_sum "Si O2"
_cell_formula_units_Z 48
_cell_length_a 5.201193
_cell_length_b 17.577046
_cell_length_c 23.419796
_cell_angle_alpha 90.000000
_cell_angle_beta 90.000000
_cell_angle_gamma 90.000000
_cell_volume 2141.075424
_symmetry_space_group_name_H-M "P N N N"
_symmetry_group_IT_number 48
_space_group.IT_coordinate_system_code '2'
_symmetry_cell_setting 'orthorhombic'
loop_
_space_group_symop_operation_xyz
x,y,z
1/2-x,1/2-y,z
x,1/2-y,1/2-z
1/2-x,y,1/2-z
-x,-y,-z
1/2+x,1/2+y,-z
-x,1/2+y,1/2+z
1/2+x,-y,1/2+z
loop_
_atom_site_type_symbol
_atom_site_label
_atom_site_fract_x
_atom_site_fract_y
_atom_site_fract_z
Si Si1 0.306783 0.072837 0.629125
Si Si2 0.680523 0.337241 0.185880
Si Si3 0.677704 0.331063 0.618233
Si Si4 0.457467 0.561020 0.591583
Si Si5 0.993523 0.200181 0.488615
Si Si6 0.349592 0.038982 0.312944
O O1 0.552435 0.124072 0.613860
O O2 0.059666 0.123266 0.646150
O O3 0.219798 0.012649 0.579750
O O4 0.403631 0.015146 0.678344
O O5 0.750000 0.250000 0.181324
O O6 0.750000 0.362406 0.250000
O O7 0.818289 0.382476 0.136009
O O8 0.393059 0.369392 0.182392
O O9 0.750000 0.250000 0.645679
O O10 0.567162 0.313855 0.555050
O O11 0.523881 0.617665 0.540657
O O12 0.683607 0.525649 0.630150
O O13 0.750000 0.250000 0.466046
O O14 0.250000 0.250000 0.481243
O O15 0.250000 0.022802 0.250000
#
# Coordination Sequence:
#
# PCOD9390660 Si02
#       6
#     8   8   8   8   8   8
#     4  11  24  43  71 105 127 179 220 279 340 408
#     4  10  21  36  57  90 132 187 240 275 310 370
#     4  11  23  47  72 100 131 169 220 280 355 418
#     4  11  24  40  63  98 136 183 227 275 323 393
#     4  11  26  43  67  98 141 185 222 278 333 388
#     4  11  23  43  64  97 142 183 226 278 338 389
#
# _framework density 22.41864
#
# number of rings (size 3 to 8) (size 9 to 14) (size 15 to 20)
#    0.000    1.167    3.333    3.000    7.000    1.333 
#    0.000    0.000    0.000    0.500    4.333    0.000 
#    0.000    0.000    0.000    0.000    0.000    0.000 
#
# Total GULP energy -267588.539372 kJ/mol
# GULP energy per Si atom -5574.761237 kJ/mol
# Density = 2.236761 g / cm^3
# Si number density = 22.418640 Si / 1000 Ang^3
#
#
#
# Elastic Constant Matrix: (Units=GPa)
#
#
# Indices 1 2 3 4 5 6 
#
# 1 141.1903 75.1826 11.8814 0.0000 0.0000 0.0000
# 2 75.1826 155.6819 16.8277 0.0000 0.0000 0.0000
# 3 11.8814 16.8277 24.3049 0.0000 0.0000 0.0000
# 4 0.0000 0.0000 0.0000 16.3496 0.0000 0.0000
# 5 0.0000 0.0000 0.0000 0.0000 17.7629 0.0000
# 6 0.0000 0.0000 0.0000 0.0000 0.0000 46.1999
#
#
#
# Elastic Compliance Matrix: (Units=1/GPa)
#
#
# Indices 1 2 3 4 5 6 
#
# 1 0.009592 -0.004459 -0.001602 0.000000 0.000000 0.000000
# 2 -0.004459 0.009016 -0.004062 0.000000 0.000000 0.000000
# 3 -0.001602 -0.004062 0.044740 0.000000 0.000000 0.000000
# 4 0.000000 0.000000 0.000000 0.061164 0.000000 0.000000
# 5 0.000000 0.000000 0.000000 0.000000 0.056297 0.000000
# 6 0.000000 0.000000 0.000000 0.000000 0.000000 0.021645
#
#
# Mechanical properties :
#
#
# Convention : Reuss Voigt Hill
#
# Bulk Modulus (GPa) = 23.20129 58.77338 40.98734
# Shear Modulus (GPa) = 21.09115 30.54817 25.81966
#
# Velocity S-wave (km/s) = 3.07055 3.69538 3.39736
# Velocity P-wave (km/s) = 4.78985 6.66941 5.80619
#
# Compressibility (1/GPa) = 0.04310105
#
# Stress axis : x y z
#
# Youngs Moduli (GPa) = 104.25574 110.91632 22.35153
#
# Poissons Ratio (x) = 0.49457 0.03580
# Poissons Ratio (y) = 0.46487 0.09080
# Poissons Ratio (z) = 0.16699 0.45059
#
# Static dielectric constant tensor:
#      x y z
#    x 2.026080 0.000000 0.000000 
#    y 0.000000 1.919270 0.000000 
#    z 0.000000 0.000000 1.822320 
# 
# From -- ./inp_files/37089.got.cif
#   From: 2010.05.17/outbox.cif.g08.bks.cpg/sg48_19_cif.got.tgz:37089.got - 2010.06.03 20:39:00.
