data_PCOD9390376
_publ_section_title
;
Structure prediction by ZEFSAII (Michael W. Deem and Ramdas Pophale) SiO2 
 PCOD9390376
Probable space group: P N N N
;
_chemical_formula_sum "Si O2"
_cell_formula_units_Z 48
_cell_length_a 9.238065
_cell_length_b 12.122961
_cell_length_c 22.119499
_cell_angle_alpha 90.000000
_cell_angle_beta 90.000000
_cell_angle_gamma 90.000000
_cell_volume 2477.222453
_symmetry_space_group_name_H-M "P N N N"
_symmetry_group_IT_number 48
_space_group.IT_coordinate_system_code '2'
_symmetry_cell_setting 'orthorhombic'
loop_
_space_group_symop_operation_xyz
x,y,z
1/2-x,1/2-y,z
x,1/2-y,1/2-z
1/2-x,y,1/2-z
-x,-y,-z
1/2+x,1/2+y,-z
-x,1/2+y,1/2+z
1/2+x,-y,1/2+z
loop_
_atom_site_type_symbol
_atom_site_label
_atom_site_fract_x
_atom_site_fract_y
_atom_site_fract_z
Si Si1 0.084888 0.375765 0.579979
Si Si2 0.420228 0.006655 0.317444
Si Si3 0.084888 0.375765 0.920021
Si Si4 0.078647 0.750000 0.984568
Si Si5 0.084520 0.250000 0.139063
Si Si6 0.420229 0.493345 0.317443
O O1 0.088412 0.250000 0.605598
O O2 0.250000 0.408748 0.566342
O O3 0.010623 0.452880 0.628808
O O4 0.991307 0.355358 0.519380
O O5 0.432230 0.138651 0.323223
O O6 0.250000 0.978487 0.324716
O O7 0.466058 0.971978 0.250000
O O8 0.010624 0.452881 0.871191
O O9 0.991307 0.355359 0.980620
O O10 0.250000 0.750000 0.990624
O O11 0.025757 0.749999 0.916306
O O12 0.250000 0.250000 0.114188
O O13 0.067771 0.361348 0.176777
#
# Coordination Sequence:
#
# PCOD9390376 Si02
#       6
#     8   8   8   8   8   8
#     4   9  20  38  58  84 115 147 185 231 286 336
#     4  10  21  37  59  85 114 151 191 230 274 330
#     4   9  20  38  58  84 115 147 185 231 286 336
#     4  10  20  37  60  86 112 144 189 235 281 336
#     4  10  21  38  58  83 117 152 187 230 279 331
#     4  10  21  37  59  85 114 151 191 230 274 330
#
# _framework density 19.376539000000001
#
# number of rings (size 3 to 8) (size 9 to 14) (size 15 to 20)
#    1.000    1.333    0.000    2.500    0.000    6.000 
#    0.000    3.333    0.000    3.000    0.000    0.000 
#    0.000    0.000    0.000    0.000    0.000    0.000 
#
# Total GULP energy -267614.486226 kJ/mol
# GULP energy per Si atom -5575.301796 kJ/mol
# Density = 1.933244 g / cm^3
# Si number density = 19.376539 Si / 1000 Ang^3
#
#
#
# Elastic Constant Matrix: (Units=GPa)
#
#
# Indices 1 2 3 4 5 6 
#
# 1 113.0303 8.0676 52.1840 0.0000 0.0000 0.0000
# 2 8.0676 22.2525 -9.0926 0.0000 0.0000 0.0000
# 3 52.1840 -9.0926 83.2318 0.0000 0.0000 0.0000
# 4 0.0000 0.0000 0.0000 10.3061 0.0000 0.0000
# 5 0.0000 0.0000 0.0000 0.0000 25.0606 0.0000
# 6 0.0000 0.0000 0.0000 0.0000 0.0000 24.6109
#
#
#
# Elastic Compliance Matrix: (Units=1/GPa)
#
#
# Indices 1 2 3 4 5 6 
#
# 1 0.014006 -0.009071 -0.009773 0.000000 0.000000 0.000000
# 2 -0.009071 0.052913 0.011468 0.000000 0.000000 0.000000
# 3 -0.009773 0.011468 0.019395 0.000000 0.000000 0.000000
# 4 0.000000 0.000000 0.000000 0.097030 0.000000 0.000000
# 5 0.000000 0.000000 0.000000 0.000000 0.039903 0.000000
# 6 0.000000 0.000000 0.000000 0.000000 0.000000 0.040632
#
#
# Mechanical properties :
#
#
# Convention : Reuss Voigt Hill
#
# Bulk Modulus (GPa) = 13.97379 35.64807 24.81093
# Shear Modulus (GPa) = 16.52969 23.15258 19.84114
#
# Velocity S-wave (km/s) = 2.92392 3.46045 3.20344
# Velocity P-wave (km/s) = 4.31583 5.86547 5.14928
#
# Compressibility (1/GPa) = 0.07156257
#
# Stress axis : x y z
#
# Youngs Moduli (GPa) = 71.39544 18.89879 51.56069
#
# Poissons Ratio (x) = 0.17144 0.50389
# Poissons Ratio (y) = 0.64764 -0.59129
# Poissons Ratio (z) = 0.69772 -0.21673
#
# Static dielectric constant tensor:
#      x y z
#    x 1.666330 0.000000 0.000000 
#    y 0.000000 1.700000 0.000000 
#    z 0.000000 0.000000 1.643750 
# 
# From -- ./inp_files/33496.got.cif
#   From: 2010.05.17/outbox.cif.g08.bks.cpg/sg48_17_cif.got.tgz:33496.got - 2010.06.03 20:39:00.
