data_PCOD9390248
_publ_section_title
;
Structure prediction by ZEFSAII (Michael W. Deem and Ramdas Pophale) SiO2 
 PCOD9390248
Probable space group: P N N N
;
_chemical_formula_sum "Si O2"
_cell_formula_units_Z 56
_cell_length_a 28.901389
_cell_length_b 5.077341
_cell_length_c 18.332140
_cell_angle_alpha 90.000000
_cell_angle_beta 90.000000
_cell_angle_gamma 90.000000
_cell_volume 2690.098689
_symmetry_space_group_name_H-M "P N N N"
_symmetry_group_IT_number 48
_space_group.IT_coordinate_system_code '2'
_symmetry_cell_setting 'orthorhombic'
loop_
_space_group_symop_operation_xyz
x,y,z
1/2-x,1/2-y,z
x,1/2-y,1/2-z
1/2-x,y,1/2-z
-x,-y,-z
1/2+x,1/2+y,-z
-x,1/2+y,1/2+z
1/2+x,-y,1/2+z
loop_
_atom_site_type_symbol
_atom_site_label
_atom_site_fract_x
_atom_site_fract_y
_atom_site_fract_z
Si Si1 0.947437 0.181185 0.859757
Si Si2 0.851322 0.076310 0.471239
Si Si3 0.703854 0.911773 0.468215
Si Si4 0.347659 0.592482 0.353208
Si Si5 0.542337 0.196891 0.022852
Si Si6 0.704226 0.594594 0.854638
Si Si7 0.998887 0.205498 0.326400
O O1 0.898114 0.297212 0.837243
O O2 0.984848 0.405995 0.838738
O O3 0.957775 0.904521 0.822867
O O4 0.949363 0.141089 0.948078
O O5 0.815141 0.301469 0.443859
O O6 0.845363 0.086336 0.558652
O O7 0.906060 0.097545 0.459654
O O8 0.836273 0.789309 0.446840
O O9 0.750000 0.750000 0.444889
O O10 0.707691 0.927719 0.556747
O O11 0.336618 0.294721 0.332948
O O12 0.309034 0.803897 0.329248
O O13 0.526688 0.307047 0.100856
O O14 0.500000 0.000000 0.000000
O O15 0.750000 0.750000 0.831579
O O16 0.973234 0.250000 0.250000
#
# Coordination Sequence:
#
# PCOD9390248 Si02
#       7
#     8   8   8   8   8   8   8
#     4  10  20  35  53  73 100 136 174 207 248 300
#     4   9  17  27  43  66  93 129 169 201 244 303
#     4   9  16  26  40  62  95 130 161 201 252 300
#     4   9  16  26  41  62  90 124 161 198 236 292
#     4   9  20  35  54  77 106 142 177 213 256 309
#     4   9  15  23  37  61  94 125 151 191 250 299
#     4  11  22  36  53  75 103 132 168 212 256 299
#
# _framework density 20.817079
#
# number of rings (size 3 to 8) (size 9 to 14) (size 15 to 20)
#    0.000    2.571    0.000    2.571    0.000   12.571 
#    0.000    0.000    0.000    0.000    0.000    0.000 
#    0.000   43.429    0.000    9.286    0.000    6.571 
#
# Total GULP energy -311907.061090 kJ/mol
# GULP energy per Si atom -5569.768948 kJ/mol
# Density = 2.076970 g / cm^3
# Si number density = 20.817079 Si / 1000 Ang^3
#
#
#
# Elastic Constant Matrix: (Units=GPa)
#
#
# Indices 1 2 3 4 5 6 
#
# 1 47.8883 -27.9954 3.2296 0.0000 0.0000 0.0000
# 2 -27.9954 42.6838 -5.1990 0.0000 0.0000 0.0000
# 3 3.2296 -5.1990 73.9297 0.0000 0.0000 0.0000
# 4 0.0000 0.0000 0.0000 7.6192 0.0000 0.0000
# 5 0.0000 0.0000 0.0000 0.0000 -42.2729 0.0000
# 6 0.0000 0.0000 0.0000 0.0000 0.0000 10.9613
#
#
#
# Elastic Compliance Matrix: (Units=1/GPa)
#
#
# Indices 1 2 3 4 5 6 
#
# 1 0.033868 0.022224 0.000083 0.000000 0.000000 0.000000
# 2 0.022224 0.038213 0.001716 0.000000 0.000000 0.000000
# 3 0.000083 0.001716 0.013643 0.000000 0.000000 0.000000
# 4 0.000000 0.000000 0.000000 0.131248 0.000000 0.000000
# 5 0.000000 0.000000 0.000000 0.000000 -0.023656 0.000000
# 6 0.000000 0.000000 0.000000 0.000000 0.000000 0.091230
#
#
# Mechanical properties :
#
#
# Convention : Reuss Voigt Hill
#
# Bulk Modulus (GPa) = 7.47542 11.61912 9.54727
# Shear Modulus (GPa) = 17.78789 8.22596 13.00693
#
# Velocity S-wave (km/s) = 2.92633 1.99001 2.50235
# Velocity P-wave (km/s) = 3.87514 3.29755 3.59795
#
# Compressibility (1/GPa) = 0.13377167
#
# Stress axis : x y z
#
# Youngs Moduli (GPa) = 29.52625 26.16895 73.29531
#
# Poissons Ratio (x) = -0.58157 -0.00611
# Poissons Ratio (y) = -0.65618 -0.12581
# Poissons Ratio (z) = -0.00246 -0.04492
#
# Static dielectric constant tensor:
#      x y z
#    x 1.569840 0.000000 0.000000 
#    y 0.000000 1.785640 0.000000 
#    z 0.000000 0.000000 1.788630 
# 
# From -- ./inp_files/35022.got.cif
#   From: 2010.05.17/outbox.cif.g08.bks.cpg/sg48_18_cif.got.tgz:35022.got - 2010.06.03 20:39:00.
