data_PCOD9390534
_publ_section_title
;
Structure prediction by ZEFSAII (Michael W. Deem and Ramdas Pophale) SiO2 
 PCOD9390534
Probable space group: P N N N
;
_chemical_formula_sum "Si O2"
_cell_formula_units_Z 60
_cell_length_a 19.110779
_cell_length_b 5.168344
_cell_length_c 32.198847
_cell_angle_alpha 90.000000
_cell_angle_beta 90.000000
_cell_angle_gamma 90.000000
_cell_volume 3180.314892
_symmetry_space_group_name_H-M "P N N N"
_symmetry_group_IT_number 48
_space_group.IT_coordinate_system_code '2'
_symmetry_cell_setting 'orthorhombic'
loop_
_space_group_symop_operation_xyz
x,y,z
1/2-x,1/2-y,z
x,1/2-y,1/2-z
1/2-x,y,1/2-z
-x,-y,-z
1/2+x,1/2+y,-z
-x,1/2+y,1/2+z
1/2+x,-y,1/2+z
loop_
_atom_site_type_symbol
_atom_site_label
_atom_site_fract_x
_atom_site_fract_y
_atom_site_fract_z
Si Si1 0.176672 0.904906 0.866101
Si Si2 0.176738 0.982921 0.500450
Si Si3 0.206783 0.502394 0.094896
Si Si4 0.250000 0.250000 0.925825
Si Si5 0.403366 0.505575 0.998930
Si Si6 0.052241 0.785827 0.414725
Si Si7 0.329538 0.499886 0.768981
Si Si8 0.536120 0.308955 0.088987
O O1 0.250000 0.750000 0.869618
O O2 0.105758 0.777409 0.883016
O O3 0.189653 0.144404 0.896334
O O4 0.171931 0.988755 0.818268
O O5 0.209063 0.021303 0.455238
O O6 0.213649 0.056898 0.542725
O O7 0.112460 0.199741 0.498534
O O8 0.165977 0.676464 0.504963
O O9 0.250000 0.250000 0.110508
O O10 0.125042 0.585384 0.102066
O O11 0.250000 0.750000 0.108574
O O12 0.442948 0.588071 0.957093
O O13 0.430894 0.650374 0.040533
O O14 0.014258 0.538571 0.392928
O O15 0.000864 0.031854 0.416514
O O16 0.364493 0.250000 0.750000
O O17 0.250000 0.499898 0.750000
O O18 0.364771 0.750000 0.750000
#
# Coordination Sequence:
#
# PCOD9390534 Si02
#       8
#     8   8   8   4   8   8   8   8
#     4  12  26  39  62  83 115 151 192 247 297 341
#     4  11  22  33  51  75 101 131 180 249 295 334
#     4  11  21  37  59  77  97 137 194 239 284 336
#     4  12  24  34  51  78 116 132 184 248 310 330
#     4  11  21  39  51  68 100 148 189 226 287 363
#     4  11  24  38  56  75 108 145 184 241 292 346
#     4  10  20  40  62  84 107 137 187 238 272 346
#     4  12  24  39  52  80 110 144 187 232 298 352
#
# _framework density 18.866056
#
# number of rings (size 3 to 8) (size 9 to 14) (size 15 to 20)
#    0.000    0.800    3.333    7.200    1.867    0.000 
#    0.000    0.000    0.000    0.000    0.000    0.000 
#    0.000    0.000    0.000    0.000    0.000   46.667 
#
# Total GULP energy -334209.627247 kJ/mol
# GULP energy per Si atom -5570.160454 kJ/mol
# Density = 1.882312 g / cm^3
# Si number density = 18.866056 Si / 1000 Ang^3
#
#
#
# Elastic Constant Matrix: (Units=GPa)
#
#
# Indices 1 2 3 4 5 6 
#
# 1 97.9149 41.6045 34.2398 0.0000 0.0000 0.0000
# 2 41.6045 122.0890 19.2694 0.0000 0.0000 0.0000
# 3 34.2398 19.2694 47.9670 0.0000 0.0000 0.0000
# 4 0.0000 0.0000 0.0000 18.7539 0.0000 0.0000
# 5 0.0000 0.0000 0.0000 0.0000 4.9982 0.0000
# 6 0.0000 0.0000 0.0000 0.0000 0.0000 40.6620
#
#
#
# Elastic Compliance Matrix: (Units=1/GPa)
#
#
# Indices 1 2 3 4 5 6 
#
# 1 0.014995 -0.003652 -0.009236 0.000000 0.000000 0.000000
# 2 -0.003652 0.009635 -0.001264 0.000000 0.000000 0.000000
# 3 -0.009236 -0.001264 0.027948 0.000000 0.000000 0.000000
# 4 0.000000 0.000000 0.000000 0.053322 0.000000 0.000000
# 5 0.000000 0.000000 0.000000 0.000000 0.200072 0.000000
# 6 0.000000 0.000000 0.000000 0.000000 0.000000 0.024593
#
#
# Mechanical properties :
#
#
# Convention : Reuss Voigt Hill
#
# Bulk Modulus (GPa) = 41.19676 50.91094 46.05385
# Shear Modulus (GPa) = 13.62549 24.40663 19.01606
#
# Velocity S-wave (km/s) = 2.69033 3.60068 3.17827
# Velocity P-wave (km/s) = 5.61555 6.65812 6.15893
#
# Compressibility (1/GPa) = 0.02427375
#
# Stress axis : x y z
#
# Youngs Moduli (GPa) = 66.69101 103.79195 35.78028
#
# Poissons Ratio (x) = 0.37904 0.33048
# Poissons Ratio (y) = 0.24355 0.04521
# Poissons Ratio (z) = 0.61598 0.13115
#
# Static dielectric constant tensor:
#      x y z
#    x 1.634050 0.000000 0.000000 
#    y 0.000000 1.745590 0.000000 
#    z 0.000000 0.000000 1.603500 
# 
# From -- ./inp_files/39175.got.cif
#   From: 2010.05.17/outbox.cif.g08.bks.cpg/sg48_20_cif.got.tgz:39175.got - 2010.06.03 20:39:00.
