data_PCOD9390924
_publ_section_title
;
Structure prediction by ZEFSAII (Michael W. Deem and Ramdas Pophale) SiO2 
 PCOD9390924
Probable space group: P N N N
;
_chemical_formula_sum "Si O2"
_cell_formula_units_Z 58
_cell_length_a 17.740096
_cell_length_b 18.271769
_cell_length_c 8.926344
_cell_angle_alpha 90.000000
_cell_angle_beta 90.000000
_cell_angle_gamma 90.000000
_cell_volume 2893.411353
_symmetry_space_group_name_H-M "P N N N"
_symmetry_group_IT_number 48
_space_group.IT_coordinate_system_code '2'
_symmetry_cell_setting 'orthorhombic'
loop_
_space_group_symop_operation_xyz
x,y,z
1/2-x,1/2-y,z
x,1/2-y,1/2-z
1/2-x,y,1/2-z
-x,-y,-z
1/2+x,1/2+y,-z
-x,1/2+y,1/2+z
1/2+x,-y,1/2+z
loop_
_atom_site_type_symbol
_atom_site_label
_atom_site_fract_x
_atom_site_fract_y
_atom_site_fract_z
Si Si1 0.482529 0.777744 0.579359
Si Si2 0.048604 0.072445 0.012982
Si Si3 0.111464 0.945988 0.444655
Si Si4 0.163975 0.088118 0.281913
Si Si5 0.378076 0.189934 0.973237
Si Si6 0.667178 0.280256 0.579695
Si Si7 0.750000 0.750000 0.250000
Si Si8 0.553981 0.550077 0.318764
O O1 0.488342 0.750000 0.750000
O O2 0.491256 0.863955 0.560044
O O3 0.554602 0.748161 0.484683
O O4 0.403215 0.751114 0.513377
O O5 0.080640 0.073718 0.845239
O O6 0.113046 0.074900 0.136756
O O7 0.000000 0.000000 0.000000
O O8 0.155157 0.868789 0.432677
O O9 0.036169 0.945157 0.341350
O O10 0.157111 0.015147 0.383313
O O11 0.082276 0.972866 0.610055
O O12 0.250000 0.095173 0.250000
O O13 0.143565 0.164940 0.360240
O O14 0.308341 0.209762 0.864988
O O15 0.415607 0.115271 0.918808
O O16 0.750000 0.250000 0.530341
O O17 0.658907 0.250000 0.750000
#
# Coordination Sequence:
#
# PCOD9390924 Si02
#       8
#     8   8   8   8   8   8   2   8
#     4  12  26  44  72 101 145 187 239 295 370 439
#     4  12  25  41  69 106 130 185 238 288 350 444
#     4  10  21  43  70  97 135 184 229 303 357 428
#     4  11  26  43  67 101 148 180 228 301 367 422
#     4  11  25  46  67 103 139 185 229 292 352 431
#     4  11  26  44  73 103 138 185 243 305 367 434
#     4  12  28  40  78 104 150 180 248 284 360 440
#     4  10  21  41  74  95 133 178 244 284 354 425
#
# _framework density 20.045542000000001
#
# number of rings (size 3 to 8) (size 9 to 14) (size 15 to 20)
#    0.000    0.966    4.138    1.655    8.690    0.276 
#    0.000    0.000    3.034    0.000    0.000    0.000 
#    0.000    0.000    0.000    0.000    0.000    0.000 
#
# Total GULP energy -323351.053483 kJ/mol
# GULP energy per Si atom -5575.018164 kJ/mol
# Density = 1.999992 g / cm^3
# Si number density = 20.045542 Si / 1000 Ang^3
#
#
#
# Elastic Constant Matrix: (Units=GPa)
#
#
# Indices 1 2 3 4 5 6 
#
# 1 120.3237 31.5005 31.0754 0.0000 0.0000 0.0000
# 2 31.5005 114.3828 24.9998 0.0000 0.0000 0.0000
# 3 31.0754 24.9998 94.8588 0.0000 0.0000 0.0000
# 4 0.0000 0.0000 0.0000 31.4568 0.0000 0.0000
# 5 0.0000 0.0000 0.0000 0.0000 6.2879 0.0000
# 6 0.0000 0.0000 0.0000 0.0000 0.0000 48.8996
#
#
#
# Elastic Compliance Matrix: (Units=1/GPa)
#
#
# Indices 1 2 3 4 5 6 
#
# 1 0.009515 -0.002058 -0.002575 0.000000 0.000000 0.000000
# 2 -0.002058 0.009722 -0.001888 0.000000 0.000000 0.000000
# 3 -0.002575 -0.001888 0.011883 0.000000 0.000000 0.000000
# 4 0.000000 0.000000 0.000000 0.031790 0.000000 0.000000
# 5 0.000000 0.000000 0.000000 0.000000 0.159036 0.000000
# 6 0.000000 0.000000 0.000000 0.000000 0.000000 0.020450
#
#
# Mechanical properties :
#
#
# Convention : Reuss Voigt Hill
#
# Bulk Modulus (GPa) = 55.31344 56.07962 55.69653
# Shear Modulus (GPa) = 19.12320 33.46150 26.29235
#
# Velocity S-wave (km/s) = 3.09202 4.09011 3.62557
# Velocity P-wave (km/s) = 6.35620 7.09522 6.73585
#
# Compressibility (1/GPa) = 0.01807879
#
# Stress axis : x y z
#
# Youngs Moduli (GPa) = 105.10261 102.86080 84.15349
#
# Poissons Ratio (x) = 0.21164 0.21667
# Poissons Ratio (y) = 0.21625 0.15889
# Poissons Ratio (z) = 0.27060 0.19422
#
# Static dielectric constant tensor:
#      x y z
#    x 1.639740 0.000000 0.000000 
#    y 0.000000 1.711650 0.000000 
#    z 0.000000 0.000000 1.184900 
# 
# From -- ./inp_files/14440.got.cif
#   From: 2010.05.17/outbox.cif.g08.bks.cpg/sg48_8_cif.got.tgz:14440.got - 2010.06.03 20:39:00.
