data_PCOD9390291
_publ_section_title
;
Structure prediction by ZEFSAII (Michael W. Deem and Ramdas Pophale) SiO2 
 PCOD9390291
Probable space group: P N N N
;
_chemical_formula_sum "Si O2"
_cell_formula_units_Z 40
_cell_length_a 16.493669
_cell_length_b 7.458983
_cell_length_c 14.843305
_cell_angle_alpha 90.000000
_cell_angle_beta 90.000000
_cell_angle_gamma 90.000000
_cell_volume 1826.112392
_symmetry_space_group_name_H-M "P N N N"
_symmetry_group_IT_number 48
_space_group.IT_coordinate_system_code '2'
_symmetry_cell_setting 'orthorhombic'
loop_
_space_group_symop_operation_xyz
x,y,z
1/2-x,1/2-y,z
x,1/2-y,1/2-z
1/2-x,y,1/2-z
-x,-y,-z
1/2+x,1/2+y,-z
-x,1/2+y,1/2+z
1/2+x,-y,1/2+z
loop_
_atom_site_type_symbol
_atom_site_label
_atom_site_fract_x
_atom_site_fract_y
_atom_site_fract_z
Si Si1 0.680097 0.891225 0.972333
Si Si2 0.595198 0.120773 0.826902
Si Si3 0.962684 0.654600 0.437956
Si Si4 0.441165 0.958754 0.742204
Si Si5 0.210316 0.446762 0.838783
O O1 0.750000 0.750000 0.949756
O O2 0.656052 0.010106 0.887825
O O3 0.601571 0.777667 0.007973
O O4 0.711308 0.009505 0.058165
O O5 0.630952 0.250000 0.750000
O O6 0.536345 0.230871 0.895052
O O7 0.533113 0.994005 0.771611
O O8 0.923800 0.544089 0.354707
O O9 0.000000 0.500000 0.500000
O O10 0.423266 0.750000 0.750000
O O11 0.383437 0.060569 0.811757
O O12 0.250000 0.250000 0.843616
O O13 0.250000 0.536729 0.750000
#
# Coordination Sequence:
#
# PCOD9390291 Si02
#       5
#     8   8   8   8   8
#     4  11  22  40  70  97 135 183 227 291 351 416
#     4  10  23  42  67  97 133 182 236 286 341 416
#     4  11  22  37  66  99 132 178 227 282 339 414
#     4  11  22  37  63  97 137 179 223 277 337 417
#     4  10  20  35  61  93 138 175 211 266 361 414
#
# _framework density 21.904458000000002
#
# number of rings (size 3 to 8) (size 9 to 14) (size 15 to 20)
#    0.000    1.400    2.000    5.400    5.600    0.400 
#    0.000    1.000    0.000   21.000    0.000    0.000 
#    0.000    0.000    0.000    0.000    0.000    0.000 
#
# Total GULP energy -223417.905347 kJ/mol
# GULP energy per Si atom -5585.447634 kJ/mol
# Density = 2.185460 g / cm^3
# Si number density = 21.904458 Si / 1000 Ang^3
#
#
#
# Elastic Constant Matrix: (Units=GPa)
#
#
# Indices 1 2 3 4 5 6 
#
# 1 67.4102 36.6046 69.0256 0.0000 0.0000 0.0000
# 2 36.6046 108.3567 70.3263 0.0000 0.0000 0.0000
# 3 69.0256 70.3263 156.1954 0.0000 0.0000 0.0000
# 4 0.0000 0.0000 0.0000 33.2846 0.0000 0.0000
# 5 0.0000 0.0000 0.0000 0.0000 40.8862 0.0000
# 6 0.0000 0.0000 0.0000 0.0000 0.0000 25.4930
#
#
#
# Elastic Compliance Matrix: (Units=1/GPa)
#
#
# Indices 1 2 3 4 5 6 
#
# 1 0.027391 -0.001974 -0.011216 0.000000 0.000000 0.000000
# 2 -0.001974 0.013181 -0.005063 0.000000 0.000000 0.000000
# 3 -0.011216 -0.005063 0.013638 0.000000 0.000000 0.000000
# 4 0.000000 0.000000 0.000000 0.030044 0.000000 0.000000
# 5 0.000000 0.000000 0.000000 0.000000 0.024458 0.000000
# 6 0.000000 0.000000 0.000000 0.000000 0.000000 0.039226
#
#
# Mechanical properties :
#
#
# Convention : Reuss Voigt Hill
#
# Bulk Modulus (GPa) = 56.47802 75.98614 66.23208
# Shear Modulus (GPa) = 26.26804 30.33315 28.30059
#
# Velocity S-wave (km/s) = 3.46672 3.72532 3.59834
# Velocity P-wave (km/s) = 6.47024 7.29857 6.89685
#
# Compressibility (1/GPa) = 0.01770600
#
# Stress axis : x y z
#
# Youngs Moduli (GPa) = 36.50840 75.86520 73.32356
#
# Poissons Ratio (x) = 0.14973 0.82239
# Poissons Ratio (y) = 0.07206 0.37121
# Poissons Ratio (z) = 0.40948 0.38408
#
# Static dielectric constant tensor:
#      x y z
#    x 1.831990 0.000000 0.000000 
#    y 0.000000 1.807760 0.000000 
#    z 0.000000 0.000000 1.845510 
# 
# From -- ./inp_files/27055.got.cif
#   From: 2010.05.17/outbox.cif.g08.bks.cpg/sg48_14_cif.got.tgz:27055.got - 2010.06.03 20:39:00.
