data_PCOD9390494
_publ_section_title
;
Structure prediction by ZEFSAII (Michael W. Deem and Ramdas Pophale) SiO2 
 PCOD9390494
Probable space group: P N N N
;
_chemical_formula_sum "Si O2"
_cell_formula_units_Z 30
_cell_length_a 6.941519
_cell_length_b 8.973296
_cell_length_c 18.602175
_cell_angle_alpha 90.000000
_cell_angle_beta 90.000000
_cell_angle_gamma 90.000000
_cell_volume 1158.697944
_symmetry_space_group_name_H-M "P N N N"
_symmetry_group_IT_number 48
_space_group.IT_coordinate_system_code '2'
_symmetry_cell_setting 'orthorhombic'
loop_
_space_group_symop_operation_xyz
x,y,z
1/2-x,1/2-y,z
x,1/2-y,1/2-z
1/2-x,y,1/2-z
-x,-y,-z
1/2+x,1/2+y,-z
-x,1/2+y,1/2+z
1/2+x,-y,1/2+z
loop_
_atom_site_type_symbol
_atom_site_label
_atom_site_fract_x
_atom_site_fract_y
_atom_site_fract_z
Si Si1 0.627475 0.601730 0.682974
Si Si2 0.087973 0.040123 0.922871
Si Si3 0.023006 0.648314 0.073391
Si Si4 0.750000 0.250000 0.063377
Si Si5 0.750000 0.250000 0.250000
O O1 0.750000 0.750000 0.662551
O O2 0.750000 0.539556 0.750000
O O3 0.617230 0.482239 0.619805
O O4 0.411690 0.643414 0.710287
O O5 0.127155 0.873421 0.893338
O O6 0.301152 0.104270 0.930624
O O7 0.971787 0.183152 0.893298
O O8 0.000000 0.000000 0.000000
O O9 0.107585 0.669004 0.993418
#
# Coordination Sequence:
#
# PCOD9390494 Si02
#       5
#     8   8   8   4   2
#     4   9  20  43  69 102 134 179 236 292 355 429
#     4   9  20  39  61  93 135 174 225 275 338 412
#     4  10  20  40  63  96 134 175 229 281 355 408
#     4  10  20  39  61  90 142 179 223 284 332 436
#     4   8  18  42  68  96 132 174 232 288 356 404
#
# _framework density 25.891128999999999
#
# number of rings (size 3 to 8) (size 9 to 14) (size 15 to 20)
#    0.000    2.933    0.000    0.800    0.000    1.067 
#   48.000    0.667    0.000    0.000    0.000    0.000 
#    0.000    0.000    0.000    0.000    0.000    0.000 
#
# Total GULP energy -167425.419336 kJ/mol
# GULP energy per Si atom -5580.847311 kJ/mol
# Density = 2.583220 g / cm^3
# Si number density = 25.891129 Si / 1000 Ang^3
#
#
#
# Elastic Constant Matrix: (Units=GPa)
#
#
# Indices 1 2 3 4 5 6 
#
# 1 166.7018 47.9408 51.8754 0.0000 0.0000 0.0000
# 2 47.9408 220.2228 70.9958 0.0000 0.0000 0.0000
# 3 51.8754 70.9958 73.1286 0.0000 0.0000 0.0000
# 4 0.0000 0.0000 0.0000 45.7623 0.0000 0.0000
# 5 0.0000 0.0000 0.0000 0.0000 61.4815 0.0000
# 6 0.0000 0.0000 0.0000 0.0000 0.0000 65.8569
#
#
#
# Elastic Compliance Matrix: (Units=1/GPa)
#
#
# Indices 1 2 3 4 5 6 
#
# 1 0.007700 0.000123 -0.005582 0.000000 0.000000 0.000000
# 2 0.000123 0.006611 -0.006506 0.000000 0.000000 0.000000
# 3 -0.005582 -0.006506 0.023951 0.000000 0.000000 0.000000
# 4 0.000000 0.000000 0.000000 0.021852 0.000000 0.000000
# 5 0.000000 0.000000 0.000000 0.000000 0.016265 0.000000
# 6 0.000000 0.000000 0.000000 0.000000 0.000000 0.015184
#
#
# Mechanical properties :
#
#
# Convention : Reuss Voigt Hill
#
# Bulk Modulus (GPa) = 69.77073 89.07523 79.42298
# Shear Modulus (GPa) = 41.57272 53.90292 47.73782
#
# Velocity S-wave (km/s) = 4.01143 4.56774 4.29860
# Velocity P-wave (km/s) = 6.96144 7.89287 7.44175
#
# Compressibility (1/GPa) = 0.01433266
#
# Stress axis : x y z
#
# Youngs Moduli (GPa) = 129.86419 151.25257 41.75264
#
# Poissons Ratio (x) = -0.01864 0.23307
# Poissons Ratio (y) = -0.01601 0.27164
# Poissons Ratio (z) = 0.72491 0.98406
#
# Static dielectric constant tensor:
#      x y z
#    x 2.093940 0.000000 0.000000 
#    y 0.000000 2.193260 0.000000 
#    z 0.000000 0.000000 2.080250 
# 
# From -- ./inp_files/4899.got.cif
#   From: 2010.05.17/outbox.cif.g08.bks.cpg/sg48_3_cif.got.tgz:4899.got - 2010.06.03 20:39:00.
