data_PCOD9390453
_publ_section_title
;
Structure prediction by ZEFSAII (Michael W. Deem and Ramdas Pophale) SiO2 
 PCOD9390453
Probable space group: P N N N
;
_chemical_formula_sum "Si O2"
_cell_formula_units_Z 54
_cell_length_a 11.457467
_cell_length_b 15.847589
_cell_length_c 14.092801
_cell_angle_alpha 90.000000
_cell_angle_beta 90.000000
_cell_angle_gamma 90.000000
_cell_volume 2558.875369
_symmetry_space_group_name_H-M "P N N N"
_symmetry_group_IT_number 48
_space_group.IT_coordinate_system_code '2'
_symmetry_cell_setting 'orthorhombic'
loop_
_space_group_symop_operation_xyz
x,y,z
1/2-x,1/2-y,z
x,1/2-y,1/2-z
1/2-x,y,1/2-z
-x,-y,-z
1/2+x,1/2+y,-z
-x,1/2+y,1/2+z
1/2+x,-y,1/2+z
loop_
_atom_site_type_symbol
_atom_site_label
_atom_site_fract_x
_atom_site_fract_y
_atom_site_fract_z
Si Si1 0.750000 0.012836 0.750000
Si Si2 0.307515 0.430143 0.647921
Si Si3 0.758187 0.107096 0.118092
Si Si4 0.981463 0.955247 0.848910
Si Si5 0.419471 0.381385 0.952749
Si Si6 0.003574 0.287953 0.853384
Si Si7 0.725665 0.346353 0.589663
Si Si8 0.250000 0.750000 0.750000
O O1 0.754019 0.077438 0.661368
O O2 0.875069 0.964111 0.771366
O O3 0.250000 0.440198 0.750000
O O4 0.326632 0.526247 0.615491
O O5 0.214718 0.395111 0.573486
O O6 0.402124 0.359413 0.665722
O O7 0.698274 0.183273 0.174882
O O8 0.884890 0.081289 0.164882
O O9 0.784348 0.135810 0.010841
O O10 0.935688 0.899728 0.936843
O O11 0.008848 0.048322 0.892178
O O12 0.455306 0.290846 0.914802
O O13 0.966630 0.250000 0.750000
O O14 0.912117 0.338438 0.917212
O O15 0.750000 0.250000 0.623494
#
# Coordination Sequence:
#
# PCOD9390453 Si02
#       8
#     4   8   8   8   8   8   8   2
#     4  12  23  38  66 103 136 176 220 280 359 425
#     4  11  22  38  61  96 134 179 225 271 349 431
#     4  11  25  45  70  94 131 181 235 285 347 425
#     4  10  22  42  67  91 131 182 228 274 350 425
#     4  10  20  38  63  92 132 188 221 266 349 432
#     4  12  23  36  64 102 144 177 221 297 358 409
#     4  12  24  40  65 103 136 173 232 292 349 412
#     4  12  24  44  72  92 122 176 236 280 328 428
#
# _framework density 21.103020999999998
#
# number of rings (size 3 to 8) (size 9 to 14) (size 15 to 20)
#    0.000    0.889    2.963    6.889    2.074    0.593 
#    0.000    1.481    3.259    0.000    0.000    0.000 
#    0.000    0.000    0.000    0.000    0.000    0.000 
#
# Total GULP energy -300731.915822 kJ/mol
# GULP energy per Si atom -5569.109552 kJ/mol
# Density = 2.105499 g / cm^3
# Si number density = 21.103021 Si / 1000 Ang^3
#
#
#
# Elastic Constant Matrix: (Units=GPa)
#
#
# Indices 1 2 3 4 5 6 
#
# 1 53.0196 34.0050 31.5963 0.0000 0.0000 0.0000
# 2 34.0050 103.2560 37.6696 0.0000 0.0000 0.0000
# 3 31.5963 37.6696 85.4954 0.0000 0.0000 0.0000
# 4 0.0000 0.0000 0.0000 13.4821 0.0000 0.0000
# 5 0.0000 0.0000 0.0000 0.0000 29.4545 0.0000
# 6 0.0000 0.0000 0.0000 0.0000 0.0000 7.2559
#
#
#
# Elastic Compliance Matrix: (Units=1/GPa)
#
#
# Indices 1 2 3 4 5 6 
#
# 1 0.027257 -0.006317 -0.007290 0.000000 0.000000 0.000000
# 2 -0.006317 0.013004 -0.003395 0.000000 0.000000 0.000000
# 3 -0.007290 -0.003395 0.015886 0.000000 0.000000 0.000000
# 4 0.000000 0.000000 0.000000 0.074173 0.000000 0.000000
# 5 0.000000 0.000000 0.000000 0.000000 0.033951 0.000000
# 6 0.000000 0.000000 0.000000 0.000000 0.000000 0.137820
#
#
# Mechanical properties :
#
#
# Convention : Reuss Voigt Hill
#
# Bulk Modulus (GPa) = 45.16045 49.81254 47.48649
# Shear Modulus (GPa) = 14.55713 19.27182 16.91448
#
# Velocity S-wave (km/s) = 2.62928 3.02524 2.83418
# Velocity P-wave (km/s) = 5.53750 5.98819 5.76725
#
# Compressibility (1/GPa) = 0.02214327
#
# Stress axis : x y z
#
# Youngs Moduli (GPa) = 36.68813 76.90235 62.94668
#
# Poissons Ratio (x) = 0.48578 0.45888
# Poissons Ratio (y) = 0.23175 0.21370
# Poissons Ratio (z) = 0.26746 0.26107
#
# Static dielectric constant tensor:
#      x y z
#    x 2.245420 0.000000 0.000000 
#    y 0.000000 1.887130 0.000000 
#    z 0.000000 0.000000 1.674510 
# 
# From -- ./inp_files/26562.got.cif
#   From: 2010.05.17/outbox.cif.g08.bks.cpg/sg48_14_cif.got.tgz:26562.got - 2010.06.03 20:39:00.
