data_PCOD9390430
_publ_section_title
;
Structure prediction by ZEFSAII (Michael W. Deem and Ramdas Pophale) SiO2 
 PCOD9390430
Probable space group: P N N N
;
_chemical_formula_sum "Si O2"
_cell_formula_units_Z 40
_cell_length_a 7.938994
_cell_length_b 25.301283
_cell_length_c 9.175296
_cell_angle_alpha 90.000000
_cell_angle_beta 90.000000
_cell_angle_gamma 90.000000
_cell_volume 1843.011740
_symmetry_space_group_name_H-M "P N N N"
_symmetry_group_IT_number 48
_space_group.IT_coordinate_system_code '2'
_symmetry_cell_setting 'orthorhombic'
loop_
_space_group_symop_operation_xyz
x,y,z
1/2-x,1/2-y,z
x,1/2-y,1/2-z
1/2-x,y,1/2-z
-x,-y,-z
1/2+x,1/2+y,-z
-x,1/2+y,1/2+z
1/2+x,-y,1/2+z
loop_
_atom_site_type_symbol
_atom_site_label
_atom_site_fract_x
_atom_site_fract_y
_atom_site_fract_z
Si Si1 0.617335 0.296880 0.572006
Si Si2 0.556443 0.440221 0.508582
Si Si3 0.133411 0.616584 0.559268
Si Si4 0.948197 0.623971 0.274562
Si Si5 0.425845 0.155614 0.170077
O O1 0.750000 0.250000 0.588078
O O2 0.737651 0.343126 0.514998
O O3 0.523533 0.319847 0.714837
O O4 0.481121 0.296870 0.439251
O O5 0.500000 0.500000 0.500000
O O6 0.743826 0.434052 0.438614
O O7 0.541848 0.419680 0.674988
O O8 0.433163 0.398642 0.424777
O O9 0.985953 0.612265 0.442019
O O10 0.062666 0.642095 0.705420
O O11 0.750000 0.623772 0.250000
O O12 0.250000 0.164787 0.250000
#
# Coordination Sequence:
#
# PCOD9390430 Si02
#       5
#     8   8   8   8   8
#     4  10  21  39  61  85 115 158 202 246 307 375
#     4  10  21  37  59  89 121 166 211 243 300 377
#     4  10  20  38  60  84 120 158 194 249 305 360
#     4  10  21  39  60  87 123 160 199 256 311 363
#     4  10  21  39  60  87 123 160 199 256 311 363
#
# _framework density 21.703606000000001
#
# number of rings (size 3 to 8) (size 9 to 14) (size 15 to 20)
#    0.000    2.400    0.000    7.200    0.000    6.400 
#    0.000    9.000    0.000    0.000    0.000    0.000 
#    0.000    0.000    0.000    0.000    0.000    0.000 
#
# Total GULP energy -222999.403292 kJ/mol
# GULP energy per Si atom -5574.985082 kJ/mol
# Density = 2.165421 g / cm^3
# Si number density = 21.703606 Si / 1000 Ang^3
#
#
#
# Elastic Constant Matrix: (Units=GPa)
#
#
# Indices 1 2 3 4 5 6 
#
# 1 126.8909 25.6613 25.7614 0.0000 0.0000 0.0000
# 2 25.6613 75.6927 7.7680 0.0000 0.0000 0.0000
# 3 25.7614 7.7680 105.6755 0.0000 0.0000 0.0000
# 4 0.0000 0.0000 0.0000 9.4494 0.0000 0.0000
# 5 0.0000 0.0000 0.0000 0.0000 48.8172 0.0000
# 6 0.0000 0.0000 0.0000 0.0000 0.0000 25.5604
#
#
#
# Elastic Compliance Matrix: (Units=1/GPa)
#
#
# Indices 1 2 3 4 5 6 
#
# 1 0.008842 -0.002798 -0.001950 0.000000 0.000000 0.000000
# 2 -0.002798 0.014197 -0.000362 0.000000 0.000000 0.000000
# 3 -0.001950 -0.000362 0.009965 0.000000 0.000000 0.000000
# 4 0.000000 0.000000 0.000000 0.105826 0.000000 0.000000
# 5 0.000000 0.000000 0.000000 0.000000 0.020485 0.000000
# 6 0.000000 0.000000 0.000000 0.000000 0.000000 0.039123
#
#
# Mechanical properties :
#
#
# Convention : Reuss Voigt Hill
#
# Bulk Modulus (GPa) = 43.88691 47.40450 45.64570
# Shear Modulus (GPa) = 23.12120 33.36997 28.24559
#
# Velocity S-wave (km/s) = 3.26746 3.92539 3.61144
# Velocity P-wave (km/s) = 5.87367 6.51415 6.20218
#
# Compressibility (1/GPa) = 0.02278584
#
# Stress axis : x y z
#
# Youngs Moduli (GPa) = 113.09103 70.43809 100.35264
#
# Poissons Ratio (x) = 0.19706 0.19568
# Poissons Ratio (y) = 0.31639 0.03629
# Poissons Ratio (z) = 0.22052 0.02547
#
# Static dielectric constant tensor:
#      x y z
#    x 1.890440 0.000000 0.000000 
#    y 0.000000 1.854390 0.000000 
#    z 0.000000 0.000000 1.913600 
# 
# From -- ./inp_files/9212.got.cif
#   From: 2010.05.17/outbox.cif.g08.bks.cpg/sg48_5_cif.got.tgz:9212.got - 2010.06.03 20:39:00.
