data_PCOD9390991
_publ_section_title
;
Structure prediction by ZEFSAII (Michael W. Deem and Ramdas Pophale) SiO2 
 PCOD9390991
Probable space group: P N N N
;
_chemical_formula_sum "Si O2"
_cell_formula_units_Z 64
_cell_length_a 18.041998
_cell_length_b 32.795231
_cell_length_c 5.343644
_cell_angle_alpha 90.000000
_cell_angle_beta 90.000000
_cell_angle_gamma 90.000000
_cell_volume 3161.788692
_symmetry_space_group_name_H-M "P N N N"
_symmetry_group_IT_number 48
_space_group.IT_coordinate_system_code '2'
_symmetry_cell_setting 'orthorhombic'
loop_
_space_group_symop_operation_xyz
x,y,z
1/2-x,1/2-y,z
x,1/2-y,1/2-z
1/2-x,y,1/2-z
-x,-y,-z
1/2+x,1/2+y,-z
-x,1/2+y,1/2+z
1/2+x,-y,1/2+z
loop_
_atom_site_type_symbol
_atom_site_label
_atom_site_fract_x
_atom_site_fract_y
_atom_site_fract_z
Si Si1 0.331161 0.343715 0.837218
Si Si2 0.983740 0.701765 0.290335
Si Si3 0.839049 0.405367 0.254980
Si Si4 0.326837 0.063361 0.866696
Si Si5 0.466397 0.659058 0.688593
Si Si6 0.604793 0.606902 0.773203
Si Si7 0.837954 0.456380 0.754505
Si Si8 0.574003 0.525234 0.001489
O O1 0.250000 0.329717 0.750000
O O2 0.399553 0.315577 0.760151
O O3 0.339349 0.390420 0.739916
O O4 0.346914 0.354913 0.126670
O O5 0.981633 0.750000 0.250000
O O6 0.012331 0.685057 0.560933
O O7 0.034256 0.684821 0.065328
O O8 0.750000 0.397022 0.250000
O O9 0.891134 0.365982 0.229161
O O10 0.855927 0.426762 0.520212
O O11 0.856370 0.435218 0.019258
O O12 0.250000 0.049536 0.750000
O O13 0.386104 0.031054 0.768925
O O14 0.335709 0.076386 0.149985
O O15 0.534980 0.627773 0.640906
O O16 0.561746 0.572598 0.935023
O O17 0.750000 0.462989 0.750000
O O18 0.875656 0.498822 0.685159
O O19 0.500000 0.500000 0.000000
#
# Coordination Sequence:
#
# PCOD9390991 Si02
#       8
#     8   8   8   8   8   8   8   8
#     4   9  20  39  59  87 117 158 208 256 294 361
#     4  11  23  41  65  99 128 161 195 243 317 378
#     4  10  22  41  66  91 118 161 213 257 310 373
#     4  10  22  37  57  81 116 161 216 252 314 362
#     4  11  22  42  68  89 127 162 204 252 304 374
#     4  10  22  38  60  84 115 166 211 258 308 370
#     4  10  23  39  58  87 124 161 208 268 322 365
#     4  11  25  36  54  84 121 164 212 267 318 366
#
# _framework density 20.241707000000002
#
# number of rings (size 3 to 8) (size 9 to 14) (size 15 to 20)
#    0.000    1.750    1.250    1.875    5.250    5.250 
#    0.000    0.000    0.000    3.750    0.000    0.000 
#    0.000    0.000    0.000    0.000    0.000    0.000 
#
# Total GULP energy -356375.178879 kJ/mol
# GULP energy per Si atom -5568.362170 kJ/mol
# Density = 2.019564 g / cm^3
# Si number density = 20.241707 Si / 1000 Ang^3
#
#
#
# Elastic Constant Matrix: (Units=GPa)
#
#
# Indices 1 2 3 4 5 6 
#
# 1 60.0037 36.8282 28.0404 0.0000 0.0000 0.0000
# 2 36.8282 82.7381 31.0954 0.0000 0.0000 0.0000
# 3 28.0404 31.0954 87.6776 0.0000 0.0000 0.0000
# 4 0.0000 0.0000 0.0000 20.2338 0.0000 0.0000
# 5 0.0000 0.0000 0.0000 0.0000 16.3948 0.0000
# 6 0.0000 0.0000 0.0000 0.0000 0.0000 16.6117
#
#
#
# Elastic Compliance Matrix: (Units=1/GPa)
#
#
# Indices 1 2 3 4 5 6 
#
# 1 0.024416 -0.009153 -0.004562 0.000000 0.000000 0.000000
# 2 -0.009153 0.017377 -0.003235 0.000000 0.000000 0.000000
# 3 -0.004562 -0.003235 0.014012 0.000000 0.000000 0.000000
# 4 0.000000 0.000000 0.000000 0.049422 0.000000 0.000000
# 5 0.000000 0.000000 0.000000 0.000000 0.060995 0.000000
# 6 0.000000 0.000000 0.000000 0.000000 0.000000 0.060198
#
#
# Mechanical properties :
#
#
# Convention : Reuss Voigt Hill
#
# Bulk Modulus (GPa) = 45.65691 46.92748 46.29220
# Shear Modulus (GPa) = 18.68308 19.61175 19.14741
#
# Velocity S-wave (km/s) = 3.04139 3.11606 3.07895
# Velocity P-wave (km/s) = 5.91085 6.01501 5.96316
#
# Compressibility (1/GPa) = 0.02190249
#
# Stress axis : x y z
#
# Youngs Moduli (GPa) = 40.95757 57.54896 71.36781
#
# Poissons Ratio (x) = 0.52676 0.32559
# Poissons Ratio (y) = 0.37489 0.23090
# Poissons Ratio (z) = 0.18686 0.18619
#
# Static dielectric constant tensor:
#      x y z
#    x 1.713400 0.000000 0.000000 
#    y 0.000000 1.702630 0.000000 
#    z 0.000000 0.000000 2.633790 
# 
# From -- ./inp_files/4720.got.cif
#   From: 2010.05.17/outbox.cif.g08.bks.cpg/sg48_3_cif.got.tgz:4720.got - 2010.06.03 20:39:00.
