data_PCOD9390772
_publ_section_title
;
Structure prediction by ZEFSAII (Michael W. Deem and Ramdas Pophale) SiO2 
 PCOD9390772
Probable space group: P N N N
;
_chemical_formula_sum "Si O2"
_cell_formula_units_Z 58
_cell_length_a 16.299112
_cell_length_b 5.351659
_cell_length_c 32.004921
_cell_angle_alpha 90.000000
_cell_angle_beta 90.000000
_cell_angle_gamma 90.000000
_cell_volume 2791.702507
_symmetry_space_group_name_H-M "P N N N"
_symmetry_group_IT_number 48
_space_group.IT_coordinate_system_code '2'
_symmetry_cell_setting 'orthorhombic'
loop_
_space_group_symop_operation_xyz
x,y,z
1/2-x,1/2-y,z
x,1/2-y,1/2-z
1/2-x,y,1/2-z
-x,-y,-z
1/2+x,1/2+y,-z
-x,1/2+y,1/2+z
1/2+x,-y,1/2+z
loop_
_atom_site_type_symbol
_atom_site_label
_atom_site_fract_x
_atom_site_fract_y
_atom_site_fract_z
Si Si1 0.443511 0.046290 0.426034
Si Si2 0.140231 0.940060 0.917405
Si Si3 0.864200 0.553678 0.133901
Si Si4 0.558799 0.455038 0.624504
Si Si5 0.342094 0.001759 0.768496
Si Si6 0.750000 0.750000 0.750000
Si Si7 0.840870 0.134648 0.706266
Si Si8 0.199599 0.999980 0.010447
O O1 0.542470 0.069844 0.428955
O O2 0.417028 0.279902 0.396408
O O3 0.388713 0.040211 0.467608
O O4 0.427841 0.774406 0.406648
O O5 0.161966 0.679048 0.894946
O O6 0.154975 0.176172 0.886474
O O7 0.186241 0.979222 0.960801
O O8 0.835855 0.518467 0.181583
O O9 0.962676 0.532908 0.134712
O O10 0.603753 0.371809 0.666481
O O11 0.383601 0.250000 0.750000
O O12 0.250000 0.000745 0.750000
O O13 0.381827 0.750000 0.750000
O O14 0.684452 0.641663 0.717805
O O15 0.750000 0.250000 0.699389
O O16 0.872811 0.250000 0.750000
O O17 0.250000 0.250000 0.020098
O O18 0.250000 0.750000 0.023884
#
# Coordination Sequence:
#
# PCOD9390772 Si02
#       8
#     8   8   8   8   8   2   8   8
#     4  10  23  42  65  87 128 164 204 253 312 384
#     4  10  22  44  66  89 122 172 207 253 316 372
#     4  10  21  41  63  90 122 156 221 258 293 384
#     4  10  22  38  62  92 114 165 209 252 310 358
#     4  10  21  39  57  87 122 163 204 247 319 365
#     4   8  18  36  48  74 108 152 196 228 290 372
#     4   9  20  35  53  81 118 157 202 249 306 367
#     4  12  25  43  62 101 128 156 210 257 321 376
#
# _framework density 20.775853000000001
#
# number of rings (size 3 to 8) (size 9 to 14) (size 15 to 20)
#    0.000    2.069    0.000    2.897    3.862    2.207 
#   16.138    5.517    0.000    0.000    0.000    0.000 
#    0.000    0.000    0.000    0.000    0.000    0.000 
#
# Total GULP energy -323439.139455 kJ/mol
# GULP energy per Si atom -5576.536887 kJ/mol
# Density = 2.072857 g / cm^3
# Si number density = 20.775853 Si / 1000 Ang^3
#
#
#
# Elastic Constant Matrix: (Units=GPa)
#
#
# Indices 1 2 3 4 5 6 
#
# 1 42.0860 24.7539 38.1629 0.0000 0.0000 0.0000
# 2 24.7539 126.6513 27.6851 0.0000 0.0000 0.0000
# 3 38.1629 27.6851 106.0324 0.0000 0.0000 0.0000
# 4 0.0000 0.0000 0.0000 25.8470 0.0000 0.0000
# 5 0.0000 0.0000 0.0000 0.0000 51.2172 0.0000
# 6 0.0000 0.0000 0.0000 0.0000 0.0000 10.8789
#
#
#
# Elastic Compliance Matrix: (Units=1/GPa)
#
#
# Indices 1 2 3 4 5 6 
#
# 1 0.037709 -0.004670 -0.012353 0.000000 0.000000 0.000000
# 2 -0.004670 0.008952 -0.000657 0.000000 0.000000 0.000000
# 3 -0.012353 -0.000657 0.014048 0.000000 0.000000 0.000000
# 4 0.000000 0.000000 0.000000 0.038689 0.000000 0.000000
# 5 0.000000 0.000000 0.000000 0.000000 0.019525 0.000000
# 6 0.000000 0.000000 0.000000 0.000000 0.000000 0.091921
#
#
# Mechanical properties :
#
#
# Convention : Reuss Voigt Hill
#
# Bulk Modulus (GPa) = 39.44650 50.66370 45.05510
# Shear Modulus (GPa) = 19.63459 29.86648 24.75054
#
# Velocity S-wave (km/s) = 3.07753 3.79563 3.45528
# Velocity P-wave (km/s) = 5.62638 6.60665 6.13612
#
# Compressibility (1/GPa) = 0.02535079
#
# Stress axis : x y z
#
# Youngs Moduli (GPa) = 26.51897 111.70749 71.18218
#
# Poissons Ratio (x) = 0.52167 0.87929
# Poissons Ratio (y) = 0.12384 0.04674
# Poissons Ratio (z) = 0.32758 0.07334
#
# Static dielectric constant tensor:
#      x y z
#    x 1.737090 0.000000 0.000000 
#    y 0.000000 1.477870 0.000000 
#    z 0.000000 0.000000 1.701320 
# 
# From -- ./inp_files/38039.got.cif
#   From: 2010.05.17/outbox.cif.g08.bks.cpg/sg48_20_cif.got.tgz:38039.got - 2010.06.03 20:39:00.
