data_PCOD9390821
_publ_section_title
;
Structure prediction by ZEFSAII (Michael W. Deem and Ramdas Pophale) SiO2 
 PCOD9390821
Probable space group: P N N N
;
_chemical_formula_sum "Si O2"
_cell_formula_units_Z 32
_cell_length_a 5.199501
_cell_length_b 11.824002
_cell_length_c 21.348406
_cell_angle_alpha 90.000000
_cell_angle_beta 90.000000
_cell_angle_gamma 90.000000
_cell_volume 1312.476736
_symmetry_space_group_name_H-M "P N N N"
_symmetry_group_IT_number 48
_space_group.IT_coordinate_system_code '2'
_symmetry_cell_setting 'orthorhombic'
loop_
_space_group_symop_operation_xyz
x,y,z
1/2-x,1/2-y,z
x,1/2-y,1/2-z
1/2-x,y,1/2-z
-x,-y,-z
1/2+x,1/2+y,-z
-x,1/2+y,1/2+z
1/2+x,-y,1/2+z
loop_
_atom_site_type_symbol
_atom_site_label
_atom_site_fract_x
_atom_site_fract_y
_atom_site_fract_z
Si Si1 0.382177 0.632858 0.929109
Si Si2 0.228761 0.871729 0.382601
Si Si3 0.298549 0.115204 0.323524
Si Si4 0.250709 0.402797 0.964261
O O1 0.250000 0.750000 0.937714
O O2 0.420458 0.607085 0.855744
O O3 0.214111 0.537026 0.961176
O O4 0.652655 0.630054 0.966743
O O5 0.250000 0.750000 0.346674
O O6 0.494555 0.887501 0.420703
O O7 0.992067 0.850692 0.430227
O O8 0.182028 0.993551 0.348336
O O9 0.250000 0.250000 0.341501
O O10 0.250000 0.112796 0.250000
#
# Coordination Sequence:
#
# PCOD9390821 Si02
#       4
#     8   8   8   8
#     4  10  21  39  68  99 135 179 226 281 345 408
#     4  11  23  42  68 100 137 173 218 278 345 408
#     4  10  23  43  66  94 132 181 235 283 330 398
#     4  10  23  40  66 103 136 171 218 277 343 412
#
# _framework density 24.381385999999999
#
# number of rings (size 3 to 8) (size 9 to 14) (size 15 to 20)
#    0.000    1.750    0.000    3.000    0.000   13.500 
#    0.000   20.000    0.000    7.500    0.000    0.000 
#    0.000    0.000    0.000    0.000    0.000    0.000 
#
# Total GULP energy -178301.361240 kJ/mol
# GULP energy per Si atom -5571.917539 kJ/mol
# Density = 2.432589 g / cm^3
# Si number density = 24.381386 Si / 1000 Ang^3
#
#
#
# Elastic Constant Matrix: (Units=GPa)
#
#
# Indices 1 2 3 4 5 6 
#
# 1 100.2882 31.8581 28.1781 0.0000 0.0000 0.0000
# 2 31.8581 232.4521 71.4889 0.0000 0.0000 0.0000
# 3 28.1781 71.4889 124.6166 0.0000 0.0000 0.0000
# 4 0.0000 0.0000 0.0000 30.1499 0.0000 0.0000
# 5 0.0000 0.0000 0.0000 0.0000 17.7353 0.0000
# 6 0.0000 0.0000 0.0000 0.0000 0.0000 26.8257
#
#
#
# Elastic Compliance Matrix: (Units=1/GPa)
#
#
# Indices 1 2 3 4 5 6 
#
# 1 0.010796 -0.000885 -0.001933 0.000000 0.000000 0.000000
# 2 -0.000885 0.005296 -0.002838 0.000000 0.000000 0.000000
# 3 -0.001933 -0.002838 0.010090 0.000000 0.000000 0.000000
# 4 0.000000 0.000000 0.000000 0.033168 0.000000 0.000000
# 5 0.000000 0.000000 0.000000 0.000000 0.056385 0.000000
# 6 0.000000 0.000000 0.000000 0.000000 0.000000 0.037278
#
#
# Mechanical properties :
#
#
# Convention : Reuss Voigt Hill
#
# Bulk Modulus (GPa) = 67.25545 80.04524 73.65034
# Shear Modulus (GPa) = 29.53673 36.66431 33.10052
#
# Velocity S-wave (km/s) = 3.48436 3.88207 3.68858
# Velocity P-wave (km/s) = 6.62060 7.27982 6.95802
#
# Compressibility (1/GPa) = 0.01486868
#
# Stress axis : x y z
#
# Youngs Moduli (GPa) = 92.63021 188.81875 99.10871
#
# Poissons Ratio (x) = 0.16710 0.19162
# Poissons Ratio (y) = 0.08197 0.28128
# Poissons Ratio (z) = 0.17909 0.53589
#
# Static dielectric constant tensor:
#      x y z
#    x 1.990640 0.000000 0.000000 
#    y 0.000000 2.107070 0.000000 
#    z 0.000000 0.000000 1.944380 
# 
# From -- ./inp_files/32664.got.cif
#   From: 2010.05.17/outbox.cif.g08.bks.cpg/sg48_17_cif.got.tgz:32664.got - 2010.06.03 20:39:00.
