data_PCOD9390209
_publ_section_title
;
Structure prediction by ZEFSAII (Michael W. Deem and Ramdas Pophale) SiO2 
 PCOD9390209
Probable space group: P N N N
;
_chemical_formula_sum "Si O2"
_cell_formula_units_Z 64
_cell_length_a 17.419572
_cell_length_b 22.829444
_cell_length_c 8.948921
_cell_angle_alpha 90.000000
_cell_angle_beta 90.000000
_cell_angle_gamma 90.000000
_cell_volume 3558.799238
_symmetry_space_group_name_H-M "P N N N"
_symmetry_group_IT_number 48
_space_group.IT_coordinate_system_code '2'
_symmetry_cell_setting 'orthorhombic'
loop_
_space_group_symop_operation_xyz
x,y,z
1/2-x,1/2-y,z
x,1/2-y,1/2-z
1/2-x,y,1/2-z
-x,-y,-z
1/2+x,1/2+y,-z
-x,1/2+y,1/2+z
1/2+x,-y,1/2+z
loop_
_atom_site_type_symbol
_atom_site_label
_atom_site_fract_x
_atom_site_fract_y
_atom_site_fract_z
Si Si1 0.753120 0.537794 0.928321
Si Si2 0.934808 0.812331 0.161612
Si Si3 0.814409 0.443995 0.146138
Si Si4 0.041098 0.580341 0.365679
Si Si5 0.887600 0.506867 0.414974
Si Si6 0.662331 0.751525 0.927132
Si Si7 0.878810 0.626958 0.058670
Si Si8 0.538593 0.436586 0.531717
O O1 0.750000 0.538490 0.750000
O O2 0.775914 0.475463 0.003466
O O3 0.666724 0.547374 0.985025
O O4 0.814110 0.582701 0.999703
O O5 0.949764 0.750000 0.250000
O O6 0.880412 0.852186 0.268656
O O7 0.009669 0.852858 0.129353
O O8 0.889400 0.795857 0.011867
O O9 0.750000 0.412011 0.250000
O O10 0.844081 0.493468 0.261629
O O11 0.894358 0.418560 0.083276
O O12 0.094858 0.553737 0.495378
O O13 0.072432 0.566920 0.199742
O O14 0.965792 0.539530 0.379197
O O15 0.750000 0.750000 0.983282
O O16 0.662655 0.750000 0.750000
O O17 0.630505 0.814262 0.968189
O O18 0.964151 0.603808 0.029417
O O19 0.500000 0.500000 0.500000
#
# Coordination Sequence:
#
# PCOD9390209 Si02
#       8
#     8   8   8   8   8   8   8   8
#     4  11  22  33  51  78 113 153 193 234 287 351
#     4   9  20  39  55  76 106 146 201 245 281 343
#     4  10  20  35  49  76 114 148 181 227 276 347
#     4  10  20  34  53  78 103 151 188 240 290 338
#     4  10  21  32  48  77 111 143 192 228 286 359
#     4  10  23  39  51  78 110 146 200 248 280 329
#     4  10  22  35  56  78 103 158 194 233 297 329
#     4  11  18  35  54  77 110 146 189 233 278 350
#
# _framework density 17.983595000000001
#
# number of rings (size 3 to 8) (size 9 to 14) (size 15 to 20)
#    0.000    1.875    2.500    1.500    3.500    3.250 
#    2.250    0.000    0.000    0.000    0.000    0.000 
#    0.000  120.000    0.000    0.000    0.000    0.000 
#
# Total GULP energy -356473.269798 kJ/mol
# GULP energy per Si atom -5569.894841 kJ/mol
# Density = 1.794266 g / cm^3
# Si number density = 17.983595 Si / 1000 Ang^3
#
#
#
# Elastic Constant Matrix: (Units=GPa)
#
#
# Indices 1 2 3 4 5 6 
#
# 1 69.6849 20.0778 39.9529 0.0000 0.0000 0.0000
# 2 20.0778 61.0024 31.8663 0.0000 0.0000 0.0000
# 3 39.9529 31.8663 108.2896 0.0000 0.0000 0.0000
# 4 0.0000 0.0000 0.0000 17.0165 0.0000 0.0000
# 5 0.0000 0.0000 0.0000 0.0000 37.3558 0.0000
# 6 0.0000 0.0000 0.0000 0.0000 0.0000 19.4838
#
#
#
# Elastic Compliance Matrix: (Units=1/GPa)
#
#
# Indices 1 2 3 4 5 6 
#
# 1 0.018656 -0.003007 -0.005998 0.000000 0.000000 0.000000
# 2 -0.003007 0.019855 -0.004733 0.000000 0.000000 0.000000
# 3 -0.005998 -0.004733 0.012840 0.000000 0.000000 0.000000
# 4 0.000000 0.000000 0.000000 0.058766 0.000000 0.000000
# 5 0.000000 0.000000 0.000000 0.000000 0.026770 0.000000
# 6 0.000000 0.000000 0.000000 0.000000 0.000000 0.051325
#
#
# Mechanical properties :
#
#
# Convention : Reuss Voigt Hill
#
# Bulk Modulus (GPa) = 41.88592 46.97456 44.43024
# Shear Modulus (GPa) = 22.35673 24.57656 23.46665
#
# Velocity S-wave (km/s) = 3.52969 3.70078 3.61625
# Velocity P-wave (km/s) = 6.32087 6.66622 6.49584
#
# Compressibility (1/GPa) = 0.02387437
#
# Stress axis : x y z
#
# Youngs Moduli (GPa) = 53.60335 50.36502 77.87963
#
# Poissons Ratio (x) = 0.15144 0.46713
# Poissons Ratio (y) = 0.16118 0.36863
# Poissons Ratio (z) = 0.32152 0.23840
#
# Static dielectric constant tensor:
#      x y z
#    x 1.659670 0.000000 0.000000 
#    y 0.000000 1.624360 0.000000 
#    z 0.000000 0.000000 1.715180 
# 
# From -- ./inp_files/14584.got.cif
#   From: 2010.05.17/outbox.cif.g08.bks.cpg/sg48_8_cif.got.tgz:14584.got - 2010.06.03 20:39:00.
