data_PCOD9390061
_publ_section_title
;
Structure prediction by ZEFSAII (Michael W. Deem and Ramdas Pophale) SiO2 
 PCOD9390061
Probable space group: P N N N
;
_chemical_formula_sum "Si O2"
_cell_formula_units_Z 48
_cell_length_a 5.216075
_cell_length_b 15.949060
_cell_length_c 27.143357
_cell_angle_alpha 90.000000
_cell_angle_beta 90.000000
_cell_angle_gamma 90.000000
_cell_volume 2258.096398
_symmetry_space_group_name_H-M "P N N N"
_symmetry_group_IT_number 48
_space_group.IT_coordinate_system_code '2'
_symmetry_cell_setting 'orthorhombic'
loop_
_space_group_symop_operation_xyz
x,y,z
1/2-x,1/2-y,z
x,1/2-y,1/2-z
1/2-x,y,1/2-z
-x,-y,-z
1/2+x,1/2+y,-z
-x,1/2+y,1/2+z
1/2+x,-y,1/2+z
loop_
_atom_site_type_symbol
_atom_site_label
_atom_site_fract_x
_atom_site_fract_y
_atom_site_fract_z
Si Si1 0.755059 0.532848 0.882798
Si Si2 0.250000 0.025634 0.750000
Si Si3 0.574723 0.622616 0.709383
Si Si4 0.555260 0.682870 0.559520
Si Si5 0.750000 0.750000 0.086848
Si Si6 0.750000 0.250000 0.151772
Si Si7 0.250000 0.750000 0.480564
Si Si8 0.736170 0.925830 0.359452
O O1 0.745450 0.596240 0.836264
O O2 0.816081 0.594537 0.928063
O O3 0.500717 0.477409 0.883256
O O4 0.004604 0.476246 0.872549
O O5 0.307587 0.074859 0.699721
O O6 0.474200 0.962342 0.765773
O O7 0.750000 0.665540 0.750000
O O8 0.331447 0.674711 0.688798
O O9 0.750000 0.750000 0.537466
O O10 0.466008 0.728946 0.610161
O O11 0.325756 0.676699 0.519881
O O12 0.493045 0.739623 0.054562
O O13 0.764634 0.666569 0.119503
#
# Coordination Sequence:
#
# PCOD9390061 Si02
#       8
#     8   4   8   8   4   4   4   8
#     4  10  23  40  68  98 136 174 225 271 330 400
#     4  10  22  38  64  88 130 174 226 268 331 397
#     4  10  19  37  57  87 136 180 226 273 320 382
#     4  10  22  41  71  96 138 182 228 269 332 416
#     4  12  26  47  72  96 136 164 223 300 362 418
#     4   9  22  33  60  95 134 185 230 275 305 394
#     4  11  24  46  70 102 132 180 212 286 361 406
#     4  11  24  44  68 100 132 179 222 283 347 401
#
# _framework density 21.256841000000001
#
# number of rings (size 3 to 8) (size 9 to 14) (size 15 to 20)
#    0.000    1.667    2.500    1.000    9.333    0.667 
#    0.000   12.500    0.000    3.000    0.000    0.000 
#    0.000    0.000    0.000    0.000    0.000    0.000 
#
# Total GULP energy -267543.651212 kJ/mol
# GULP energy per Si atom -5573.826067 kJ/mol
# Density = 2.120846 g / cm^3
# Si number density = 21.256841 Si / 1000 Ang^3
#
#
#
# Elastic Constant Matrix: (Units=GPa)
#
#
# Indices 1 2 3 4 5 6 
#
# 1 127.8695 50.7009 46.0246 0.0000 0.0000 0.0000
# 2 50.7009 125.3111 71.2235 0.0000 0.0000 0.0000
# 3 46.0246 71.2235 120.6224 0.0000 0.0000 0.0000
# 4 0.0000 0.0000 0.0000 13.6017 0.0000 0.0000
# 5 0.0000 0.0000 0.0000 0.0000 18.9730 0.0000
# 6 0.0000 0.0000 0.0000 0.0000 0.0000 15.1775
#
#
#
# Elastic Compliance Matrix: (Units=1/GPa)
#
#
# Indices 1 2 3 4 5 6 
#
# 1 0.009647 -0.002726 -0.002071 0.000000 0.000000 0.000000
# 2 -0.002726 0.012781 -0.006507 0.000000 0.000000 0.000000
# 3 -0.002071 -0.006507 0.012923 0.000000 0.000000 0.000000
# 4 0.000000 0.000000 0.000000 0.073520 0.000000 0.000000
# 5 0.000000 0.000000 0.000000 0.000000 0.052707 0.000000
# 6 0.000000 0.000000 0.000000 0.000000 0.000000 0.065887
#
#
# Mechanical properties :
#
#
# Convention : Reuss Voigt Hill
#
# Bulk Modulus (GPa) = 78.47534 78.85565 78.66549
# Shear Modulus (GPa) = 19.66025 23.27405 21.46715
#
# Velocity S-wave (km/s) = 3.04450 3.31251 3.18133
# Velocity P-wave (km/s) = 7.02542 7.19774 7.11210
#
# Compressibility (1/GPa) = 0.01274286
#
# Stress axis : x y z
#
# Youngs Moduli (GPa) = 103.66123 78.23901 77.38276
#
# Poissons Ratio (x) = 0.21326 0.16029
# Poissons Ratio (y) = 0.28256 0.50352
# Poissons Ratio (z) = 0.21472 0.50909
#
# Static dielectric constant tensor:
#      x y z
#    x 1.859780 0.000000 0.000000 
#    y 0.000000 1.734470 0.000000 
#    z 0.000000 0.000000 1.829850 
# 
# From -- ./inp_files/37105.got.cif
#   From: 2010.05.17/outbox.cif.g08.bks.cpg/sg48_19_cif.got.tgz:37105.got - 2010.06.03 20:39:00.
