data_PCOD9390844
_publ_section_title
;
Structure prediction by ZEFSAII (Michael W. Deem and Ramdas Pophale) SiO2 
 PCOD9390844
Probable space group: P N N N
;
_chemical_formula_sum "Si O2"
_cell_formula_units_Z 36
_cell_length_a 23.273292
_cell_length_b 12.308351
_cell_length_c 5.550843
_cell_angle_alpha 90.000000
_cell_angle_beta 90.000000
_cell_angle_gamma 90.000000
_cell_volume 1590.071432
_symmetry_space_group_name_H-M "P N N N"
_symmetry_group_IT_number 48
_space_group.IT_coordinate_system_code '2'
_symmetry_cell_setting 'orthorhombic'
loop_
_space_group_symop_operation_xyz
x,y,z
1/2-x,1/2-y,z
x,1/2-y,1/2-z
1/2-x,y,1/2-z
-x,-y,-z
1/2+x,1/2+y,-z
-x,1/2+y,1/2+z
1/2+x,-y,1/2+z
loop_
_atom_site_type_symbol
_atom_site_label
_atom_site_fract_x
_atom_site_fract_y
_atom_site_fract_z
Si Si1 0.047690 0.991007 0.300673
Si Si2 0.824525 0.058700 0.612458
Si Si3 0.750000 0.250000 0.750000
Si Si4 0.324999 0.060230 0.622416
Si Si5 0.951634 0.643032 0.415821
Si Si6 0.250000 0.250000 0.750000
O O1 0.106465 0.937766 0.385424
O O2 0.015068 0.908840 0.119436
O O3 0.000000 0.000000 0.500000
O O4 0.056827 0.114652 0.201198
O O5 0.791996 0.172359 0.600406
O O6 0.806433 0.990698 0.378028
O O7 0.813317 0.007245 0.878708
O O8 0.393551 0.078370 0.660094
O O9 0.292533 0.174390 0.597222
O O10 0.950369 0.750000 0.250000
#
# Coordination Sequence:
#
# PCOD9390844 Si02
#       6
#     8   8   2   8   8   2
#     4  10  21  41  66  96 139 176 228 302 352 419
#     4  11  26  46  69  98 138 182 234 292 343 422
#     4  12  28  50  70 100 136 202 240 288 356 432
#     4  11  24  44  68 101 138 174 230 288 347 417
#     4  10  21  40  64 100 134 181 225 285 362 429
#     4  12  24  42  70 100 132 190 216 280 348 416
#
# _framework density 22.640491000000001
#
# number of rings (size 3 to 8) (size 9 to 14) (size 15 to 20)
#    0.000    1.333    3.333    1.333    1.556    4.444 
#    0.000    2.222    0.000    0.000    0.000    0.000 
#    0.000    0.000    0.000    0.000    0.000    0.000 
#
# Total GULP energy -200428.557776 kJ/mol
# GULP energy per Si atom -5567.459938 kJ/mol
# Density = 2.258896 g / cm^3
# Si number density = 22.640491 Si / 1000 Ang^3
#
#
#
# Elastic Constant Matrix: (Units=GPa)
#
#
# Indices 1 2 3 4 5 6 
#
# 1 150.4328 44.9696 41.9396 0.0000 0.0000 0.0000
# 2 44.9696 110.9648 55.3234 0.0000 0.0000 0.0000
# 3 41.9396 55.3234 110.0370 0.0000 0.0000 0.0000
# 4 0.0000 0.0000 0.0000 2.0503 0.0000 0.0000
# 5 0.0000 0.0000 0.0000 0.0000 36.1616 0.0000
# 6 0.0000 0.0000 0.0000 0.0000 0.0000 36.9829
#
#
#
# Elastic Compliance Matrix: (Units=1/GPa)
#
#
# Indices 1 2 3 4 5 6 
#
# 1 0.007838 -0.002251 -0.001855 0.000000 0.000000 0.000000
# 2 -0.002251 0.012673 -0.005514 0.000000 0.000000 0.000000
# 3 -0.001855 -0.005514 0.012567 0.000000 0.000000 0.000000
# 4 0.000000 0.000000 0.000000 0.487742 0.000000 0.000000
# 5 0.000000 0.000000 0.000000 0.000000 0.027654 0.000000
# 6 0.000000 0.000000 0.000000 0.000000 0.000000 0.027040
#
#
# Mechanical properties :
#
#
# Convention : Reuss Voigt Hill
#
# Bulk Modulus (GPa) = 72.26809 72.87775 72.57292
# Shear Modulus (GPa) = 8.34215 30.31909 19.33062
#
# Velocity S-wave (km/s) = 1.92162 3.66341 2.92517
# Velocity P-wave (km/s) = 6.07558 7.08189 6.59795
#
# Compressibility (1/GPa) = 0.01383737
#
# Stress axis : x y z
#
# Youngs Moduli (GPa) = 127.58767 78.90711 79.57279
#
# Poissons Ratio (x) = 0.17764 0.14764
# Poissons Ratio (y) = 0.28724 0.43873
# Poissons Ratio (z) = 0.23673 0.43506
#
# Static dielectric constant tensor:
#      x y z
#    x 1.913590 0.000000 0.000000 
#    y 0.000000 1.982380 0.000000 
#    z 0.000000 0.000000 2.075310 
# 
# From -- ./inp_files/5691.got.cif
#   From: 2010.05.17/outbox.cif.g08.bks.cpg/sg48_3_cif.got.tgz:5691.got - 2010.06.03 20:39:00.
