data_PCOD9390523
_publ_section_title
;
Structure prediction by ZEFSAII (Michael W. Deem and Ramdas Pophale) SiO2 
 PCOD9390523
Probable space group: P N N N
;
_chemical_formula_sum "Si O2"
_cell_formula_units_Z 34
_cell_length_a 8.560908
_cell_length_b 6.213115
_cell_length_c 29.607693
_cell_angle_alpha 90.000000
_cell_angle_beta 90.000000
_cell_angle_gamma 90.000000
_cell_volume 1574.830405
_symmetry_space_group_name_H-M "P N N N"
_symmetry_group_IT_number 48
_space_group.IT_coordinate_system_code '2'
_symmetry_cell_setting 'orthorhombic'
loop_
_space_group_symop_operation_xyz
x,y,z
1/2-x,1/2-y,z
x,1/2-y,1/2-z
1/2-x,y,1/2-z
-x,-y,-z
1/2+x,1/2+y,-z
-x,1/2+y,1/2+z
1/2+x,-y,1/2+z
loop_
_atom_site_type_symbol
_atom_site_label
_atom_site_fract_x
_atom_site_fract_y
_atom_site_fract_z
Si Si1 0.750000 0.250000 0.844160
Si Si2 0.954847 0.503507 0.178274
Si Si3 0.919335 0.649679 0.623003
Si Si4 0.250000 0.250000 0.750000
Si Si5 0.750000 0.750000 0.395836
Si Si6 0.396426 0.895815 0.539094
O O1 0.630366 0.098784 0.817061
O O2 0.629265 0.400468 0.872011
O O3 0.856730 0.589047 0.220376
O O4 0.863977 0.613678 0.136335
O O5 0.976080 0.252809 0.163351
O O6 0.750000 0.750000 0.625816
O O7 0.992941 0.722527 0.575441
O O8 0.832187 0.583002 0.428807
O O9 0.250000 0.750000 0.523653
O O10 0.500000 0.000000 0.500000
#
# Coordination Sequence:
#
# PCOD9390523 Si02
#       6
#     4   8   8   2   4   8
#     4  10  20  39  70  98 132 178 230 278 358 425
#     4  10  21  42  69  99 135 179 223 288 359 429
#     4  10  22  41  68  96 133 184 231 284 362 422
#     4  10  24  42  70 108 136 180 236 296 350 450
#     4  11  22  43  66  90 138 186 222 287 364 425
#     4  12  27  41  64  98 138 185 245 300 349 425
#
# _framework density 21.589628000000001
#
# number of rings (size 3 to 8) (size 9 to 14) (size 15 to 20)
#    0.000    1.412    4.706    0.000    3.294    1.412 
#    0.000    2.353    0.000    4.235    0.000    0.000 
#    0.000    0.000    0.000    0.000    0.000    0.000 
#
# Total GULP energy -189467.541709 kJ/mol
# GULP energy per Si atom -5572.574756 kJ/mol
# Density = 2.154049 g / cm^3
# Si number density = 21.589628 Si / 1000 Ang^3
#
#
#
# Elastic Constant Matrix: (Units=GPa)
#
#
# Indices 1 2 3 4 5 6 
#
# 1 129.7757 44.8206 71.8411 0.0000 0.0000 0.0000
# 2 44.8206 81.6662 37.0555 0.0000 0.0000 0.0000
# 3 71.8411 37.0555 123.4940 0.0000 0.0000 0.0000
# 4 0.0000 0.0000 0.0000 26.5413 0.0000 0.0000
# 5 0.0000 0.0000 0.0000 0.0000 35.9455 0.0000
# 6 0.0000 0.0000 0.0000 0.0000 0.0000 42.2648
#
#
#
# Elastic Compliance Matrix: (Units=1/GPa)
#
#
# Indices 1 2 3 4 5 6 
#
# 1 0.012452 -0.004106 -0.006011 0.000000 0.000000 0.000000
# 2 -0.004106 0.015529 -0.002271 0.000000 0.000000 0.000000
# 3 -0.006011 -0.002271 0.012276 0.000000 0.000000 0.000000
# 4 0.000000 0.000000 0.000000 0.037677 0.000000 0.000000
# 5 0.000000 0.000000 0.000000 0.000000 0.027820 0.000000
# 6 0.000000 0.000000 0.000000 0.000000 0.000000 0.023660
#
#
# Mechanical properties :
#
#
# Convention : Reuss Voigt Hill
#
# Bulk Modulus (GPa) = 64.60125 71.37447 67.98786
# Shear Modulus (GPa) = 31.37731 33.03154 32.20443
#
# Velocity S-wave (km/s) = 3.81642 3.91573 3.86639
# Velocity P-wave (km/s) = 7.02904 7.31952 7.17575
#
# Compressibility (1/GPa) = 0.01547958
#
# Stress axis : x y z
#
# Youngs Moduli (GPa) = 80.31141 64.39599 81.45930
#
# Poissons Ratio (x) = 0.26441 0.48969
# Poissons Ratio (y) = 0.32976 0.18499
# Poissons Ratio (z) = 0.48279 0.14624
#
# Static dielectric constant tensor:
#      x y z
#    x 1.754790 0.000000 0.000000 
#    y 0.000000 1.945170 0.000000 
#    z 0.000000 0.000000 1.752210 
# 
# From -- ./inp_files/1174.got.cif
#   From: 2010.05.17/outbox.cif.g08.bks.cpg/sg48_1_cif.got.tgz:1174.got - 2010.06.03 20:39:00.
