data_PCOD9390950
_publ_section_title
;
Structure prediction by ZEFSAII (Michael W. Deem and Ramdas Pophale) SiO2 
 PCOD9390950
Probable space group: P N N N
;
_chemical_formula_sum "Si O2"
_cell_formula_units_Z 40
_cell_length_a 9.823332
_cell_length_b 22.774606
_cell_length_c 7.159036
_cell_angle_alpha 90.000000
_cell_angle_beta 90.000000
_cell_angle_gamma 90.000000
_cell_volume 1601.637545
_symmetry_space_group_name_H-M "P N N N"
_symmetry_group_IT_number 48
_space_group.IT_coordinate_system_code '2'
_symmetry_cell_setting 'orthorhombic'
loop_
_space_group_symop_operation_xyz
x,y,z
1/2-x,1/2-y,z
x,1/2-y,1/2-z
1/2-x,y,1/2-z
-x,-y,-z
1/2+x,1/2+y,-z
-x,1/2+y,1/2+z
1/2+x,-y,1/2+z
loop_
_atom_site_type_symbol
_atom_site_label
_atom_site_fract_x
_atom_site_fract_y
_atom_site_fract_z
Si Si1 0.750000 0.100849 0.750000
Si Si2 0.865876 0.698357 0.570809
Si Si3 0.031158 0.038571 0.747674
Si Si4 0.601318 0.929252 0.684281
Si Si5 0.324917 0.803783 0.550500
Si Si6 0.750000 0.620333 0.250000
O O1 0.616389 0.063908 0.796960
O O2 0.697403 0.139904 0.576881
O O3 0.750000 0.750000 0.583021
O O4 0.890653 0.641518 0.709882
O O5 0.828457 0.663957 0.384589
O O6 0.020093 0.719305 0.562831
O O7 0.144647 0.077252 0.644757
O O8 0.072955 0.053550 0.965188
O O9 0.016701 0.968728 0.720397
O O10 0.750000 0.949460 0.750000
O O11 0.250000 0.750000 0.456572
O O12 0.250000 0.813347 0.750000
#
# Coordination Sequence:
#
# PCOD9390950 Si02
#       6
#     4   8   8   8   8   4
#     4  12  21  48  82 106 155 200 250 336 372 474
#     4  11  25  46  71 106 152 199 260 323 392 472
#     4  10  22  42  72 108 145 195 259 314 394 464
#     4  10  21  43  68 100 149 197 252 319 380 458
#     4  11  27  48  72 114 157 204 260 312 397 476
#     4  10  21  44  72 112 146 189 266 318 392 470
#
# _framework density 24.974439
#
# number of rings (size 3 to 8) (size 9 to 14) (size 15 to 20)
#    0.000    1.400    5.000    0.600    2.800    5.200 
#    5.400    4.000    0.000    0.000    0.000    0.000 
#    0.000    0.000    0.000    0.000    0.000    0.000 
#
# Total GULP energy -222989.219056 kJ/mol
# GULP energy per Si atom -5574.730476 kJ/mol
# Density = 2.491760 g / cm^3
# Si number density = 24.974439 Si / 1000 Ang^3
#
#
#
# Elastic Constant Matrix: (Units=GPa)
#
#
# Indices 1 2 3 4 5 6 
#
# 1 224.5070 80.7501 30.6160 0.0000 0.0000 0.0000
# 2 80.7501 175.2549 23.4651 0.0000 0.0000 0.0000
# 3 30.6160 23.4651 86.7057 0.0000 0.0000 0.0000
# 4 0.0000 0.0000 0.0000 -38.1389 0.0000 0.0000
# 5 0.0000 0.0000 0.0000 0.0000 35.3702 0.0000
# 6 0.0000 0.0000 0.0000 0.0000 0.0000 85.2071
#
#
#
# Elastic Compliance Matrix: (Units=1/GPa)
#
#
# Indices 1 2 3 4 5 6 
#
# 1 0.005476 -0.002349 -0.001298 0.000000 0.000000 0.000000
# 2 -0.002349 0.006928 -0.001045 0.000000 0.000000 0.000000
# 3 -0.001298 -0.001045 0.012274 0.000000 0.000000 0.000000
# 4 0.000000 0.000000 0.000000 -0.026220 0.000000 0.000000
# 5 0.000000 0.000000 0.000000 0.000000 0.028272 0.000000
# 6 0.000000 0.000000 0.000000 0.000000 0.000000 0.011736
#
#
# Mechanical properties :
#
#
# Convention : Reuss Voigt Hill
#
# Bulk Modulus (GPa) = 65.38640 84.01444 74.70042
# Shear Modulus (GPa) = 94.42674 39.93011 67.17842
#
# Velocity S-wave (km/s) = 6.15560 4.00289 5.19204
# Velocity P-wave (km/s) = 8.76128 7.42141 8.11903
#
# Compressibility (1/GPa) = 0.01529370
#
# Stress axis : x y z
#
# Youngs Moduli (GPa) = 182.60724 144.33185 81.46990
#
# Poissons Ratio (x) = 0.33910 0.10573
# Poissons Ratio (y) = 0.42903 0.08517
# Poissons Ratio (z) = 0.23700 0.15089
#
# Static dielectric constant tensor:
#      x y z
#    x 2.093970 0.000000 0.000000 
#    y 0.000000 1.800640 0.000000 
#    z 0.000000 0.000000 2.146570 
# 
# From -- ./inp_files/9055.got.cif
#   From: 2010.05.17/outbox.cif.g08.bks.cpg/sg48_5_cif.got.tgz:9055.got - 2010.06.03 20:39:00.
