data_PCOD9390333
_publ_section_title
;
Structure prediction by ZEFSAII (Michael W. Deem and Ramdas Pophale) SiO2 
 PCOD9390333
Probable space group: P N N N
;
_chemical_formula_sum "Si O2"
_cell_formula_units_Z 56
_cell_length_a 8.736148
_cell_length_b 20.811185
_cell_length_c 15.919666
_cell_angle_alpha 90.000000
_cell_angle_beta 90.000000
_cell_angle_gamma 90.000000
_cell_volume 2894.347984
_symmetry_space_group_name_H-M "P N N N"
_symmetry_group_IT_number 48
_space_group.IT_coordinate_system_code '2'
_symmetry_cell_setting 'orthorhombic'
loop_
_space_group_symop_operation_xyz
x,y,z
1/2-x,1/2-y,z
x,1/2-y,1/2-z
1/2-x,y,1/2-z
-x,-y,-z
1/2+x,1/2+y,-z
-x,1/2+y,1/2+z
1/2+x,-y,1/2+z
loop_
_atom_site_type_symbol
_atom_site_label
_atom_site_fract_x
_atom_site_fract_y
_atom_site_fract_z
Si Si1 0.841081 0.685077 0.669175
Si Si2 0.923690 0.140526 0.276708
Si Si3 0.564568 0.499993 0.745752
Si Si4 0.094107 0.676983 0.965854
Si Si5 0.462488 0.675722 0.982415
Si Si6 0.937270 0.452231 0.571986
Si Si7 0.929991 0.449182 0.934529
O O1 0.750000 0.750000 0.652177
O O2 0.750000 0.655355 0.750000
O O3 0.005892 0.690924 0.711742
O O4 0.899614 0.655773 0.581913
O O5 0.750000 0.134895 0.250000
O O6 0.958158 0.161396 0.371491
O O7 0.997906 0.071072 0.262280
O O8 0.750000 0.501094 0.750000
O O9 0.511112 0.471989 0.834934
O O10 0.517979 0.462180 0.661027
O O11 0.280433 0.671144 0.958343
O O12 0.032118 0.746928 0.993685
O O13 0.040109 0.621841 0.029469
O O14 0.477204 0.622278 0.054352
O O15 0.753389 0.457889 0.566821
O O16 0.000000 0.500000 0.500000
O O17 0.000000 0.500000 0.000000
#
# Coordination Sequence:
#
# PCOD9390333 Si02
#       7
#     8   8   8   8   8   8   8
#     4  11  22  36  51  81 121 155 196 243 303 369
#     4  12  22  36  61  87 122 163 205 248 304 375
#     4  10  22  38  61  92 125 156 202 258 311 362
#     4  10  20  36  61  85 119 153 203 253 298 366
#     4  10  21  39  56  84 117 162 202 245 304 365
#     4  10  22  39  62  84 121 164 203 249 301 371
#     4  10  20  39  60  91 117 156 202 256 309 359
#
# _framework density 19.348054999999999
#
# number of rings (size 3 to 8) (size 9 to 14) (size 15 to 20)
#    0.000    1.571    2.857    3.000    2.000    1.143 
#    2.571    0.714    0.000    4.286    0.000    0.000 
#    0.000    0.000    0.000    0.000    0.000    0.000 
#
# Total GULP energy -311850.040838 kJ/mol
# GULP energy per Si atom -5568.750729 kJ/mol
# Density = 1.930402 g / cm^3
# Si number density = 19.348055 Si / 1000 Ang^3
#
#
#
# Elastic Constant Matrix: (Units=GPa)
#
#
# Indices 1 2 3 4 5 6 
#
# 1 41.5902 23.4268 25.5565 0.0000 0.0000 0.0000
# 2 23.4268 135.4955 81.2699 0.0000 0.0000 0.0000
# 3 25.5565 81.2699 145.8504 0.0000 0.0000 0.0000
# 4 0.0000 0.0000 0.0000 15.8840 0.0000 0.0000
# 5 0.0000 0.0000 0.0000 0.0000 23.6596 0.0000
# 6 0.0000 0.0000 0.0000 0.0000 0.0000 27.8023
#
#
#
# Elastic Compliance Matrix: (Units=1/GPa)
#
#
# Indices 1 2 3 4 5 6 
#
# 1 0.027642 -0.002815 -0.003275 0.000000 0.000000 0.000000
# 2 -0.002815 0.011372 -0.005843 0.000000 0.000000 0.000000
# 3 -0.003275 -0.005843 0.010686 0.000000 0.000000 0.000000
# 4 0.000000 0.000000 0.000000 0.062956 0.000000 0.000000
# 5 0.000000 0.000000 0.000000 0.000000 0.042266 0.000000
# 6 0.000000 0.000000 0.000000 0.000000 0.000000 0.035968
#
#
# Mechanical properties :
#
#
# Convention : Reuss Voigt Hill
#
# Bulk Modulus (GPa) = 38.70919 64.82693 51.76806
# Shear Modulus (GPa) = 22.38452 26.31470 24.34961
#
# Velocity S-wave (km/s) = 3.40507 3.69191 3.55139
# Velocity P-wave (km/s) = 5.95899 7.19389 6.60536
#
# Compressibility (1/GPa) = 0.02583366
#
# Stress axis : x y z
#
# Youngs Moduli (GPa) = 36.17662 87.93687 93.57883
#
# Poissons Ratio (x) = 0.24753 0.30648
# Poissons Ratio (y) = 0.10183 0.54681
# Poissons Ratio (z) = 0.11848 0.51384
#
# Static dielectric constant tensor:
#      x y z
#    x 1.761630 0.000000 0.000000 
#    y 0.000000 1.698410 0.000000 
#    z 0.000000 0.000000 1.695090 
# 
# From -- ./inp_files/25597.got.cif
#   From: 2010.05.17/outbox.cif.g08.bks.cpg/sg48_13_cif.got.tgz:25597.got - 2010.06.03 20:39:00.
