data_PCOD9390871
_publ_section_title
;
Structure prediction by ZEFSAII (Michael W. Deem and Ramdas Pophale) SiO2 
 PCOD9390871
Probable space group: P N N N
;
_chemical_formula_sum "Si O2"
_cell_formula_units_Z 56
_cell_length_a 15.360833
_cell_length_b 12.314645
_cell_length_c 13.052469
_cell_angle_alpha 90.000000
_cell_angle_beta 90.000000
_cell_angle_gamma 90.000000
_cell_volume 2469.046873
_symmetry_space_group_name_H-M "P N N N"
_symmetry_group_IT_number 48
_space_group.IT_coordinate_system_code '2'
_symmetry_cell_setting 'orthorhombic'
loop_
_space_group_symop_operation_xyz
x,y,z
1/2-x,1/2-y,z
x,1/2-y,1/2-z
1/2-x,y,1/2-z
-x,-y,-z
1/2+x,1/2+y,-z
-x,1/2+y,1/2+z
1/2+x,-y,1/2+z
loop_
_atom_site_type_symbol
_atom_site_label
_atom_site_fract_x
_atom_site_fract_y
_atom_site_fract_z
Si Si1 0.970106 0.662100 0.177893
Si Si2 0.603201 0.641351 0.786581
Si Si3 0.579472 0.416221 0.307569
Si Si4 0.371356 0.957003 0.583267
Si Si5 0.472759 0.339299 0.985818
Si Si6 0.157601 0.587273 0.214638
Si Si7 0.700679 0.134916 0.012680
O O1 0.922303 0.750000 0.250000
O O2 0.928581 0.543982 0.165496
O O3 0.063139 0.639878 0.234981
O O4 0.977690 0.724303 0.069913
O O5 0.649369 0.750000 0.750000
O O6 0.516613 0.628900 0.715678
O O7 0.573532 0.655396 0.903688
O O8 0.653045 0.529938 0.768002
O O9 0.626237 0.409852 0.197642
O O10 0.630508 0.356394 0.396978
O O11 0.430889 0.885638 0.506732
O O12 0.273596 0.952273 0.545443
O O13 0.419417 0.073068 0.581897
O O14 0.250000 0.635614 0.250000
O O15 0.160205 0.591638 0.091977
O O16 0.750000 0.250000 0.998268
#
# Coordination Sequence:
#
# PCOD9390871 Si02
#       7
#     8   8   8   8   8   8   8
#     4  11  23  42  72  97 131 182 226 295 342 419
#     4  10  24  42  70  96 137 189 226 290 341 425
#     4  10  24  42  63 101 135 170 240 284 347 424
#     4  10  21  41  64  95 130 179 225 288 341 428
#     4  10  21  40  71  95 131 178 241 272 353 416
#     4  11  27  44  65 104 141 175 233 285 353 426
#     4  12  27  41  67 100 142 184 221 299 362 411
#
# _framework density 22.680816
#
# number of rings (size 3 to 8) (size 9 to 14) (size 15 to 20)
#    0.000    1.429    1.429    2.143   14.000    2.000 
#    0.000    0.714    0.000    0.000    0.000    0.000 
#    0.000    0.000    0.000    0.000    0.000    0.000 
#
# Total GULP energy -313202.936575 kJ/mol
# GULP energy per Si atom -5592.909582 kJ/mol
# Density = 2.262919 g / cm^3
# Si number density = 22.680816 Si / 1000 Ang^3
#
#
#
# Elastic Constant Matrix: (Units=GPa)
#
#
# Indices 1 2 3 4 5 6 
#
# 1 50.3965 1.9959 10.2091 0.0000 0.0000 0.0000
# 2 1.9959 131.9893 23.3907 0.0000 0.0000 0.0000
# 3 10.2091 23.3907 103.5645 0.0000 0.0000 0.0000
# 4 0.0000 0.0000 0.0000 39.9450 0.0000 0.0000
# 5 0.0000 0.0000 0.0000 0.0000 26.0001 0.0000
# 6 0.0000 0.0000 0.0000 0.0000 0.0000 -2.4181
#
#
#
# Elastic Compliance Matrix: (Units=1/GPa)
#
#
# Indices 1 2 3 4 5 6 
#
# 1 0.020247 0.000050 -0.002007 0.000000 0.000000 0.000000
# 2 0.000050 0.007892 -0.001787 0.000000 0.000000 0.000000
# 3 -0.002007 -0.001787 0.010257 0.000000 0.000000 0.000000
# 4 0.000000 0.000000 0.000000 0.025034 0.000000 0.000000
# 5 0.000000 0.000000 0.000000 0.000000 0.038461 0.000000
# 6 0.000000 0.000000 0.000000 0.000000 0.000000 -0.413546
#
#
# Mechanical properties :
#
#
# Convention : Reuss Voigt Hill
#
# Bulk Modulus (GPa) = 32.35509 39.68240 36.01874
# Shear Modulus (GPa) = -17.01484 29.39570 6.19043
#
# Velocity S-wave (km/s) = -2.74192 3.60399 1.65387
# Velocity P-wave (km/s) = 2.06692 5.90359 4.42292
#
# Compressibility (1/GPa) = 0.03090704
#
# Stress axis : x y z
#
# Youngs Moduli (GPa) = 49.38932 126.70446 97.49080
#
# Poissons Ratio (x) = -0.00627 0.19567
# Poissons Ratio (y) = -0.00245 0.17426
# Poissons Ratio (z) = 0.09913 0.22647
#
# Static dielectric constant tensor:
#      x y z
#    x 1.836470 0.000000 0.000000 
#    y 0.000000 1.861510 0.000000 
#    z 0.000000 0.000000 1.840700 
# 
# From -- ./inp_files/27299.got.cif
#   From: 2010.05.17/outbox.cif.g08.bks.cpg/sg48_14_cif.got.tgz:27299.got - 2010.06.03 20:39:00.
