data_PCOD9390820
_publ_section_title
;
Structure prediction by ZEFSAII (Michael W. Deem and Ramdas Pophale) SiO2 
 PCOD9390820
Probable space group: P N N N
;
_chemical_formula_sum "Si O2"
_cell_formula_units_Z 46
_cell_length_a 8.108507
_cell_length_b 14.186011
_cell_length_c 17.745696
_cell_angle_alpha 90.000000
_cell_angle_beta 90.000000
_cell_angle_gamma 90.000000
_cell_volume 2041.240731
_symmetry_space_group_name_H-M "P N N N"
_symmetry_group_IT_number 48
_space_group.IT_coordinate_system_code '2'
_symmetry_cell_setting 'orthorhombic'
loop_
_space_group_symop_operation_xyz
x,y,z
1/2-x,1/2-y,z
x,1/2-y,1/2-z
1/2-x,y,1/2-z
-x,-y,-z
1/2+x,1/2+y,-z
-x,1/2+y,1/2+z
1/2+x,-y,1/2+z
loop_
_atom_site_type_symbol
_atom_site_label
_atom_site_fract_x
_atom_site_fract_y
_atom_site_fract_z
Si Si1 0.862666 0.103108 0.604379
Si Si2 0.250000 0.750000 0.750000
Si Si3 0.750000 0.750000 0.513805
Si Si4 0.499904 0.397979 0.207761
Si Si5 0.848629 0.607200 0.873382
Si Si6 0.557467 0.611638 0.238521
Si Si7 0.516187 0.196237 0.587205
O O1 0.675263 0.129421 0.580393
O O2 0.953918 0.193472 0.570619
O O3 0.926300 0.107966 0.692497
O O4 0.889635 0.993218 0.588603
O O5 0.359828 0.680079 0.801530
O O6 0.868046 0.808213 0.569388
O O7 0.645587 0.822448 0.462008
O O8 0.342331 0.389906 0.154012
O O9 0.445513 0.382847 0.295032
O O10 0.554834 0.506228 0.202980
O O11 0.750000 0.629675 0.250000
O O12 0.510024 0.687063 0.176121
#
# Coordination Sequence:
#
# PCOD9390820 Si02
#       7
#     8   2   4   8   8   8   8
#     4  10  22  41  69  92 129 169 225 281 338 397
#     4  12  20  34  60 104 138 150 208 292 346 402
#     4  12  26  41  63  92 138 188 226 266 342 426
#     4  10  21  39  68  98 126 167 231 292 340 386
#     4  10  22  45  67  93 128 184 227 278 342 411
#     4  11  20  38  66 102 130 163 217 288 350 396
#     4  11  23  40  61  99 131 173 219 273 344 415
#
# _framework density 22.535314
#
# number of rings (size 3 to 8) (size 9 to 14) (size 15 to 20)
#    0.000    1.391    2.609    3.130    0.000    4.870 
#    0.000    6.957    0.000    0.000    0.000    0.000 
#    0.000    0.000    0.000    0.000    0.000    0.000 
#
# Total GULP energy -256417.295946 kJ/mol
# GULP energy per Si atom -5574.289042 kJ/mol
# Density = 2.248402 g / cm^3
# Si number density = 22.535314 Si / 1000 Ang^3
#
#
#
# Elastic Constant Matrix: (Units=GPa)
#
#
# Indices 1 2 3 4 5 6 
#
# 1 52.0855 4.0333 -8.8267 0.0000 0.0000 0.0000
# 2 4.0333 117.9711 11.4701 0.0000 0.0000 0.0000
# 3 -8.8267 11.4701 42.5846 0.0000 0.0000 0.0000
# 4 0.0000 0.0000 0.0000 10.6326 0.0000 0.0000
# 5 0.0000 0.0000 0.0000 0.0000 17.3064 0.0000
# 6 0.0000 0.0000 0.0000 0.0000 0.0000 25.6854
#
#
#
# Elastic Compliance Matrix: (Units=1/GPa)
#
#
# Indices 1 2 3 4 5 6 
#
# 1 0.020041 -0.001118 0.004455 0.000000 0.000000 0.000000
# 2 -0.001118 0.008767 -0.002593 0.000000 0.000000 0.000000
# 3 0.004455 -0.002593 0.025105 0.000000 0.000000 0.000000
# 4 0.000000 0.000000 0.000000 0.094050 0.000000 0.000000
# 5 0.000000 0.000000 0.000000 0.000000 0.057782 0.000000
# 6 0.000000 0.000000 0.000000 0.000000 0.000000 0.038933
#
#
# Mechanical properties :
#
#
# Convention : Reuss Voigt Hill
#
# Bulk Modulus (GPa) = 18.05062 25.11051 21.58056
# Shear Modulus (GPa) = 19.10900 24.45584 21.78242
#
# Velocity S-wave (km/s) = 2.91513 3.29785 3.11238
# Velocity P-wave (km/s) = 4.39977 5.06636 4.74478
#
# Compressibility (1/GPa) = 0.05539977
#
# Stress axis : x y z
#
# Youngs Moduli (GPa) = 49.89814 114.06382 39.83330
#
# Poissons Ratio (x) = 0.12756 -0.17747
# Poissons Ratio (y) = 0.05580 0.10330
# Poissons Ratio (z) = -0.22231 0.29579
#
# Static dielectric constant tensor:
#      x y z
#    x 2.041410 0.000000 0.000000 
#    y 0.000000 1.848600 0.000000 
#    z 0.000000 0.000000 1.877560 
# 
# From -- ./inp_files/30224.got.cif
#   From: 2010.05.17/outbox.cif.g08.bks.cpg/sg48_16_cif.got.tgz:30224.got - 2010.06.03 20:39:00.
