data_PCOD9390200
_publ_section_title
;
Structure prediction by ZEFSAII (Michael W. Deem and Ramdas Pophale) SiO2 
 PCOD9390200
Probable space group: P N N N
;
_chemical_formula_sum "Si O2"
_cell_formula_units_Z 32
_cell_length_a 7.748186
_cell_length_b 13.696797
_cell_length_c 15.974843
_cell_angle_alpha 90.000000
_cell_angle_beta 90.000000
_cell_angle_gamma 90.000000
_cell_volume 1695.335497
_symmetry_space_group_name_H-M "P N N N"
_symmetry_group_IT_number 48
_space_group.IT_coordinate_system_code '2'
_symmetry_cell_setting 'orthorhombic'
loop_
_space_group_symop_operation_xyz
x,y,z
1/2-x,1/2-y,z
x,1/2-y,1/2-z
1/2-x,y,1/2-z
-x,-y,-z
1/2+x,1/2+y,-z
-x,1/2+y,1/2+z
1/2+x,-y,1/2+z
loop_
_atom_site_type_symbol
_atom_site_label
_atom_site_fract_x
_atom_site_fract_y
_atom_site_fract_z
Si Si1 0.357538 0.414544 0.499130
Si Si2 0.773601 0.007299 0.159603
Si Si3 0.866496 0.621003 0.666967
Si Si4 0.569991 0.301970 0.395617
O O1 0.500000 0.500000 0.500000
O O2 0.250126 0.434168 0.582254
O O3 0.243208 0.409997 0.415033
O O4 0.474780 0.319649 0.483837
O O5 0.750000 0.959993 0.250000
O O6 0.632285 0.096502 0.148306
O O7 0.961870 0.055407 0.162507
O O8 0.750000 0.608516 0.750000
O O9 0.944230 0.730882 0.656245
O O10 0.750000 0.250000 0.409689
#
# Coordination Sequence:
#
# PCOD9390200 Si02
#       4
#     8   8   8   8
#     4  10  20  34  51  77 109 141 174 212 262 318
#     4  10  21  36  53  78 111 143 176 215 259 314
#     4  11  21  34  55  83 110 139 173 217 270 317
#     4   9  20  34  53  80 108 137 175 222 270 314
#
# _framework density 18.875321
#
# number of rings (size 3 to 8) (size 9 to 14) (size 15 to 20)
#    0.000    2.000    0.000    4.500    0.000   12.500 
#    0.000    0.000    0.000    3.000    0.000   15.750 
#    0.000    0.000    0.000    0.000    0.000    0.000 
#
# Total GULP energy -178232.735019 kJ/mol
# GULP energy per Si atom -5569.772969 kJ/mol
# Density = 1.883236 g / cm^3
# Si number density = 18.875321 Si / 1000 Ang^3
#
#
#
# Elastic Constant Matrix: (Units=GPa)
#
#
# Indices 1 2 3 4 5 6 
#
# 1 137.2079 29.0924 80.5304 0.0000 0.0000 0.0000
# 2 29.0924 32.8768 60.0564 0.0000 0.0000 0.0000
# 3 80.5304 60.0564 200.4692 0.0000 0.0000 0.0000
# 4 0.0000 0.0000 0.0000 25.8657 0.0000 0.0000
# 5 0.0000 0.0000 0.0000 0.0000 33.0759 0.0000
# 6 0.0000 0.0000 0.0000 0.0000 0.0000 22.6101
#
#
#
# Elastic Compliance Matrix: (Units=1/GPa)
#
#
# Indices 1 2 3 4 5 6 
#
# 1 0.009690 -0.003233 -0.002924 0.000000 0.000000 0.000000
# 2 -0.003233 0.068260 -0.019150 0.000000 0.000000 0.000000
# 3 -0.002924 -0.019150 0.011900 0.000000 0.000000 0.000000
# 4 0.000000 0.000000 0.000000 0.038661 0.000000 0.000000
# 5 0.000000 0.000000 0.000000 0.000000 0.030233 0.000000
# 6 0.000000 0.000000 0.000000 0.000000 0.000000 0.044228
#
#
# Mechanical properties :
#
#
# Convention : Reuss Voigt Hill
#
# Bulk Modulus (GPa) = 25.48780 78.87912 52.18346
# Shear Modulus (GPa) = 18.75004 29.70199 24.22601
#
# Velocity S-wave (km/s) = 3.15518 3.97115 3.58645
# Velocity P-wave (km/s) = 5.17747 7.93139 6.69751
#
# Compressibility (1/GPa) = 0.03923445
#
# Stress axis : x y z
#
# Youngs Moduli (GPa) = 103.20054 14.64985 84.03443
#
# Poissons Ratio (x) = 0.04737 0.24570
# Poissons Ratio (y) = 0.33370 1.60929
# Poissons Ratio (z) = 0.30174 0.28055
#
# Static dielectric constant tensor:
#      x y z
#    x 1.723930 0.000000 0.000000 
#    y 0.000000 1.698210 0.000000 
#    z 0.000000 0.000000 1.692980 
# 
# From -- ./inp_files/10250.got.cif
#   From: 2010.05.17/outbox.cif.g08.bks.cpg/sg48_6_cif.got.tgz:10250.got - 2010.06.03 20:39:00.
