data_PCOD9390070
_publ_section_title
;
Structure prediction by ZEFSAII (Michael W. Deem and Ramdas Pophale) SiO2 
 PCOD9390070
Probable space group: P N N N
;
_chemical_formula_sum "Si O2"
_cell_formula_units_Z 64
_cell_length_a 31.682061
_cell_length_b 19.233370
_cell_length_c 5.221635
_cell_angle_alpha 90.000000
_cell_angle_beta 90.000000
_cell_angle_gamma 90.000000
_cell_volume 3181.817916
_symmetry_space_group_name_H-M "P N N N"
_symmetry_group_IT_number 48
_space_group.IT_coordinate_system_code '2'
_symmetry_cell_setting 'orthorhombic'
loop_
_space_group_symop_operation_xyz
x,y,z
1/2-x,1/2-y,z
x,1/2-y,1/2-z
1/2-x,y,1/2-z
-x,-y,-z
1/2+x,1/2+y,-z
-x,1/2+y,1/2+z
1/2+x,-y,1/2+z
loop_
_atom_site_type_symbol
_atom_site_label
_atom_site_fract_x
_atom_site_fract_y
_atom_site_fract_z
Si Si1 0.456927 0.995591 0.793661
Si Si2 0.722436 0.893899 0.993194
Si Si3 0.505467 0.614047 0.967007
Si Si4 0.661722 0.490932 0.671305
Si Si5 0.373532 0.569635 0.853241
Si Si6 0.572935 0.204568 0.504541
Si Si7 0.585264 0.590288 0.685351
Si Si8 0.140201 0.202736 0.505289
O O1 0.487126 0.053439 0.673110
O O2 0.480160 0.922029 0.770193
O O3 0.414097 0.982650 0.632647
O O4 0.440476 0.026966 0.057060
O O5 0.750000 0.871460 0.750000
O O6 0.683206 0.841715 0.022347
O O7 0.703111 0.969771 0.925794
O O8 0.750000 0.895562 0.250000
O O9 0.553170 0.628002 0.877967
O O10 0.473289 0.671651 0.063549
O O11 0.643423 0.444805 0.434773
O O12 0.629816 0.554327 0.748268
O O13 0.661462 0.448098 0.934175
O O14 0.394117 0.643390 0.929607
O O15 0.586305 0.250000 0.750000
O O16 0.568369 0.250000 0.250000
O O17 0.600715 0.649868 0.493214
O O18 0.139677 0.250000 0.250000
O O19 0.137796 0.250000 0.750000
#
# Coordination Sequence:
#
# PCOD9390070 Si02
#       8
#     8   8   8   8   8   8   8   8
#     4   9  19  33  56  80 102 142 200 251 312 354
#     4  11  23  40  65  93 126 150 177 241 298 345
#     4  10  20  35  55  77 106 149 199 253 306 348
#     4  10  20  36  62  91 111 142 190 233 301 349
#     4  10  19  37  61  82 115 151 191 246 283 344
#     4  11  25  40  53  80 120 160 200 239 286 345
#     4  10  21  35  56  75 111 142 198 262 297 332
#     4  11  26  42  58  82 115 163 212 237 275 350
#
# _framework density 20.114288999999999
#
# number of rings (size 3 to 8) (size 9 to 14) (size 15 to 20)
#    0.000    1.750    1.250    2.625    3.500    4.000 
#    0.000    0.000    0.000    0.000    0.000    0.000 
#    0.000   35.000    0.000    0.000    0.000    0.000 
#
# Total GULP energy -356752.383688 kJ/mol
# GULP energy per Si atom -5574.255995 kJ/mol
# Density = 2.006851 g / cm^3
# Si number density = 20.114289 Si / 1000 Ang^3
#
#
#
# Elastic Constant Matrix: (Units=GPa)
#
#
# Indices 1 2 3 4 5 6 
#
# 1 41.2831 -2.9673 8.5135 0.0000 0.0000 0.0000
# 2 -2.9673 44.3701 4.8401 0.0000 0.0000 0.0000
# 3 8.5135 4.8401 79.5839 0.0000 0.0000 0.0000
# 4 0.0000 0.0000 0.0000 25.7904 0.0000 0.0000
# 5 0.0000 0.0000 0.0000 0.0000 23.6498 0.0000
# 6 0.0000 0.0000 0.0000 0.0000 0.0000 10.0687
#
#
#
# Elastic Compliance Matrix: (Units=1/GPa)
#
#
# Indices 1 2 3 4 5 6 
#
# 1 0.024940 0.001972 -0.002788 0.000000 0.000000 0.000000
# 2 0.001972 0.022844 -0.001600 0.000000 0.000000 0.000000
# 3 -0.002788 -0.001600 0.012961 0.000000 0.000000 0.000000
# 4 0.000000 0.000000 0.000000 0.038774 0.000000 0.000000
# 5 0.000000 0.000000 0.000000 0.000000 0.042284 0.000000
# 6 0.000000 0.000000 0.000000 0.000000 0.000000 0.099318
#
#
# Mechanical properties :
#
#
# Convention : Reuss Voigt Hill
#
# Bulk Modulus (GPa) = 17.88512 20.66774 19.27643
# Shear Modulus (GPa) = 18.89716 22.22516 20.56116
#
# Velocity S-wave (km/s) = 3.06843 3.32768 3.20068
# Velocity P-wave (km/s) = 4.63301 5.00620 4.82321
#
# Compressibility (1/GPa) = 0.05591239
#
# Stress axis : x y z
#
# Youngs Moduli (GPa) = 40.09682 43.77492 77.15513
#
# Poissons Ratio (x) = -0.08632 0.21510
# Poissons Ratio (y) = -0.07907 0.12347
# Poissons Ratio (z) = 0.11178 0.07005
#
# Static dielectric constant tensor:
#      x y z
#    x 1.737880 0.000000 0.000000 
#    y 0.000000 1.718550 0.000000 
#    z 0.000000 0.000000 1.773410 
# 
# From -- ./inp_files/7149.got.cif
#   From: 2010.05.17/outbox.cif.g08.bks.cpg/sg48_4_cif.got.tgz:7149.got - 2010.06.03 20:39:00.
