data_PCOD9390187
_publ_section_title
;
Structure prediction by ZEFSAII (Michael W. Deem and Ramdas Pophale) SiO2 
 PCOD9390187
Probable space group: P N N N
;
_chemical_formula_sum "Si O2"
_cell_formula_units_Z 56
_cell_length_a 27.385401
_cell_length_b 21.276669
_cell_length_c 5.239199
_cell_angle_alpha 90.000000
_cell_angle_beta 90.000000
_cell_angle_gamma 90.000000
_cell_volume 3052.724671
_symmetry_space_group_name_H-M "P N N N"
_symmetry_group_IT_number 48
_space_group.IT_coordinate_system_code '2'
_symmetry_cell_setting 'orthorhombic'
loop_
_space_group_symop_operation_xyz
x,y,z
1/2-x,1/2-y,z
x,1/2-y,1/2-z
1/2-x,y,1/2-z
-x,-y,-z
1/2+x,1/2+y,-z
-x,1/2+y,1/2+z
1/2+x,-y,1/2+z
loop_
_atom_site_type_symbol
_atom_site_label
_atom_site_fract_x
_atom_site_fract_y
_atom_site_fract_z
Si Si1 0.953976 0.675456 0.735362
Si Si2 0.804167 0.400737 0.819127
Si Si3 0.568955 0.898664 0.209481
Si Si4 0.564383 0.366784 0.199475
Si Si5 0.329715 0.820743 0.689484
Si Si6 0.529195 0.457721 0.803005
Si Si7 0.388987 0.986230 0.991537
O O1 0.947220 0.750000 0.750000
O O2 0.938318 0.640296 0.471694
O O3 0.012521 0.662784 0.770462
O O4 0.924223 0.647228 0.972097
O O5 0.750000 0.422490 0.750000
O O6 0.818996 0.354186 0.583624
O O7 0.840643 0.458509 0.880016
O O8 0.806716 0.362061 0.083293
O O9 0.516517 0.932068 0.145740
O O10 0.609337 0.954336 0.196664
O O11 0.611268 0.322646 0.210357
O O12 0.582224 0.427501 0.361300
O O13 0.555231 0.396648 0.921394
O O14 0.313158 0.750000 0.750000
O O15 0.572704 0.501678 0.712105
O O16 0.500000 0.500000 0.000000
#
# Coordination Sequence:
#
# PCOD9390187 Si02
#       7
#     8   8   8   8   8   8   8
#     4  11  23  36  50  76 116 153 188 221 265 330
#     4  11  25  41  59  80 108 143 185 247 304 337
#     4  11  22  33  56  79 107 147 186 228 275 330
#     4  10  20  33  52  78 109 146 185 240 280 328
#     4  11  23  39  58  78 106 148 197 239 287 339
#     4  11  18  31  52  80 112 134 183 228 284 331
#     4  11  20  36  55  81 109 137 192 236 291 333
#
# _framework density 18.344269000000001
#
# number of rings (size 3 to 8) (size 9 to 14) (size 15 to 20)
#    0.000    1.143    4.286    3.857    0.000    1.714 
#    0.000    2.857    0.000    0.000    0.000    0.000 
#    0.000    0.571    0.000    6.143    0.000    2.000 
#
# Total GULP energy -311972.925674 kJ/mol
# GULP energy per Si atom -5570.945101 kJ/mol
# Density = 1.830252 g / cm^3
# Si number density = 18.344269 Si / 1000 Ang^3
#
#
#
# Elastic Constant Matrix: (Units=GPa)
#
#
# Indices 1 2 3 4 5 6 
#
# 1 86.5668 45.0794 40.0639 0.0000 0.0000 0.0000
# 2 45.0794 118.7233 43.3377 0.0000 0.0000 0.0000
# 3 40.0639 43.3377 87.2129 0.0000 0.0000 0.0000
# 4 0.0000 0.0000 0.0000 20.0979 0.0000 0.0000
# 5 0.0000 0.0000 0.0000 0.0000 23.2290 0.0000
# 6 0.0000 0.0000 0.0000 0.0000 0.0000 9.2525
#
#
#
# Elastic Compliance Matrix: (Units=1/GPa)
#
#
# Indices 1 2 3 4 5 6 
#
# 1 0.016222 -0.004201 -0.005364 0.000000 0.000000 0.000000
# 2 -0.004201 0.011377 -0.003724 0.000000 0.000000 0.000000
# 3 -0.005364 -0.003724 0.015781 0.000000 0.000000 0.000000
# 4 0.000000 0.000000 0.000000 0.049756 0.000000 0.000000
# 5 0.000000 0.000000 0.000000 0.000000 0.043050 0.000000
# 6 0.000000 0.000000 0.000000 0.000000 0.000000 0.108079
#
#
# Mechanical properties :
#
#
# Convention : Reuss Voigt Hill
#
# Bulk Modulus (GPa) = 59.51795 61.05165 60.28480
# Shear Modulus (GPa) = 18.08675 21.45068 19.76871
#
# Velocity S-wave (km/s) = 3.14341 3.42327 3.28632
# Velocity P-wave (km/s) = 6.75945 6.99845 6.87999
#
# Compressibility (1/GPa) = 0.01680165
#
# Stress axis : x y z
#
# Youngs Moduli (GPa) = 61.64322 87.89287 63.36795
#
# Poissons Ratio (x) = 0.36928 0.33993
# Poissons Ratio (y) = 0.25899 0.23596
# Poissons Ratio (z) = 0.33068 0.32728
#
# Static dielectric constant tensor:
#      x y z
#    x 1.698990 0.000000 0.000000 
#    y 0.000000 1.726940 0.000000 
#    z 0.000000 0.000000 1.134620 
# 
# From -- ./inp_files/6644.got.cif
#   From: 2010.05.17/outbox.cif.g08.bks.cpg/sg48_4_cif.got.tgz:6644.got - 2010.06.03 20:39:00.
