data_PCOD9390347
_publ_section_title
;
Structure prediction by ZEFSAII (Michael W. Deem and Ramdas Pophale) SiO2 
 PCOD9390347
Probable space group: P N N N
;
_chemical_formula_sum "Si O2"
_cell_formula_units_Z 32
_cell_length_a 6.834901
_cell_length_b 8.521952
_cell_length_c 22.041284
_cell_angle_alpha 90.000000
_cell_angle_beta 90.000000
_cell_angle_gamma 90.000000
_cell_volume 1283.832018
_symmetry_space_group_name_H-M "P N N N"
_symmetry_group_IT_number 48
_space_group.IT_coordinate_system_code '2'
_symmetry_cell_setting 'orthorhombic'
loop_
_space_group_symop_operation_xyz
x,y,z
1/2-x,1/2-y,z
x,1/2-y,1/2-z
1/2-x,y,1/2-z
-x,-y,-z
1/2+x,1/2+y,-z
-x,1/2+y,1/2+z
1/2+x,-y,1/2+z
loop_
_atom_site_type_symbol
_atom_site_label
_atom_site_fract_x
_atom_site_fract_y
_atom_site_fract_z
Si Si1 0.750000 0.250000 0.250000
Si Si2 0.750000 0.750000 0.250000
Si Si3 0.691184 0.074725 0.819886
Si Si4 0.273396 0.005187 0.661581
Si Si5 0.250000 0.250000 0.113826
Si Si6 0.115726 0.620957 0.958765
O O1 0.851206 0.360486 0.298689
O O2 0.633642 0.853679 0.299780
O O3 0.750000 0.250000 0.844552
O O4 0.750000 0.070927 0.750000
O O5 0.457909 0.037662 0.824423
O O6 0.777094 0.918663 0.852554
O O7 0.255119 0.968920 0.590568
O O8 0.445328 0.216082 0.075584
O O9 0.250000 0.750000 0.991576
O O10 0.000000 0.500000 0.000000
#
# Coordination Sequence:
#
# PCOD9390347 Si02
#       6
#     2   2   8   8   4   8
#     4  10  20  38  66  94 132 174 230 284 356 440
#     4  10  20  36  66 106 138 178 220 298 368 422
#     4  10  21  36  61 100 141 176 223 282 353 438
#     4  10  22  38  63  99 135 177 229 291 360 428
#     4  10  25  43  70  98 135 189 232 296 362 416
#     4  11  26  47  71 101 139 193 249 299 354 434
#
# _framework density 24.925381999999999
#
# number of rings (size 3 to 8) (size 9 to 14) (size 15 to 20)
#    0.000    1.750    1.250    1.875    7.000    8.000 
#    0.000    0.000    0.000    0.000    0.000    0.000 
#    0.000    0.000    0.000    0.000    0.000    0.000 
#
# Total GULP energy -178214.914766 kJ/mol
# GULP energy per Si atom -5569.216086 kJ/mol
# Density = 2.486865 g / cm^3
# Si number density = 24.925382 Si / 1000 Ang^3
#
#
#
# Elastic Constant Matrix: (Units=GPa)
#
#
# Indices 1 2 3 4 5 6 
#
# 1 116.6140 41.0077 29.1691 0.0000 0.0000 0.0000
# 2 41.0077 224.1623 79.6662 0.0000 0.0000 0.0000
# 3 29.1691 79.6662 117.0563 0.0000 0.0000 0.0000
# 4 0.0000 0.0000 0.0000 33.8477 0.0000 0.0000
# 5 0.0000 0.0000 0.0000 0.0000 25.7152 0.0000
# 6 0.0000 0.0000 0.0000 0.0000 0.0000 31.2981
#
#
#
# Elastic Compliance Matrix: (Units=1/GPa)
#
#
# Indices 1 2 3 4 5 6 
#
# 1 0.009371 -0.001167 -0.001541 0.000000 0.000000 0.000000
# 2 -0.001167 0.006030 -0.003813 0.000000 0.000000 0.000000
# 3 -0.001541 -0.003813 0.011522 0.000000 0.000000 0.000000
# 4 0.000000 0.000000 0.000000 0.029544 0.000000 0.000000
# 5 0.000000 0.000000 0.000000 0.000000 0.038888 0.000000
# 6 0.000000 0.000000 0.000000 0.000000 0.000000 0.031951
#
#
# Mechanical properties :
#
#
# Convention : Reuss Voigt Hill
#
# Bulk Modulus (GPa) = 72.04007 84.16873 78.10440
# Shear Modulus (GPa) = 34.48908 38.70483 36.59696
#
# Velocity S-wave (km/s) = 3.72384 3.94487 3.83595
# Velocity P-wave (km/s) = 6.88871 7.38857 7.14301
#
# Compressibility (1/GPa) = 0.01388116
#
# Stress axis : x y z
#
# Youngs Moduli (GPa) = 106.71181 165.84993 86.79100
#
# Poissons Ratio (x) = 0.19348 0.13376
# Poissons Ratio (y) = 0.12449 0.33092
# Poissons Ratio (z) = 0.16446 0.63237
#
# Static dielectric constant tensor:
#      x y z
#    x 2.245420 0.000000 0.000000 
#    y 0.000000 2.226080 0.000000 
#    z 0.000000 0.000000 1.948830 
# 
# From -- ./inp_files/14808.got.cif
#   From: 2010.05.17/outbox.cif.g08.bks.cpg/sg48_8_cif.got.tgz:14808.got - 2010.06.03 20:39:00.
