data_PCOD9390625
_publ_section_title
;
Structure prediction by ZEFSAII (Michael W. Deem and Ramdas Pophale) SiO2 
 PCOD9390625
Probable space group: P N N N
;
_chemical_formula_sum "Si O2"
_cell_formula_units_Z 46
_cell_length_a 11.348621
_cell_length_b 15.507785
_cell_length_c 10.663899
_cell_angle_alpha 90.000000
_cell_angle_beta 90.000000
_cell_angle_gamma 90.000000
_cell_volume 1876.760641
_symmetry_space_group_name_H-M "P N N N"
_symmetry_group_IT_number 48
_space_group.IT_coordinate_system_code '2'
_symmetry_cell_setting 'orthorhombic'
loop_
_space_group_symop_operation_xyz
x,y,z
1/2-x,1/2-y,z
x,1/2-y,1/2-z
1/2-x,y,1/2-z
-x,-y,-z
1/2+x,1/2+y,-z
-x,1/2+y,1/2+z
1/2+x,-y,1/2+z
loop_
_atom_site_type_symbol
_atom_site_label
_atom_site_fract_x
_atom_site_fract_y
_atom_site_fract_z
Si Si1 0.119404 0.606582 0.910478
Si Si2 0.956430 0.638861 0.478848
Si Si3 0.615108 0.700913 0.611750
Si Si4 0.750000 0.556519 0.750000
Si Si5 0.514820 0.486445 0.190699
Si Si6 0.787847 0.343666 0.607984
Si Si7 0.250000 0.750000 0.750000
O O1 0.172144 0.683548 0.827466
O O2 0.994297 0.647682 0.945505
O O3 0.084760 0.528354 0.818759
O O4 0.212768 0.590845 0.020951
O O5 0.876187 0.719594 0.514164
O O6 0.010519 0.600830 0.608361
O O7 0.919227 0.556258 0.396392
O O8 0.072867 0.662507 0.402621
O O9 0.600520 0.750000 0.750000
O O10 0.707371 0.624278 0.642652
O O11 0.628353 0.505945 0.785495
O O12 0.750000 0.250000 0.561012
O O13 0.750000 0.350063 0.750000
#
# Coordination Sequence:
#
# PCOD9390625 Si02
#       7
#     8   8   8   4   8   8   2
#     4  11  18  34  58  94 126 164 223 277 329 399
#     4  11  21  38  57  93 137 169 210 284 354 383
#     4  11  18  33  59  97 126 166 229 277 311 398
#     4  10  21  34  62  96 137 176 242 257 324 412
#     4  10  23  36  59  95 137 173 207 282 349 403
#     4  11  23  37  60  93 128 171 220 281 339 400
#     4  12  16  28  62  94 128 148 220 300 312 390
#
# _framework density 24.51032
#
# number of rings (size 3 to 8) (size 9 to 14) (size 15 to 20)
#    0.000    1.217    6.957    1.304    1.217    0.000 
#    0.000    0.870    0.000    0.000    0.000    0.000 
#    5.217    0.870    0.000    0.000    0.000    0.000 
#
# Total GULP energy -256409.433434 kJ/mol
# GULP energy per Si atom -5574.118118 kJ/mol
# Density = 2.445453 g / cm^3
# Si number density = 24.510320 Si / 1000 Ang^3
#
#
#
# Elastic Constant Matrix: (Units=GPa)
#
#
# Indices 1 2 3 4 5 6 
#
# 1 75.6251 11.8490 25.4889 0.0000 0.0000 0.0000
# 2 11.8490 94.1147 24.2569 0.0000 0.0000 0.0000
# 3 25.4889 24.2569 96.6687 0.0000 0.0000 0.0000
# 4 0.0000 0.0000 0.0000 30.2610 0.0000 0.0000
# 5 0.0000 0.0000 0.0000 0.0000 34.5355 0.0000
# 6 0.0000 0.0000 0.0000 0.0000 0.0000 15.0573
#
#
#
# Elastic Compliance Matrix: (Units=1/GPa)
#
#
# Indices 1 2 3 4 5 6 
#
# 1 0.014584 -0.000903 -0.003619 0.000000 0.000000 0.000000
# 2 -0.000903 0.011416 -0.002626 0.000000 0.000000 0.000000
# 3 -0.003619 -0.002626 0.011958 0.000000 0.000000 0.000000
# 4 0.000000 0.000000 0.000000 0.033046 0.000000 0.000000
# 5 0.000000 0.000000 0.000000 0.000000 0.028956 0.000000
# 6 0.000000 0.000000 0.000000 0.000000 0.000000 0.066413
#
#
# Mechanical properties :
#
#
# Convention : Reuss Voigt Hill
#
# Bulk Modulus (GPa) = 42.26380 43.28868 42.77624
# Shear Modulus (GPa) = 26.51719 29.62500 28.07110
#
# Velocity S-wave (km/s) = 3.29276 3.48037 3.38786
# Velocity P-wave (km/s) = 5.63357 5.81811 5.72658
#
# Compressibility (1/GPa) = 0.02366091
#
# Stress axis : x y z
#
# Youngs Moduli (GPa) = 68.56652 87.59639 83.62728
#
# Poissons Ratio (x) = 0.07914 0.30263
# Poissons Ratio (y) = 0.06195 0.21964
# Poissons Ratio (z) = 0.24813 0.23006
#
# Static dielectric constant tensor:
#      x y z
#    x 2.018890 0.000000 0.000000 
#    y 0.000000 2.061000 0.000000 
#    z 0.000000 0.000000 1.956670 
# 
# From -- ./inp_files/20110.got.cif
#   From: 2010.05.17/outbox.cif.g08.bks.cpg/sg48_11_cif.got.tgz:20110.got - 2010.06.03 20:39:00.
