data_PCOD9390689
_publ_section_title
;
Structure prediction by ZEFSAII (Michael W. Deem and Ramdas Pophale) SiO2 
 PCOD9390689
Probable space group: P N N N
;
_chemical_formula_sum "Si O2"
_cell_formula_units_Z 38
_cell_length_a 21.468740
_cell_length_b 10.326788
_cell_length_c 7.168912
_cell_angle_alpha 90.000000
_cell_angle_beta 90.000000
_cell_angle_gamma 90.000000
_cell_volume 1589.370205
_symmetry_space_group_name_H-M "P N N N"
_symmetry_group_IT_number 48
_space_group.IT_coordinate_system_code '2'
_symmetry_cell_setting 'orthorhombic'
loop_
_space_group_symop_operation_xyz
x,y,z
1/2-x,1/2-y,z
x,1/2-y,1/2-z
1/2-x,y,1/2-z
-x,-y,-z
1/2+x,1/2+y,-z
-x,1/2+y,1/2+z
1/2+x,-y,1/2+z
loop_
_atom_site_type_symbol
_atom_site_label
_atom_site_fract_x
_atom_site_fract_y
_atom_site_fract_z
Si Si1 0.250000 0.250000 0.750000
Si Si2 0.746685 0.104771 0.523165
Si Si3 0.540187 0.738414 0.529249
Si Si4 0.367792 0.485266 0.401948
Si Si5 0.429161 0.750000 0.250000
Si Si6 0.654608 0.596084 0.996293
O O1 0.296538 0.319806 0.892157
O O2 0.750000 0.250000 0.458612
O O3 0.750000 0.105503 0.750000
O O4 0.808140 0.021566 0.472525
O O5 0.680881 0.046187 0.463417
O O6 0.530051 0.750000 0.750000
O O7 0.577493 0.600897 0.504843
O O8 0.476134 0.760429 0.423768
O O9 0.586480 0.851903 0.459985
O O10 0.391486 0.619764 0.306291
O O11 0.343259 0.397920 0.229525
#
# Coordination Sequence:
#
# PCOD9390689 Si02
#       6
#     2   8   8   8   4   8
#     4  12  22  36  60  92 128 168 212 274 336 400
#     4   9  17  34  61  89 117 154 205 262 329 404
#     4  10  23  40  61  93 128 172 226 276 327 394
#     4  10  21  38  62  91 124 169 220 273 335 406
#     4  12  23  42  67  91 130 179 226 278 338 404
#     4  10  21  37  59  89 126 165 212 269 332 395
#
# _framework density 23.908840000000001
#
# number of rings (size 3 to 8) (size 9 to 14) (size 15 to 20)
#    0.000    1.895    0.000    5.053    0.000    8.421 
#    0.000    4.737    0.000    2.526    0.000    0.000 
#    0.000    0.000    0.000    0.000    0.000    0.000 
#
# Total GULP energy -212129.168039 kJ/mol
# GULP energy per Si atom -5582.346527 kJ/mol
# Density = 2.385442 g / cm^3
# Si number density = 23.908840 Si / 1000 Ang^3
#
#
#
# Elastic Constant Matrix: (Units=GPa)
#
#
# Indices 1 2 3 4 5 6 
#
# 1 129.9184 46.0325 33.9793 0.0000 0.0000 0.0000
# 2 46.0325 123.1892 11.3440 0.0000 0.0000 0.0000
# 3 33.9793 11.3440 101.4198 0.0000 0.0000 0.0000
# 4 0.0000 0.0000 0.0000 1.8981 0.0000 0.0000
# 5 0.0000 0.0000 0.0000 0.0000 97.3730 0.0000
# 6 0.0000 0.0000 0.0000 0.0000 0.0000 42.5635
#
#
#
# Elastic Compliance Matrix: (Units=1/GPa)
#
#
# Indices 1 2 3 4 5 6 
#
# 1 0.009624 -0.003334 -0.002852 0.000000 0.000000 0.000000
# 2 -0.003334 0.009357 0.000070 0.000000 0.000000 0.000000
# 3 -0.002852 0.000070 0.010808 0.000000 0.000000 0.000000
# 4 0.000000 0.000000 0.000000 0.526836 0.000000 0.000000
# 5 0.000000 0.000000 0.000000 0.000000 0.010270 0.000000
# 6 0.000000 0.000000 0.000000 0.000000 0.000000 0.023494
#
#
# Mechanical properties :
#
#
# Convention : Reuss Voigt Hill
#
# Bulk Modulus (GPa) = 56.95199 59.69320 58.32259
# Shear Modulus (GPa) = 8.21732 45.91170 27.06451
#
# Velocity S-wave (km/s) = 1.85591 4.38686 3.36815
# Velocity P-wave (km/s) = 5.33523 7.11903 6.29068
#
# Compressibility (1/GPa) = 0.01755865
#
# Stress axis : x y z
#
# Youngs Moduli (GPa) = 103.90551 106.87381 92.52825
#
# Poissons Ratio (x) = 0.35628 0.26385
# Poissons Ratio (y) = 0.34639 -0.00651
# Poissons Ratio (z) = 0.29629 -0.00752
#
# Static dielectric constant tensor:
#      x y z
#    x 1.893580 0.000000 0.000000 
#    y 0.000000 2.007550 0.000000 
#    z 0.000000 0.000000 1.948070 
# 
# From -- ./inp_files/13854.got.cif
#   From: 2010.05.17/outbox.cif.g08.bks.cpg/sg48_7_cif.got.tgz:13854.got - 2010.06.03 20:39:00.
