data_PCOD9390758
_publ_section_title
;
Structure prediction by ZEFSAII (Michael W. Deem and Ramdas Pophale) SiO2 
 PCOD9390758
Probable space group: P N N N
;
_chemical_formula_sum "Si O2"
_cell_formula_units_Z 58
_cell_length_a 17.955294
_cell_length_b 5.748087
_cell_length_c 25.741919
_cell_angle_alpha 90.000000
_cell_angle_beta 90.000000
_cell_angle_gamma 90.000000
_cell_volume 2656.787216
_symmetry_space_group_name_H-M "P N N N"
_symmetry_group_IT_number 48
_space_group.IT_coordinate_system_code '2'
_symmetry_cell_setting 'orthorhombic'
loop_
_space_group_symop_operation_xyz
x,y,z
1/2-x,1/2-y,z
x,1/2-y,1/2-z
1/2-x,y,1/2-z
-x,-y,-z
1/2+x,1/2+y,-z
-x,1/2+y,1/2+z
1/2+x,-y,1/2+z
loop_
_atom_site_type_symbol
_atom_site_label
_atom_site_fract_x
_atom_site_fract_y
_atom_site_fract_z
Si Si1 0.750000 0.750000 0.250000
Si Si2 0.126799 0.927362 0.703068
Si Si3 0.662176 0.746029 0.041288
Si Si4 0.916669 0.094013 0.119812
Si Si5 0.531960 0.468385 0.443003
Si Si6 0.838706 0.726743 0.576357
Si Si7 0.993121 0.282420 0.836027
Si Si8 0.160670 0.730979 0.132615
O O1 0.694552 0.602000 0.286384
O O2 0.128136 0.750000 0.750000
O O3 0.132592 0.780042 0.650470
O O4 0.047068 0.054850 0.697408
O O5 0.750000 0.750000 0.042679
O O6 0.632817 0.573740 0.085204
O O7 0.620406 0.987751 0.051615
O O8 0.635730 0.687534 0.982861
O O9 0.975650 0.215420 0.081271
O O10 0.965765 0.964144 0.163094
O O11 0.500000 0.500000 0.500000
O O12 0.503154 0.637208 0.397078
O O13 0.750000 0.750000 0.573296
O O14 0.855365 0.484108 0.606034
O O15 0.854264 0.986697 0.600424
O O16 0.905531 0.283652 0.824630
O O17 0.250000 0.750000 0.145563
#
# Coordination Sequence:
#
# PCOD9390758 Si02
#       8
#     2   8   8   8   8   8   8   8
#     4  12  26  52  80 106 118 172 222 288 368 442
#     4  11  25  50  73  99 128 164 223 290 367 438
#     4  10  22  38  54  88 127 176 230 280 336 401
#     4  10  24  43  61  95 126 173 218 288 344 422
#     4  10  22  37  57  84 131 182 228 269 336 391
#     4   9  20  35  59  91 137 189 244 283 327 390
#     4  10  23  40  64 100 135 170 234 275 344 412
#     4  10  21  38  65 101 140 190 238 283 325 400
#
# _framework density 21.830877000000001
#
# number of rings (size 3 to 8) (size 9 to 14) (size 15 to 20)
#    0.000    1.931    0.000    1.862    9.655    1.655 
#   29.793    0.000    0.000    0.000    0.000    7.241 
#    0.000    0.000    0.000    0.000    0.000    0.000 
#
# Total GULP energy -323107.738789 kJ/mol
# GULP energy per Si atom -5570.823083 kJ/mol
# Density = 2.178119 g / cm^3
# Si number density = 21.830877 Si / 1000 Ang^3
#
#
#
# Elastic Constant Matrix: (Units=GPa)
#
#
# Indices 1 2 3 4 5 6 
#
# 1 154.2406 52.0298 34.0494 0.0000 0.0000 0.0000
# 2 52.0298 111.5568 36.4146 0.0000 0.0000 0.0000
# 3 34.0494 36.4146 68.7698 0.0000 0.0000 0.0000
# 4 0.0000 0.0000 0.0000 22.0424 0.0000 0.0000
# 5 0.0000 0.0000 0.0000 0.0000 17.8639 0.0000
# 6 0.0000 0.0000 0.0000 0.0000 0.0000 21.4784
#
#
#
# Elastic Compliance Matrix: (Units=1/GPa)
#
#
# Indices 1 2 3 4 5 6 
#
# 1 0.008009 -0.002951 -0.002403 0.000000 0.000000 0.000000
# 2 -0.002951 0.011925 -0.004853 0.000000 0.000000 0.000000
# 3 -0.002403 -0.004853 0.018301 0.000000 0.000000 0.000000
# 4 0.000000 0.000000 0.000000 0.045367 0.000000 0.000000
# 5 0.000000 0.000000 0.000000 0.000000 0.055979 0.000000
# 6 0.000000 0.000000 0.000000 0.000000 0.000000 0.046558
#
#
# Mechanical properties :
#
#
# Convention : Reuss Voigt Hill
#
# Bulk Modulus (GPa) = 56.11539 64.39498 60.25519
# Shear Modulus (GPa) = 23.53014 26.41518 24.97266
#
# Velocity S-wave (km/s) = 3.28661 3.48227 3.38585
# Velocity P-wave (km/s) = 6.33741 6.76236 6.55333
#
# Compressibility (1/GPa) = 0.01782042
#
# Stress axis : x y z
#
# Youngs Moduli (GPa) = 124.85419 83.86012 54.64254
#
# Poissons Ratio (x) = 0.24749 0.13130
# Poissons Ratio (y) = 0.36847 0.26518
# Poissons Ratio (z) = 0.30001 0.40698
#
# Static dielectric constant tensor:
#      x y z
#    x 1.855330 0.000000 0.000000 
#    y 0.000000 1.927910 0.000000 
#    z 0.000000 0.000000 1.821760 
# 
# From -- ./inp_files/38032.got.cif
#   From: 2010.05.17/outbox.cif.g08.bks.cpg/sg48_20_cif.got.tgz:38032.got - 2010.06.03 20:39:00.
