data_PCOD9390137
_publ_section_title
;
Structure prediction by ZEFSAII (Michael W. Deem and Ramdas Pophale) SiO2 
 PCOD9390137
Probable space group: P N N N
;
_chemical_formula_sum "Si O2"
_cell_formula_units_Z 48
_cell_length_a 8.277571
_cell_length_b 18.524361
_cell_length_c 14.473095
_cell_angle_alpha 90.000000
_cell_angle_beta 90.000000
_cell_angle_gamma 90.000000
_cell_volume 2219.256820
_symmetry_space_group_name_H-M "P N N N"
_symmetry_group_IT_number 48
_space_group.IT_coordinate_system_code '2'
_symmetry_cell_setting 'orthorhombic'
loop_
_space_group_symop_operation_xyz
x,y,z
1/2-x,1/2-y,z
x,1/2-y,1/2-z
1/2-x,y,1/2-z
-x,-y,-z
1/2+x,1/2+y,-z
-x,1/2+y,1/2+z
1/2+x,-y,1/2+z
loop_
_atom_site_type_symbol
_atom_site_label
_atom_site_fract_x
_atom_site_fract_y
_atom_site_fract_z
Si Si1 0.994898 0.639020 0.188108
Si Si2 0.568503 0.435509 0.879801
Si Si3 0.250000 0.750000 0.750000
Si Si4 0.547022 0.128803 0.145575
Si Si5 0.750000 0.947503 0.750000
Si Si6 0.221233 0.020656 0.642990
Si Si7 0.801298 0.170021 0.529938
Si Si8 0.750000 0.750000 0.250000
O O1 0.936091 0.569871 0.127575
O O2 0.855769 0.697683 0.188276
O O3 0.036847 0.617415 0.292291
O O4 0.141453 0.673316 0.134848
O O5 0.667246 0.500800 0.828787
O O6 0.388162 0.461857 0.908318
O O7 0.662742 0.391928 0.959824
O O8 0.368654 0.803861 0.804743
O O9 0.386915 0.100464 0.198114
O O10 0.670711 0.061623 0.145043
O O11 0.550361 0.149315 0.037587
O O12 0.250000 0.040926 0.750000
O O13 0.750000 0.250000 0.500617
#
# Coordination Sequence:
#
# PCOD9390137 Si02
#       8
#     8   8   2   8   4   8   8   2
#     4  11  21  38  64  99 142 188 225 275 347 425
#     4  11  20  41  69 101 139 181 227 276 359 421
#     4  12  24  52  72  88 130 192 220 284 368 408
#     4  12  25  46  73  94 134 178 239 299 345 418
#     4  12  22  43  73 104 126 182 240 290 348 421
#     4  10  19  40  67  95 126 181 236 274 338 415
#     4  12  26  41  63 106 142 179 228 294 351 417
#     4  12  20  34  66  92 140 204 218 256 344 440
#
# _framework density 21.628862000000002
#
# number of rings (size 3 to 8) (size 9 to 14) (size 15 to 20)
#    0.000    0.667    9.167    1.000    0.000    4.333 
#    0.000    3.333    0.000    0.000    0.000    0.000 
#    0.000    0.000    0.000    0.000    0.000    0.000 
#
# Total GULP energy -267553.389060 kJ/mol
# GULP energy per Si atom -5574.028939 kJ/mol
# Density = 2.157963 g / cm^3
# Si number density = 21.628862 Si / 1000 Ang^3
#
#
#
# Elastic Constant Matrix: (Units=GPa)
#
#
# Indices 1 2 3 4 5 6 
#
# 1 103.8114 45.7647 27.8713 0.0000 0.0000 0.0000
# 2 45.7647 131.7133 38.8062 0.0000 0.0000 0.0000
# 3 27.8713 38.8062 62.0229 0.0000 0.0000 0.0000
# 4 0.0000 0.0000 0.0000 -10.8541 0.0000 0.0000
# 5 0.0000 0.0000 0.0000 0.0000 23.6681 0.0000
# 6 0.0000 0.0000 0.0000 0.0000 0.0000 387.6679
#
#
#
# Elastic Compliance Matrix: (Units=1/GPa)
#
#
# Indices 1 2 3 4 5 6 
#
# 1 0.011931 -0.003146 -0.003393 0.000000 0.000000 0.000000
# 2 -0.003146 0.010138 -0.004929 0.000000 0.000000 0.000000
# 3 -0.003393 -0.004929 0.020732 0.000000 0.000000 0.000000
# 4 0.000000 0.000000 0.000000 -0.092131 0.000000 0.000000
# 5 0.000000 0.000000 0.000000 0.000000 0.042251 0.000000
# 6 0.000000 0.000000 0.000000 0.000000 0.000000 0.002580
#
#
# Mechanical properties :
#
#
# Convention : Reuss Voigt Hill
#
# Bulk Modulus (GPa) = 50.34217 58.04801 54.19509
# Shear Modulus (GPa) = 199.54512 92.43674 145.99093
#
# Velocity S-wave (km/s) = 9.61556 6.54450 8.22464
# Velocity P-wave (km/s) = 12.10804 9.16536 10.73798
#
# Compressibility (1/GPa) = 0.01986406
#
# Stress axis : x y z
#
# Youngs Moduli (GPa) = 83.81822 98.64349 48.23478
#
# Poissons Ratio (x) = 0.31030 0.16366
# Poissons Ratio (y) = 0.26366 0.23776
# Poissons Ratio (z) = 0.28440 0.48624
#
# Static dielectric constant tensor:
#      x y z
#    x 1.912000 0.000000 0.000000 
#    y 0.000000 1.845490 0.000000 
#    z 0.000000 0.000000 1.736170 
# 
# From -- ./inp_files/25440.got.cif
#   From: 2010.05.17/outbox.cif.g08.bks.cpg/sg48_13_cif.got.tgz:25440.got - 2010.06.03 20:39:00.
