data_PCOD9390752
_publ_section_title
;
Structure prediction by ZEFSAII (Michael W. Deem and Ramdas Pophale) SiO2 
 PCOD9390752
Probable space group: P N N N
;
_chemical_formula_sum "Si O2"
_cell_formula_units_Z 44
_cell_length_a 16.504988
_cell_length_b 11.945484
_cell_length_c 11.687196
_cell_angle_alpha 90.000000
_cell_angle_beta 90.000000
_cell_angle_gamma 90.000000
_cell_volume 2304.248382
_symmetry_space_group_name_H-M "P N N N"
_symmetry_group_IT_number 48
_space_group.IT_coordinate_system_code '2'
_symmetry_cell_setting 'orthorhombic'
loop_
_space_group_symop_operation_xyz
x,y,z
1/2-x,1/2-y,z
x,1/2-y,1/2-z
1/2-x,y,1/2-z
-x,-y,-z
1/2+x,1/2+y,-z
-x,1/2+y,1/2+z
1/2+x,-y,1/2+z
loop_
_atom_site_type_symbol
_atom_site_label
_atom_site_fract_x
_atom_site_fract_y
_atom_site_fract_z
Si Si1 0.569241 0.089857 0.971781
Si Si2 0.380947 0.990027 0.511241
Si Si3 0.392029 0.250000 0.250000
Si Si4 0.770599 0.378597 0.114887
Si Si5 0.987412 0.688268 0.525893
Si Si6 0.158096 0.999765 0.248991
O O1 0.611663 0.053032 0.854829
O O2 0.638190 0.097419 0.071406
O O3 0.527812 0.210864 0.958152
O O4 0.500000 0.000000 0.000000
O O5 0.418696 0.112197 0.534480
O O6 0.381515 0.975157 0.373827
O O7 0.291228 0.964027 0.553813
O O8 0.442072 0.898253 0.561351
O O9 0.447423 0.240099 0.361697
O O10 0.343289 0.365222 0.259838
O O11 0.750000 0.250000 0.080711
O O12 0.750000 0.386814 0.250000
O O13 0.250000 0.958870 0.250000
#
# Coordination Sequence:
#
# PCOD9390752 Si02
#       6
#     8   8   4   8   8   8
#     4  12  24  41  66 101 132 168 219 279 321 390
#     4  10  22  40  62  95 131 175 212 270 329 395
#     4  10  21  38  64  91 124 170 222 266 317 398
#     4  11  24  42  70  95 129 176 227 270 321 389
#     4  10  22  38  62  93 130 171 215 265 331 384
#     4  11  22  39  63  93 128 169 218 268 332 387
#
# _framework density 19.095164
#
# number of rings (size 3 to 8) (size 9 to 14) (size 15 to 20)
#    0.000    1.273    5.455    0.273    2.545    2.182 
#    0.000    2.727    0.000    1.091    0.000    0.000 
#    0.000    0.000    0.000    0.000    0.000    0.000 
#
# Total GULP energy -245635.796465 kJ/mol
# GULP energy per Si atom -5582.631738 kJ/mol
# Density = 1.905170 g / cm^3
# Si number density = 19.095164 Si / 1000 Ang^3
#
#
#
# Elastic Constant Matrix: (Units=GPa)
#
#
# Indices 1 2 3 4 5 6 
#
# 1 135.4226 52.8057 42.3347 0.0000 0.0000 0.0000
# 2 52.8057 94.7535 31.6087 0.0000 0.0000 0.0000
# 3 42.3347 31.6087 79.0956 0.0000 0.0000 0.0000
# 4 0.0000 0.0000 0.0000 23.3716 0.0000 0.0000
# 5 0.0000 0.0000 0.0000 0.0000 23.6722 0.0000
# 6 0.0000 0.0000 0.0000 0.0000 0.0000 33.4800
#
#
#
# Elastic Compliance Matrix: (Units=1/GPa)
#
#
# Indices 1 2 3 4 5 6 
#
# 1 0.010301 -0.004501 -0.003714 0.000000 0.000000 0.000000
# 2 -0.004501 0.014144 -0.003243 0.000000 0.000000 0.000000
# 3 -0.003714 -0.003243 0.015927 0.000000 0.000000 0.000000
# 4 0.000000 0.000000 0.000000 0.042787 0.000000 0.000000
# 5 0.000000 0.000000 0.000000 0.000000 0.042244 0.000000
# 6 0.000000 0.000000 0.000000 0.000000 0.000000 0.029869
#
#
# Mechanical properties :
#
#
# Convention : Reuss Voigt Hill
#
# Bulk Modulus (GPa) = 57.29315 62.52999 59.91157
# Shear Modulus (GPa) = 27.17290 28.27295 27.72292
#
# Velocity S-wave (km/s) = 3.77639 3.85208 3.81442
# Velocity P-wave (km/s) = 7.00600 7.25274 7.13044
#
# Compressibility (1/GPa) = 0.01745409
#
# Stress axis : x y z
#
# Youngs Moduli (GPa) = 97.08052 70.70039 62.78641
#
# Poissons Ratio (x) = 0.31826 0.23321
# Poissons Ratio (y) = 0.43701 0.20362
# Poissons Ratio (z) = 0.36060 0.22929
#
# Static dielectric constant tensor:
#      x y z
#    x 1.683990 0.000000 0.000000 
#    y 0.000000 1.667640 0.000000 
#    z 0.000000 0.000000 1.661830 
# 
# From -- ./inp_files/22085.got.cif
#   From: 2010.05.17/outbox.cif.g08.bks.cpg/sg48_12_cif.got.tgz:22085.got - 2010.06.03 20:39:00.
