data_PCOD9390130
_publ_section_title
;
Structure prediction by ZEFSAII (Michael W. Deem and Ramdas Pophale) SiO2 
 PCOD9390130
Probable space group: P N N N
;
_chemical_formula_sum "Si O2"
_cell_formula_units_Z 32
_cell_length_a 8.644814
_cell_length_b 13.741026
_cell_length_c 11.013848
_cell_angle_alpha 90.000000
_cell_angle_beta 90.000000
_cell_angle_gamma 90.000000
_cell_volume 1308.319738
_symmetry_space_group_name_H-M "P N N N"
_symmetry_group_IT_number 48
_space_group.IT_coordinate_system_code '2'
_symmetry_cell_setting 'orthorhombic'
loop_
_space_group_symop_operation_xyz
x,y,z
1/2-x,1/2-y,z
x,1/2-y,1/2-z
1/2-x,y,1/2-z
-x,-y,-z
1/2+x,1/2+y,-z
-x,1/2+y,1/2+z
1/2+x,-y,1/2+z
loop_
_atom_site_type_symbol
_atom_site_label
_atom_site_fract_x
_atom_site_fract_y
_atom_site_fract_z
Si Si1 0.658018 0.129107 0.631459
Si Si2 0.356631 0.342053 0.954793
Si Si3 0.351852 0.962254 0.925427
Si Si4 0.425439 0.412267 0.207851
O O1 0.750000 0.153593 0.750000
O O2 0.500901 0.187332 0.626453
O O3 0.763491 0.115352 0.511619
O O4 0.594713 0.021008 0.659109
O O5 0.250000 0.250000 0.962290
O O6 0.261154 0.441057 0.916886
O O7 0.442727 0.353642 0.084741
O O8 0.434147 0.916510 0.804834
O O9 0.500000 0.000000 0.000000
O O10 0.250000 0.384771 0.250000
#
# Coordination Sequence:
#
# PCOD9390130 Si02
#       4
#     8   8   8   8
#     4  10  21  40  68 100 135 188 244 293 349 450
#     4  11  25  42  66 109 145 182 243 321 378 412
#     4  11  19  41  72 102 138 194 243 283 355 455
#     4  10  19  39  72 101 135 187 243 288 348 449
#
# _framework density 24.458852
#
# number of rings (size 3 to 8) (size 9 to 14) (size 15 to 20)
#    0.000    1.500    7.500    3.000    0.000    4.500 
#    0.000    5.000    0.000    1.500   26.000    0.000 
#    0.000    0.000    0.000    0.000    0.000    0.000 
#
# Total GULP energy -178505.490864 kJ/mol
# GULP energy per Si atom -5578.296589 kJ/mol
# Density = 2.440318 g / cm^3
# Si number density = 24.458852 Si / 1000 Ang^3
#
#
#
# Elastic Constant Matrix: (Units=GPa)
#
#
# Indices 1 2 3 4 5 6 
#
# 1 206.3525 48.4877 115.8570 0.0000 0.0000 0.0000
# 2 48.4877 69.6487 40.6450 0.0000 0.0000 0.0000
# 3 115.8570 40.6450 139.6510 0.0000 0.0000 0.0000
# 4 0.0000 0.0000 0.0000 22.8645 0.0000 0.0000
# 5 0.0000 0.0000 0.0000 0.0000 72.9920 0.0000
# 6 0.0000 0.0000 0.0000 0.0000 0.0000 19.7120
#
#
#
# Elastic Compliance Matrix: (Units=1/GPa)
#
#
# Indices 1 2 3 4 5 6 
#
# 1 0.009393 -0.002399 -0.007094 0.000000 0.000000 0.000000
# 2 -0.002399 0.017908 -0.003222 0.000000 0.000000 0.000000
# 3 -0.007094 -0.003222 0.013984 0.000000 0.000000 0.000000
# 4 0.000000 0.000000 0.000000 0.043736 0.000000 0.000000
# 5 0.000000 0.000000 0.000000 0.000000 0.013700 0.000000
# 6 0.000000 0.000000 0.000000 0.000000 0.000000 0.050731
#
#
# Mechanical properties :
#
#
# Convention : Reuss Voigt Hill
#
# Bulk Modulus (GPa) = 63.07294 91.73685 77.40489
# Shear Modulus (GPa) = 27.75208 37.15785 32.45496
#
# Velocity S-wave (km/s) = 3.37210 3.90192 3.64664
# Velocity P-wave (km/s) = 6.40350 7.60842 7.03181
#
# Compressibility (1/GPa) = 0.01585466
#
# Stress axis : x y z
#
# Youngs Moduli (GPa) = 106.46343 55.84069 71.51060
#
# Poissons Ratio (x) = 0.13397 0.50732
# Poissons Ratio (y) = 0.25541 0.23039
# Poissons Ratio (z) = 0.75528 0.17991
#
# Static dielectric constant tensor:
#      x y z
#    x 2.066400 0.000000 0.000000 
#    y 0.000000 1.954600 0.000000 
#    z 0.000000 0.000000 2.125140 
# 
# From -- ./inp_files/18194.got.cif
#   From: 2010.05.17/outbox.cif.g08.bks.cpg/sg48_10_cif.got.tgz:18194.got - 2010.06.03 20:39:00.
