data_PCOD9390149
_publ_section_title
;
Structure prediction by ZEFSAII (Michael W. Deem and Ramdas Pophale) SiO2 
 PCOD9390149
Probable space group: P N N N
;
_chemical_formula_sum "Si O2"
_cell_formula_units_Z 32
_cell_length_a 11.767015
_cell_length_b 15.456150
_cell_length_c 7.049307
_cell_angle_alpha 90.000000
_cell_angle_beta 90.000000
_cell_angle_gamma 90.000000
_cell_volume 1282.076842
_symmetry_space_group_name_H-M "P N N N"
_symmetry_group_IT_number 48
_space_group.IT_coordinate_system_code '2'
_symmetry_cell_setting 'orthorhombic'
loop_
_space_group_symop_operation_xyz
x,y,z
1/2-x,1/2-y,z
x,1/2-y,1/2-z
1/2-x,y,1/2-z
-x,-y,-z
1/2+x,1/2+y,-z
-x,1/2+y,1/2+z
1/2+x,-y,1/2+z
loop_
_atom_site_type_symbol
_atom_site_label
_atom_site_fract_x
_atom_site_fract_y
_atom_site_fract_z
Si Si1 0.225866 0.346660 0.973998
Si Si2 0.965629 0.359765 0.044934
Si Si3 0.632470 0.306727 0.042136
Si Si4 0.746862 0.471157 0.482281
O O1 0.250000 0.250000 0.047441
O O2 0.250000 0.342558 0.750000
O O3 0.288171 0.433986 0.044884
O O4 0.096938 0.374367 0.014471
O O5 0.945903 0.265332 0.950799
O O6 0.928295 0.338748 0.263137
O O7 0.879547 0.433866 0.976527
O O8 0.750000 0.250000 0.062705
O O9 0.670032 0.395351 0.946765
O O10 0.750000 0.471081 0.250000
#
# Coordination Sequence:
#
# PCOD9390149 Si02
#       4
#     8   8   8   8
#     4  10  20  30  39  61  99 138 161 175 213 285
#     4   9  14  26  48  71  90 117 152 196 242 271
#     4   8  14  27  51  79  91 102 149 214 249 264
#     4   8  14  27  48  71  92 113 151 199 237 274
#
# _framework density 24.959502000000001
#
# number of rings (size 3 to 8) (size 9 to 14) (size 15 to 20)
#    0.000    3.250    0.000    6.750    0.000    0.000 
#    0.000    3.750    0.000    0.000    0.000   70.000 
#    0.000    0.000    0.000    0.000    0.000    0.000 
#
# Total GULP energy -178167.361736 kJ/mol
# GULP energy per Si atom -5567.730054 kJ/mol
# Density = 2.490269 g / cm^3
# Si number density = 24.959502 Si / 1000 Ang^3
#
#
#
# Elastic Constant Matrix: (Units=GPa)
#
#
# Indices 1 2 3 4 5 6 
#
# 1 62.6083 19.5588 19.6875 0.0000 0.0000 0.0000
# 2 19.5588 286.1014 5.2509 0.0000 0.0000 0.0000
# 3 19.6875 5.2509 119.9403 0.0000 0.0000 0.0000
# 4 0.0000 0.0000 0.0000 -16.3581 0.0000 0.0000
# 5 0.0000 0.0000 0.0000 0.0000 38.4761 0.0000
# 6 0.0000 0.0000 0.0000 0.0000 0.0000 21.6783
#
#
#
# Elastic Compliance Matrix: (Units=1/GPa)
#
#
# Indices 1 2 3 4 5 6 
#
# 1 0.017196 -0.001125 -0.002773 0.000000 0.000000 0.000000
# 2 -0.001125 0.003572 0.000028 0.000000 0.000000 0.000000
# 3 -0.002773 0.000028 0.008791 0.000000 0.000000 0.000000
# 4 0.000000 0.000000 0.000000 -0.061132 0.000000 0.000000
# 5 0.000000 0.000000 0.000000 0.000000 0.025990 0.000000
# 6 0.000000 0.000000 0.000000 0.000000 0.000000 0.046129
#
#
# Mechanical properties :
#
#
# Convention : Reuss Voigt Hill
#
# Bulk Modulus (GPa) = 45.83092 61.96050 53.89571
# Shear Modulus (GPa) = 89.99433 37.03611 63.51522
#
# Velocity S-wave (km/s) = 6.01119 3.85625 5.05001
# Velocity P-wave (km/s) = 8.15973 6.68625 7.45946
#
# Compressibility (1/GPa) = 0.02181933
#
# Stress axis : x y z
#
# Youngs Moduli (GPa) = 58.15386 279.98406 113.74655
#
# Poissons Ratio (x) = 0.31489 0.31546
# Poissons Ratio (y) = 0.06540 -0.00321
# Poissons Ratio (z) = 0.16128 -0.00791
#
# Static dielectric constant tensor:
#      x y z
#    x 1.999130 0.000000 0.000000 
#    y 0.000000 2.058330 0.000000 
#    z 0.000000 0.000000 2.039240 
# 
# From -- ./inp_files/10548.got.cif
#   From: 2010.05.17/outbox.cif.g08.bks.cpg/sg48_6_cif.got.tgz:10548.got - 2010.06.03 20:39:00.
