data_PCOD9390679
_publ_section_title
;
Structure prediction by ZEFSAII (Michael W. Deem and Ramdas Pophale) SiO2 
 PCOD9390679
Probable space group: P N N N
;
_chemical_formula_sum "Si O2"
_cell_formula_units_Z 40
_cell_length_a 12.880446
_cell_length_b 4.971258
_cell_length_c 29.986752
_cell_angle_alpha 90.000000
_cell_angle_beta 90.000000
_cell_angle_gamma 90.000000
_cell_volume 1920.112310
_symmetry_space_group_name_H-M "P N N N"
_symmetry_group_IT_number 48
_space_group.IT_coordinate_system_code '2'
_symmetry_cell_setting 'orthorhombic'
loop_
_space_group_symop_operation_xyz
x,y,z
1/2-x,1/2-y,z
x,1/2-y,1/2-z
1/2-x,y,1/2-z
-x,-y,-z
1/2+x,1/2+y,-z
-x,1/2+y,1/2+z
1/2+x,-y,1/2+z
loop_
_atom_site_type_symbol
_atom_site_label
_atom_site_fract_x
_atom_site_fract_y
_atom_site_fract_z
Si Si1 0.368331 0.810574 0.697307
Si Si2 0.173053 0.494020 0.936706
Si Si3 0.624719 0.254653 0.915911
Si Si4 0.453891 0.339639 0.649996
Si Si5 0.374840 0.262204 0.472914
O O1 0.250000 0.750000 0.680831
O O2 0.364180 0.750000 0.750000
O O3 0.455896 0.600391 0.681006
O O4 0.395949 0.104773 0.677872
O O5 0.250000 0.250000 0.931022
O O6 0.107236 0.471562 0.892053
O O7 0.250000 0.750000 0.943646
O O8 0.105026 0.410197 0.980034
O O9 0.750000 0.250000 0.909620
O O10 0.557395 0.289340 0.871458
O O11 0.593926 0.467584 0.955223
O O12 0.597290 0.960999 0.933580
O O13 0.250000 0.250000 0.473975
#
# Coordination Sequence:
#
# PCOD9390679 Si02
#       5
#     8   8   8   8   8
#     4  11  24  43  65  89 118 147 179 231 305 379
#     4  11  21  34  54  84 122 157 196 246 292 340
#     4  10  21  37  57  82 117 161 205 240 276 329
#     4  12  23  37  62  90 116 151 197 244 290 349
#     4   9  18  34  53  76 116 165 201 236 283 329
#
# _framework density 20.832117
#
# number of rings (size 3 to 8) (size 9 to 14) (size 15 to 20)
#    0.000    1.400    0.000    8.400    0.000    3.200 
#    0.000    0.000    0.000    7.200    0.000    0.000 
#    0.000    0.000    0.000    0.000    0.000    0.000 
#
# Total GULP energy -222770.396385 kJ/mol
# GULP energy per Si atom -5569.259910 kJ/mol
# Density = 2.078470 g / cm^3
# Si number density = 20.832117 Si / 1000 Ang^3
#
#
#
# Elastic Constant Matrix: (Units=GPa)
#
#
# Indices 1 2 3 4 5 6 
#
# 1 78.8556 21.0472 37.0313 0.0000 0.0000 0.0000
# 2 21.0472 110.5727 16.6516 0.0000 0.0000 0.0000
# 3 37.0313 16.6516 94.7359 0.0000 0.0000 0.0000
# 4 0.0000 0.0000 0.0000 -181.5020 0.0000 0.0000
# 5 0.0000 0.0000 0.0000 0.0000 -2.4074 0.0000
# 6 0.0000 0.0000 0.0000 0.0000 0.0000 21.0186
#
#
#
# Elastic Compliance Matrix: (Units=1/GPa)
#
#
# Indices 1 2 3 4 5 6 
#
# 1 0.016021 -0.002164 -0.005882 0.000000 0.000000 0.000000
# 2 -0.002164 0.009582 -0.000838 0.000000 0.000000 0.000000
# 3 -0.005882 -0.000838 0.013002 0.000000 0.000000 0.000000
# 4 0.000000 0.000000 0.000000 -0.005510 0.000000 0.000000
# 5 0.000000 0.000000 0.000000 0.000000 -0.415392 0.000000
# 6 0.000000 0.000000 0.000000 0.000000 0.000000 0.047577
#
#
# Mechanical properties :
#
#
# Convention : Reuss Voigt Hill
#
# Bulk Modulus (GPa) = 47.99219 48.18051 48.08635
# Shear Modulus (GPa) = -16.12880 -18.61587 -17.37234
#
# Velocity S-wave (km/s) = -2.78551 -2.99258 -2.89090
# Velocity P-wave (km/s) = 3.56962 3.35224 3.46263
#
# Compressibility (1/GPa) = 0.02083672
#
# Stress axis : x y z
#
# Youngs Moduli (GPa) = 62.41694 104.36283 76.90924
#
# Poissons Ratio (x) = 0.22582 0.45240
# Poissons Ratio (y) = 0.13506 0.06448
# Poissons Ratio (z) = 0.36715 0.08750
#
# Static dielectric constant tensor:
#      x y z
#    x 1.788270 0.000000 0.000000 
#    y 0.000000 1.759490 0.000000 
#    z 0.000000 0.000000 1.873580 
# 
# From -- ./inp_files/37614.got.cif
#   From: 2010.05.17/outbox.cif.g08.bks.cpg/sg48_19_cif.got.tgz:37614.got - 2010.06.03 20:39:00.
