data_PCOD9390321
_publ_section_title
;
Structure prediction by ZEFSAII (Michael W. Deem and Ramdas Pophale) SiO2 
 PCOD9390321
Probable space group: P N N N
;
_chemical_formula_sum "Si O2"
_cell_formula_units_Z 32
_cell_length_a 23.363502
_cell_length_b 7.843780
_cell_length_c 8.471972
_cell_angle_alpha 90.000000
_cell_angle_beta 90.000000
_cell_angle_gamma 90.000000
_cell_volume 1552.558083
_symmetry_space_group_name_H-M "P N N N"
_symmetry_group_IT_number 48
_space_group.IT_coordinate_system_code '2'
_symmetry_cell_setting 'orthorhombic'
loop_
_space_group_symop_operation_xyz
x,y,z
1/2-x,1/2-y,z
x,1/2-y,1/2-z
1/2-x,y,1/2-z
-x,-y,-z
1/2+x,1/2+y,-z
-x,1/2+y,1/2+z
1/2+x,-y,1/2+z
loop_
_atom_site_type_symbol
_atom_site_label
_atom_site_fract_x
_atom_site_fract_y
_atom_site_fract_z
Si Si1 0.418066 0.372302 0.922121
Si Si2 0.867054 0.086411 0.359830
Si Si3 0.454993 0.773748 0.426780
Si Si4 0.810819 0.814033 0.566262
O O1 0.390660 0.443168 0.760075
O O2 0.476309 0.262386 0.922407
O O3 0.437278 0.539886 0.016484
O O4 0.366724 0.282726 0.009013
O O5 0.847449 0.250000 0.250000
O O6 0.922595 0.148783 0.455953
O O7 0.823238 0.003137 0.488942
O O8 0.433531 0.750000 0.250000
O O9 0.750000 0.750000 0.498897
O O10 0.808547 0.750000 0.750000
#
# Coordination Sequence:
#
# PCOD9390321 Si02
#       4
#     8   8   8   8
#     4  10  22  37  59  90 122 160 205 253 310 374
#     4  10  22  40  62  92 124 161 207 255 314 377
#     4  10  20  36  59  89 125 161 200 252 312 372
#     4  11  24  42  64  89 120 162 210 259 313 374
#
# _framework density 20.611145
#
# number of rings (size 3 to 8) (size 9 to 14) (size 15 to 20)
#    0.000    1.750    0.000    3.750    0.000   11.000 
#    0.000    8.750    0.000   13.500    0.000    0.000 
#    0.000    0.000    0.000    0.000    0.000    0.000 
#
# Total GULP energy -178167.986989 kJ/mol
# GULP energy per Si atom -5567.749593 kJ/mol
# Density = 2.056423 g / cm^3
# Si number density = 20.611145 Si / 1000 Ang^3
#
#
#
# Elastic Constant Matrix: (Units=GPa)
#
#
# Indices 1 2 3 4 5 6 
#
# 1 105.7068 42.4081 25.5432 0.0000 0.0000 0.0000
# 2 42.4081 83.7249 33.2546 0.0000 0.0000 0.0000
# 3 25.5432 33.2546 114.4052 0.0000 0.0000 0.0000
# 4 0.0000 0.0000 0.0000 24.7731 0.0000 0.0000
# 5 0.0000 0.0000 0.0000 0.0000 33.1165 0.0000
# 6 0.0000 0.0000 0.0000 0.0000 0.0000 -10.5244
#
#
#
# Elastic Compliance Matrix: (Units=1/GPa)
#
#
# Indices 1 2 3 4 5 6 
#
# 1 0.011979 -0.005659 -0.001030 0.000000 0.000000 0.000000
# 2 -0.005659 0.016176 -0.003438 0.000000 0.000000 0.000000
# 3 -0.001030 -0.003438 0.009970 0.000000 0.000000 0.000000
# 4 0.000000 0.000000 0.000000 0.040366 0.000000 0.000000
# 5 0.000000 0.000000 0.000000 0.000000 0.030196 0.000000
# 6 0.000000 0.000000 0.000000 0.000000 0.000000 -0.095017
#
#
# Mechanical properties :
#
#
# Convention : Reuss Voigt Hill
#
# Bulk Modulus (GPa) = 55.95521 56.24987 56.10254
# Shear Modulus (GPa) = 125.37090 22.98177 74.17633
#
# Velocity S-wave (km/s) = 7.80761 3.34281 6.00555
# Velocity P-wave (km/s) = 10.41563 6.49995 8.68144
#
# Compressibility (1/GPa) = 0.01787144
#
# Stress axis : x y z
#
# Youngs Moduli (GPa) = 83.47848 61.82067 100.29836
#
# Poissons Ratio (x) = 0.34982 0.10328
# Poissons Ratio (y) = 0.47237 0.34488
# Poissons Ratio (z) = 0.08596 0.21257
#
# Static dielectric constant tensor:
#      x y z
#    x 1.673140 0.000000 0.000000 
#    y 0.000000 1.840330 0.000000 
#    z 0.000000 0.000000 1.841900 
# 
# From -- ./inp_files/8630.got.cif
#   From: 2010.05.17/outbox.cif.g08.bks.cpg/sg48_5_cif.got.tgz:8630.got - 2010.06.03 20:39:00.
