data_PCOD9390255
_publ_section_title
;
Structure prediction by ZEFSAII (Michael W. Deem and Ramdas Pophale) SiO2 
 PCOD9390255
Probable space group: P N N N
;
_chemical_formula_sum "Si O2"
_cell_formula_units_Z 40
_cell_length_a 5.003941
_cell_length_b 20.175088
_cell_length_c 18.174133
_cell_angle_alpha 90.000000
_cell_angle_beta 90.000000
_cell_angle_gamma 90.000000
_cell_volume 1834.768689
_symmetry_space_group_name_H-M "P N N N"
_symmetry_group_IT_number 48
_space_group.IT_coordinate_system_code '2'
_symmetry_cell_setting 'orthorhombic'
loop_
_space_group_symop_operation_xyz
x,y,z
1/2-x,1/2-y,z
x,1/2-y,1/2-z
1/2-x,y,1/2-z
-x,-y,-z
1/2+x,1/2+y,-z
-x,1/2+y,1/2+z
1/2+x,-y,1/2+z
loop_
_atom_site_type_symbol
_atom_site_label
_atom_site_fract_x
_atom_site_fract_y
_atom_site_fract_z
Si Si1 0.239499 0.072564 0.141818
Si Si2 0.017359 0.705344 0.024770
Si Si3 0.326274 0.435675 0.524046
Si Si4 0.989108 0.205533 0.353813
Si Si5 0.247256 0.008677 0.829270
O O1 0.401098 0.135306 0.173195
O O2 0.450409 0.013574 0.154238
O O3 0.958201 0.053016 0.176900
O O4 0.188949 0.083885 0.053837
O O5 0.750000 0.750000 0.028172
O O6 0.978844 0.630291 0.051350
O O7 0.250000 0.750000 0.058857
O O8 0.089211 0.693400 0.938933
O O9 0.500000 0.500000 0.500000
O O10 0.153849 0.455944 0.595175
O O11 0.750000 0.250000 0.323447
O O12 0.250000 0.250000 0.351698
O O13 0.250000 0.043598 0.750000
#
# Coordination Sequence:
#
# PCOD9390255 Si02
#       5
#     8   8   8   8   8
#     4  10  20  35  55  80 111 143 185 235 286 342
#     4   9  18  31  50  80 115 144 176 227 284 332
#     4   9  20  36  59  87 114 148 195 241 284 345
#     4   9  16  28  49  76 104 137 177 221 269 326
#     4  11  22  36  54  79 111 147 185 236 294 343
#
# _framework density 21.801112
#
# number of rings (size 3 to 8) (size 9 to 14) (size 15 to 20)
#    0.000    2.400    0.000    2.400    0.000   12.800 
#    0.000    0.000    0.000    9.600    0.000    1.400 
#    0.000    0.000    0.000    0.000    0.000    0.400 
#
# Total GULP energy -222854.210163 kJ/mol
# GULP energy per Si atom -5571.355254 kJ/mol
# Density = 2.175149 g / cm^3
# Si number density = 21.801112 Si / 1000 Ang^3
#
#
#
# Elastic Constant Matrix: (Units=GPa)
#
#
# Indices 1 2 3 4 5 6 
#
# 1 81.1859 21.5429 15.2825 0.0000 0.0000 0.0000
# 2 21.5429 119.1327 9.3642 0.0000 0.0000 0.0000
# 3 15.2825 9.3642 114.0149 0.0000 0.0000 0.0000
# 4 0.0000 0.0000 0.0000 3.3631 0.0000 0.0000
# 5 0.0000 0.0000 0.0000 0.0000 14.8996 0.0000
# 6 0.0000 0.0000 0.0000 0.0000 0.0000 30.6300
#
#
#
# Elastic Compliance Matrix: (Units=1/GPa)
#
#
# Indices 1 2 3 4 5 6 
#
# 1 0.013217 -0.002265 -0.001586 0.000000 0.000000 0.000000
# 2 -0.002265 0.008837 -0.000422 0.000000 0.000000 0.000000
# 3 -0.001586 -0.000422 0.009018 0.000000 0.000000 0.000000
# 4 0.000000 0.000000 0.000000 0.297344 0.000000 0.000000
# 5 0.000000 0.000000 0.000000 0.000000 0.067116 0.000000
# 6 0.000000 0.000000 0.000000 0.000000 0.000000 0.032648
#
#
# Mechanical properties :
#
#
# Convention : Reuss Voigt Hill
#
# Bulk Modulus (GPa) = 44.39380 45.19029 44.79205
# Shear Modulus (GPa) = 11.25533 27.65480 19.45506
#
# Velocity S-wave (km/s) = 2.27463 3.56547 2.99053
# Velocity P-wave (km/s) = 5.22550 6.14195 5.70217
#
# Compressibility (1/GPa) = 0.02252567
#
# Stress axis : x y z
#
# Youngs Moduli (GPa) = 75.66008 113.16267 110.88965
#
# Poissons Ratio (x) = 0.25636 0.17582
# Poissons Ratio (y) = 0.17140 0.04681
# Poissons Ratio (z) = 0.11996 0.04777
#
# Static dielectric constant tensor:
#      x y z
#    x 1.890860 0.000000 0.000000 
#    y 0.000000 1.891560 0.000000 
#    z 0.000000 0.000000 1.886810 
# 
# From -- ./inp_files/32804.got.cif
#   From: 2010.05.17/outbox.cif.g08.bks.cpg/sg48_17_cif.got.tgz:32804.got - 2010.06.03 20:39:00.
