data_PCOD9390941
_publ_section_title
;
Structure prediction by ZEFSAII (Michael W. Deem and Ramdas Pophale) SiO2 
 PCOD9390941
Probable space group: P N N N
;
_chemical_formula_sum "Si O2"
_cell_formula_units_Z 28
_cell_length_a 12.219645
_cell_length_b 14.727960
_cell_length_c 7.572062
_cell_angle_alpha 90.000000
_cell_angle_beta 90.000000
_cell_angle_gamma 90.000000
_cell_volume 1362.747351
_symmetry_space_group_name_H-M "P N N N"
_symmetry_group_IT_number 48
_space_group.IT_coordinate_system_code '2'
_symmetry_cell_setting 'orthorhombic'
loop_
_space_group_symop_operation_xyz
x,y,z
1/2-x,1/2-y,z
x,1/2-y,1/2-z
1/2-x,y,1/2-z
-x,-y,-z
1/2+x,1/2+y,-z
-x,1/2+y,1/2+z
1/2+x,-y,1/2+z
loop_
_atom_site_type_symbol
_atom_site_label
_atom_site_fract_x
_atom_site_fract_y
_atom_site_fract_z
Si Si1 0.592836 0.266757 0.952658
Si Si2 0.282562 0.598068 0.561070
Si Si3 0.355420 0.197292 0.433040
Si Si4 0.750000 0.969765 0.750000
O O1 0.621496 0.250000 0.750000
O O2 0.623373 0.175791 0.063394
O O3 0.672856 0.345993 0.014945
O O4 0.466881 0.294697 0.962121
O O5 0.250000 0.555028 0.750000
O O6 0.307786 0.531473 0.398358
O O7 0.250000 0.250000 0.513391
O O8 0.375702 0.250000 0.250000
O O9 0.324903 0.096506 0.368965
#
# Coordination Sequence:
#
# PCOD9390941 Si02
#       4
#     8   8   8   4
#     4  11  20  39  64  89 124 161 202 249 302 366
#     4  11  21  39  66  92 120 157 204 254 306 353
#     4   9  21  42  60  82 125 166 199 247 304 367
#     4  10  21  43  60  92 126 154 204 259 299 354
#
# _framework density 20.546728999999999
#
# number of rings (size 3 to 8) (size 9 to 14) (size 15 to 20)
#    0.000    2.000    2.857    4.286    0.000    1.714 
#   10.286    7.143    0.000    0.000    0.000    0.000 
#    0.000    0.000    0.000    0.000    0.000    0.000 
#
# Total GULP energy -156123.159947 kJ/mol
# GULP energy per Si atom -5575.827141 kJ/mol
# Density = 2.049996 g / cm^3
# Si number density = 20.546729 Si / 1000 Ang^3
#
#
#
# Elastic Constant Matrix: (Units=GPa)
#
#
# Indices 1 2 3 4 5 6 
#
# 1 130.8084 30.0042 10.6296 0.0000 0.0000 0.0000
# 2 30.0042 88.3049 15.2177 0.0000 0.0000 0.0000
# 3 10.6296 15.2177 81.0259 0.0000 0.0000 0.0000
# 4 0.0000 0.0000 0.0000 -58.9682 0.0000 0.0000
# 5 0.0000 0.0000 0.0000 0.0000 24.6744 0.0000
# 6 0.0000 0.0000 0.0000 0.0000 0.0000 -4.9305
#
#
#
# Elastic Compliance Matrix: (Units=1/GPa)
#
#
# Indices 1 2 3 4 5 6 
#
# 1 0.008317 -0.002726 -0.000579 0.000000 0.000000 0.000000
# 2 -0.002726 0.012597 -0.002008 0.000000 0.000000 0.000000
# 3 -0.000579 -0.002008 0.012795 0.000000 0.000000 0.000000
# 4 0.000000 0.000000 0.000000 -0.016958 0.000000 0.000000
# 5 0.000000 0.000000 0.000000 0.000000 0.040528 0.000000
# 6 0.000000 0.000000 0.000000 0.000000 0.000000 -0.202821
#
#
# Mechanical properties :
#
#
# Convention : Reuss Voigt Hill
#
# Bulk Modulus (GPa) = 43.32411 45.76023 44.54217
# Shear Modulus (GPa) = -39.30136 8.44100 -15.43018
#
# Velocity S-wave (km/s) = -4.37828 2.02907 -2.74337
# Velocity P-wave (km/s) = 2.10420 5.27344 3.41917
#
# Compressibility (1/GPa) = 0.02308183
#
# Stress axis : x y z
#
# Youngs Moduli (GPa) = 120.23351 79.38536 78.15636
#
# Poissons Ratio (x) = 0.21642 0.04526
# Poissons Ratio (y) = 0.32778 0.15695
# Poissons Ratio (z) = 0.06963 0.15942
#
# Static dielectric constant tensor:
#      x y z
#    x 1.745490 0.000000 0.000000 
#    y 0.000000 1.778130 0.000000 
#    z 0.000000 0.000000 1.763520 
# 
# From -- ./inp_files/9995.got.cif
#   From: 2010.05.17/outbox.cif.g08.bks.cpg/sg48_5_cif.got.tgz:9995.got - 2010.06.03 20:39:00.
