data_PCOD9390984
_publ_section_title
;
Structure prediction by ZEFSAII (Michael W. Deem and Ramdas Pophale) SiO2 
 PCOD9390984
Probable space group: P N N N
;
_chemical_formula_sum "Si O2"
_cell_formula_units_Z 32
_cell_length_a 8.842355
_cell_length_b 5.962547
_cell_length_c 29.066753
_cell_angle_alpha 90.000000
_cell_angle_beta 90.000000
_cell_angle_gamma 90.000000
_cell_volume 1532.485177
_symmetry_space_group_name_H-M "P N N N"
_symmetry_group_IT_number 48
_space_group.IT_coordinate_system_code '2'
_symmetry_cell_setting 'orthorhombic'
loop_
_space_group_symop_operation_xyz
x,y,z
1/2-x,1/2-y,z
x,1/2-y,1/2-z
1/2-x,y,1/2-z
-x,-y,-z
1/2+x,1/2+y,-z
-x,1/2+y,1/2+z
1/2+x,-y,1/2+z
loop_
_atom_site_type_symbol
_atom_site_label
_atom_site_fract_x
_atom_site_fract_y
_atom_site_fract_z
Si Si1 0.003608 0.433926 0.790012
Si Si2 0.419290 0.650329 0.125853
Si Si3 0.395441 0.618038 0.462946
Si Si4 0.750000 0.750000 0.750000
Si Si5 0.750000 0.250000 0.250000
Si Si6 0.250000 0.250000 0.103844
O O1 0.000368 0.250000 0.750000
O O2 0.145122 0.594581 0.781575
O O3 0.010305 0.289015 0.836546
O O4 0.855781 0.588690 0.781053
O O5 0.250000 0.750000 0.131914
O O6 0.470667 0.709367 0.073829
O O7 0.382244 0.386452 0.130368
O O8 0.250000 0.750000 0.483140
O O9 0.500000 0.500000 0.500000
O O10 0.331288 0.424973 0.429716
#
# Coordination Sequence:
#
# PCOD9390984 Si02
#       6
#     8   8   8   2   2   4
#     4  11  22  39  60  87 118 158 203 244 306 365
#     4   9  19  34  58  90 112 148 200 249 300 361
#     4   9  19  35  56  85 118 153 197 249 309 367
#     4  10  22  36  64  92 116 142 194 258 290 352
#     4  10  26  42  56  76 132 170 190 258 304 356
#     4   8  18  35  60  85 120 148 187 256 301 344
#
# _framework density 20.881115000000001
#
# number of rings (size 3 to 8) (size 9 to 14) (size 15 to 20)
#    0.000    3.000    0.000    2.250    0.000   17.000 
#    2.250    0.000    5.500    0.000    0.000    0.000 
#    0.000    0.000    0.000    0.000    0.000    0.000 
#
# Total GULP energy -178364.066338 kJ/mol
# GULP energy per Si atom -5573.877073 kJ/mol
# Density = 2.083359 g / cm^3
# Si number density = 20.881115 Si / 1000 Ang^3
#
#
#
# Elastic Constant Matrix: (Units=GPa)
#
#
# Indices 1 2 3 4 5 6 
#
# 1 88.9142 61.1887 55.1598 0.0000 0.0000 0.0000
# 2 61.1887 150.4243 58.3147 0.0000 0.0000 0.0000
# 3 55.1598 58.3147 121.8920 0.0000 0.0000 0.0000
# 4 0.0000 0.0000 0.0000 26.6572 0.0000 0.0000
# 5 0.0000 0.0000 0.0000 0.0000 13.1241 0.0000
# 6 0.0000 0.0000 0.0000 0.0000 0.0000 24.6028
#
#
#
# Elastic Compliance Matrix: (Units=1/GPa)
#
#
# Indices 1 2 3 4 5 6 
#
# 1 0.018495 -0.005253 -0.005856 0.000000 0.000000 0.000000
# 2 -0.005253 0.009653 -0.002241 0.000000 0.000000 0.000000
# 3 -0.005856 -0.002241 0.011926 0.000000 0.000000 0.000000
# 4 0.000000 0.000000 0.000000 0.037513 0.000000 0.000000
# 5 0.000000 0.000000 0.000000 0.000000 0.076196 0.000000
# 6 0.000000 0.000000 0.000000 0.000000 0.000000 0.040646
#
#
# Mechanical properties :
#
#
# Convention : Reuss Voigt Hill
#
# Bulk Modulus (GPa) = 74.77400 78.95076 76.86238
# Shear Modulus (GPa) = 22.16424 25.31464 23.73944
#
# Velocity S-wave (km/s) = 3.26152 3.48562 3.37543
# Velocity P-wave (km/s) = 7.07605 7.35467 7.21670
#
# Compressibility (1/GPa) = 0.01337363
#
# Stress axis : x y z
#
# Youngs Moduli (GPa) = 54.06901 103.58987 83.84731
#
# Poissons Ratio (x) = 0.54414 0.49105
# Poissons Ratio (y) = 0.28402 0.18792
# Poissons Ratio (z) = 0.31665 0.23217
#
# Static dielectric constant tensor:
#      x y z
#    x 1.763080 0.000000 0.000000 
#    y 0.000000 1.883310 0.000000 
#    z 0.000000 0.000000 1.815750 
# 
# From -- ./inp_files/6869.got.cif
#   From: 2010.05.17/outbox.cif.g08.bks.cpg/sg48_4_cif.got.tgz:6869.got - 2010.06.03 20:39:00.
