data_PCOD9390467
_publ_section_title
;
Structure prediction by ZEFSAII (Michael W. Deem and Ramdas Pophale) SiO2 
 PCOD9390467
Probable space group: P N N N
;
_chemical_formula_sum "Si O2"
_cell_formula_units_Z 60
_cell_length_a 22.348158
_cell_length_b 5.363106
_cell_length_c 25.899073
_cell_angle_alpha 90.000000
_cell_angle_beta 90.000000
_cell_angle_gamma 90.000000
_cell_volume 3104.147387
_symmetry_space_group_name_H-M "P N N N"
_symmetry_group_IT_number 48
_space_group.IT_coordinate_system_code '2'
_symmetry_cell_setting 'orthorhombic'
loop_
_space_group_symop_operation_xyz
x,y,z
1/2-x,1/2-y,z
x,1/2-y,1/2-z
1/2-x,y,1/2-z
-x,-y,-z
1/2+x,1/2+y,-z
-x,1/2+y,1/2+z
1/2+x,-y,1/2+z
loop_
_atom_site_type_symbol
_atom_site_label
_atom_site_fract_x
_atom_site_fract_y
_atom_site_fract_z
Si Si1 0.909570 0.499619 0.159292
Si Si2 0.814912 0.362880 0.320746
Si Si3 0.876443 0.750000 0.250000
Si Si4 0.677941 0.698382 0.087047
Si Si5 0.822368 0.252937 0.907349
Si Si6 0.596358 0.236185 0.809766
Si Si7 0.019448 0.236821 0.189660
Si Si8 0.177776 0.243640 0.033722
O O1 0.861361 0.349727 0.193162
O O2 0.924266 0.705304 0.202482
O O3 0.870108 0.615379 0.113621
O O4 0.964287 0.312081 0.152302
O O5 0.750000 0.250000 0.316463
O O6 0.829093 0.592213 0.284589
O O7 0.828179 0.445513 0.379845
O O8 0.750000 0.750000 0.093683
O O9 0.664308 0.703513 0.026636
O O10 0.750000 0.250000 0.905428
O O11 0.850247 0.256517 0.850708
O O12 0.841892 0.495647 0.940664
O O13 0.842763 0.998315 0.935004
O O14 0.615816 0.250000 0.750000
O O15 0.552446 0.473935 0.819404
O O16 0.564435 0.969450 0.816513
O O17 0.998877 0.250000 0.250000
O O18 0.250000 0.250000 0.036511
#
# Coordination Sequence:
#
# PCOD9390467 Si02
#       8
#     8   8   4   8   8   8   8   8
#     4  11  23  36  56  77 110 155 207 255 300 355
#     4  11  22  35  51  75 110 150 197 256 320 368
#     4  10  24  35  48  76 108 150 199 256 316 368
#     4  10  21  37  54  83 113 149 205 256 310 352
#     4  10  20  38  64  97 123 152 186 227 295 362
#     4  10  22  39  63  92 124 155 188 234 286 350
#     4  10  22  38  60  84 116 160 208 239 282 347
#     4   9  20  35  62  89 121 156 194 241 289 357
#
# _framework density 19.328980999999999
#
# number of rings (size 3 to 8) (size 9 to 14) (size 15 to 20)
#    0.000    1.867    1.333    2.000    8.400    2.400 
#    0.000    0.000    0.000    9.600    0.000    0.000 
#    0.000    0.000    0.000    0.000    0.000    0.000 
#
# Total GULP energy -334120.143516 kJ/mol
# GULP energy per Si atom -5568.669059 kJ/mol
# Density = 1.928499 g / cm^3
# Si number density = 19.328981 Si / 1000 Ang^3
#
#
#
# Elastic Constant Matrix: (Units=GPa)
#
#
# Indices 1 2 3 4 5 6 
#
# 1 38.7079 21.6777 35.9846 0.0000 0.0000 0.0000
# 2 21.6777 94.7448 42.3978 0.0000 0.0000 0.0000
# 3 35.9846 42.3978 122.3355 0.0000 0.0000 0.0000
# 4 0.0000 0.0000 0.0000 27.2570 0.0000 0.0000
# 5 0.0000 0.0000 0.0000 0.0000 17.0562 0.0000
# 6 0.0000 0.0000 0.0000 0.0000 0.0000 17.3198
#
#
#
# Elastic Compliance Matrix: (Units=1/GPa)
#
#
# Indices 1 2 3 4 5 6 
#
# 1 0.036949 -0.004249 -0.009396 0.000000 0.000000 0.000000
# 2 -0.004249 0.012981 -0.003249 0.000000 0.000000 0.000000
# 3 -0.009396 -0.003249 0.012064 0.000000 0.000000 0.000000
# 4 0.000000 0.000000 0.000000 0.036688 0.000000 0.000000
# 5 0.000000 0.000000 0.000000 0.000000 0.058630 0.000000
# 6 0.000000 0.000000 0.000000 0.000000 0.000000 0.057737
#
#
# Mechanical properties :
#
#
# Convention : Reuss Voigt Hill
#
# Bulk Modulus (GPa) = 35.45368 50.65649 43.05509
# Shear Modulus (GPa) = 19.36196 22.70848 21.03522
#
# Velocity S-wave (km/s) = 3.16841 3.43131 3.30248
# Velocity P-wave (km/s) = 5.63623 6.47788 6.07166
#
# Compressibility (1/GPa) = 0.02820581
#
# Stress axis : x y z
#
# Youngs Moduli (GPa) = 27.06428 77.03704 82.89196
#
# Poissons Ratio (x) = 0.32737 0.77883
# Poissons Ratio (y) = 0.11501 0.26930
# Poissons Ratio (z) = 0.25429 0.25028
#
# Static dielectric constant tensor:
#      x y z
#    x 1.687360 0.000000 0.000000 
#    y 0.000000 0.741700 0.000000 
#    z 0.000000 0.000000 1.694180 
# 
# From -- ./inp_files/36771.got.cif
#   From: 2010.05.17/outbox.cif.g08.bks.cpg/sg48_19_cif.got.tgz:36771.got - 2010.06.03 20:39:00.
