data_PCOD9390191
_publ_section_title
;
Structure prediction by ZEFSAII (Michael W. Deem and Ramdas Pophale) SiO2 
 PCOD9390191
Probable space group: P N N N
;
_chemical_formula_sum "Si O2"
_cell_formula_units_Z 40
_cell_length_a 7.325946
_cell_length_b 8.528258
_cell_length_c 27.384300
_cell_angle_alpha 90.000000
_cell_angle_beta 90.000000
_cell_angle_gamma 90.000000
_cell_volume 1710.904180
_symmetry_space_group_name_H-M "P N N N"
_symmetry_group_IT_number 48
_space_group.IT_coordinate_system_code '2'
_symmetry_cell_setting 'orthorhombic'
loop_
_space_group_symop_operation_xyz
x,y,z
1/2-x,1/2-y,z
x,1/2-y,1/2-z
1/2-x,y,1/2-z
-x,-y,-z
1/2+x,1/2+y,-z
-x,1/2+y,1/2+z
1/2+x,-y,1/2+z
loop_
_atom_site_type_symbol
_atom_site_label
_atom_site_fract_x
_atom_site_fract_y
_atom_site_fract_z
Si Si1 0.451177 0.177885 0.300490
Si Si2 0.047166 0.817038 0.201838
Si Si3 0.454500 0.232283 0.594431
Si Si4 0.970708 0.056164 0.445141
Si Si5 0.552149 0.383794 0.089215
O O1 0.250000 0.250000 0.308324
O O2 0.530303 0.250000 0.250000
O O3 0.549123 0.170383 0.353546
O O4 0.428422 0.997903 0.288735
O O5 0.250000 0.750000 0.195524
O O6 0.958550 0.750000 0.250000
O O7 0.943426 0.783304 0.152488
O O8 0.250000 0.250000 0.573113
O O9 0.542627 0.402776 0.584327
O O10 0.532614 0.059039 0.580627
O O11 0.759399 0.084972 0.428836
O O12 0.039579 0.234993 0.437533
O O13 0.000000 0.000000 0.500000
#
# Coordination Sequence:
#
# PCOD9390191 Si02
#       5
#     8   8   8   8   8
#     4  10  20  35  60  91 129 169 202 255 319 379
#     4  10  20  33  55  90 120 162 206 244 299 383
#     4   9  20  39  61  85 124 154 197 259 308 372
#     4  10  21  40  65  84 118 162 208 270 325 372
#     4   9  21  41  60  93 121 157 213 254 320 392
#
# _framework density 23.379449999999999
#
# number of rings (size 3 to 8) (size 9 to 14) (size 15 to 20)
#    0.000    2.400    0.000    2.400    5.600    1.200 
#    3.600    5.000    0.000    0.000    0.000    0.000 
#    0.000    0.000    0.000    0.000    0.000    0.000 
#
# Total GULP energy -222702.140900 kJ/mol
# GULP energy per Si atom -5567.553523 kJ/mol
# Density = 2.332624 g / cm^3
# Si number density = 23.379450 Si / 1000 Ang^3
#
#
#
# Elastic Constant Matrix: (Units=GPa)
#
#
# Indices 1 2 3 4 5 6 
#
# 1 99.1064 29.1343 17.8719 0.0000 0.0000 0.0000
# 2 29.1343 281.0416 88.2560 0.0000 0.0000 0.0000
# 3 17.8719 88.2560 108.5276 0.0000 0.0000 0.0000
# 4 0.0000 0.0000 0.0000 42.0700 0.0000 0.0000
# 5 0.0000 0.0000 0.0000 0.0000 24.9317 0.0000
# 6 0.0000 0.0000 0.0000 0.0000 0.0000 -10.3995
#
#
#
# Elastic Compliance Matrix: (Units=1/GPa)
#
#
# Indices 1 2 3 4 5 6 
#
# 1 0.010510 -0.000733 -0.001134 0.000000 0.000000 0.000000
# 2 -0.000733 0.004830 -0.003807 0.000000 0.000000 0.000000
# 3 -0.001134 -0.003807 0.012497 0.000000 0.000000 0.000000
# 4 0.000000 0.000000 0.000000 0.023770 0.000000 0.000000
# 5 0.000000 0.000000 0.000000 0.000000 0.040110 0.000000
# 6 0.000000 0.000000 0.000000 0.000000 0.000000 -0.096159
#
#
# Mechanical properties :
#
#
# Convention : Reuss Voigt Hill
#
# Bulk Modulus (GPa) = 60.65142 84.35556 72.50349
# Shear Modulus (GPa) = 403.14704 34.88135 219.01420
#
# Velocity S-wave (km/s) = 13.14575 3.86679 9.68924
# Velocity P-wave (km/s) = 16.01290 7.48969 12.50017
#
# Compressibility (1/GPa) = 0.01648766
#
# Stress axis : x y z
#
# Youngs Moduli (GPa) = 95.14469 207.05397 80.02063
#
# Poissons Ratio (x) = 0.15183 0.09078
# Poissons Ratio (y) = 0.06977 0.30462
# Poissons Ratio (z) = 0.10794 0.78821
#
# Static dielectric constant tensor:
#      x y z
#    x 1.913850 0.000000 0.000000 
#    y 0.000000 1.973860 0.000000 
#    z 0.000000 0.000000 1.910240 
# 
# From -- ./inp_files/37389.got.cif
#   From: 2010.05.17/outbox.cif.g08.bks.cpg/sg48_19_cif.got.tgz:37389.got - 2010.06.03 20:39:00.
