data_PCOD9390852
_publ_section_title
;
Structure prediction by ZEFSAII (Michael W. Deem and Ramdas Pophale) SiO2 
 PCOD9390852
Probable space group: P N N N
;
_chemical_formula_sum "Si O2"
_cell_formula_units_Z 48
_cell_length_a 14.505125
_cell_length_b 8.084220
_cell_length_c 17.935919
_cell_angle_alpha 90.000000
_cell_angle_beta 90.000000
_cell_angle_gamma 90.000000
_cell_volume 2103.212883
_symmetry_space_group_name_H-M "P N N N"
_symmetry_group_IT_number 48
_space_group.IT_coordinate_system_code '2'
_symmetry_cell_setting 'orthorhombic'
loop_
_space_group_symop_operation_xyz
x,y,z
1/2-x,1/2-y,z
x,1/2-y,1/2-z
1/2-x,y,1/2-z
-x,-y,-z
1/2+x,1/2+y,-z
-x,1/2+y,1/2+z
1/2+x,-y,1/2+z
loop_
_atom_site_type_symbol
_atom_site_label
_atom_site_fract_x
_atom_site_fract_y
_atom_site_fract_z
Si Si1 0.539734 0.027018 0.297855
Si Si2 0.750000 0.250000 0.987625
Si Si3 0.817016 0.947756 0.414478
Si Si4 0.927971 0.365444 0.576659
Si Si5 0.403952 0.221685 0.473854
Si Si6 0.997041 0.891968 0.641097
Si Si7 0.750000 0.971544 0.250000
O O1 0.521522 0.203595 0.335989
O O2 0.486577 0.015806 0.219236
O O3 0.496900 0.888902 0.352852
O O4 0.648562 0.035958 0.277436
O O5 0.839503 0.248921 0.934349
O O6 0.757749 0.410579 0.042907
O O7 0.918074 0.029135 0.402401
O O8 0.838777 0.784537 0.461467
O O9 0.782919 0.908930 0.331109
O O10 0.883413 0.547246 0.563790
O O11 0.995978 0.312011 0.510179
O O12 0.411830 0.367532 0.413616
#
# Coordination Sequence:
#
# PCOD9390852 Si02
#       7
#     8   4   8   8   8   8   4
#     4   9  19  37  60  95 139 169 221 275 348 406
#     4  12  24  39  68  97 132 176 242 280 346 412
#     4  11  22  37  64  98 136 172 220 278 339 432
#     4  10  23  41  63  94 132 182 221 292 336 417
#     4  10  21  40  65  91 134 174 227 274 348 409
#     4   9  17  34  63  95 124 182 216 268 337 417
#     4  10  22  37  63 104 138 174 212 278 356 422
#
# _framework density 22.822225
#
# number of rings (size 3 to 8) (size 9 to 14) (size 15 to 20)
#    0.000    2.000    1.667    1.500    4.667    7.000 
#    0.000    4.167    0.000    2.000    0.000    4.667 
#    0.000    0.000    0.000    0.000    0.000    0.000 
#
# Total GULP energy -267420.957346 kJ/mol
# GULP energy per Si atom -5571.269945 kJ/mol
# Density = 2.277028 g / cm^3
# Si number density = 22.822225 Si / 1000 Ang^3
#
#
#
# Elastic Constant Matrix: (Units=GPa)
#
#
# Indices 1 2 3 4 5 6 
#
# 1 60.6010 22.2156 33.6372 0.0000 0.0000 0.0000
# 2 22.2156 73.7183 23.9420 0.0000 0.0000 0.0000
# 3 33.6372 23.9420 123.5047 0.0000 0.0000 0.0000
# 4 0.0000 0.0000 0.0000 9.8555 0.0000 0.0000
# 5 0.0000 0.0000 0.0000 0.0000 40.4977 0.0000
# 6 0.0000 0.0000 0.0000 0.0000 0.0000 16.4705
#
#
#
# Elastic Compliance Matrix: (Units=1/GPa)
#
#
# Indices 1 2 3 4 5 6 
#
# 1 0.020888 -0.004746 -0.004769 0.000000 0.000000 0.000000
# 2 -0.004746 0.015555 -0.001723 0.000000 0.000000 0.000000
# 3 -0.004769 -0.001723 0.009730 0.000000 0.000000 0.000000
# 4 0.000000 0.000000 0.000000 0.101466 0.000000 0.000000
# 5 0.000000 0.000000 0.000000 0.000000 0.024693 0.000000
# 6 0.000000 0.000000 0.000000 0.000000 0.000000 0.060715
#
#
# Mechanical properties :
#
#
# Convention : Reuss Voigt Hill
#
# Bulk Modulus (GPa) = 42.19889 46.37930 44.28909
# Shear Modulus (GPa) = 18.98102 25.23336 22.10719
#
# Velocity S-wave (km/s) = 2.88703 3.32874 3.11572
# Velocity P-wave (km/s) = 5.44460 5.92791 5.69139
#
# Compressibility (1/GPa) = 0.02369731
#
# Stress axis : x y z
#
# Youngs Moduli (GPa) = 47.87373 64.28839 102.77812
#
# Poissons Ratio (x) = 0.30511 0.49015
# Poissons Ratio (y) = 0.22721 0.17707
# Poissons Ratio (z) = 0.22831 0.11076
#
# Static dielectric constant tensor:
#      x y z
#    x 1.890610 0.000000 0.000000 
#    y 0.000000 1.872270 0.000000 
#    z 0.000000 0.000000 1.865680 
# 
# From -- ./inp_files/31587.got.cif
#   From: 2010.05.17/outbox.cif.g08.bks.cpg/sg48_16_cif.got.tgz:31587.got - 2010.06.03 20:39:00.
