data_PCOD9390108
_publ_section_title
;
Structure prediction by ZEFSAII (Michael W. Deem and Ramdas Pophale) SiO2 
 PCOD9390108
Probable space group: P N N N
;
_chemical_formula_sum "Si O2"
_cell_formula_units_Z 64
_cell_length_a 14.736953
_cell_length_b 16.638296
_cell_length_c 11.719868
_cell_angle_alpha 90.000000
_cell_angle_beta 90.000000
_cell_angle_gamma 90.000000
_cell_volume 2873.685688
_symmetry_space_group_name_H-M "P N N N"
_symmetry_group_IT_number 48
_space_group.IT_coordinate_system_code '2'
_symmetry_cell_setting 'orthorhombic'
loop_
_space_group_symop_operation_xyz
x,y,z
1/2-x,1/2-y,z
x,1/2-y,1/2-z
1/2-x,y,1/2-z
-x,-y,-z
1/2+x,1/2+y,-z
-x,1/2+y,1/2+z
1/2+x,-y,1/2+z
loop_
_atom_site_type_symbol
_atom_site_label
_atom_site_fract_x
_atom_site_fract_y
_atom_site_fract_z
Si Si1 0.513842 0.810152 0.355262
Si Si2 0.610158 0.377432 0.185550
Si Si3 0.888881 0.618313 0.662794
Si Si4 0.112629 0.056872 0.403842
Si Si5 0.099601 0.911380 0.559494
Si Si6 0.410131 0.466287 0.938087
Si Si7 0.345784 0.236059 0.029255
Si Si8 0.147402 0.739306 0.487899
O O1 0.517088 0.750000 0.250000
O O2 0.557689 0.898767 0.346991
O O3 0.572229 0.768548 0.454391
O O4 0.412232 0.815612 0.404010
O O5 0.498935 0.371554 0.176220
O O6 0.639363 0.388563 0.316241
O O7 0.637028 0.459345 0.121198
O O8 0.645224 0.302555 0.112390
O O9 0.861232 0.564528 0.770638
O O10 0.861287 0.574892 0.544799
O O11 0.849327 0.707320 0.641738
O O12 0.143740 0.142506 0.450974
O O13 0.002666 0.060232 0.411748
O O14 0.141829 0.981172 0.480444
O O15 0.102162 0.827225 0.492789
O O16 0.500000 0.500000 0.000000
O O17 0.250000 0.250000 0.969427
O O18 0.250000 0.750000 0.450220
#
# Coordination Sequence:
#
# PCOD9390108 Si02
#       8
#     8   8   8   8   8   8   8   8
#     4  11  24  42  69  93 134 175 210 276 347 398
#     4  10  19  38  66  91 125 169 225 271 322 392
#     4   9  18  35  62  93 126 169 212 263 322 392
#     4  10  20  37  63  96 133 170 217 275 330 386
#     4  10  22  38  63  96 131 172 221 278 329 380
#     4   9  17  36  63  97 117 171 217 261 321 399
#     4  11  22  40  65  96 129 168 222 263 327 403
#     4  12  24  43  66  95 128 174 231 273 328 401
#
# _framework density 22.271051
#
# number of rings (size 3 to 8) (size 9 to 14) (size 15 to 20)
#    0.000    1.750    5.000    0.750    1.750    6.500 
#    4.500    0.000    0.000    0.000    0.000    0.000 
#    0.000    0.000    0.000    0.000    0.000    0.000 
#
# Total GULP energy -357233.580593 kJ/mol
# GULP energy per Si atom -5581.774697 kJ/mol
# Density = 2.222036 g / cm^3
# Si number density = 22.271051 Si / 1000 Ang^3
#
#
#
# Elastic Constant Matrix: (Units=GPa)
#
#
# Indices 1 2 3 4 5 6 
#
# 1 58.8832 3.8927 7.0302 0.0000 0.0000 0.0000
# 2 3.8927 148.5985 43.6531 0.0000 0.0000 0.0000
# 3 7.0302 43.6531 71.2530 0.0000 0.0000 0.0000
# 4 0.0000 0.0000 0.0000 45.6552 0.0000 0.0000
# 5 0.0000 0.0000 0.0000 0.0000 -16.8853 0.0000
# 6 0.0000 0.0000 0.0000 0.0000 0.0000 14.4972
#
#
#
# Elastic Compliance Matrix: (Units=1/GPa)
#
#
# Indices 1 2 3 4 5 6 
#
# 1 0.017186 0.000058 -0.001731 0.000000 0.000000 0.000000
# 2 0.000058 0.008207 -0.005034 0.000000 0.000000 0.000000
# 3 -0.001731 -0.005034 0.017289 0.000000 0.000000 0.000000
# 4 0.000000 0.000000 0.000000 0.021903 0.000000 0.000000
# 5 0.000000 0.000000 0.000000 0.000000 -0.059223 0.000000
# 6 0.000000 0.000000 0.000000 0.000000 0.000000 0.068979
#
#
# Mechanical properties :
#
#
# Convention : Reuss Voigt Hill
#
# Bulk Modulus (GPa) = 34.16664 43.09853 38.63258
# Shear Modulus (GPa) = 51.27706 23.59736 37.43721
#
# Velocity S-wave (km/s) = 4.80355 3.25861 4.10442
# Velocity P-wave (km/s) = 6.79264 5.79240 6.31236
#
# Compressibility (1/GPa) = 0.02926832
#
# Stress axis : x y z
#
# Youngs Moduli (GPa) = 58.18818 121.85148 57.83971
#
# Poissons Ratio (x) = -0.00712 0.10014
# Poissons Ratio (y) = -0.00340 0.29114
# Poissons Ratio (z) = 0.10075 0.61335
#
# Static dielectric constant tensor:
#      x y z
#    x 1.858650 0.000000 0.000000 
#    y 0.000000 1.839360 0.000000 
#    z 0.000000 0.000000 1.863810 
# 
# From -- ./inp_files/21573.got.cif
#   From: 2010.05.17/outbox.cif.g08.bks.cpg/sg48_11_cif.got.tgz:21573.got - 2010.06.03 20:39:00.
