data_PCOD9390230
_publ_section_title
;
Structure prediction by ZEFSAII (Michael W. Deem and Ramdas Pophale) SiO2 
 PCOD9390230
Probable space group: P N N N
;
_chemical_formula_sum "Si O2"
_cell_formula_units_Z 34
_cell_length_a 4.841405
_cell_length_b 21.204955
_cell_length_c 14.842934
_cell_angle_alpha 90.000000
_cell_angle_beta 90.000000
_cell_angle_gamma 90.000000
_cell_volume 1523.801953
_symmetry_space_group_name_H-M "P N N N"
_symmetry_group_IT_number 48
_space_group.IT_coordinate_system_code '2'
_symmetry_cell_setting 'orthorhombic'
loop_
_space_group_symop_operation_xyz
x,y,z
1/2-x,1/2-y,z
x,1/2-y,1/2-z
1/2-x,y,1/2-z
-x,-y,-z
1/2+x,1/2+y,-z
-x,1/2+y,1/2+z
1/2+x,-y,1/2+z
loop_
_atom_site_type_symbol
_atom_site_label
_atom_site_fract_x
_atom_site_fract_y
_atom_site_fract_z
Si Si1 0.873994 0.366740 0.940174
Si Si2 0.250000 0.250000 0.750000
Si Si3 0.750000 0.167980 0.750000
Si Si4 0.994639 0.849714 0.815224
Si Si5 0.250000 0.750000 0.548921
Si Si6 0.125556 0.432115 0.478968
O O1 0.895373 0.366215 0.832946
O O2 0.561878 0.384423 0.963613
O O3 0.066227 0.418197 0.988117
O O4 0.921470 0.298339 0.985841
O O5 0.488597 0.206136 0.704901
O O6 0.250000 0.864138 0.750000
O O7 0.074372 0.794269 0.884297
O O8 0.750000 0.830192 0.750000
O O9 0.909147 0.909682 0.875977
O O10 0.000000 0.500000 0.500000
#
# Coordination Sequence:
#
# PCOD9390230 Si02
#       6
#     8   2   4   8   4   8
#     4  11  24  41  68  98 135 182 226 281 353 417
#     4  10  20  34  60  86 144 166 198 282 328 396
#     4  11  22  40  62 102 132 178 238 271 338 432
#     4  11  24  42  67 102 132 175 223 281 344 423
#     4  10  23  39  66 102 142 174 210 277 361 420
#     4  11  25  47  66  91 136 179 231 291 348 402
#
# _framework density 22.312608000000001
#
# number of rings (size 3 to 8) (size 9 to 14) (size 15 to 20)
#    0.000    1.176    0.000    6.706    0.000   13.176 
#    6.353    0.000    0.000    0.000    0.000    0.000 
#    0.000    0.000    0.000    0.000    0.000    0.000 
#
# Total GULP energy -189768.657036 kJ/mol
# GULP energy per Si atom -5581.431089 kJ/mol
# Density = 2.226182 g / cm^3
# Si number density = 22.312608 Si / 1000 Ang^3
#
#
#
# Elastic Constant Matrix: (Units=GPa)
#
#
# Indices 1 2 3 4 5 6 
#
# 1 95.4899 2.4814 24.6410 0.0000 0.0000 0.0000
# 2 2.4814 97.0577 51.3380 0.0000 0.0000 0.0000
# 3 24.6410 51.3380 156.0277 0.0000 0.0000 0.0000
# 4 0.0000 0.0000 0.0000 59.4642 0.0000 0.0000
# 5 0.0000 0.0000 0.0000 0.0000 26.0379 0.0000
# 6 0.0000 0.0000 0.0000 0.0000 0.0000 32.3829
#
#
#
# Elastic Compliance Matrix: (Units=1/GPa)
#
#
# Indices 1 2 3 4 5 6 
#
# 1 0.010964 0.000770 -0.001985 0.000000 0.000000 0.000000
# 2 0.000770 0.012528 -0.004244 0.000000 0.000000 0.000000
# 3 -0.001985 -0.004244 0.008119 0.000000 0.000000 0.000000
# 4 0.000000 0.000000 0.000000 0.016817 0.000000 0.000000
# 5 0.000000 0.000000 0.000000 0.000000 0.038406 0.000000
# 6 0.000000 0.000000 0.000000 0.000000 0.000000 0.030880
#
#
# Mechanical properties :
#
#
# Convention : Reuss Voigt Hill
#
# Bulk Modulus (GPa) = 48.32411 56.16625 52.24518
# Shear Modulus (GPa) = 36.89216 41.58466 39.23841
#
# Velocity S-wave (km/s) = 4.07064 4.32178 4.19809
# Velocity P-wave (km/s) = 6.61803 7.08031 6.85307
#
# Compressibility (1/GPa) = 0.02069360
#
# Stress axis : x y z
#
# Youngs Moduli (GPa) = 91.20351 79.82029 123.16981
#
# Poissons Ratio (x) = -0.06142 0.24447
# Poissons Ratio (y) = -0.07018 0.52269
# Poissons Ratio (z) = 0.18102 0.33873
#
# Static dielectric constant tensor:
#      x y z
#    x 1.767920 0.000000 0.000000 
#    y 0.000000 1.862500 0.000000 
#    z 0.000000 0.000000 1.825410 
# 
# From -- ./inp_files/24248.got.cif
#   From: 2010.05.17/outbox.cif.g08.bks.cpg/sg48_13_cif.got.tgz:24248.got - 2010.06.03 20:39:00.
