data_PCOD9390350
_publ_section_title
;
Structure prediction by ZEFSAII (Michael W. Deem and Ramdas Pophale) SiO2 
 PCOD9390350
Probable space group: P N N N
;
_chemical_formula_sum "Si O2"
_cell_formula_units_Z 46
_cell_length_a 8.160564
_cell_length_b 12.152366
_cell_length_c 23.026448
_cell_angle_alpha 90.000000
_cell_angle_beta 90.000000
_cell_angle_gamma 90.000000
_cell_volume 2283.536544
_symmetry_space_group_name_H-M "P N N N"
_symmetry_group_IT_number 48
_space_group.IT_coordinate_system_code '2'
_symmetry_cell_setting 'orthorhombic'
loop_
_space_group_symop_operation_xyz
x,y,z
1/2-x,1/2-y,z
x,1/2-y,1/2-z
1/2-x,y,1/2-z
-x,-y,-z
1/2+x,1/2+y,-z
-x,1/2+y,1/2+z
1/2+x,-y,1/2+z
loop_
_atom_site_type_symbol
_atom_site_label
_atom_site_fract_x
_atom_site_fract_y
_atom_site_fract_z
Si Si1 0.693522 0.865499 0.683606
Si Si2 0.908080 0.669273 0.988337
Si Si3 0.834475 0.096062 0.646913
Si Si4 0.250000 0.750000 0.250000
Si Si5 0.750000 0.250000 0.548169
Si Si6 0.307182 0.876220 0.685849
Si Si7 0.386263 0.995278 0.913684
O O1 0.750000 0.750000 0.656422
O O2 0.750000 0.863184 0.750000
O O3 0.500607 0.874356 0.683565
O O4 0.766950 0.975616 0.658071
O O5 0.750000 0.750000 0.979892
O O6 0.842651 0.569620 0.030398
O O7 0.076729 0.728869 0.014090
O O8 0.989794 0.600974 0.935303
O O9 0.837171 0.168483 0.704856
O O10 0.733738 0.149478 0.593762
O O11 0.017332 0.082776 0.625083
O O12 0.250000 0.750000 0.681996
O O13 0.250000 0.917840 0.750000
O O14 0.242733 0.940966 0.629612
#
# Coordination Sequence:
#
# PCOD9390350 Si02
#       7
#     8   8   8   2   4   8   8
#     4  11  21  36  61  91 132 177 219 262 330 406
#     4  10  23  45  70  93 136 176 230 286 342 396
#     4  10  20  39  63  93 130 167 218 268 329 402
#     4  10  20  36  70  90 128 172 200 258 326 408
#     4   9  22  41  66  96 129 170 231 284 330 404
#     4  11  23  38  61  94 137 173 217 280 339 405
#     4  10  23  43  63  99 132 170 227 286 329 409
#
# _framework density 20.144193000000001
#
# number of rings (size 3 to 8) (size 9 to 14) (size 15 to 20)
#    0.000    1.739    0.870    4.174    3.652    2.087 
#    0.000    3.478    0.000    1.043    0.000    0.000 
#    0.000    0.000    0.000    0.000    0.000    0.000 
#
# Total GULP energy -256238.028539 kJ/mol
# GULP energy per Si atom -5570.391925 kJ/mol
# Density = 2.009834 g / cm^3
# Si number density = 20.144193 Si / 1000 Ang^3
#
#
#
# Elastic Constant Matrix: (Units=GPa)
#
#
# Indices 1 2 3 4 5 6 
#
# 1 96.0905 32.3997 67.5865 0.0000 0.0000 0.0000
# 2 32.3997 109.7431 46.9321 0.0000 0.0000 0.0000
# 3 67.5865 46.9321 106.3369 0.0000 0.0000 0.0000
# 4 0.0000 0.0000 0.0000 15.7287 0.0000 0.0000
# 5 0.0000 0.0000 0.0000 0.0000 28.9948 0.0000
# 6 0.0000 0.0000 0.0000 0.0000 0.0000 35.2320
#
#
#
# Elastic Compliance Matrix: (Units=1/GPa)
#
#
# Indices 1 2 3 4 5 6 
#
# 1 0.018847 -0.000544 -0.011739 0.000000 0.000000 0.000000
# 2 -0.000544 0.011248 -0.004618 0.000000 0.000000 0.000000
# 3 -0.011739 -0.004618 0.018903 0.000000 0.000000 0.000000
# 4 0.000000 0.000000 0.000000 0.063578 0.000000 0.000000
# 5 0.000000 0.000000 0.000000 0.000000 0.034489 0.000000
# 6 0.000000 0.000000 0.000000 0.000000 0.000000 0.028383
#
#
# Mechanical properties :
#
#
# Convention : Reuss Voigt Hill
#
# Bulk Modulus (GPa) = 65.80825 67.33412 66.57119
# Shear Modulus (GPa) = 23.32998 27.00790 25.16894
#
# Velocity S-wave (km/s) = 3.40685 3.66557 3.53857
# Velocity P-wave (km/s) = 6.94370 7.17034 7.05793
#
# Compressibility (1/GPa) = 0.01519566
#
# Stress axis : x y z
#
# Youngs Moduli (GPa) = 53.05913 88.90518 52.90037
#
# Poissons Ratio (x) = 0.04837 0.62098
# Poissons Ratio (y) = 0.02887 0.24432
# Poissons Ratio (z) = 0.62285 0.41061
#
# Static dielectric constant tensor:
#      x y z
#    x 1.689090 0.000000 0.000000 
#    y 0.000000 1.755460 0.000000 
#    z 0.000000 0.000000 1.820700 
# 
# From -- ./inp_files/35866.got.cif
#   From: 2010.05.17/outbox.cif.g08.bks.cpg/sg48_18_cif.got.tgz:35866.got - 2010.06.03 20:39:00.
