data_PCOD9390567
_publ_section_title
;
Structure prediction by ZEFSAII (Michael W. Deem and Ramdas Pophale) SiO2 
 PCOD9390567
Probable space group: P N N N
;
_chemical_formula_sum "Si O2"
_cell_formula_units_Z 38
_cell_length_a 12.185043
_cell_length_b 7.005956
_cell_length_c 19.001086
_cell_angle_alpha 90.000000
_cell_angle_beta 90.000000
_cell_angle_gamma 90.000000
_cell_volume 1622.082337
_symmetry_space_group_name_H-M "P N N N"
_symmetry_group_IT_number 48
_space_group.IT_coordinate_system_code '2'
_symmetry_cell_setting 'orthorhombic'
loop_
_space_group_symop_operation_xyz
x,y,z
1/2-x,1/2-y,z
x,1/2-y,1/2-z
1/2-x,y,1/2-z
-x,-y,-z
1/2+x,1/2+y,-z
-x,1/2+y,1/2+z
1/2+x,-y,1/2+z
loop_
_atom_site_type_symbol
_atom_site_label
_atom_site_fract_x
_atom_site_fract_y
_atom_site_fract_z
Si Si1 0.750000 0.250000 0.250000
Si Si2 0.990187 0.699822 0.923087
Si Si3 0.187311 0.025195 0.507795
Si Si4 0.362486 0.017473 0.631305
Si Si5 0.981854 0.330609 0.828557
Si Si6 0.750000 0.250000 0.606065
O O1 0.681790 0.105334 0.301370
O O2 0.982657 0.549051 0.857461
O O3 0.089391 0.620259 0.971098
O O4 0.032024 0.900374 0.895850
O O5 0.881774 0.696015 0.971618
O O6 0.266253 0.028535 0.574363
O O7 0.252710 0.931718 0.444210
O O8 0.410076 0.229264 0.640297
O O9 0.990298 0.250000 0.750000
O O10 0.862501 0.259575 0.852125
#
# Coordination Sequence:
#
# PCOD9390567 Si02
#       6
#     2   8   8   8   8   4
#     4  12  22  40  70  90 146 178 218 272 342 416
#     4  10  21  44  66  95 136 173 219 284 330 405
#     4  10  20  41  66  96 131 166 227 279 327 395
#     4  12  23  44  65  99 138 183 212 285 345 397
#     4  11  26  42  67 100 132 179 232 269 339 418
#     4  10  20  46  68  90 136 172 220 296 326 388
#
# _framework density 23.426677000000002
#
# number of rings (size 3 to 8) (size 9 to 14) (size 15 to 20)
#    0.000    1.263    4.211    1.579    0.000    1.684 
#    3.789    3.158    0.000    5.053    0.000    0.000 
#    0.000    0.000    0.000    0.000    0.000    0.000 
#
# Total GULP energy -212304.929942 kJ/mol
# GULP energy per Si atom -5586.971841 kJ/mol
# Density = 2.337336 g / cm^3
# Si number density = 23.426677 Si / 1000 Ang^3
#
#
#
# Elastic Constant Matrix: (Units=GPa)
#
#
# Indices 1 2 3 4 5 6 
#
# 1 124.3877 40.5402 42.0521 0.0000 0.0000 0.0000
# 2 40.5402 66.4373 38.3625 0.0000 0.0000 0.0000
# 3 42.0521 38.3625 98.0636 0.0000 0.0000 0.0000
# 4 0.0000 0.0000 0.0000 13.4909 0.0000 0.0000
# 5 0.0000 0.0000 0.0000 0.0000 23.7350 0.0000
# 6 0.0000 0.0000 0.0000 0.0000 0.0000 33.8463
#
#
#
# Elastic Compliance Matrix: (Units=1/GPa)
#
#
# Indices 1 2 3 4 5 6 
#
# 1 0.010518 -0.004927 -0.002583 0.000000 0.000000 0.000000
# 2 -0.004927 0.021752 -0.006397 0.000000 0.000000 0.000000
# 3 -0.002583 -0.006397 0.013808 0.000000 0.000000 0.000000
# 4 0.000000 0.000000 0.000000 0.074124 0.000000 0.000000
# 5 0.000000 0.000000 0.000000 0.000000 0.042132 0.000000
# 6 0.000000 0.000000 0.000000 0.000000 0.000000 0.029545
#
#
# Mechanical properties :
#
#
# Convention : Reuss Voigt Hill
#
# Bulk Modulus (GPa) = 54.75078 58.97759 56.86418
# Shear Modulus (GPa) = 22.14546 25.41004 23.77775
#
# Velocity S-wave (km/s) = 3.07792 3.29699 3.18934
# Velocity P-wave (km/s) = 6.00444 6.30267 6.15536
#
# Compressibility (1/GPa) = 0.01826458
#
# Stress axis : x y z
#
# Youngs Moduli (GPa) = 95.07147 45.97363 72.42426
#
# Poissons Ratio (x) = 0.22650 0.18709
# Poissons Ratio (y) = 0.46839 0.46326
# Poissons Ratio (z) = 0.24559 0.29407
#
# Static dielectric constant tensor:
#      x y z
#    x 1.834130 0.000000 0.000000 
#    y 0.000000 1.950980 0.000000 
#    z 0.000000 0.000000 1.962420 
# 
# From -- ./inp_files/30874.got.cif
#   From: 2010.05.17/outbox.cif.g08.bks.cpg/sg48_16_cif.got.tgz:30874.got - 2010.06.03 20:39:00.
