data_PCOD9390727
_publ_section_title
;
Structure prediction by ZEFSAII (Michael W. Deem and Ramdas Pophale) SiO2 
 PCOD9390727
Probable space group: P N N N
;
_chemical_formula_sum "Si O2"
_cell_formula_units_Z 52
_cell_length_a 6.146633
_cell_length_b 20.214848
_cell_length_c 19.125507
_cell_angle_alpha 90.000000
_cell_angle_beta 90.000000
_cell_angle_gamma 90.000000
_cell_volume 2376.406437
_symmetry_space_group_name_H-M "P N N N"
_symmetry_group_IT_number 48
_space_group.IT_coordinate_system_code '2'
_symmetry_cell_setting 'orthorhombic'
loop_
_space_group_symop_operation_xyz
x,y,z
1/2-x,1/2-y,z
x,1/2-y,1/2-z
1/2-x,y,1/2-z
-x,-y,-z
1/2+x,1/2+y,-z
-x,1/2+y,1/2+z
1/2+x,-y,1/2+z
loop_
_atom_site_type_symbol
_atom_site_label
_atom_site_fract_x
_atom_site_fract_y
_atom_site_fract_z
Si Si1 0.244673 0.429781 0.944670
Si Si2 0.506055 0.730398 0.832492
Si Si3 0.313108 0.601612 0.826766
Si Si4 0.145716 0.320498 0.826129
Si Si5 0.941660 0.944357 0.588696
Si Si6 0.750000 0.137248 0.750000
Si Si7 0.073673 0.525410 0.348058
O O1 0.179023 0.374561 0.887056
O O2 0.491490 0.448403 0.923621
O O3 0.100848 0.495778 0.934802
O O4 0.194438 0.413773 0.024821
O O5 0.750000 0.750000 0.859954
O O6 0.512980 0.750000 0.750000
O O7 0.500035 0.651726 0.847694
O O8 0.250000 0.750000 0.854270
O O9 0.250000 0.622576 0.750000
O O10 0.392387 0.526057 0.823064
O O11 0.102184 0.606696 0.875038
O O12 0.250000 0.250000 0.846467
O O13 0.250000 0.336753 0.750000
O O14 0.893472 0.320443 0.803609
O O15 0.786733 0.981444 0.643304
O O16 0.611644 0.086452 0.702473
#
# Coordination Sequence:
#
# PCOD9390727 Si02
#       7
#     8   8   8   8   8   4   8
#     4  10  21  42  62  94 134 169 226 276 345 429
#     4  10  21  38  61  87 126 180 227 276 346 406
#     4  11  23  37  60  98 134 170 228 287 346 426
#     4  11  24  42  67  94 132 176 230 289 344 422
#     4  10  22  38  65  95 130 180 213 281 358 421
#     4  12  22  39  66 104 133 174 216 298 358 420
#     4  11  22  35  64  97 136 168 223 283 358 416
#
# _framework density 21.881779999999999
#
# number of rings (size 3 to 8) (size 9 to 14) (size 15 to 20)
#    0.000    1.385    4.615    1.385    4.308    2.462 
#    0.000    0.000    3.385    0.000    0.000    0.000 
#    0.000    0.000    0.000    0.000    0.000    0.000 
#
# Total GULP energy -289687.274239 kJ/mol
# GULP energy per Si atom -5570.909120 kJ/mol
# Density = 2.183198 g / cm^3
# Si number density = 21.881780 Si / 1000 Ang^3
#
#
#
# Elastic Constant Matrix: (Units=GPa)
#
#
# Indices 1 2 3 4 5 6 
#
# 1 103.1297 48.9615 10.1943 0.0000 0.0000 0.0000
# 2 48.9615 88.0192 45.0329 0.0000 0.0000 0.0000
# 3 10.1943 45.0329 63.8921 0.0000 0.0000 0.0000
# 4 0.0000 0.0000 0.0000 4.7678 0.0000 0.0000
# 5 0.0000 0.0000 0.0000 0.0000 -6.9889 0.0000
# 6 0.0000 0.0000 0.0000 0.0000 0.0000 28.7392
#
#
#
# Elastic Compliance Matrix: (Units=1/GPa)
#
#
# Indices 1 2 3 4 5 6 
#
# 1 0.014186 -0.010530 0.005159 0.000000 0.000000 0.000000
# 2 -0.010530 0.025586 -0.016353 0.000000 0.000000 0.000000
# 3 0.005159 -0.016353 0.026354 0.000000 0.000000 0.000000
# 4 0.000000 0.000000 0.000000 0.209742 0.000000 0.000000
# 5 0.000000 0.000000 0.000000 0.000000 -0.143084 0.000000
# 6 0.000000 0.000000 0.000000 0.000000 0.000000 0.034796
#
#
# Mechanical properties :
#
#
# Convention : Reuss Voigt Hill
#
# Bulk Modulus (GPa) = 44.09925 51.49093 47.79509
# Shear Modulus (GPa) = 22.87403 15.36043 19.11723
#
# Velocity S-wave (km/s) = 3.23669 2.65235 2.95898
# Velocity P-wave (km/s) = 5.84511 5.74129 5.79344
#
# Compressibility (1/GPa) = 0.02267612
#
# Stress axis : x y z
#
# Youngs Moduli (GPa) = 70.49214 39.08460 37.94424
#
# Poissons Ratio (x) = 0.41158 -0.19574
# Poissons Ratio (y) = 0.74231 0.62051
# Poissons Ratio (z) = -0.36365 0.63916
#
# Static dielectric constant tensor:
#      x y z
#    x 2.039700 0.000000 0.000000 
#    y 0.000000 1.851490 0.000000 
#    z 0.000000 0.000000 1.793900 
# 
# From -- ./inp_files/32931.got.cif
#   From: 2010.05.17/outbox.cif.g08.bks.cpg/sg48_17_cif.got.tgz:32931.got - 2010.06.03 20:39:00.
