data_PCOD9390775
_publ_section_title
;
Structure prediction by ZEFSAII (Michael W. Deem and Ramdas Pophale) SiO2 
 PCOD9390775
Probable space group: P N N N
;
_chemical_formula_sum "Si O2"
_cell_formula_units_Z 32
_cell_length_a 7.484679
_cell_length_b 34.591002
_cell_length_c 5.299642
_cell_angle_alpha 90.000000
_cell_angle_beta 90.000000
_cell_angle_gamma 90.000000
_cell_volume 1372.090808
_symmetry_space_group_name_H-M "P N N N"
_symmetry_group_IT_number 48
_space_group.IT_coordinate_system_code '2'
_symmetry_cell_setting 'orthorhombic'
loop_
_space_group_symop_operation_xyz
x,y,z
1/2-x,1/2-y,z
x,1/2-y,1/2-z
1/2-x,y,1/2-z
-x,-y,-z
1/2+x,1/2+y,-z
-x,1/2+y,1/2+z
1/2+x,-y,1/2+z
loop_
_atom_site_type_symbol
_atom_site_label
_atom_site_fract_x
_atom_site_fract_y
_atom_site_fract_z
Si Si1 0.458132 0.475349 0.245811
Si Si2 0.453943 0.611791 0.767457
Si Si3 0.467471 0.649874 0.279532
Si Si4 0.452847 0.267121 0.507059
O O1 0.250000 0.466413 0.250000
O O2 0.500000 0.500000 0.500000
O O3 0.548991 0.433983 0.197039
O O4 0.500000 0.500000 0.000000
O O5 0.250000 0.625932 0.750000
O O6 0.522586 0.617694 0.483624
O O7 0.533311 0.636593 0.001181
O O8 0.250000 0.653453 0.250000
O O9 0.541817 0.687910 0.422461
O O10 0.250000 0.250000 0.503991
O O11 0.531900 0.250000 0.250000
O O12 0.547818 0.250000 0.750000
#
# Coordination Sequence:
#
# PCOD9390775 Si02
#       4
#     8   8   8   8
#     4  12  25  44  69 103 139 183 230 281 340 414
#     4  10  21  40  64  95 130 172 214 273 338 395
#     4  10  21  39  63  90 126 166 218 272 331 396
#     4  10  21  39  59  88 121 164 212 260 338 378
#
# _framework density 23.322073
#
# number of rings (size 3 to 8) (size 9 to 14) (size 15 to 20)
#    0.000    1.500    0.000    5.250    0.000    2.500 
#   13.500    1.250    0.000    0.000    0.000    0.000 
#    0.000    0.000    0.000    0.000    0.000    0.000 
#
# Total GULP energy -178317.273861 kJ/mol
# GULP energy per Si atom -5572.414808 kJ/mol
# Density = 2.326899 g / cm^3
# Si number density = 23.322073 Si / 1000 Ang^3
#
#
#
# Elastic Constant Matrix: (Units=GPa)
#
#
# Indices 1 2 3 4 5 6 
#
# 1 79.0607 -12.8782 15.4450 0.0000 0.0000 0.0000
# 2 -12.8782 133.2390 66.1220 0.0000 0.0000 0.0000
# 3 15.4450 66.1220 237.1868 0.0000 0.0000 0.0000
# 4 0.0000 0.0000 0.0000 48.7537 0.0000 0.0000
# 5 0.0000 0.0000 0.0000 0.0000 -5.3029 0.0000
# 6 0.0000 0.0000 0.0000 0.0000 0.0000 12.4867
#
#
#
# Elastic Compliance Matrix: (Units=1/GPa)
#
#
# Indices 1 2 3 4 5 6 
#
# 1 0.013248 0.001983 -0.001415 0.000000 0.000000 0.000000
# 2 0.001983 0.009007 -0.002640 0.000000 0.000000 0.000000
# 3 -0.001415 -0.002640 0.005044 0.000000 0.000000 0.000000
# 4 0.000000 0.000000 0.000000 0.020511 0.000000 0.000000
# 5 0.000000 0.000000 0.000000 0.000000 -0.188576 0.000000
# 6 0.000000 0.000000 0.000000 0.000000 0.000000 0.080085
#
#
# Mechanical properties :
#
#
# Convention : Reuss Voigt Hill
#
# Bulk Modulus (GPa) = 43.18875 65.20712 54.19794
# Shear Modulus (GPa) = -102.42397 36.57402 -32.92498
#
# Velocity S-wave (km/s) = -6.63419 3.96437 -3.76140
# Velocity P-wave (km/s) = 6.33441 6.99822 2.10360
#
# Compressibility (1/GPa) = 0.02315418
#
# Stress axis : x y z
#
# Youngs Moduli (GPa) = 75.48291 111.02276 198.24533
#
# Poissons Ratio (x) = -0.22015 0.28061
# Poissons Ratio (y) = -0.14968 0.52339
# Poissons Ratio (z) = 0.10684 0.29311
#
# Static dielectric constant tensor:
#      x y z
#    x 1.880440 0.000000 0.000000 
#    y 0.000000 13.062620 0.000000 
#    z 0.000000 0.000000 1.933870 
# 
# From -- ./inp_files/1049.got.cif
#   From: 2010.05.17/outbox.cif.g08.bks.cpg/sg48_1_cif.got.tgz:1049.got - 2010.06.03 20:39:00.
