data_PCOD9390521
_publ_section_title
;
Structure prediction by ZEFSAII (Michael W. Deem and Ramdas Pophale) SiO2 
 PCOD9390521
Probable space group: P N N N
;
_chemical_formula_sum "Si O2"
_cell_formula_units_Z 46
_cell_length_a 5.520924
_cell_length_b 12.899824
_cell_length_c 26.045113
_cell_angle_alpha 90.000000
_cell_angle_beta 90.000000
_cell_angle_gamma 90.000000
_cell_volume 1854.905546
_symmetry_space_group_name_H-M "P N N N"
_symmetry_group_IT_number 48
_space_group.IT_coordinate_system_code '2'
_symmetry_cell_setting 'orthorhombic'
loop_
_space_group_symop_operation_xyz
x,y,z
1/2-x,1/2-y,z
x,1/2-y,1/2-z
1/2-x,y,1/2-z
-x,-y,-z
1/2+x,1/2+y,-z
-x,1/2+y,1/2+z
1/2+x,-y,1/2+z
loop_
_atom_site_type_symbol
_atom_site_label
_atom_site_fract_x
_atom_site_fract_y
_atom_site_fract_z
Si Si1 0.870407 0.400199 0.198517
Si Si2 0.619028 0.603471 0.172351
Si Si3 0.502580 0.645427 0.589411
Si Si4 0.995647 0.117803 0.048517
Si Si5 0.750000 0.447142 0.750000
Si Si6 0.504162 0.813468 0.439411
Si Si7 0.750000 0.750000 0.250000
O O1 0.750000 0.355114 0.250000
O O2 0.676469 0.482200 0.176135
O O3 0.968098 0.335248 0.150451
O O4 0.084506 0.473412 0.218031
O O5 0.393017 0.622022 0.209532
O O6 0.558676 0.638464 0.115880
O O7 0.824178 0.665983 0.204588
O O8 0.751290 0.586117 0.575307
O O9 0.499786 0.757074 0.561592
O O10 0.265216 0.584448 0.570055
O O11 0.989696 0.108684 0.987225
O O12 0.750000 0.750000 0.450837
O O13 0.250000 0.750000 0.438265
#
# Coordination Sequence:
#
# PCOD9390521 Si02
#       7
#     8   8   8   8   4   8   2
#     4  10  23  43  61  91 129 170 213 260 333 383
#     4  11  25  38  61  91 127 166 222 263 326 381
#     4  10  20  39  70  89 126 169 202 265 315 381
#     4  10  20  42  66  96 122 165 217 254 323 375
#     4  10  22  43  58  85 126 174 208 256 318 393
#     4  12  23  40  64  94 127 166 213 274 316 375
#     4  12  20  42  56  88 126 162 218 268 308 384
#
# _framework density 24.799106999999999
#
# number of rings (size 3 to 8) (size 9 to 14) (size 15 to 20)
#    0.000    1.391    6.957    0.000    9.739    0.000 
#    0.000    3.478    0.000    0.000    0.000    0.000 
#    0.000    0.000    0.000    0.000    0.000    0.000 
#
# Total GULP energy -256599.012748 kJ/mol
# GULP energy per Si atom -5578.239408 kJ/mol
# Density = 2.474266 g / cm^3
# Si number density = 24.799107 Si / 1000 Ang^3
#
#
#
# Elastic Constant Matrix: (Units=GPa)
#
#
# Indices 1 2 3 4 5 6 
#
# 1 189.8902 11.1335 56.5426 0.0000 0.0000 0.0000
# 2 11.1335 63.2589 26.6306 0.0000 0.0000 0.0000
# 3 56.5426 26.6306 237.8167 0.0000 0.0000 0.0000
# 4 0.0000 0.0000 0.0000 34.3745 0.0000 0.0000
# 5 0.0000 0.0000 0.0000 0.0000 36.7607 0.0000
# 6 0.0000 0.0000 0.0000 0.0000 0.0000 1.1926
#
#
#
# Elastic Compliance Matrix: (Units=1/GPa)
#
#
# Indices 1 2 3 4 5 6 
#
# 1 0.005680 -0.000452 -0.001300 0.000000 0.000000 0.000000
# 2 -0.000452 0.016626 -0.001754 0.000000 0.000000 0.000000
# 3 -0.001300 -0.001754 0.004710 0.000000 0.000000 0.000000
# 4 0.000000 0.000000 0.000000 0.029091 0.000000 0.000000
# 5 0.000000 0.000000 0.000000 0.000000 0.027203 0.000000
# 6 0.000000 0.000000 0.000000 0.000000 0.000000 0.838531
#
#
# Mechanical properties :
#
#
# Convention : Reuss Voigt Hill
#
# Bulk Modulus (GPa) = 49.99132 75.50878 62.75005
# Shear Modulus (GPa) = 5.34461 40.90949 23.12705
#
# Velocity S-wave (km/s) = 1.46964 4.06598 3.05712
# Velocity P-wave (km/s) = 4.80438 7.24963 6.14977
#
# Compressibility (1/GPa) = 0.02000347
#
# Stress axis : x y z
#
# Youngs Moduli (GPa) = 176.06424 60.14609 212.29728
#
# Poissons Ratio (x) = 0.02721 0.27593
# Poissons Ratio (y) = 0.07966 0.37241
# Poissons Ratio (z) = 0.22884 0.10551
#
# Static dielectric constant tensor:
#      x y z
#    x 2.141590 0.000000 0.000000 
#    y 0.000000 2.031350 0.000000 
#    z 0.000000 0.000000 1.949570 
# 
# From -- ./inp_files/35378.got.cif
#   From: 2010.05.17/outbox.cif.g08.bks.cpg/sg48_18_cif.got.tgz:35378.got - 2010.06.03 20:39:00.
