data_PCOD9390026
_publ_section_title
;
Structure prediction by ZEFSAII (Michael W. Deem and Ramdas Pophale) SiO2 
 PCOD9390026
Probable space group: P N N N
;
_chemical_formula_sum "Si O2"
_cell_formula_units_Z 48
_cell_length_a 15.808062
_cell_length_b 17.431306
_cell_length_c 9.100925
_cell_angle_alpha 90.000000
_cell_angle_beta 90.000000
_cell_angle_gamma 90.000000
_cell_volume 2507.806899
_symmetry_space_group_name_H-M "P N N N"
_symmetry_group_IT_number 48
_space_group.IT_coordinate_system_code '2'
_symmetry_cell_setting 'orthorhombic'
loop_
_space_group_symop_operation_xyz
x,y,z
1/2-x,1/2-y,z
x,1/2-y,1/2-z
1/2-x,y,1/2-z
-x,-y,-z
1/2+x,1/2+y,-z
-x,1/2+y,1/2+z
1/2+x,-y,1/2+z
loop_
_atom_site_type_symbol
_atom_site_label
_atom_site_fract_x
_atom_site_fract_y
_atom_site_fract_z
Si Si1 0.655952 0.061136 0.291985
Si Si2 0.579113 0.451841 0.926211
Si Si3 0.666816 0.875757 0.343111
Si Si4 0.501928 0.583009 0.586454
Si Si5 0.494888 0.831049 0.206512
Si Si6 0.341216 0.402155 0.181895
O O1 0.750000 0.084364 0.250000
O O2 0.621843 0.095265 0.443919
O O3 0.585121 0.080829 0.174852
O O4 0.656923 0.968138 0.315979
O O5 0.548253 0.400112 0.794740
O O6 0.648973 0.509426 0.864616
O O7 0.500000 0.500000 0.000000
O O8 0.750000 0.854267 0.250000
O O9 0.589427 0.833862 0.268331
O O10 0.658755 0.861992 0.519671
O O11 0.500000 0.500000 0.500000
O O12 0.498752 0.648242 0.463487
O O13 0.580608 0.601558 0.699314
O O14 0.455749 0.750000 0.250000
O O15 0.250000 0.384926 0.250000
#
# Coordination Sequence:
#
# PCOD9390026 Si02
#       6
#     8   8   8   8   8   8
#     4  10  20  34  64  90 112 154 203 256 300 351
#     4  11  18  39  59  83 121 154 196 250 296 351
#     4  10  19  36  57  87 126 156 196 243 308 372
#     4  12  20  37  59  92 121 152 212 253 289 366
#     4  12  24  37  59  88 123 165 196 246 316 359
#     4  11  21  33  64  94 114 154 205 259 297 351
#
# _framework density 19.140228
#
# number of rings (size 3 to 8) (size 9 to 14) (size 15 to 20)
#    0.000    1.000    8.333    1.000    4.667    0.333 
#    0.000    3.333    0.000    6.500    0.000    0.000 
#    0.000    0.000    0.000    0.000    0.000    0.000 
#
# Total GULP energy -267311.280234 kJ/mol
# GULP energy per Si atom -5568.985005 kJ/mol
# Density = 1.909666 g / cm^3
# Si number density = 19.140228 Si / 1000 Ang^3
#
#
#
# Elastic Constant Matrix: (Units=GPa)
#
#
# Indices 1 2 3 4 5 6 
#
# 1 122.0590 -8.7342 71.8899 0.0000 0.0000 0.0000
# 2 -8.7342 19.2880 19.1263 0.0000 0.0000 0.0000
# 3 71.8899 19.1263 177.5191 0.0000 0.0000 0.0000
# 4 0.0000 0.0000 0.0000 2.2804 0.0000 0.0000
# 5 0.0000 0.0000 0.0000 0.0000 36.4732 0.0000
# 6 0.0000 0.0000 0.0000 0.0000 0.0000 2.3310
#
#
#
# Elastic Compliance Matrix: (Units=1/GPa)
#
#
# Indices 1 2 3 4 5 6 
#
# 1 0.012957 0.012394 -0.006582 0.000000 0.000000 0.000000
# 2 0.012394 0.069904 -0.012551 0.000000 0.000000 0.000000
# 3 -0.006582 -0.012551 0.009651 0.000000 0.000000 0.000000
# 4 0.000000 0.000000 0.000000 0.438513 0.000000 0.000000
# 5 0.000000 0.000000 0.000000 0.000000 0.027417 0.000000
# 6 0.000000 0.000000 0.000000 0.000000 0.000000 0.428997
#
#
# Mechanical properties :
#
#
# Convention : Reuss Voigt Hill
#
# Bulk Modulus (GPa) = 12.65284 53.71445 33.18365
# Shear Modulus (GPa) = 4.86731 23.98921 14.42826
#
# Velocity S-wave (km/s) = 1.59640 3.54409 2.74855
# Velocity P-wave (km/s) = 3.16590 6.69866 5.23904
#
# Compressibility (1/GPa) = 0.07903364
#
# Stress axis : x y z
#
# Youngs Moduli (GPa) = 77.18116 14.30533 103.61479
#
# Poissons Ratio (x) = -0.17730 0.68203
# Poissons Ratio (y) = -0.95661 1.30046
# Poissons Ratio (z) = 0.50804 0.17955
#
# Static dielectric constant tensor:
#      x y z
#    x 1.808760 0.000000 0.000000 
#    y 0.000000 1.775140 0.000000 
#    z 0.000000 0.000000 1.746620 
# 
# From -- ./inp_files/12786.got.cif
#   From: 2010.05.17/outbox.cif.g08.bks.cpg/sg48_7_cif.got.tgz:12786.got - 2010.06.03 20:39:00.
