data_PCOD9390903
_publ_section_title
;
Structure prediction by ZEFSAII (Michael W. Deem and Ramdas Pophale) SiO2 
 PCOD9390903
Probable space group: P N N N
;
_chemical_formula_sum "Si O2"
_cell_formula_units_Z 58
_cell_length_a 8.879743
_cell_length_b 25.364161
_cell_length_c 12.018780
_cell_angle_alpha 90.000000
_cell_angle_beta 90.000000
_cell_angle_gamma 90.000000
_cell_volume 2706.956540
_symmetry_space_group_name_H-M "P N N N"
_symmetry_group_IT_number 48
_space_group.IT_coordinate_system_code '2'
_symmetry_cell_setting 'orthorhombic'
loop_
_space_group_symop_operation_xyz
x,y,z
1/2-x,1/2-y,z
x,1/2-y,1/2-z
1/2-x,y,1/2-z
-x,-y,-z
1/2+x,1/2+y,-z
-x,1/2+y,1/2+z
1/2+x,-y,1/2+z
loop_
_atom_site_type_symbol
_atom_site_label
_atom_site_fract_x
_atom_site_fract_y
_atom_site_fract_z
Si Si1 0.450580 0.489469 0.624388
Si Si2 0.946573 0.438580 0.501956
Si Si3 0.170532 0.605073 0.133967
Si Si4 0.250000 0.250000 0.750000
Si Si5 0.086225 0.201516 0.311851
Si Si6 0.717208 0.907489 0.373055
Si Si7 0.417760 0.317855 0.561323
Si Si8 0.933213 0.912750 0.760191
O O1 0.500000 0.500000 0.500000
O O2 0.550274 0.440347 0.665014
O O3 0.282814 0.466655 0.622538
O O4 0.485653 0.539913 0.696382
O O5 0.779410 0.422804 0.541921
O O6 0.000000 0.500000 0.500000
O O7 0.046611 0.409477 0.594716
O O8 0.005229 0.415676 0.385352
O O9 0.250000 0.619109 0.250000
O O10 0.078629 0.655082 0.086705
O O11 0.354994 0.283606 0.664571
O O12 0.006781 0.250000 0.250000
O O13 0.250000 0.197993 0.250000
O O14 0.090026 0.211827 0.443635
O O15 0.023135 0.143213 0.292692
O O16 0.750000 0.887915 0.250000
O O17 0.807328 0.868580 0.453298
O O18 0.750000 0.920233 0.750000
#
# Coordination Sequence:
#
# PCOD9390903 Si02
#       8
#     8   8   8   2   8   8   8   8
#     4  11  21  36  59  92 136 182 233 289 346 426
#     4  12  23  37  64  98 140 192 236 281 353 442
#     4  11  24  43  63  99 151 190 229 301 376 433
#     4  12  24  44  80 108 128 180 262 310 370 444
#     4  10  21  41  66  97 130 172 228 299 361 414
#     4  11  21  37  60  92 130 174 224 288 347 414
#     4  11  24  44  72 103 136 179 242 310 363 440
#     4  11  21  37  62  96 131 182 237 290 353 433
#
# _framework density 21.426276999999999
#
# number of rings (size 3 to 8) (size 9 to 14) (size 15 to 20)
#    0.000    0.966    0.690   10.345    0.000    0.000 
#    0.000    3.793    0.000    0.828    0.000    0.000 
#    0.000    0.000    0.000    0.000    0.000    0.000 
#
# Total GULP energy -323969.401435 kJ/mol
# GULP energy per Si atom -5585.679335 kJ/mol
# Density = 2.137751 g / cm^3
# Si number density = 21.426277 Si / 1000 Ang^3
#
#
#
# Elastic Constant Matrix: (Units=GPa)
#
#
# Indices 1 2 3 4 5 6 
#
# 1 82.8521 29.2383 34.0066 0.0000 0.0000 0.0000
# 2 29.2383 103.1146 49.1255 0.0000 0.0000 0.0000
# 3 34.0066 49.1255 170.6589 0.0000 0.0000 0.0000
# 4 0.0000 0.0000 0.0000 38.2955 0.0000 0.0000
# 5 0.0000 0.0000 0.0000 0.0000 36.9496 0.0000
# 6 0.0000 0.0000 0.0000 0.0000 0.0000 24.0432
#
#
#
# Elastic Compliance Matrix: (Units=1/GPa)
#
#
# Indices 1 2 3 4 5 6 
#
# 1 0.013923 -0.003043 -0.001898 0.000000 0.000000 0.000000
# 2 -0.003043 0.011905 -0.002820 0.000000 0.000000 0.000000
# 3 -0.001898 -0.002820 0.007050 0.000000 0.000000 0.000000
# 4 0.000000 0.000000 0.000000 0.026113 0.000000 0.000000
# 5 0.000000 0.000000 0.000000 0.000000 0.027064 0.000000
# 6 0.000000 0.000000 0.000000 0.000000 0.000000 0.041592
#
#
# Mechanical properties :
#
#
# Convention : Reuss Voigt Hill
#
# Bulk Modulus (GPa) = 57.62692 64.59627 61.11159
# Shear Modulus (GPa) = 33.56736 36.14134 34.85435
#
# Velocity S-wave (km/s) = 3.96238 4.11149 4.03763
# Velocity P-wave (km/s) = 6.92010 7.26311 7.09368
#
# Compressibility (1/GPa) = 0.01735300
#
# Stress axis : x y z
#
# Youngs Moduli (GPa) = 71.82424 84.00113 141.84856
#
# Poissons Ratio (x) = 0.25566 0.26927
# Poissons Ratio (y) = 0.21860 0.40007
# Poissons Ratio (z) = 0.13634 0.23691
#
# Static dielectric constant tensor:
#      x y z
#    x 1.795740 0.000000 0.000000 
#    y 0.000000 1.942290 0.000000 
#    z 0.000000 0.000000 1.844540 
# 
# From -- ./inp_files/18978.got.cif
#   From: 2010.05.17/outbox.cif.g08.bks.cpg/sg48_10_cif.got.tgz:18978.got - 2010.06.03 20:39:00.
