data_PCOD9390839
_publ_section_title
;
Structure prediction by ZEFSAII (Michael W. Deem and Ramdas Pophale) SiO2 
 PCOD9390839
Probable space group: P N N N
;
_chemical_formula_sum "Si O2"
_cell_formula_units_Z 64
_cell_length_a 11.617495
_cell_length_b 9.072549
_cell_length_c 30.947955
_cell_angle_alpha 90.000000
_cell_angle_beta 90.000000
_cell_angle_gamma 90.000000
_cell_volume 3261.923514
_symmetry_space_group_name_H-M "P N N N"
_symmetry_group_IT_number 48
_space_group.IT_coordinate_system_code '2'
_symmetry_cell_setting 'orthorhombic'
loop_
_space_group_symop_operation_xyz
x,y,z
1/2-x,1/2-y,z
x,1/2-y,1/2-z
1/2-x,y,1/2-z
-x,-y,-z
1/2+x,1/2+y,-z
-x,1/2+y,1/2+z
1/2+x,-y,1/2+z
loop_
_atom_site_type_symbol
_atom_site_label
_atom_site_fract_x
_atom_site_fract_y
_atom_site_fract_z
Si Si1 0.653290 0.531569 0.603923
Si Si2 0.887218 0.575684 0.258030
Si Si3 0.914789 0.018407 0.914376
Si Si4 0.476421 0.577862 0.677020
Si Si5 0.588942 0.092238 0.346552
Si Si6 0.523523 0.678457 0.443524
Si Si7 0.623308 0.740827 0.971383
Si Si8 0.794570 0.588865 0.121109
O O1 0.782956 0.469707 0.602074
O O2 0.597168 0.563255 0.650931
O O3 0.575878 0.420267 0.576336
O O4 0.638577 0.676069 0.574191
O O5 0.907996 0.750000 0.250000
O O6 0.750000 0.548938 0.250000
O O7 0.965446 0.475762 0.226195
O O8 0.911629 0.519606 0.306237
O O9 0.908361 0.924077 0.958308
O O10 0.981145 0.931920 0.877235
O O11 0.990659 0.162070 0.924288
O O12 0.420080 0.739706 0.670137
O O13 0.394596 0.461202 0.653030
O O14 0.698966 0.038245 0.374635
O O15 0.534353 0.690080 0.495012
O O16 0.642592 0.613962 0.424475
O O17 0.750000 0.750000 0.991966
O O18 0.750000 0.750000 0.134517
#
# Coordination Sequence:
#
# PCOD9390839 Si02
#       8
#     8   8   8   8   8   8   8   8
#     4  10  23  42  63  89 127 172 217 260 323 382
#     4  11  24  40  66  96 130 165 207 261 327 390
#     4  11  23  40  65  90 126 175 216 264 320 391
#     4  11  23  40  64  92 129 168 210 264 317 386
#     4  12  23  39  65  95 128 167 215 260 331 387
#     4  11  22  38  64  91 127 167 218 268 319 377
#     4  10  21  40  63  90 125 168 216 272 325 382
#     4  11  21  36  59  93 129 166 204 259 324 382
#
# _framework density 19.620325999999999
#
# number of rings (size 3 to 8) (size 9 to 14) (size 15 to 20)
#    0.000    1.125    3.750    3.000    1.750    0.500 
#    0.000    0.625    2.750    2.250    0.000    0.000 
#    0.000    0.000    0.000    0.000    0.000    0.000 
#
# Total GULP energy -356900.392822 kJ/mol
# GULP energy per Si atom -5576.568638 kJ/mol
# Density = 1.957567 g / cm^3
# Si number density = 19.620326 Si / 1000 Ang^3
#
#
#
# Elastic Constant Matrix: (Units=GPa)
#
#
# Indices 1 2 3 4 5 6 
#
# 1 69.4450 -0.6057 48.1315 0.0000 0.0000 0.0000
# 2 -0.6057 52.4158 10.4528 0.0000 0.0000 0.0000
# 3 48.1315 10.4528 69.1538 0.0000 0.0000 0.0000
# 4 0.0000 0.0000 0.0000 23.2125 0.0000 0.0000
# 5 0.0000 0.0000 0.0000 0.0000 0.3364 0.0000
# 6 0.0000 0.0000 0.0000 0.0000 0.0000 11.3407
#
#
#
# Elastic Compliance Matrix: (Units=1/GPa)
#
#
# Indices 1 2 3 4 5 6 
#
# 1 0.028799 0.004465 -0.020719 0.000000 0.000000 0.000000
# 2 0.004465 0.020363 -0.006185 0.000000 0.000000 0.000000
# 3 -0.020719 -0.006185 0.029816 0.000000 0.000000 0.000000
# 4 0.000000 0.000000 0.000000 0.043080 0.000000 0.000000
# 5 0.000000 0.000000 0.000000 0.000000 2.972863 0.000000
# 6 0.000000 0.000000 0.000000 0.000000 0.000000 0.088178
#
#
# Mechanical properties :
#
#
# Convention : Reuss Voigt Hill
#
# Bulk Modulus (GPa) = 29.32668 34.10797 31.71733
# Shear Modulus (GPa) = 1.54352 15.84696 8.69524
#
# Velocity S-wave (km/s) = 0.88792 2.84506 2.10746
# Velocity P-wave (km/s) = 4.00384 5.31170 4.70345
#
# Compressibility (1/GPa) = 0.03409864
#
# Stress axis : x y z
#
# Youngs Moduli (GPa) = 34.72336 49.10792 33.53887
#
# Poissons Ratio (x) = -0.21925 0.69490
# Poissons Ratio (y) = -0.15503 0.20745
# Poissons Ratio (z) = 0.71944 0.30375
#
# Static dielectric constant tensor:
#      x y z
#    x 1.709420 0.000000 0.000000 
#    y 0.000000 1.737150 0.000000 
#    z 0.000000 0.000000 1.698080 
# 
# From -- ./inp_files/38842.got.cif
#   From: 2010.05.17/outbox.cif.g08.bks.cpg/sg48_20_cif.got.tgz:38842.got - 2010.06.03 20:39:00.
