data_PCOD9390579
_publ_section_title
;
Structure prediction by ZEFSAII (Michael W. Deem and Ramdas Pophale) SiO2 
 PCOD9390579
Probable space group: P N N N
;
_chemical_formula_sum "Si O2"
_cell_formula_units_Z 40
_cell_length_a 17.346971
_cell_length_b 14.483484
_cell_length_c 6.806158
_cell_angle_alpha 90.000000
_cell_angle_beta 90.000000
_cell_angle_gamma 90.000000
_cell_volume 1710.010287
_symmetry_space_group_name_H-M "P N N N"
_symmetry_group_IT_number 48
_space_group.IT_coordinate_system_code '2'
_symmetry_cell_setting 'orthorhombic'
loop_
_space_group_symop_operation_xyz
x,y,z
1/2-x,1/2-y,z
x,1/2-y,1/2-z
1/2-x,y,1/2-z
-x,-y,-z
1/2+x,1/2+y,-z
-x,1/2+y,1/2+z
1/2+x,-y,1/2+z
loop_
_atom_site_type_symbol
_atom_site_label
_atom_site_fract_x
_atom_site_fract_y
_atom_site_fract_z
Si Si1 0.619119 0.376006 0.434301
Si Si2 0.250000 0.250000 0.750000
Si Si3 0.606769 0.830186 0.042980
Si Si4 0.986618 0.750000 0.750000
Si Si5 0.250000 0.750000 0.750000
Si Si6 0.071720 0.035904 0.864461
Si Si7 0.841758 0.985366 0.752759
O O1 0.545473 0.316403 0.366745
O O2 0.694210 0.315754 0.378881
O O3 0.605239 0.462154 0.290313
O O4 0.627910 0.418810 0.652763
O O5 0.308165 0.190372 0.879290
O O6 0.559760 0.875328 0.224172
O O7 0.572143 0.740556 0.933559
O O8 0.616165 0.906981 0.875406
O O9 0.137338 0.038747 0.026308
O O10 0.000000 0.000000 0.000000
O O11 0.750000 0.985909 0.750000
#
# Coordination Sequence:
#
# PCOD9390579 Si02
#       7
#     8   2   8   4   2   8   8
#     4  10  23  43  66 101 135 177 231 282 349 416
#     4  12  28  44  64  96 138 176 224 286 344 410
#     4  11  27  43  65  99 136 179 233 282 351 411
#     4  11  24  44  68  97 144 180 222 295 346 404
#     4  10  20  42  66  94 144 174 216 306 354 418
#     4  11  23  43  70  97 133 181 233 283 341 423
#     4  11  23  43  70  96 131 182 228 281 339 422
#
# _framework density 23.391672
#
# number of rings (size 3 to 8) (size 9 to 14) (size 15 to 20)
#    0.000    1.200    0.000    4.800    8.400    6.400 
#    0.000    8.500    0.000    0.000    0.000    0.000 
#    0.000    0.000    0.000    0.000    0.000    0.000 
#
# Total GULP energy -222996.072741 kJ/mol
# GULP energy per Si atom -5574.901819 kJ/mol
# Density = 2.333843 g / cm^3
# Si number density = 23.391672 Si / 1000 Ang^3
#
#
#
# Elastic Constant Matrix: (Units=GPa)
#
#
# Indices 1 2 3 4 5 6 
#
# 1 127.3716 19.2093 39.9334 0.0000 0.0000 0.0000
# 2 19.2093 54.7272 32.8932 0.0000 0.0000 0.0000
# 3 39.9334 32.8932 131.6246 0.0000 0.0000 0.0000
# 4 0.0000 0.0000 0.0000 36.5593 0.0000 0.0000
# 5 0.0000 0.0000 0.0000 0.0000 41.7159 0.0000
# 6 0.0000 0.0000 0.0000 0.0000 0.0000 45.6227
#
#
#
# Elastic Compliance Matrix: (Units=1/GPa)
#
#
# Indices 1 2 3 4 5 6 
#
# 1 0.008816 -0.001750 -0.002238 0.000000 0.000000 0.000000
# 2 -0.001750 0.021849 -0.004929 0.000000 0.000000 0.000000
# 3 -0.002238 -0.004929 0.009508 0.000000 0.000000 0.000000
# 4 0.000000 0.000000 0.000000 0.027353 0.000000 0.000000
# 5 0.000000 0.000000 0.000000 0.000000 0.023972 0.000000
# 6 0.000000 0.000000 0.000000 0.000000 0.000000 0.021919
#
#
# Mechanical properties :
#
#
# Convention : Reuss Voigt Hill
#
# Bulk Modulus (GPa) = 44.76156 55.31060 50.03608
# Shear Modulus (GPa) = 36.04974 39.55876 37.80425
#
# Velocity S-wave (km/s) = 3.92999 4.11682 4.02449
# Velocity P-wave (km/s) = 6.30637 6.80399 6.55990
#
# Compressibility (1/GPa) = 0.02234060
#
# Stress axis : x y z
#
# Youngs Moduli (GPa) = 113.42451 45.76803 105.17389
#
# Poissons Ratio (x) = 0.08008 0.23533
# Poissons Ratio (y) = 0.19846 0.51844
# Poissons Ratio (z) = 0.25379 0.22561
#
# Static dielectric constant tensor:
#      x y z
#    x 1.853940 0.000000 0.000000 
#    y 0.000000 1.897860 0.000000 
#    z 0.000000 0.000000 1.795410 
# 
# From -- ./inp_files/5118.got.cif
#   From: 2010.05.17/outbox.cif.g08.bks.cpg/sg48_3_cif.got.tgz:5118.got - 2010.06.03 20:39:00.
