data_PCOD9390348
_publ_section_title
;
Structure prediction by ZEFSAII (Michael W. Deem and Ramdas Pophale) SiO2 
 PCOD9390348
Probable space group: P N N N
;
_chemical_formula_sum "Si O2"
_cell_formula_units_Z 40
_cell_length_a 9.044497
_cell_length_b 20.732537
_cell_length_c 9.853224
_cell_angle_alpha 90.000000
_cell_angle_beta 90.000000
_cell_angle_gamma 90.000000
_cell_volume 1847.630931
_symmetry_space_group_name_H-M "P N N N"
_symmetry_group_IT_number 48
_space_group.IT_coordinate_system_code '2'
_symmetry_cell_setting 'orthorhombic'
loop_
_space_group_symop_operation_xyz
x,y,z
1/2-x,1/2-y,z
x,1/2-y,1/2-z
1/2-x,y,1/2-z
-x,-y,-z
1/2+x,1/2+y,-z
-x,1/2+y,1/2+z
1/2+x,-y,1/2+z
loop_
_atom_site_type_symbol
_atom_site_label
_atom_site_fract_x
_atom_site_fract_y
_atom_site_fract_z
Si Si1 0.102253 0.936736 0.159591
Si Si2 0.462327 0.307873 0.847930
Si Si3 0.038095 0.812845 0.669109
Si Si4 0.604034 0.441446 0.166089
Si Si5 0.250000 0.750000 0.470368
Si Si6 0.750000 0.750000 0.558426
O O1 0.250000 0.930983 0.250000
O O2 0.983752 0.880689 0.199986
O O3 0.129834 0.932114 0.995905
O O4 0.023227 0.005301 0.181874
O O5 0.414383 0.250000 0.750000
O O6 0.627537 0.288493 0.889398
O O7 0.352335 0.299034 0.973241
O O8 0.087037 0.750000 0.750000
O O9 0.056141 0.875032 0.760914
O O10 0.151593 0.805615 0.544778
O O11 0.869587 0.795976 0.630988
O O12 0.750000 0.461970 0.250000
#
# Coordination Sequence:
#
# PCOD9390348 Si02
#       6
#     8   8   8   8   4   4
#     4  11  26  45  66  97 135 173 217 270 331 397
#     4  11  22  40  63  92 131 174 214 261 328 397
#     4  11  21  37  63  93 123 158 209 272 324 371
#     4  11  25  45  69  96 130 174 222 272 327 390
#     4  10  20  36  66  96 121 158 219 278 321 376
#     4  10  24  38  62  98 130 166 220 276 318 374
#
# _framework density 21.649346000000001
#
# number of rings (size 3 to 8) (size 9 to 14) (size 15 to 20)
#    0.000    1.200    0.000    7.200    0.000    8.800 
#    0.000    0.000    0.000    0.000    0.000    0.000 
#    0.000    0.000    0.000    0.000    0.000    0.000 
#
# Total GULP energy -223341.374263 kJ/mol
# GULP energy per Si atom -5583.534357 kJ/mol
# Density = 2.160007 g / cm^3
# Si number density = 21.649346 Si / 1000 Ang^3
#
#
#
# Elastic Constant Matrix: (Units=GPa)
#
#
# Indices 1 2 3 4 5 6 
#
# 1 139.1729 28.9647 44.9881 0.0000 0.0000 0.0000
# 2 28.9647 149.8654 39.4103 0.0000 0.0000 0.0000
# 3 44.9881 39.4103 75.5591 0.0000 0.0000 0.0000
# 4 0.0000 0.0000 0.0000 28.2656 0.0000 0.0000
# 5 0.0000 0.0000 0.0000 0.0000 35.1372 0.0000
# 6 0.0000 0.0000 0.0000 0.0000 0.0000 424.8629
#
#
#
# Elastic Compliance Matrix: (Units=1/GPa)
#
#
# Indices 1 2 3 4 5 6 
#
# 1 0.008916 -0.000379 -0.005111 0.000000 0.000000 0.000000
# 2 -0.000379 0.007750 -0.003816 0.000000 0.000000 0.000000
# 3 -0.005111 -0.003816 0.018268 0.000000 0.000000 0.000000
# 4 0.000000 0.000000 0.000000 0.035379 0.000000 0.000000
# 5 0.000000 0.000000 0.000000 0.000000 0.028460 0.000000
# 6 0.000000 0.000000 0.000000 0.000000 0.000000 0.002354
#
#
# Mechanical properties :
#
#
# Convention : Reuss Voigt Hill
#
# Bulk Modulus (GPa) = 61.27003 65.70264 63.48634
# Shear Modulus (GPa) = 39.94256 114.40210 77.17233
#
# Velocity S-wave (km/s) = 4.29998 7.27722 5.97695
# Velocity P-wave (km/s) = 7.28118 10.05112 8.77612
#
# Compressibility (1/GPa) = 0.01632119
#
# Stress axis : x y z
#
# Youngs Moduli (GPa) = 112.15292 129.04056 54.73971
#
# Poissons Ratio (x) = 0.04894 0.27978
# Poissons Ratio (y) = 0.04253 0.20890
# Poissons Ratio (z) = 0.57322 0.49245
#
# Static dielectric constant tensor:
#      x y z
#    x 1.770760 0.000000 0.000000 
#    y 0.000000 1.817460 0.000000 
#    z 0.000000 0.000000 1.907280 
# 
# From -- ./inp_files/18686.got.cif
#   From: 2010.05.17/outbox.cif.g08.bks.cpg/sg48_10_cif.got.tgz:18686.got - 2010.06.03 20:39:00.
