data_PCOD9390544
_publ_section_title
;
Structure prediction by ZEFSAII (Michael W. Deem and Ramdas Pophale) SiO2 
 PCOD9390544
Probable space group: P N N N
;
_chemical_formula_sum "Si O2"
_cell_formula_units_Z 52
_cell_length_a 6.401157
_cell_length_b 20.625178
_cell_length_c 19.782433
_cell_angle_alpha 90.000000
_cell_angle_beta 90.000000
_cell_angle_gamma 90.000000
_cell_volume 2611.775767
_symmetry_space_group_name_H-M "P N N N"
_symmetry_group_IT_number 48
_space_group.IT_coordinate_system_code '2'
_symmetry_cell_setting 'orthorhombic'
loop_
_space_group_symop_operation_xyz
x,y,z
1/2-x,1/2-y,z
x,1/2-y,1/2-z
1/2-x,y,1/2-z
-x,-y,-z
1/2+x,1/2+y,-z
-x,1/2+y,1/2+z
1/2+x,-y,1/2+z
loop_
_atom_site_type_symbol
_atom_site_label
_atom_site_fract_x
_atom_site_fract_y
_atom_site_fract_z
Si Si1 0.153734 0.820735 0.316325
Si Si2 0.870842 0.184320 0.439960
Si Si3 0.362256 0.586439 0.681715
Si Si4 0.420329 0.639876 0.059177
Si Si5 0.750000 0.644226 0.250000
Si Si6 0.250000 0.250000 0.978694
Si Si7 0.926110 0.963031 0.148530
Si Si8 0.750000 0.520343 0.750000
O O1 0.250000 0.750000 0.320804
O O2 0.250000 0.854055 0.250000
O O3 0.239508 0.852911 0.383588
O O4 0.914904 0.816129 0.294458
O O5 0.750000 0.250000 0.420725
O O6 0.898933 0.139112 0.375604
O O7 0.710391 0.148052 0.490819
O O8 0.085988 0.206542 0.477314
O O9 0.250000 0.611564 0.750000
O O10 0.229007 0.524723 0.652822
O O11 0.578780 0.560719 0.710145
O O12 0.527307 0.571090 0.076724
O O13 0.594315 0.698648 0.059946
O O14 0.662331 0.595598 0.193586
O O15 0.130217 0.983667 0.190066
#
# Coordination Sequence:
#
# PCOD9390544 Si02
#       8
#     8   8   8   8   4   4   8   4
#     4  11  24  35  56  89 123 168 223 272 309 370
#     4  10  24  46  68  95 131 166 213 265 330 392
#     4  10  23  43  70 100 129 162 208 272 327 398
#     4  11  24  40  65  92 128 172 218 263 320 384
#     4  12  22  39  62  88 131 172 220 268 330 366
#     4  10  24  44  66  90 132 180 218 268 326 384
#     4  11  22  38  66  93 129 172 213 264 324 380
#     4  10  20  40  64  99 131 166 216 266 328 378
#
# _framework density 19.909825999999999
#
# number of rings (size 3 to 8) (size 9 to 14) (size 15 to 20)
#    0.000    1.385    3.846    2.308    4.308    7.077 
#    0.000    1.538    0.000    0.000    0.000    0.000 
#    0.000    0.000    0.000    0.000    0.000    0.000 
#
# Total GULP energy -289828.907200 kJ/mol
# GULP energy per Si atom -5573.632831 kJ/mol
# Density = 1.986451 g / cm^3
# Si number density = 19.909826 Si / 1000 Ang^3
#
#
#
# Elastic Constant Matrix: (Units=GPa)
#
#
# Indices 1 2 3 4 5 6 
#
# 1 117.2959 40.7303 39.1272 0.0000 0.0000 0.0000
# 2 40.7303 78.2267 60.4179 0.0000 0.0000 0.0000
# 3 39.1272 60.4179 97.3424 0.0000 0.0000 0.0000
# 4 0.0000 0.0000 0.0000 52.4696 0.0000 0.0000
# 5 0.0000 0.0000 0.0000 0.0000 -7.9946 0.0000
# 6 0.0000 0.0000 0.0000 0.0000 0.0000 5.5110
#
#
#
# Elastic Compliance Matrix: (Units=1/GPa)
#
#
# Indices 1 2 3 4 5 6 
#
# 1 0.010534 -0.004254 -0.001594 0.000000 0.000000 0.000000
# 2 -0.004254 0.026271 -0.014596 0.000000 0.000000 0.000000
# 3 -0.001594 -0.014596 0.019973 0.000000 0.000000 0.000000
# 4 0.000000 0.000000 0.000000 0.019059 0.000000 0.000000
# 5 0.000000 0.000000 0.000000 0.000000 -0.125085 0.000000
# 6 0.000000 0.000000 0.000000 0.000000 0.000000 0.181457
#
#
# Mechanical properties :
#
#
# Convention : Reuss Voigt Hill
#
# Bulk Modulus (GPa) = 62.92901 63.71287 63.32094
# Shear Modulus (GPa) = 28.02783 20.16984 24.09883
#
# Velocity S-wave (km/s) = 3.75605 3.18631 3.48285
# Velocity P-wave (km/s) = 7.10537 6.75329 6.93157
#
# Compressibility (1/GPa) = 0.01589092
#
# Stress axis : x y z
#
# Youngs Moduli (GPa) = 94.92818 38.06428 50.06692
#
# Poissons Ratio (x) = 0.16191 0.07982
# Poissons Ratio (y) = 0.40379 0.73079
# Poissons Ratio (z) = 0.15133 0.55559
#
# Static dielectric constant tensor:
#      x y z
#    x 1.785840 0.000000 0.000000 
#    y 0.000000 1.958440 0.000000 
#    z 0.000000 0.000000 1.747160 
# 
# From -- ./inp_files/32945.got.cif
#   From: 2010.05.17/outbox.cif.g08.bks.cpg/sg48_17_cif.got.tgz:32945.got - 2010.06.03 20:39:00.
