data_PCOD9390028
_publ_section_title
;
Structure prediction by ZEFSAII (Michael W. Deem and Ramdas Pophale) SiO2 
 PCOD9390028
Probable space group: P N N N
;
_chemical_formula_sum "Si O2"
_cell_formula_units_Z 64
_cell_length_a 18.806193
_cell_length_b 11.210584
_cell_length_c 17.047301
_cell_angle_alpha 90.000000
_cell_angle_beta 90.000000
_cell_angle_gamma 90.000000
_cell_volume 3594.055302
_symmetry_space_group_name_H-M "P N N N"
_symmetry_group_IT_number 48
_space_group.IT_coordinate_system_code '2'
_symmetry_cell_setting 'orthorhombic'
loop_
_space_group_symop_operation_xyz
x,y,z
1/2-x,1/2-y,z
x,1/2-y,1/2-z
1/2-x,y,1/2-z
-x,-y,-z
1/2+x,1/2+y,-z
-x,1/2+y,1/2+z
1/2+x,-y,1/2+z
loop_
_atom_site_type_symbol
_atom_site_label
_atom_site_fract_x
_atom_site_fract_y
_atom_site_fract_z
Si Si1 0.110644 0.463917 0.049101
Si Si2 0.442000 0.215788 0.163784
Si Si3 0.021161 0.877971 0.957559
Si Si4 0.498271 0.658996 0.428856
Si Si5 0.302409 0.497960 0.592423
Si Si6 0.596528 0.374744 0.292641
Si Si7 0.373282 0.234625 0.840473
Si Si8 0.857884 0.004469 0.137461
O O1 0.113194 0.362648 0.114835
O O2 0.070005 0.577666 0.083882
O O3 0.180914 0.495217 0.000245
O O4 0.055262 0.410365 0.984338
O O5 0.416428 0.250000 0.250000
O O6 0.468324 0.327042 0.110274
O O7 0.514886 0.139422 0.179885
O O8 0.094731 0.908488 0.915056
O O9 0.024107 0.774850 0.022224
O O10 0.000000 0.000000 0.000000
O O11 0.545748 0.690848 0.353766
O O12 0.357064 0.590056 0.632704
O O13 0.321906 0.365086 0.623144
O O14 0.224466 0.529714 0.622283
O O15 0.615078 0.250000 0.250000
O O16 0.614885 0.472304 0.226216
O O17 0.355191 0.250000 0.750000
O O18 0.368370 0.364254 0.880820
#
# Coordination Sequence:
#
# PCOD9390028 Si02
#       8
#     8   8   8   8   8   8   8   8
#     4   9  19  34  54  75 101 144 188 227 271 330
#     4  10  19  36  58  81 110 140 190 245 292 327
#     4  11  20  35  53  78 109 142 185 240 286 327
#     4   9  18  33  53  73 103 136 184 231 269 316
#     4  11  23  36  50  75 114 156 185 214 268 345
#     4  11  21  35  51  78 114 149 186 226 273 334
#     4  11  21  34  52  75 108 145 180 219 269 332
#     4  12  23  34  51  77 113 151 183 222 276 340
#
# _framework density 17.807182000000001
#
# number of rings (size 3 to 8) (size 9 to 14) (size 15 to 20)
#    0.000    1.500    5.000    3.750    0.000    1.500 
#    0.000    0.000    0.000    0.000    0.000    1.750 
#    0.000    1.000    0.000    0.000    0.000    0.000 
#
# Total GULP energy -357003.023863 kJ/mol
# GULP energy per Si atom -5578.172248 kJ/mol
# Density = 1.776665 g / cm^3
# Si number density = 17.807182 Si / 1000 Ang^3
#
#
#
# Elastic Constant Matrix: (Units=GPa)
#
#
# Indices 1 2 3 4 5 6 
#
# 1 30.0680 -1.4413 20.1223 0.0000 0.0000 0.0000
# 2 -1.4413 63.1016 5.5793 0.0000 0.0000 0.0000
# 3 20.1223 5.5793 71.5600 0.0000 0.0000 0.0000
# 4 0.0000 0.0000 0.0000 33.1116 0.0000 0.0000
# 5 0.0000 0.0000 0.0000 0.0000 10.3490 0.0000
# 6 0.0000 0.0000 0.0000 0.0000 0.0000 14.6758
#
#
#
# Elastic Compliance Matrix: (Units=1/GPa)
#
#
# Indices 1 2 3 4 5 6 
#
# 1 0.041211 0.001980 -0.011743 0.000000 0.000000 0.000000
# 2 0.001980 0.016053 -0.001808 0.000000 0.000000 0.000000
# 3 -0.011743 -0.001808 0.017417 0.000000 0.000000 0.000000
# 4 0.000000 0.000000 0.000000 0.030201 0.000000 0.000000
# 5 0.000000 0.000000 0.000000 0.000000 0.096628 0.000000
# 6 0.000000 0.000000 0.000000 0.000000 0.000000 0.068139
#
#
# Mechanical properties :
#
#
# Convention : Reuss Voigt Hill
#
# Bulk Modulus (GPa) = 19.40299 23.69448 21.54873
# Shear Modulus (GPa) = 16.13051 20.99190 18.56120
#
# Velocity S-wave (km/s) = 3.01299 3.43716 3.23204
# Velocity P-wave (km/s) = 4.79833 5.39324 5.10446
#
# Compressibility (1/GPa) = 0.05153844
#
# Stress axis : x y z
#
# Youngs Moduli (GPa) = 24.26509 62.29534 57.41422
#
# Poissons Ratio (x) = -0.12332 0.67420
# Poissons Ratio (y) = -0.04804 0.10382
# Poissons Ratio (z) = 0.28494 0.11264
#
# Static dielectric constant tensor:
#      x y z
#    x 1.600440 0.000000 0.000000 
#    y 0.000000 1.660230 0.000000 
#    z 0.000000 0.000000 1.639680 
# 
# From -- ./inp_files/31701.got.cif
#   From: 2010.05.17/outbox.cif.g08.bks.cpg/sg48_16_cif.got.tgz:31701.got - 2010.06.03 20:39:00.
