data_PCOD9390062
_publ_section_title
;
Structure prediction by ZEFSAII (Michael W. Deem and Ramdas Pophale) SiO2 
 PCOD9390062
Probable space group: P N N N
;
_chemical_formula_sum "Si O2"
_cell_formula_units_Z 44
_cell_length_a 12.178241
_cell_length_b 18.420117
_cell_length_c 10.751086
_cell_angle_alpha 90.000000
_cell_angle_beta 90.000000
_cell_angle_gamma 90.000000
_cell_volume 2411.733325
_symmetry_space_group_name_H-M "P N N N"
_symmetry_group_IT_number 48
_space_group.IT_coordinate_system_code '2'
_symmetry_cell_setting 'orthorhombic'
loop_
_space_group_symop_operation_xyz
x,y,z
1/2-x,1/2-y,z
x,1/2-y,1/2-z
1/2-x,y,1/2-z
-x,-y,-z
1/2+x,1/2+y,-z
-x,1/2+y,1/2+z
1/2+x,-y,1/2+z
loop_
_atom_site_type_symbol
_atom_site_label
_atom_site_fract_x
_atom_site_fract_y
_atom_site_fract_z
Si Si1 0.774992 0.829296 0.945560
Si Si2 0.649701 0.452441 0.541935
Si Si3 0.250000 0.052998 0.250000
Si Si4 0.203392 0.672604 0.390620
Si Si5 0.947243 0.677952 0.334805
Si Si6 0.906792 0.588367 0.101810
O O1 0.750000 0.750000 0.891536
O O2 0.806705 0.891262 0.846358
O O3 0.868369 0.819330 0.048152
O O4 0.667275 0.858343 0.018623
O O5 0.673367 0.501730 0.665088
O O6 0.746072 0.394054 0.533571
O O7 0.638754 0.508333 0.428400
O O8 0.533700 0.412207 0.558778
O O9 0.250000 0.750000 0.436002
O O10 0.250000 0.664521 0.250000
O O11 0.072803 0.671055 0.378441
O O12 0.939101 0.750000 0.250000
O O13 0.908728 0.613281 0.243940
#
# Coordination Sequence:
#
# PCOD9390062 Si02
#       6
#     8   8   4   8   8   8
#     4  11  23  35  56  82 118 154 187 240 284 347
#     4  10  19  37  58  81 117 153 191 231 277 356
#     4  10  21  40  55  80 116 154 198 224 289 346
#     4  11  19  33  59  85 112 151 196 245 282 336
#     4  12  20  34  55  88 119 142 196 247 291 331
#     4  10  20  33  56  83 115 156 181 226 296 337
#
# _framework density 18.244140000000002
#
# number of rings (size 3 to 8) (size 9 to 14) (size 15 to 20)
#    0.000    1.273    6.364    0.818    0.000    0.000 
#    0.000   10.000    0.000    0.000    0.000    0.000 
#    0.000    0.000    0.000    0.000    0.000    0.000 
#
# Total GULP energy -245532.461440 kJ/mol
# GULP energy per Si atom -5580.283215 kJ/mol
# Density = 1.820262 g / cm^3
# Si number density = 18.244140 Si / 1000 Ang^3
#
#
#
# Elastic Constant Matrix: (Units=GPa)
#
#
# Indices 1 2 3 4 5 6 
#
# 1 110.1279 55.6658 48.4194 0.0000 0.0000 0.0000
# 2 55.6658 93.4406 42.6402 0.0000 0.0000 0.0000
# 3 48.4194 42.6402 63.9749 0.0000 0.0000 0.0000
# 4 0.0000 0.0000 0.0000 21.1585 0.0000 0.0000
# 5 0.0000 0.0000 0.0000 0.0000 10.8167 0.0000
# 6 0.0000 0.0000 0.0000 0.0000 0.0000 19.1381
#
#
#
# Elastic Compliance Matrix: (Units=1/GPa)
#
#
# Indices 1 2 3 4 5 6 
#
# 1 0.015369 -0.005530 -0.007947 0.000000 0.000000 0.000000
# 2 -0.005530 0.017369 -0.007392 0.000000 0.000000 0.000000
# 3 -0.007947 -0.007392 0.026572 0.000000 0.000000 0.000000
# 4 0.000000 0.000000 0.000000 0.047262 0.000000 0.000000
# 5 0.000000 0.000000 0.000000 0.000000 0.092450 0.000000
# 6 0.000000 0.000000 0.000000 0.000000 0.000000 0.052252
#
#
# Mechanical properties :
#
#
# Convention : Reuss Voigt Hill
#
# Bulk Modulus (GPa) = 56.89995 62.33269 59.61632
# Shear Modulus (GPa) = 16.72973 18.27720 17.50347
#
# Velocity S-wave (km/s) = 3.03147 3.16858 3.10078
# Velocity P-wave (km/s) = 6.59613 6.90120 6.75039
#
# Compressibility (1/GPa) = 0.01757471
#
# Stress axis : x y z
#
# Youngs Moduli (GPa) = 65.06494 57.57270 37.63327
#
# Poissons Ratio (x) = 0.31836 0.29906
# Poissons Ratio (y) = 0.35979 0.27818
# Poissons Ratio (z) = 0.51704 0.42556
#
# Static dielectric constant tensor:
#      x y z
#    x 1.609310 0.000000 0.000000 
#    y 0.000000 1.674100 0.000000 
#    z 0.000000 0.000000 1.609060 
# 
# From -- ./inp_files/20080.got.cif
#   From: 2010.05.17/outbox.cif.g08.bks.cpg/sg48_11_cif.got.tgz:20080.got - 2010.06.03 20:39:00.
