data_PCOD9390548
_publ_section_title
;
Structure prediction by ZEFSAII (Michael W. Deem and Ramdas Pophale) SiO2 
 PCOD9390548
Probable space group: P N N N
;
_chemical_formula_sum "Si O2"
_cell_formula_units_Z 34
_cell_length_a 22.783099
_cell_length_b 12.039466
_cell_length_c 5.325066
_cell_angle_alpha 90.000000
_cell_angle_beta 90.000000
_cell_angle_gamma 90.000000
_cell_volume 1460.646145
_symmetry_space_group_name_H-M "P N N N"
_symmetry_group_IT_number 48
_space_group.IT_coordinate_system_code '2'
_symmetry_cell_setting 'orthorhombic'
loop_
_space_group_symop_operation_xyz
x,y,z
1/2-x,1/2-y,z
x,1/2-y,1/2-z
1/2-x,y,1/2-z
-x,-y,-z
1/2+x,1/2+y,-z
-x,1/2+y,1/2+z
1/2+x,-y,1/2+z
loop_
_atom_site_type_symbol
_atom_site_label
_atom_site_fract_x
_atom_site_fract_y
_atom_site_fract_z
Si Si1 0.250000 0.250000 0.750000
Si Si2 0.431558 0.082178 0.203482
Si Si3 0.183223 0.801143 0.993107
Si Si4 0.307001 0.439977 0.081255
Si Si5 0.497466 0.366197 0.802954
O O1 0.291264 0.163660 0.597493
O O2 0.362986 0.091572 0.251981
O O3 0.466230 0.144475 0.427157
O O4 0.453708 0.959179 0.274948
O O5 0.450546 0.107821 0.919275
O O6 0.250000 0.750000 0.991018
O O7 0.159099 0.750000 0.250000
O O8 0.183063 0.935284 0.971670
O O9 0.152418 0.750000 0.750000
O O10 0.250000 0.454794 0.250000
O O11 0.525685 0.250000 0.750000
#
# Coordination Sequence:
#
# PCOD9390548 Si02
#       5
#     2   8   8   8   8
#     4  12  30  44  66 102 160 208 246 274 364 464
#     4  10  25  43  72 104 136 183 238 292 357 427
#     4  10  20  40  67  91 131 187 229 294 346 409
#     4  12  27  46  68 107 151 196 246 293 363 450
#     4  10  22  46  72 101 136 178 237 302 360 418
#
# _framework density 23.277367999999999
#
# number of rings (size 3 to 8) (size 9 to 14) (size 15 to 20)
#    0.000    1.412    2.353    2.471    4.941    2.824 
#    0.000    4.706    0.000    0.000    0.000    0.000 
#    0.000    0.000    0.000    0.000    0.000    0.000 
#
# Total GULP energy -189936.309704 kJ/mol
# GULP energy per Si atom -5586.362050 kJ/mol
# Density = 2.322439 g / cm^3
# Si number density = 23.277368 Si / 1000 Ang^3
#
#
#
# Elastic Constant Matrix: (Units=GPa)
#
#
# Indices 1 2 3 4 5 6 
#
# 1 104.4699 12.9253 20.4360 0.0000 0.0000 0.0000
# 2 12.9253 163.4462 39.9562 0.0000 0.0000 0.0000
# 3 20.4360 39.9562 142.2308 0.0000 0.0000 0.0000
# 4 0.0000 0.0000 0.0000 36.1643 0.0000 0.0000
# 5 0.0000 0.0000 0.0000 0.0000 23.5206 0.0000
# 6 0.0000 0.0000 0.0000 0.0000 0.0000 17.4059
#
#
#
# Elastic Compliance Matrix: (Units=1/GPa)
#
#
# Indices 1 2 3 4 5 6 
#
# 1 0.009882 -0.000466 -0.001289 0.000000 0.000000 0.000000
# 2 -0.000466 0.006591 -0.001785 0.000000 0.000000 0.000000
# 3 -0.001289 -0.001785 0.007717 0.000000 0.000000 0.000000
# 4 0.000000 0.000000 0.000000 0.027652 0.000000 0.000000
# 5 0.000000 0.000000 0.000000 0.000000 0.042516 0.000000
# 6 0.000000 0.000000 0.000000 0.000000 0.000000 0.057452
#
#
# Mechanical properties :
#
#
# Convention : Reuss Voigt Hill
#
# Bulk Modulus (GPa) = 58.44228 61.86466 60.15347
# Shear Modulus (GPa) = 30.37788 37.87346 34.12567
#
# Velocity S-wave (km/s) = 3.61645 4.03805 3.83305
# Velocity P-wave (km/s) = 6.52685 6.95528 6.74447
#
# Compressibility (1/GPa) = 0.01711090
#
# Stress axis : x y z
#
# Youngs Moduli (GPa) = 101.19457 151.71316 129.57791
#
# Poissons Ratio (x) = 0.07076 0.16700
# Poissons Ratio (y) = 0.04720 0.23125
# Poissons Ratio (z) = 0.13042 0.27076
#
# Static dielectric constant tensor:
#      x y z
#    x 1.099440 0.000000 0.000000 
#    y 0.000000 2.065160 0.000000 
#    z 0.000000 0.000000 1.969810 
# 
# From -- ./inp_files/2197.got.cif
#   From: 2010.05.17/outbox.cif.g08.bks.cpg/sg48_2_cif.got.tgz:2197.got - 2010.06.03 20:39:00.
