data_PCOD9390318
_publ_section_title
;
Structure prediction by ZEFSAII (Michael W. Deem and Ramdas Pophale) SiO2 
 PCOD9390318
Probable space group: P N N N
;
_chemical_formula_sum "Si O2"
_cell_formula_units_Z 34
_cell_length_a 6.126275
_cell_length_b 15.481712
_cell_length_c 18.204873
_cell_angle_alpha 90.000000
_cell_angle_beta 90.000000
_cell_angle_gamma 90.000000
_cell_volume 1726.645279
_symmetry_space_group_name_H-M "P N N N"
_symmetry_group_IT_number 48
_space_group.IT_coordinate_system_code '2'
_symmetry_cell_setting 'orthorhombic'
loop_
_space_group_symop_operation_xyz
x,y,z
1/2-x,1/2-y,z
x,1/2-y,1/2-z
1/2-x,y,1/2-z
-x,-y,-z
1/2+x,1/2+y,-z
-x,1/2+y,1/2+z
1/2+x,-y,1/2+z
loop_
_atom_site_type_symbol
_atom_site_label
_atom_site_fract_x
_atom_site_fract_y
_atom_site_fract_z
Si Si1 0.365729 0.999295 0.175376
Si Si2 0.250000 0.398351 0.750000
Si Si3 0.053208 0.180211 0.377767
Si Si4 0.250000 0.750000 0.498513
Si Si5 0.399802 0.671639 0.141942
Si Si6 0.750000 0.250000 0.250000
O O1 0.250000 0.029941 0.250000
O O2 0.595699 0.959326 0.200670
O O3 0.229272 0.918255 0.146080
O O4 0.370906 0.081503 0.123574
O O5 0.392000 0.342098 0.806859
O O6 0.250000 0.250000 0.377566
O O7 0.899188 0.194133 0.447880
O O8 0.905886 0.195868 0.304634
O O9 0.412395 0.801811 0.443594
O O10 0.250000 0.750000 0.171152
#
# Coordination Sequence:
#
# PCOD9390318 Si02
#       6
#     8   4   8   4   8   2
#     4  10  21  36  60  95 121 157 219 261 313 379
#     4  10  21  39  69  89 128 168 199 279 327 359
#     4  11  22  39  64  88 128 173 209 264 321 370
#     4   9  24  43  57  92 133 166 218 252 313 399
#     4   9  22  42  59  93 127 157 215 258 316 388
#     4  10  20  36  58  90 122 154 218 272 304 378
#
# _framework density 19.691362999999999
#
# number of rings (size 3 to 8) (size 9 to 14) (size 15 to 20)
#    0.706    1.412    0.000    2.471    0.000   14.588 
#    0.000    2.353    0.000    0.000    0.000    0.000 
#    0.000    0.000    0.000    0.000    0.000    0.000 
#
# Total GULP energy -189620.691257 kJ/mol
# GULP energy per Si atom -5577.079155 kJ/mol
# Density = 1.964654 g / cm^3
# Si number density = 19.691363 Si / 1000 Ang^3
#
#
#
# Elastic Constant Matrix: (Units=GPa)
#
#
# Indices 1 2 3 4 5 6 
#
# 1 97.7206 60.6457 42.5371 0.0000 0.0000 0.0000
# 2 60.6457 148.6570 61.7774 0.0000 0.0000 0.0000
# 3 42.5371 61.7774 127.7137 0.0000 0.0000 0.0000
# 4 0.0000 0.0000 0.0000 11.5309 0.0000 0.0000
# 5 0.0000 0.0000 0.0000 0.0000 1.0870 0.0000
# 6 0.0000 0.0000 0.0000 0.0000 0.0000 16.1447
#
#
#
# Elastic Compliance Matrix: (Units=1/GPa)
#
#
# Indices 1 2 3 4 5 6 
#
# 1 0.014279 -0.004817 -0.002426 0.000000 0.000000 0.000000
# 2 -0.004817 0.010044 -0.003254 0.000000 0.000000 0.000000
# 3 -0.002426 -0.003254 0.010212 0.000000 0.000000 0.000000
# 4 0.000000 0.000000 0.000000 0.086723 0.000000 0.000000
# 5 0.000000 0.000000 0.000000 0.000000 0.919926 0.000000
# 6 0.000000 0.000000 0.000000 0.000000 0.000000 0.061940
#
#
# Mechanical properties :
#
#
# Convention : Reuss Voigt Hill
#
# Bulk Modulus (GPa) = 73.84877 78.22353 76.03615
# Shear Modulus (GPa) = 4.43014 19.69460 12.06237
#
# Velocity S-wave (km/s) = 1.50156 3.16597 2.47770
# Velocity P-wave (km/s) = 6.37109 7.29215 6.84713
#
# Compressibility (1/GPa) = 0.01354119
#
# Stress axis : x y z
#
# Youngs Moduli (GPa) = 70.03497 99.55780 97.92344
#
# Poissons Ratio (x) = 0.47957 0.23753
# Poissons Ratio (y) = 0.33736 0.31867
# Poissons Ratio (z) = 0.16988 0.32399
#
# Static dielectric constant tensor:
#      x y z
#    x 1.713410 0.000000 0.000000 
#    y 0.000000 1.687170 0.000000 
#    z 0.000000 0.000000 1.701220 
# 
# From -- ./inp_files/4998.got.cif
#   From: 2010.05.17/outbox.cif.g08.bks.cpg/sg48_3_cif.got.tgz:4998.got - 2010.06.03 20:39:00.
