data_PCOD9390054
_publ_section_title
;
Structure prediction by ZEFSAII (Michael W. Deem and Ramdas Pophale) SiO2 
 PCOD9390054
Probable space group: P N N N
;
_chemical_formula_sum "Si O2"
_cell_formula_units_Z 40
_cell_length_a 28.297570
_cell_length_b 12.104009
_cell_length_c 5.122571
_cell_angle_alpha 90.000000
_cell_angle_beta 90.000000
_cell_angle_gamma 90.000000
_cell_volume 1754.552498
_symmetry_space_group_name_H-M "P N N N"
_symmetry_group_IT_number 48
_space_group.IT_coordinate_system_code '2'
_symmetry_cell_setting 'orthorhombic'
loop_
_space_group_symop_operation_xyz
x,y,z
1/2-x,1/2-y,z
x,1/2-y,1/2-z
1/2-x,y,1/2-z
-x,-y,-z
1/2+x,1/2+y,-z
-x,1/2+y,1/2+z
1/2+x,-y,1/2+z
loop_
_atom_site_type_symbol
_atom_site_label
_atom_site_fract_x
_atom_site_fract_y
_atom_site_fract_z
Si Si1 0.561143 0.501105 0.196956
Si Si2 0.803765 0.697683 0.506363
Si Si3 0.699885 0.435714 0.880947
Si Si4 0.649206 0.365280 0.361096
Si Si5 0.467395 0.123748 0.201519
O O1 0.611622 0.458236 0.284309
O O2 0.521790 0.405320 0.227069
O O3 0.543160 0.591442 0.404466
O O4 0.561356 0.547192 0.904376
O O5 0.750000 0.750000 0.503813
O O6 0.826047 0.750000 0.250000
O O7 0.802580 0.567284 0.554314
O O8 0.829720 0.750000 0.750000
O O9 0.750000 0.415148 0.750000
O O10 0.663739 0.386278 0.662072
O O11 0.692832 0.380959 0.161833
O O12 0.628625 0.250000 0.250000
O O13 0.457300 0.250000 0.250000
#
# Coordination Sequence:
#
# PCOD9390054 Si02
#       5
#     8   8   8   8   8
#     4  10  22  41  65  98 131 173 212 255 322 395
#     4  10  19  36  65  89 115 154 204 269 312 395
#     4  12  25  43  68  94 125 169 230 277 316 394
#     4  12  27  45  65  92 134 171 219 280 332 385
#     4  10  20  39  71  97 132 168 210 259 313 392
#
# _framework density 22.797837999999999
#
# number of rings (size 3 to 8) (size 9 to 14) (size 15 to 20)
#    0.000    1.200    2.000    4.800    2.800    2.400 
#    0.000   16.000    0.000    0.000    0.000    0.000 
#    0.000    0.000    0.000    0.000    0.000    0.000 
#
# Total GULP energy -223396.947217 kJ/mol
# GULP energy per Si atom -5584.923680 kJ/mol
# Density = 2.274595 g / cm^3
# Si number density = 22.797838 Si / 1000 Ang^3
#
#
#
# Elastic Constant Matrix: (Units=GPa)
#
#
# Indices 1 2 3 4 5 6 
#
# 1 51.5844 5.0280 -3.5665 0.0000 0.0000 0.0000
# 2 5.0280 61.6877 0.2284 0.0000 0.0000 0.0000
# 3 -3.5665 0.2284 130.1959 0.0000 0.0000 0.0000
# 4 0.0000 0.0000 0.0000 36.6905 0.0000 0.0000
# 5 0.0000 0.0000 0.0000 0.0000 16.2612 0.0000
# 6 0.0000 0.0000 0.0000 0.0000 0.0000 0.2699
#
#
#
# Elastic Compliance Matrix: (Units=1/GPa)
#
#
# Indices 1 2 3 4 5 6 
#
# 1 0.019579 -0.001598 0.000539 0.000000 0.000000 0.000000
# 2 -0.001598 0.016341 -0.000072 0.000000 0.000000 0.000000
# 3 0.000539 -0.000072 0.007696 0.000000 0.000000 0.000000
# 4 0.000000 0.000000 0.000000 0.027255 0.000000 0.000000
# 5 0.000000 0.000000 0.000000 0.000000 0.061496 0.000000
# 6 0.000000 0.000000 0.000000 0.000000 0.000000 3.704986
#
#
# Mechanical properties :
#
#
# Convention : Reuss Voigt Hill
#
# Bulk Modulus (GPa) = 24.18185 27.42753 25.80469
# Shear Modulus (GPa) = 1.29756 26.76287 14.03021
#
# Velocity S-wave (km/s) = 0.75524 3.42997 2.48345
# Velocity P-wave (km/s) = 3.37500 5.26718 4.42345
#
# Compressibility (1/GPa) = 0.04135332
#
# Stress axis : x y z
#
# Youngs Moduli (GPa) = 51.07588 61.19508 129.94389
#
# Poissons Ratio (x) = 0.09778 -0.07006
# Poissons Ratio (y) = 0.08161 0.00941
# Poissons Ratio (z) = -0.02754 0.00443
#
# Static dielectric constant tensor:
#      x y z
#    x 1.865990 0.000000 0.000000 
#    y 0.000000 1.978420 0.000000 
#    z 0.000000 0.000000 1.840390 
# 
# From -- ./inp_files/6298.got.cif
#   From: 2010.05.17/outbox.cif.g08.bks.cpg/sg48_4_cif.got.tgz:6298.got - 2010.06.03 20:39:00.
