data_PCOD9390264
_publ_section_title
;
Structure prediction by ZEFSAII (Michael W. Deem and Ramdas Pophale) SiO2 
 PCOD9390264
Probable space group: P N N N
;
_chemical_formula_sum "Si O2"
_cell_formula_units_Z 52
_cell_length_a 20.238847
_cell_length_b 5.324352
_cell_length_c 23.416432
_cell_angle_alpha 90.000000
_cell_angle_beta 90.000000
_cell_angle_gamma 90.000000
_cell_volume 2523.325336
_symmetry_space_group_name_H-M "P N N N"
_symmetry_group_IT_number 48
_space_group.IT_coordinate_system_code '2'
_symmetry_cell_setting 'orthorhombic'
loop_
_space_group_symop_operation_xyz
x,y,z
1/2-x,1/2-y,z
x,1/2-y,1/2-z
1/2-x,y,1/2-z
-x,-y,-z
1/2+x,1/2+y,-z
-x,1/2+y,1/2+z
1/2+x,-y,1/2+z
loop_
_atom_site_type_symbol
_atom_site_label
_atom_site_fract_x
_atom_site_fract_y
_atom_site_fract_z
Si Si1 0.268987 0.002556 0.151243
Si Si2 0.873375 0.065516 0.078867
Si Si3 0.445169 0.424377 0.623635
Si Si4 0.791529 0.498004 0.313431
Si Si5 0.155463 0.485494 0.450170
Si Si6 0.595899 0.486113 0.594842
Si Si7 0.902900 0.750000 0.250000
O O1 0.250000 0.750000 0.180738
O O2 0.221332 0.006766 0.091750
O O3 0.346807 0.007670 0.141810
O O4 0.250000 0.250000 0.182880
O O5 0.903127 0.337278 0.098786
O O6 0.815810 0.006405 0.122515
O O7 0.924928 0.833234 0.089899
O O8 0.840170 0.052167 0.016632
O O9 0.520855 0.502107 0.613455
O O10 0.436087 0.359131 0.691684
O O11 0.750000 0.250000 0.304853
O O12 0.855829 0.530279 0.274249
O O13 0.750000 0.750000 0.306619
O O14 0.108068 0.707318 0.428510
O O15 0.119350 0.215948 0.445427
#
# Coordination Sequence:
#
# PCOD9390264 Si02
#       7
#     8   8   8   8   8   8   4
#     4   8  16  30  50  76 105 141 180 220 265 323
#     4  11  24  38  55  86 118 150 187 230 278 338
#     4  11  24  40  58  80 113 150 194 239 284 342
#     4  11  24  40  62  85 111 149 195 242 286 334
#     4  10  20  35  56  82 119 152 184 229 280 337
#     4  10  20  35  56  82 110 153 192 224 277 343
#     4  10  25  44  60  82 113 148 194 254 302 332
#
# _framework density 20.607726
#
# number of rings (size 3 to 8) (size 9 to 14) (size 15 to 20)
#    0.000    1.846    0.000    3.923    0.000   14.769 
#    0.000    0.000    0.000    0.000    0.000    4.846 
#    0.000   12.308    0.000    0.000    0.000    0.000 
#
# Total GULP energy -289475.623229 kJ/mol
# GULP energy per Si atom -5566.838908 kJ/mol
# Density = 2.056082 g / cm^3
# Si number density = 20.607726 Si / 1000 Ang^3
#
#
#
# Elastic Constant Matrix: (Units=GPa)
#
#
# Indices 1 2 3 4 5 6 
#
# 1 82.2817 16.2825 23.9860 0.0000 0.0000 0.0000
# 2 16.2825 135.7062 -7.8628 0.0000 0.0000 0.0000
# 3 23.9860 -7.8628 61.6969 0.0000 0.0000 0.0000
# 4 0.0000 0.0000 0.0000 9.5178 0.0000 0.0000
# 5 0.0000 0.0000 0.0000 0.0000 256.4720 0.0000
# 6 0.0000 0.0000 0.0000 0.0000 0.0000 -372.4272
#
#
#
# Elastic Compliance Matrix: (Units=1/GPa)
#
#
# Indices 1 2 3 4 5 6 
#
# 1 0.014249 -0.002046 -0.005800 0.000000 0.000000 0.000000
# 2 -0.002046 0.007717 0.001779 0.000000 0.000000 0.000000
# 3 -0.005800 0.001779 0.018690 0.000000 0.000000 0.000000
# 4 0.000000 0.000000 0.000000 0.105066 0.000000 0.000000
# 5 0.000000 0.000000 0.000000 0.000000 0.003899 0.000000
# 6 0.000000 0.000000 0.000000 0.000000 0.000000 -0.002685
#
#
# Mechanical properties :
#
#
# Convention : Reuss Voigt Hill
#
# Bulk Modulus (GPa) = 35.06070 38.27736 36.66903
# Shear Modulus (GPa) = 29.65988 -4.80221 12.42884
#
# Velocity S-wave (km/s) = 3.79787 -1.52819 2.45851
# Velocity P-wave (km/s) = 6.02346 3.93711 5.08836
#
# Compressibility (1/GPa) = 0.02852196
#
# Stress axis : x y z
#
# Youngs Moduli (GPa) = 70.18012 129.57764 53.50464
#
# Poissons Ratio (x) = 0.26508 0.31034
# Poissons Ratio (y) = 0.14357 -0.09518
# Poissons Ratio (z) = 0.40707 -0.23050
#
# Static dielectric constant tensor:
#      x y z
#    x 1.566760 0.000000 0.000000 
#    y 0.000000 2.684110 0.000000 
#    z 0.000000 0.000000 1.817840 
# 
# From -- ./inp_files/34810.got.cif
#   From: 2010.05.17/outbox.cif.g08.bks.cpg/sg48_18_cif.got.tgz:34810.got - 2010.06.03 20:39:00.
