data_PCOD9390159
_publ_section_title
;
Structure prediction by ZEFSAII (Michael W. Deem and Ramdas Pophale) SiO2 
 PCOD9390159
Probable space group: P N N N
;
_chemical_formula_sum "Si O2"
_cell_formula_units_Z 44
_cell_length_a 15.010222
_cell_length_b 11.668994
_cell_length_c 11.093054
_cell_angle_alpha 90.000000
_cell_angle_beta 90.000000
_cell_angle_gamma 90.000000
_cell_volume 1942.994893
_symmetry_space_group_name_H-M "P N N N"
_symmetry_group_IT_number 48
_space_group.IT_coordinate_system_code '2'
_symmetry_cell_setting 'orthorhombic'
loop_
_space_group_symop_operation_xyz
x,y,z
1/2-x,1/2-y,z
x,1/2-y,1/2-z
1/2-x,y,1/2-z
-x,-y,-z
1/2+x,1/2+y,-z
-x,1/2+y,1/2+z
1/2+x,-y,1/2+z
loop_
_atom_site_type_symbol
_atom_site_label
_atom_site_fract_x
_atom_site_fract_y
_atom_site_fract_z
Si Si1 0.607686 0.988207 0.990736
Si Si2 0.394616 0.977634 0.517639
Si Si3 0.512653 0.250000 0.250000
Si Si4 0.915241 0.611462 0.245154
Si Si5 0.152993 0.780013 0.572602
Si Si6 0.092980 0.039772 0.227297
O O1 0.628179 0.932801 0.861080
O O2 0.653556 0.113230 0.984128
O O3 0.500000 0.000000 0.000000
O O4 0.629086 0.925073 0.117072
O O5 0.369704 0.050226 0.637390
O O6 0.349722 0.007047 0.389057
O O7 0.500000 0.000000 0.500000
O O8 0.382478 0.842136 0.531222
O O9 0.580931 0.321622 0.330483
O O10 0.453057 0.342047 0.185611
O O11 0.917239 0.750000 0.250000
O O12 0.016584 0.558590 0.251688
O O13 0.250000 0.750000 0.619104
#
# Coordination Sequence:
#
# PCOD9390159 Si02
#       6
#     8   8   4   8   8   8
#     4  10  21  37  56  89 122 163 212 254 305 375
#     4  10  21  37  56  89 122 163 212 254 305 375
#     4  12  19  38  58 100 121 174 204 270 315 364
#     4  10  20  31  55  87 116 157 201 262 307 350
#     4  12  23  39  64  95 133 165 206 266 323 376
#     4  10  22  31  62  87 125 156 219 262 301 363
#
# _framework density 22.645454000000001
#
# number of rings (size 3 to 8) (size 9 to 14) (size 15 to 20)
#    0.000    1.455    7.273    0.273   12.727    0.000 
#    0.000    1.818    0.000    2.182    0.000    1.273 
#    0.000    0.000    0.000    0.000    0.000    0.000 
#
# Total GULP energy -244982.959447 kJ/mol
# GULP energy per Si atom -5567.794533 kJ/mol
# Density = 2.259391 g / cm^3
# Si number density = 22.645454 Si / 1000 Ang^3
#
#
#
# Elastic Constant Matrix: (Units=GPa)
#
#
# Indices 1 2 3 4 5 6 
#
# 1 39.8237 22.3002 4.7063 0.0000 0.0000 0.0000
# 2 22.3002 150.3726 39.7825 0.0000 0.0000 0.0000
# 3 4.7063 39.7825 199.0172 0.0000 0.0000 0.0000
# 4 0.0000 0.0000 0.0000 23.4525 0.0000 0.0000
# 5 0.0000 0.0000 0.0000 0.0000 -4.8487 0.0000
# 6 0.0000 0.0000 0.0000 0.0000 0.0000 4.1090
#
#
#
# Elastic Compliance Matrix: (Units=1/GPa)
#
#
# Indices 1 2 3 4 5 6 
#
# 1 0.027391 -0.004108 0.000173 0.000000 0.000000 0.000000
# 2 -0.004108 0.007638 -0.001430 0.000000 0.000000 0.000000
# 3 0.000173 -0.001430 0.005306 0.000000 0.000000 0.000000
# 4 0.000000 0.000000 0.000000 0.042639 0.000000 0.000000
# 5 0.000000 0.000000 0.000000 0.000000 -0.206242 0.000000
# 6 0.000000 0.000000 0.000000 0.000000 0.000000 0.243366
#
#
# Mechanical properties :
#
#
# Convention : Reuss Voigt Hill
#
# Bulk Modulus (GPa) = 33.77653 58.08794 45.93223
# Shear Modulus (GPa) = 35.53811 26.03753 30.78782
#
# Velocity S-wave (km/s) = 3.96577 3.39454 3.69122
# Velocity P-wave (km/s) = 5.99312 6.40863 6.20436
#
# Compressibility (1/GPa) = 0.02960636
#
# Stress axis : x y z
#
# Youngs Moduli (GPa) = 36.50901 130.93205 188.45333
#
# Poissons Ratio (x) = 0.53785 -0.03268
# Poissons Ratio (y) = 0.14997 0.26941
# Poissons Ratio (z) = -0.00633 0.18718
#
# Static dielectric constant tensor:
#      x y z
#    x 1.867420 0.000000 0.000000 
#    y 0.000000 1.919670 0.000000 
#    z 0.000000 0.000000 1.418360 
# 
# From -- ./inp_files/22090.got.cif
#   From: 2010.05.17/outbox.cif.g08.bks.cpg/sg48_12_cif.got.tgz:22090.got - 2010.06.03 20:39:00.
