data_PCOD9390559
_publ_section_title
;
Structure prediction by ZEFSAII (Michael W. Deem and Ramdas Pophale) SiO2 
 PCOD9390559
Probable space group: P N N N
;
_chemical_formula_sum "Si O2"
_cell_formula_units_Z 46
_cell_length_a 11.354717
_cell_length_b 27.207897
_cell_length_c 7.663960
_cell_angle_alpha 90.000000
_cell_angle_beta 90.000000
_cell_angle_gamma 90.000000
_cell_volume 2367.688249
_symmetry_space_group_name_H-M "P N N N"
_symmetry_group_IT_number 48
_space_group.IT_coordinate_system_code '2'
_symmetry_cell_setting 'orthorhombic'
loop_
_space_group_symop_operation_xyz
x,y,z
1/2-x,1/2-y,z
x,1/2-y,1/2-z
1/2-x,y,1/2-z
-x,-y,-z
1/2+x,1/2+y,-z
-x,1/2+y,1/2+z
1/2+x,-y,1/2+z
loop_
_atom_site_type_symbol
_atom_site_label
_atom_site_fract_x
_atom_site_fract_y
_atom_site_fract_z
Si Si1 0.080564 0.393910 0.033843
Si Si2 0.750000 0.250000 0.750000
Si Si3 0.929921 0.750000 0.750000
Si Si4 0.581512 0.306504 0.499819
Si Si5 0.750000 0.838272 0.750000
Si Si6 0.953500 0.069829 0.116351
Si Si7 0.609171 0.542292 0.213993
Si Si8 0.250000 0.633330 0.750000
O O1 0.208591 0.372553 0.089380
O O2 0.026799 0.408764 0.220632
O O3 0.064184 0.438427 0.900685
O O4 0.011180 0.348337 0.948556
O O5 0.666147 0.285304 0.642064
O O6 0.854961 0.799367 0.785291
O O7 0.009736 0.762138 0.585511
O O8 0.661752 0.332343 0.354850
O O9 0.830951 0.100506 0.119749
O O10 0.916659 0.014290 0.167310
O O11 0.036345 0.069559 0.943293
O O12 0.750000 0.549347 0.250000
#
# Coordination Sequence:
#
# PCOD9390559 Si02
#       8
#     8   2   4   8   4   8   8   4
#     4  10  21  39  59  91 115 161 197 247 301 363
#     4  12  24  38  52  88 124 144 200 260 308 360
#     4   9  18  39  62  88 114 161 202 245 316 370
#     4  10  22  36  60  84 115 155 197 247 306 364
#     4   9  18  36  66  87 120 153 206 252 304 381
#     4  10  22  39  61  87 126 158 204 252 302 370
#     4  11  22  38  60  90 121 160 202 253 305 362
#     4  10  20  41  64  84 116 166 206 243 312 376
#
# _framework density 19.428235999999998
#
# number of rings (size 3 to 8) (size 9 to 14) (size 15 to 20)
#    0.000    1.913    0.870    2.609    2.435    0.000 
#    3.130    0.000    0.000    0.000    0.000    0.000 
#    0.000    0.000    0.000    0.000    0.000    0.000 
#
# Total GULP energy -256176.808609 kJ/mol
# GULP energy per Si atom -5569.061057 kJ/mol
# Density = 1.938402 g / cm^3
# Si number density = 19.428236 Si / 1000 Ang^3
#
#
#
# Elastic Constant Matrix: (Units=GPa)
#
#
# Indices 1 2 3 4 5 6 
#
# 1 98.9836 14.2481 41.8640 0.0000 0.0000 0.0000
# 2 14.2481 28.3534 21.2258 0.0000 0.0000 0.0000
# 3 41.8640 21.2258 78.7100 0.0000 0.0000 0.0000
# 4 0.0000 0.0000 0.0000 60.2631 0.0000 0.0000
# 5 0.0000 0.0000 0.0000 0.0000 16.0818 0.0000
# 6 0.0000 0.0000 0.0000 0.0000 0.0000 6.6171
#
#
#
# Elastic Compliance Matrix: (Units=1/GPa)
#
#
# Indices 1 2 3 4 5 6 
#
# 1 0.013101 -0.001713 -0.006506 0.000000 0.000000 0.000000
# 2 -0.001713 0.044414 -0.011066 0.000000 0.000000 0.000000
# 3 -0.006506 -0.011066 0.019150 0.000000 0.000000 0.000000
# 4 0.000000 0.000000 0.000000 0.016594 0.000000 0.000000
# 5 0.000000 0.000000 0.000000 0.000000 0.062182 0.000000
# 6 0.000000 0.000000 0.000000 0.000000 0.000000 0.151123
#
#
# Mechanical properties :
#
#
# Convention : Reuss Voigt Hill
#
# Bulk Modulus (GPa) = 26.25063 40.08029 33.16546
# Shear Modulus (GPa) = 13.97305 25.17303 19.57304
#
# Velocity S-wave (km/s) = 2.68473 3.60348 3.17748
# Velocity P-wave (km/s) = 4.81157 6.16345 5.52899
#
# Compressibility (1/GPa) = 0.03809433
#
# Stress axis : x y z
#
# Youngs Moduli (GPa) = 76.33029 22.51530 52.22045
#
# Poissons Ratio (x) = 0.03857 0.33976
# Poissons Ratio (y) = 0.13074 0.57788
# Poissons Ratio (z) = 0.49662 0.24916
#
# Static dielectric constant tensor:
#      x y z
#    x 1.730290 0.000000 0.000000 
#    y 0.000000 1.938570 0.000000 
#    z 0.000000 0.000000 1.660840 
# 
# From -- ./inp_files/11394.got.cif
#   From: 2010.05.17/outbox.cif.g08.bks.cpg/sg48_6_cif.got.tgz:11394.got - 2010.06.03 20:39:00.
