data_PCOD9390992
_publ_section_title
;
Structure prediction by ZEFSAII (Michael W. Deem and Ramdas Pophale) SiO2 
 PCOD9390992
Probable space group: P N N N
;
_chemical_formula_sum "Si O2"
_cell_formula_units_Z 60
_cell_length_a 21.134351
_cell_length_b 6.314560
_cell_length_c 23.138725
_cell_angle_alpha 90.000000
_cell_angle_beta 90.000000
_cell_angle_gamma 90.000000
_cell_volume 3087.958355
_symmetry_space_group_name_H-M "P N N N"
_symmetry_group_IT_number 48
_space_group.IT_coordinate_system_code '2'
_symmetry_cell_setting 'orthorhombic'
loop_
_space_group_symop_operation_xyz
x,y,z
1/2-x,1/2-y,z
x,1/2-y,1/2-z
1/2-x,y,1/2-z
-x,-y,-z
1/2+x,1/2+y,-z
-x,1/2+y,1/2+z
1/2+x,-y,1/2+z
loop_
_atom_site_type_symbol
_atom_site_label
_atom_site_fract_x
_atom_site_fract_y
_atom_site_fract_z
Si Si1 0.538536 0.611553 0.696916
Si Si2 0.549469 0.750000 0.250000
Si Si3 0.599988 0.114047 0.907487
Si Si4 0.073412 0.919113 0.844326
Si Si5 0.315246 0.621207 0.033600
Si Si6 0.321725 0.683366 0.586833
Si Si7 0.476382 0.327062 0.954464
Si Si8 0.343651 0.169016 0.997144
O O1 0.566677 0.750000 0.750000
O O2 0.497243 0.409181 0.716504
O O3 0.587011 0.514698 0.650644
O O4 0.486247 0.772181 0.671412
O O5 0.586730 0.589333 0.207098
O O6 0.637698 0.338050 0.912623
O O7 0.532043 0.167004 0.935950
O O8 0.647052 0.980580 0.947720
O O9 0.130637 0.764167 0.863884
O O10 0.049804 0.058246 0.897719
O O11 0.250000 0.750000 0.039652
O O12 0.307385 0.375772 0.018841
O O13 0.344548 0.699068 0.972097
O O14 0.250000 0.750000 0.600059
O O15 0.319790 0.443911 0.561788
O O16 0.500000 0.500000 0.000000
O O17 0.416374 0.218726 0.982727
#
# Coordination Sequence:
#
# PCOD9390992 Si02
#       8
#     8   4   8   8   8   8   8   8
#     4  10  22  37  59  87 115 154 202 256 310 365
#     4  10  22  40  60  81 119 156 204 262 318 360
#     4  11  21  34  57  88 122 158 196 241 306 372
#     4  11  21  38  58  87 121 158 203 256 312 365
#     4  10  22  38  54  87 124 164 201 234 294 378
#     4  10  22  37  57  85 117 164 211 244 299 368
#     4  12  19  33  57  92 126 151 189 244 311 373
#     4  11  21  37  58  86 129 160 188 251 300 370
#
# _framework density 19.430313000000002
#
# number of rings (size 3 to 8) (size 9 to 14) (size 15 to 20)
#    0.000    1.333    4.000    2.800    0.000    4.800 
#    0.000    0.000    0.000    4.400    0.000    7.000 
#    0.000    0.000    0.000    0.000    0.000    0.000 
#
# Total GULP energy -334242.492018 kJ/mol
# GULP energy per Si atom -5570.708200 kJ/mol
# Density = 1.938609 g / cm^3
# Si number density = 19.430313 Si / 1000 Ang^3
#
#
#
# Elastic Constant Matrix: (Units=GPa)
#
#
# Indices 1 2 3 4 5 6 
#
# 1 86.3916 37.1336 35.0193 0.0000 0.0000 0.0000
# 2 37.1336 98.6705 38.0930 0.0000 0.0000 0.0000
# 3 35.0193 38.0930 94.3494 0.0000 0.0000 0.0000
# 4 0.0000 0.0000 0.0000 32.3151 0.0000 0.0000
# 5 0.0000 0.0000 0.0000 0.0000 30.1921 0.0000
# 6 0.0000 0.0000 0.0000 0.0000 0.0000 33.0451
#
#
#
# Elastic Compliance Matrix: (Units=1/GPa)
#
#
# Indices 1 2 3 4 5 6 
#
# 1 0.014915 -0.004118 -0.003874 0.000000 0.000000 0.000000
# 2 -0.004118 0.013143 -0.003778 0.000000 0.000000 0.000000
# 3 -0.003874 -0.003778 0.013562 0.000000 0.000000 0.000000
# 4 0.000000 0.000000 0.000000 0.030945 0.000000 0.000000
# 5 0.000000 0.000000 0.000000 0.000000 0.033121 0.000000
# 6 0.000000 0.000000 0.000000 0.000000 0.000000 0.030262
#
#
# Mechanical properties :
#
#
# Convention : Reuss Voigt Hill
#
# Bulk Modulus (GPa) = 55.30487 55.54483 55.42485
# Shear Modulus (GPa) = 30.20884 30.38813 30.29849
#
# Velocity S-wave (km/s) = 3.94728 3.95898 3.95313
# Velocity P-wave (km/s) = 7.02137 7.03895 7.03016
#
# Compressibility (1/GPa) = 0.01808159
#
# Stress axis : x y z
#
# Youngs Moduli (GPa) = 67.04520 76.08623 73.73553
#
# Poissons Ratio (x) = 0.31331 0.28562
# Poissons Ratio (y) = 0.27608 0.27857
# Poissons Ratio (z) = 0.25970 0.28746
#
# Static dielectric constant tensor:
#      x y z
#    x 1.672840 0.000000 0.000000 
#    y 0.000000 1.866910 0.000000 
#    z 0.000000 0.000000 1.696510 
# 
# From -- ./inp_files/34986.got.cif
#   From: 2010.05.17/outbox.cif.g08.bks.cpg/sg48_18_cif.got.tgz:34986.got - 2010.06.03 20:39:00.
