data_PCOD9390564
_publ_section_title
;
Structure prediction by ZEFSAII (Michael W. Deem and Ramdas Pophale) SiO2 
 PCOD9390564
Probable space group: P N N N
;
_chemical_formula_sum "Si O2"
_cell_formula_units_Z 56
_cell_length_a 20.795289
_cell_length_b 8.843613
_cell_length_c 14.862704
_cell_angle_alpha 90.000000
_cell_angle_beta 90.000000
_cell_angle_gamma 90.000000
_cell_volume 2733.332834
_symmetry_space_group_name_H-M "P N N N"
_symmetry_group_IT_number 48
_space_group.IT_coordinate_system_code '2'
_symmetry_cell_setting 'orthorhombic'
loop_
_space_group_symop_operation_xyz
x,y,z
1/2-x,1/2-y,z
x,1/2-y,1/2-z
1/2-x,y,1/2-z
-x,-y,-z
1/2+x,1/2+y,-z
-x,1/2+y,1/2+z
1/2+x,-y,1/2+z
loop_
_atom_site_type_symbol
_atom_site_label
_atom_site_fract_x
_atom_site_fract_y
_atom_site_fract_z
Si Si1 0.145088 0.445000 0.344394
Si Si2 0.782198 0.416528 0.335427
Si Si3 0.242289 0.069930 0.479607
Si Si4 0.005746 0.439688 0.899018
Si Si5 0.073276 0.578499 0.739801
Si Si6 0.372990 0.088348 0.142368
Si Si7 0.514918 0.416802 0.905669
O O1 0.208225 0.475794 0.401656
O O2 0.158585 0.450683 0.238281
O O3 0.122441 0.270982 0.362840
O O4 0.088505 0.553965 0.377598
O O5 0.750000 0.250000 0.341066
O O6 0.750000 0.497790 0.250000
O O7 0.764565 0.494794 0.428328
O O8 0.856769 0.411053 0.307060
O O9 0.250000 0.250000 0.489670
O O10 0.170926 0.037538 0.441694
O O11 0.941847 0.509585 0.854300
O O12 0.002061 0.259625 0.905924
O O13 0.065164 0.497667 0.837272
O O14 0.000000 0.500000 0.000000
O O15 0.049885 0.750000 0.750000
O O16 0.028243 0.491246 0.671124
O O17 0.500000 0.500000 0.000000
#
# Coordination Sequence:
#
# PCOD9390564 Si02
#       7
#     8   8   8   8   8   8   8
#     4  10  20  41  66 100 142 178 224 274 345 405
#     4  11  25  48  66  95 130 179 228 278 343 407
#     4  10  23  41  68 103 137 182 231 281 334 407
#     4  12  27  43  67 102 135 181 232 285 344 409
#     4  12  24  46  73  97 135 179 225 285 347 404
#     4  10  21  40  69  99 139 182 222 277 342 411
#     4  12  25  43  66 100 139 179 230 285 341 412
#
# _framework density 20.487808999999999
#
# number of rings (size 3 to 8) (size 9 to 14) (size 15 to 20)
#    0.000    1.000    2.857    4.286    2.000    5.429 
#    2.571    0.000    0.000    2.571    0.000    0.000 
#    0.000    0.000    0.000    0.000    0.000    0.000 
#
# Total GULP energy -312911.884336 kJ/mol
# GULP energy per Si atom -5587.712220 kJ/mol
# Density = 2.044118 g / cm^3
# Si number density = 20.487809 Si / 1000 Ang^3
#
#
#
# Elastic Constant Matrix: (Units=GPa)
#
#
# Indices 1 2 3 4 5 6 
#
# 1 83.0772 28.4947 28.7611 0.0000 0.0000 0.0000
# 2 28.4947 95.3855 45.5209 0.0000 0.0000 0.0000
# 3 28.7611 45.5209 154.1166 0.0000 0.0000 0.0000
# 4 0.0000 0.0000 0.0000 14.8621 0.0000 0.0000
# 5 0.0000 0.0000 0.0000 0.0000 35.4373 0.0000
# 6 0.0000 0.0000 0.0000 0.0000 0.0000 6.2065
#
#
#
# Elastic Compliance Matrix: (Units=1/GPa)
#
#
# Indices 1 2 3 4 5 6 
#
# 1 0.013731 -0.003351 -0.001573 0.000000 0.000000 0.000000
# 2 -0.003351 0.013022 -0.003221 0.000000 0.000000 0.000000
# 3 -0.001573 -0.003221 0.007733 0.000000 0.000000 0.000000
# 4 0.000000 0.000000 0.000000 0.067285 0.000000 0.000000
# 5 0.000000 0.000000 0.000000 0.000000 0.028219 0.000000
# 6 0.000000 0.000000 0.000000 0.000000 0.000000 0.161120
#
#
# Mechanical properties :
#
#
# Convention : Reuss Voigt Hill
#
# Bulk Modulus (GPa) = 54.95489 59.79254 57.37371
# Shear Modulus (GPa) = 15.95069 26.62136 21.28602
#
# Velocity S-wave (km/s) = 2.79327 3.60860 3.22679
# Velocity P-wave (km/s) = 6.10611 6.82718 6.47669
#
# Compressibility (1/GPa) = 0.01819674
#
# Stress axis : x y z
#
# Youngs Moduli (GPa) = 72.82834 76.79301 129.30935
#
# Poissons Ratio (x) = 0.25736 0.20335
# Poissons Ratio (y) = 0.24408 0.41648
# Poissons Ratio (z) = 0.11453 0.24734
#
# Static dielectric constant tensor:
#      x y z
#    x 1.759530 0.000000 0.000000 
#    y 0.000000 1.388480 0.000000 
#    z 0.000000 0.000000 1.758460 
# 
# From -- ./inp_files/28342.got.cif
#   From: 2010.05.17/outbox.cif.g08.bks.cpg/sg48_15_cif.got.tgz:28342.got - 2010.06.03 20:39:00.
