data_PCOD9390755
_publ_section_title
;
Structure prediction by ZEFSAII (Michael W. Deem and Ramdas Pophale) SiO2 
 PCOD9390755
Probable space group: P N N N
;
_chemical_formula_sum "Si O2"
_cell_formula_units_Z 40
_cell_length_a 5.510107
_cell_length_b 18.800410
_cell_length_c 15.973751
_cell_angle_alpha 90.000000
_cell_angle_beta 90.000000
_cell_angle_gamma 90.000000
_cell_volume 1654.757138
_symmetry_space_group_name_H-M "P N N N"
_symmetry_group_IT_number 48
_space_group.IT_coordinate_system_code '2'
_symmetry_cell_setting 'orthorhombic'
loop_
_space_group_symop_operation_xyz
x,y,z
1/2-x,1/2-y,z
x,1/2-y,1/2-z
1/2-x,y,1/2-z
-x,-y,-z
1/2+x,1/2+y,-z
-x,1/2+y,1/2+z
1/2+x,-y,1/2+z
loop_
_atom_site_type_symbol
_atom_site_label
_atom_site_fract_x
_atom_site_fract_y
_atom_site_fract_z
Si Si1 0.236355 0.093275 0.655451
Si Si2 0.000470 0.288171 0.570582
Si Si3 0.443572 0.553117 0.878605
Si Si4 0.999592 0.788799 0.867374
Si Si5 0.683064 0.451232 0.551897
O O1 0.250000 0.119455 0.750000
O O2 0.457664 0.132873 0.608342
O O3 0.990003 0.103421 0.601765
O O4 0.267984 0.007535 0.657554
O O5 0.250000 0.250000 0.599428
O O6 0.006495 0.287358 0.469528
O O7 0.750000 0.250000 0.596455
O O8 0.484653 0.629320 0.837750
O O9 0.686491 0.506914 0.887083
O O10 0.351794 0.570392 0.973095
O O11 0.750000 0.750000 0.841829
O O12 0.250000 0.750000 0.843855
O O13 0.500000 0.500000 0.500000
#
# Coordination Sequence:
#
# PCOD9390755 Si02
#       5
#     8   8   8   8   8
#     4  11  25  41  64  95 131 183 229 272 336 406
#     4  10  23  41  63  91 134 174 219 269 327 403
#     4  10  21  38  64  96 126 169 221 285 337 394
#     4  10  22  36  65 100 128 164 216 279 346 398
#     4   9  19  35  65  90 125 160 217 278 332 385
#
# _framework density 24.172730999999999
#
# number of rings (size 3 to 8) (size 9 to 14) (size 15 to 20)
#    0.000    2.000    0.000    3.600   16.800    1.200 
#    0.000    1.000    0.000    0.600    0.000    0.000 
#    0.000    0.000    0.000    0.000    0.000    0.000 
#
# Total GULP energy -223143.082203 kJ/mol
# GULP energy per Si atom -5578.577055 kJ/mol
# Density = 2.411771 g / cm^3
# Si number density = 24.172731 Si / 1000 Ang^3
#
#
#
# Elastic Constant Matrix: (Units=GPa)
#
#
# Indices 1 2 3 4 5 6 
#
# 1 159.3094 68.7268 14.5963 0.0000 0.0000 0.0000
# 2 68.7268 161.8783 4.9196 0.0000 0.0000 0.0000
# 3 14.5963 4.9196 107.0507 0.0000 0.0000 0.0000
# 4 0.0000 0.0000 0.0000 7.7689 0.0000 0.0000
# 5 0.0000 0.0000 0.0000 0.0000 22.1476 0.0000
# 6 0.0000 0.0000 0.0000 0.0000 0.0000 23.8740
#
#
#
# Elastic Compliance Matrix: (Units=1/GPa)
#
#
# Indices 1 2 3 4 5 6 
#
# 1 0.007772 -0.003272 -0.000909 0.000000 0.000000 0.000000
# 2 -0.003272 0.007564 0.000099 0.000000 0.000000 0.000000
# 3 -0.000909 0.000099 0.009461 0.000000 0.000000 0.000000
# 4 0.000000 0.000000 0.000000 0.128718 0.000000 0.000000
# 5 0.000000 0.000000 0.000000 0.000000 0.045152 0.000000
# 6 0.000000 0.000000 0.000000 0.000000 0.000000 0.041887
#
#
# Mechanical properties :
#
#
# Convention : Reuss Voigt Hill
#
# Bulk Modulus (GPa) = 60.12930 67.19152 63.66041
# Shear Modulus (GPa) = 19.66477 33.42449 26.54463
#
# Velocity S-wave (km/s) = 2.85531 3.72255 3.31739
# Velocity P-wave (km/s) = 5.98324 6.80685 6.40829
#
# Compressibility (1/GPa) = 0.01663083
#
# Stress axis : x y z
#
# Youngs Moduli (GPa) = 128.66747 132.21133 105.69902
#
# Poissons Ratio (x) = 0.43260 0.09612
# Poissons Ratio (y) = 0.42100 -0.01042
# Poissons Ratio (z) = 0.11700 -0.01303
#
# Static dielectric constant tensor:
#      x y z
#    x 1.759460 0.000000 0.000000 
#    y 0.000000 1.787530 0.000000 
#    z 0.000000 0.000000 1.879960 
# 
# From -- ./inp_files/29282.got.cif
#   From: 2010.05.17/outbox.cif.g08.bks.cpg/sg48_15_cif.got.tgz:29282.got - 2010.06.03 20:39:00.
