data_PCOD9390621
_publ_section_title
;
Structure prediction by ZEFSAII (Michael W. Deem and Ramdas Pophale) SiO2 
 PCOD9390621
Probable space group: P N N N
;
_chemical_formula_sum "Si O2"
_cell_formula_units_Z 40
_cell_length_a 16.855133
_cell_length_b 5.164230
_cell_length_c 21.875629
_cell_angle_alpha 90.000000
_cell_angle_beta 90.000000
_cell_angle_gamma 90.000000
_cell_volume 1904.137514
_symmetry_space_group_name_H-M "P N N N"
_symmetry_group_IT_number 48
_space_group.IT_coordinate_system_code '2'
_symmetry_cell_setting 'orthorhombic'
loop_
_space_group_symop_operation_xyz
x,y,z
1/2-x,1/2-y,z
x,1/2-y,1/2-z
1/2-x,y,1/2-z
-x,-y,-z
1/2+x,1/2+y,-z
-x,1/2+y,1/2+z
1/2+x,-y,1/2+z
loop_
_atom_site_type_symbol
_atom_site_label
_atom_site_fract_x
_atom_site_fract_y
_atom_site_fract_z
Si Si1 0.132562 0.369143 0.684358
Si Si2 0.955572 0.120265 0.864115
Si Si3 0.327738 0.857834 0.883655
Si Si4 0.213411 0.503907 0.318992
Si Si5 0.002641 0.369759 0.066070
O O1 0.147522 0.250000 0.750000
O O2 0.167440 0.651865 0.672261
O O3 0.038165 0.397019 0.672754
O O4 0.167729 0.154615 0.637808
O O5 0.957169 0.412964 0.889939
O O6 0.880620 0.041278 0.822469
O O7 0.957897 0.907943 0.919073
O O8 0.250000 0.750000 0.917897
O O9 0.410369 0.823056 0.918224
O O10 0.250000 0.250000 0.348400
O O11 0.250000 0.502882 0.250000
O O12 0.250000 0.750000 0.351910
O O13 0.000000 0.500000 0.000000
#
# Coordination Sequence:
#
# PCOD9390621 Si02
#       5
#     8   8   8   8   8
#     4  10  21  34  55  85 114 157 189 227 292 353
#     4  10  21  38  58  85 120 151 206 242 286 381
#     4  10  21  37  55  83 117 146 194 243 294 357
#     4  10  21  36  55  85 119 166 196 238 304 358
#     4  10  21  40  63  84 111 157 201 256 307 346
#
# _framework density 21.006885
#
# number of rings (size 3 to 8) (size 9 to 14) (size 15 to 20)
#    0.000    2.000    0.000    3.000    2.800    2.400 
#    7.200    3.000    0.000    2.400    0.000    0.000 
#    0.000    0.000    0.000    0.000    0.000    0.000 
#
# Total GULP energy -222876.114281 kJ/mol
# GULP energy per Si atom -5571.902857 kJ/mol
# Density = 2.095907 g / cm^3
# Si number density = 21.006885 Si / 1000 Ang^3
#
#
#
# Elastic Constant Matrix: (Units=GPa)
#
#
# Indices 1 2 3 4 5 6 
#
# 1 158.1346 51.2884 17.3465 0.0000 0.0000 0.0000
# 2 51.2884 135.4443 -2.9323 0.0000 0.0000 0.0000
# 3 17.3465 -2.9323 41.8091 0.0000 0.0000 0.0000
# 4 0.0000 0.0000 0.0000 8.7935 0.0000 0.0000
# 5 0.0000 0.0000 0.0000 0.0000 9.7329 0.0000
# 6 0.0000 0.0000 0.0000 0.0000 0.0000 34.6753
#
#
#
# Elastic Compliance Matrix: (Units=1/GPa)
#
#
# Indices 1 2 3 4 5 6 
#
# 1 0.007660 -0.002974 -0.003387 0.000000 0.000000 0.000000
# 2 -0.002974 0.008549 0.001833 0.000000 0.000000 0.000000
# 3 -0.003387 0.001833 0.025452 0.000000 0.000000 0.000000
# 4 0.000000 0.000000 0.000000 0.113721 0.000000 0.000000
# 5 0.000000 0.000000 0.000000 0.000000 0.102744 0.000000
# 6 0.000000 0.000000 0.000000 0.000000 0.000000 0.028839
#
#
# Mechanical properties :
#
#
# Convention : Reuss Voigt Hill
#
# Bulk Modulus (GPa) = 30.66866 51.86590 41.26728
# Shear Modulus (GPa) = 16.29266 28.61938 22.45602
#
# Velocity S-wave (km/s) = 2.78796 3.69505 3.27308
# Velocity P-wave (km/s) = 4.99946 6.55348 5.82849
#
# Compressibility (1/GPa) = 0.03260658
#
# Stress axis : x y z
#
# Youngs Moduli (GPa) = 130.55310 116.97432 39.28980
#
# Poissons Ratio (x) = 0.34786 0.13306
# Poissons Ratio (y) = 0.38824 -0.07203
# Poissons Ratio (z) = 0.44213 -0.21446
#
# Static dielectric constant tensor:
#      x y z
#    x 1.803530 0.000000 0.000000 
#    y 0.000000 1.738220 0.000000 
#    z 0.000000 0.000000 1.750040 
# 
# From -- ./inp_files/5777.got.cif
#   From: 2010.05.17/outbox.cif.g08.bks.cpg/sg48_3_cif.got.tgz:5777.got - 2010.06.03 20:39:00.
