data_PCOD9390840
_publ_section_title
;
Structure prediction by ZEFSAII (Michael W. Deem and Ramdas Pophale) SiO2 
 PCOD9390840
Probable space group: P N N N
;
_chemical_formula_sum "Si O2"
_cell_formula_units_Z 34
_cell_length_a 11.459855
_cell_length_b 16.603600
_cell_length_c 7.855918
_cell_angle_alpha 90.000000
_cell_angle_beta 90.000000
_cell_angle_gamma 90.000000
_cell_volume 1494.783607
_symmetry_space_group_name_H-M "P N N N"
_symmetry_group_IT_number 48
_space_group.IT_coordinate_system_code '2'
_symmetry_cell_setting 'orthorhombic'
loop_
_space_group_symop_operation_xyz
x,y,z
1/2-x,1/2-y,z
x,1/2-y,1/2-z
1/2-x,y,1/2-z
-x,-y,-z
1/2+x,1/2+y,-z
-x,1/2+y,1/2+z
1/2+x,-y,1/2+z
loop_
_atom_site_type_symbol
_atom_site_label
_atom_site_fract_x
_atom_site_fract_y
_atom_site_fract_z
Si Si1 0.538967 0.849652 0.592337
Si Si2 0.419341 0.710178 0.421245
Si Si3 0.250000 0.250000 0.250000
Si Si4 0.883458 0.609802 0.225008
Si Si5 0.628842 0.431747 0.352076
O O1 0.442583 0.780171 0.555833
O O2 0.660386 0.807722 0.646949
O O3 0.559718 0.895986 0.413779
O O4 0.480951 0.902542 0.739238
O O5 0.371927 0.750000 0.250000
O O6 0.547872 0.678254 0.372861
O O7 0.358356 0.630845 0.493106
O O8 0.750000 0.631295 0.250000
O O9 0.889779 0.526672 0.120299
O O10 0.750000 0.427118 0.250000
#
# Coordination Sequence:
#
# PCOD9390840 Si02
#       5
#     8   8   2   8   8
#     4  11  22  38  63  93 123 168 215 267 325 383
#     4  10  21  40  63  91 124 164 216 270 321 385
#     4  12  20  36  64  92 128 160 224 278 332 356
#     4  10  22  39  64  93 131 166 213 272 330 383
#     4  11  23  42  63  90 131 175 213 262 329 389
#
# _framework density 22.745768000000002
#
# number of rings (size 3 to 8) (size 9 to 14) (size 15 to 20)
#    0.000    1.412    2.353    2.824    0.000    5.176 
#    0.000    8.235    0.000    0.000    0.000    0.000 
#    0.000    0.000    0.000    0.000    0.000    0.000 
#
# Total GULP energy -190069.539118 kJ/mol
# GULP energy per Si atom -5590.280562 kJ/mol
# Density = 2.269400 g / cm^3
# Si number density = 22.745768 Si / 1000 Ang^3
#
#
#
# Elastic Constant Matrix: (Units=GPa)
#
#
# Indices 1 2 3 4 5 6 
#
# 1 70.3294 13.7024 -12.9078 0.0000 0.0000 0.0000
# 2 13.7024 91.4935 11.7057 0.0000 0.0000 0.0000
# 3 -12.9078 11.7057 55.4994 0.0000 0.0000 0.0000
# 4 0.0000 0.0000 0.0000 43.4327 0.0000 0.0000
# 5 0.0000 0.0000 0.0000 0.0000 -3.0519 0.0000
# 6 0.0000 0.0000 0.0000 0.0000 0.0000 -9.9357
#
#
#
# Elastic Compliance Matrix: (Units=1/GPa)
#
#
# Indices 1 2 3 4 5 6 
#
# 1 0.015553 -0.002869 0.004222 0.000000 0.000000 0.000000
# 2 -0.002869 0.011762 -0.003148 0.000000 0.000000 0.000000
# 3 0.004222 -0.003148 0.019664 0.000000 0.000000 0.000000
# 4 0.000000 0.000000 0.000000 0.023024 0.000000 0.000000
# 5 0.000000 0.000000 0.000000 0.000000 -0.327668 0.000000
# 6 0.000000 0.000000 0.000000 0.000000 0.000000 -0.100647
#
#
# Mechanical properties :
#
#
# Convention : Reuss Voigt Hill
#
# Bulk Modulus (GPa) = 23.04742 26.92479 24.98611
# Shear Modulus (GPa) = -14.69473 19.74382 2.52455
#
# Velocity S-wave (km/s) = -2.54449 2.94942 1.05466
# Velocity P-wave (km/s) = 1.23370 4.84373 3.53438
#
# Compressibility (1/GPa) = 0.04338880
#
# Stress axis : x y z
#
# Youngs Moduli (GPa) = 64.29699 85.01764 50.85369
#
# Poissons Ratio (x) = 0.24396 -0.21473
# Poissons Ratio (y) = 0.18450 0.16010
# Poissons Ratio (z) = -0.27149 0.26765
#
# Static dielectric constant tensor:
#      x y z
#    x 1.815690 0.000000 0.000000 
#    y 0.000000 1.848590 0.000000 
#    z 0.000000 0.000000 1.889820 
# 
# From -- ./inp_files/10288.got.cif
#   From: 2010.05.17/outbox.cif.g08.bks.cpg/sg48_6_cif.got.tgz:10288.got - 2010.06.03 20:39:00.
