data_PCOD9390949
_publ_section_title
;
Structure prediction by ZEFSAII (Michael W. Deem and Ramdas Pophale) SiO2 
 PCOD9390949
Probable space group: P N N N
;
_chemical_formula_sum "Si O2"
_cell_formula_units_Z 34
_cell_length_a 9.796596
_cell_length_b 18.513078
_cell_length_c 8.557071
_cell_angle_alpha 90.000000
_cell_angle_beta 90.000000
_cell_angle_gamma 90.000000
_cell_volume 1551.954430
_symmetry_space_group_name_H-M "P N N N"
_symmetry_group_IT_number 48
_space_group.IT_coordinate_system_code '2'
_symmetry_cell_setting 'orthorhombic'
loop_
_space_group_symop_operation_xyz
x,y,z
1/2-x,1/2-y,z
x,1/2-y,1/2-z
1/2-x,y,1/2-z
-x,-y,-z
1/2+x,1/2+y,-z
-x,1/2+y,1/2+z
1/2+x,-y,1/2+z
loop_
_atom_site_type_symbol
_atom_site_label
_atom_site_fract_x
_atom_site_fract_y
_atom_site_fract_z
Si Si1 0.750000 0.750000 0.750000
Si Si2 0.720386 0.013148 0.432735
Si Si3 0.531068 0.608933 0.051356
Si Si4 0.494188 0.766928 0.915197
Si Si5 0.380822 0.613817 0.358947
O O1 0.643446 0.794238 0.856284
O O2 0.750000 0.015782 0.250000
O O3 0.592233 0.066647 0.466268
O O4 0.840570 0.044145 0.540084
O O5 0.668896 0.934197 0.482855
O O6 0.501776 0.602048 0.236370
O O7 0.523690 0.691752 0.001991
O O8 0.421216 0.750000 0.750000
O O9 0.415985 0.821952 0.023696
O O10 0.250000 0.632255 0.250000
#
# Coordination Sequence:
#
# PCOD9390949 Si02
#       5
#     2   8   8   8   8
#     4   8  24  40  62  98 124 180 206 276 328 404
#     4  10  22  40  60  96 131 179 217 274 341 401
#     4  10  22  40  61  98 133 168 226 275 339 402
#     4  10  21  43  67  96 130 179 226 275 341 406
#     4  10  22  41  68  98 133 174 225 288 336 398
#
# _framework density 21.907861
#
# number of rings (size 3 to 8) (size 9 to 14) (size 15 to 20)
#    0.706    1.412    0.000    2.118    0.000    9.412 
#   10.588    7.059    0.000    0.000    0.000    0.000 
#    0.000    0.000    0.000    0.000    0.000    0.000 
#
# Total GULP energy -189842.177670 kJ/mol
# GULP energy per Si atom -5583.593461 kJ/mol
# Density = 2.185800 g / cm^3
# Si number density = 21.907861 Si / 1000 Ang^3
#
#
#
# Elastic Constant Matrix: (Units=GPa)
#
#
# Indices 1 2 3 4 5 6 
#
# 1 48.5411 44.8436 40.7774 0.0000 0.0000 0.0000
# 2 44.8436 119.1775 52.2084 0.0000 0.0000 0.0000
# 3 40.7774 52.2084 129.2492 0.0000 0.0000 0.0000
# 4 0.0000 0.0000 0.0000 23.1498 0.0000 0.0000
# 5 0.0000 0.0000 0.0000 0.0000 24.2885 0.0000
# 6 0.0000 0.0000 0.0000 0.0000 0.0000 159.8685
#
#
#
# Elastic Compliance Matrix: (Units=1/GPa)
#
#
# Indices 1 2 3 4 5 6 
#
# 1 0.036404 -0.010530 -0.007232 0.000000 0.000000 0.000000
# 2 -0.010530 0.013241 -0.002026 0.000000 0.000000 0.000000
# 3 -0.007232 -0.002026 0.010837 0.000000 0.000000 0.000000
# 4 0.000000 0.000000 0.000000 0.043197 0.000000 0.000000
# 5 0.000000 0.000000 0.000000 0.000000 0.041172 0.000000
# 6 0.000000 0.000000 0.000000 0.000000 0.000000 0.006255
#
#
# Mechanical properties :
#
#
# Convention : Reuss Voigt Hill
#
# Bulk Modulus (GPa) = 47.83370 63.62518 55.72944
# Shear Modulus (GPa) = 25.29720 52.07058 38.68389
#
# Velocity S-wave (km/s) = 3.40179 4.88053 4.20665
# Velocity P-wave (km/s) = 6.10827 7.80158 7.00627
#
# Compressibility (1/GPa) = 0.02090576
#
# Stress axis : x y z
#
# Youngs Moduli (GPa) = 27.46943 75.52506 92.27576
#
# Poissons Ratio (x) = 0.79527 0.66733
# Poissons Ratio (y) = 0.28925 0.18697
# Poissons Ratio (z) = 0.19866 0.15303
#
# Static dielectric constant tensor:
#      x y z
#    x 1.860180 0.000000 0.000000 
#    y 0.000000 1.771860 0.000000 
#    z 0.000000 0.000000 1.802380 
# 
# From -- ./inp_files/8745.got.cif
#   From: 2010.05.17/outbox.cif.g08.bks.cpg/sg48_5_cif.got.tgz:8745.got - 2010.06.03 20:39:00.
