data_PCOD9390861
_publ_section_title
;
Structure prediction by ZEFSAII (Michael W. Deem and Ramdas Pophale) SiO2 
 PCOD9390861
Probable space group: P N N N
;
_chemical_formula_sum "Si O2"
_cell_formula_units_Z 32
_cell_length_a 4.997001
_cell_length_b 14.671801
_cell_length_c 17.495629
_cell_angle_alpha 90.000000
_cell_angle_beta 90.000000
_cell_angle_gamma 90.000000
_cell_volume 1282.692115
_symmetry_space_group_name_H-M "P N N N"
_symmetry_group_IT_number 48
_space_group.IT_coordinate_system_code '2'
_symmetry_cell_setting 'orthorhombic'
loop_
_space_group_symop_operation_xyz
x,y,z
1/2-x,1/2-y,z
x,1/2-y,1/2-z
1/2-x,y,1/2-z
-x,-y,-z
1/2+x,1/2+y,-z
-x,1/2+y,1/2+z
1/2+x,-y,1/2+z
loop_
_atom_site_type_symbol
_atom_site_label
_atom_site_fract_x
_atom_site_fract_y
_atom_site_fract_z
Si Si1 0.773110 0.640865 0.936681
Si Si2 0.503106 0.976839 0.803264
Si Si3 0.304113 0.353879 0.841780
Si Si4 0.275733 0.640225 0.033031
O O1 0.750000 0.750000 0.930043
O O2 0.875363 0.599469 0.857915
O O3 0.488207 0.608854 0.968605
O O4 0.989082 0.613067 0.000470
O O5 0.750000 0.007207 0.750000
O O6 0.250000 0.947488 0.750000
O O7 0.387953 0.059885 0.853301
O O8 0.250000 0.250000 0.869675
O O9 0.250000 0.346161 0.750000
O O10 0.580693 0.377963 0.885194
O O11 0.250000 0.750000 0.031412
#
# Coordination Sequence:
#
# PCOD9390861 Si02
#       4
#     8   8   8   8
#     4  10  22  42  68  98 134 176 226 287 347 407
#     4  11  25  44  67 102 141 181 238 291 345 427
#     4  10  23  42  66  96 136 183 228 285 351 414
#     4  10  21  40  67  98 132 175 230 281 340 419
#
# _framework density 24.947531999999999
#
# number of rings (size 3 to 8) (size 9 to 14) (size 15 to 20)
#    0.000    1.750    0.000    3.750    0.000   10.500 
#    0.000   10.000    0.000    4.500    0.000    0.000 
#    0.000    0.000    0.000    0.000    0.000    0.000 
#
# Total GULP energy -178630.351497 kJ/mol
# GULP energy per Si atom -5582.198484 kJ/mol
# Density = 2.489075 g / cm^3
# Si number density = 24.947532 Si / 1000 Ang^3
#
#
#
# Elastic Constant Matrix: (Units=GPa)
#
#
# Indices 1 2 3 4 5 6 
#
# 1 171.6885 49.6774 65.9830 0.0000 0.0000 0.0000
# 2 49.6774 117.6406 61.9995 0.0000 0.0000 0.0000
# 3 65.9830 61.9995 152.9738 0.0000 0.0000 0.0000
# 4 0.0000 0.0000 0.0000 8.0296 0.0000 0.0000
# 5 0.0000 0.0000 0.0000 0.0000 41.1869 0.0000
# 6 0.0000 0.0000 0.0000 0.0000 0.0000 22.9969
#
#
#
# Elastic Compliance Matrix: (Units=1/GPa)
#
#
# Indices 1 2 3 4 5 6 
#
# 1 0.007271 -0.001802 -0.002406 0.000000 0.000000 0.000000
# 2 -0.001802 0.011256 -0.003785 0.000000 0.000000 0.000000
# 3 -0.002406 -0.003785 0.009109 0.000000 0.000000 0.000000
# 4 0.000000 0.000000 0.000000 0.124538 0.000000 0.000000
# 5 0.000000 0.000000 0.000000 0.000000 0.024280 0.000000
# 6 0.000000 0.000000 0.000000 0.000000 0.000000 0.043484
#
#
# Mechanical properties :
#
#
# Convention : Reuss Voigt Hill
#
# Bulk Modulus (GPa) = 85.83616 88.62475 87.23045
# Shear Modulus (GPa) = 20.85019 32.08554 26.46786
#
# Velocity S-wave (km/s) = 2.89409 3.59014 3.26074
# Velocity P-wave (km/s) = 6.75641 7.26547 7.01556
#
# Compressibility (1/GPa) = 0.01165010
#
# Stress axis : x y z
#
# Youngs Moduli (GPa) = 137.54182 88.83995 109.78707
#
# Poissons Ratio (x) = 0.16013 0.26409
# Poissons Ratio (y) = 0.24791 0.41550
# Poissons Ratio (z) = 0.33086 0.33623
#
# Static dielectric constant tensor:
#      x y z
#    x 1.792570 0.000000 0.000000 
#    y 0.000000 2.008970 0.000000 
#    z 0.000000 0.000000 2.060220 
# 
# From -- ./inp_files/29162.got.cif
#   From: 2010.05.17/outbox.cif.g08.bks.cpg/sg48_15_cif.got.tgz:29162.got - 2010.06.03 20:39:00.
