data_PCOD9390510
_publ_section_title
;
Structure prediction by ZEFSAII (Michael W. Deem and Ramdas Pophale) SiO2 
 PCOD9390510
Probable space group: P N N N
;
_chemical_formula_sum "Si O2"
_cell_formula_units_Z 34
_cell_length_a 5.402100
_cell_length_b 23.723394
_cell_length_c 11.798206
_cell_angle_alpha 90.000000
_cell_angle_beta 90.000000
_cell_angle_gamma 90.000000
_cell_volume 1512.012619
_symmetry_space_group_name_H-M "P N N N"
_symmetry_group_IT_number 48
_space_group.IT_coordinate_system_code '2'
_symmetry_cell_setting 'orthorhombic'
loop_
_space_group_symop_operation_xyz
x,y,z
1/2-x,1/2-y,z
x,1/2-y,1/2-z
1/2-x,y,1/2-z
-x,-y,-z
1/2+x,1/2+y,-z
-x,1/2+y,1/2+z
1/2+x,-y,1/2+z
loop_
_atom_site_type_symbol
_atom_site_label
_atom_site_fract_x
_atom_site_fract_y
_atom_site_fract_z
Si Si1 0.082111 0.805358 0.562750
Si Si2 0.003606 0.186593 0.700181
Si Si3 0.734373 0.077240 0.493963
Si Si4 0.760732 0.545158 0.116673
Si Si5 0.750000 0.750000 0.750000
O O1 0.250000 0.750000 0.560110
O O2 0.227224 0.864409 0.573660
O O3 0.975556 0.808722 0.434911
O O4 0.899752 0.791311 0.665517
O O5 0.999518 0.250000 0.750000
O O6 0.250000 0.159710 0.750000
O O7 0.750000 0.160756 0.750000
O O8 0.472879 0.076599 0.559170
O O9 0.976533 0.069576 0.573874
O O10 0.739457 0.020330 0.420848
O O11 0.750000 0.544659 0.250000
#
# Coordination Sequence:
#
# PCOD9390510 Si02
#       5
#     8   8   8   8   2
#     4  12  27  48  69 108 152 197 250 298 366 458
#     4  10  20  39  65  94 134 188 228 296 352 418
#     4  10  25  44  74 107 142 189 245 304 363 439
#     4  10  22  48  73 106 141 185 245 310 373 429
#     4  12  30  48  70 102 160 212 250 282 368 468
#
# _framework density 22.486587
#
# number of rings (size 3 to 8) (size 9 to 14) (size 15 to 20)
#    0.000    1.412    2.353    2.471    3.294    4.706 
#    8.471    0.000    0.000    0.000    0.000    0.000 
#    0.000    0.000    0.000    0.000    0.000    0.000 
#
# Total GULP energy -190146.581738 kJ/mol
# GULP energy per Si atom -5592.546522 kJ/mol
# Density = 2.243541 g / cm^3
# Si number density = 22.486587 Si / 1000 Ang^3
#
#
#
# Elastic Constant Matrix: (Units=GPa)
#
#
# Indices 1 2 3 4 5 6 
#
# 1 189.3424 57.1837 89.0492 0.0000 0.0000 0.0000
# 2 57.1837 165.3157 62.3396 0.0000 0.0000 0.0000
# 3 89.0492 62.3396 182.1416 0.0000 0.0000 0.0000
# 4 0.0000 0.0000 0.0000 2.7009 0.0000 0.0000
# 5 0.0000 0.0000 0.0000 0.0000 35.4184 0.0000
# 6 0.0000 0.0000 0.0000 0.0000 0.0000 26.5935
#
#
#
# Elastic Compliance Matrix: (Units=1/GPa)
#
#
# Indices 1 2 3 4 5 6 
#
# 1 0.007100 -0.001317 -0.003020 0.000000 0.000000 0.000000
# 2 -0.001317 0.007190 -0.001817 0.000000 0.000000 0.000000
# 3 -0.003020 -0.001817 0.007589 0.000000 0.000000 0.000000
# 4 0.000000 0.000000 0.000000 0.370243 0.000000 0.000000
# 5 0.000000 0.000000 0.000000 0.000000 0.028234 0.000000
# 6 0.000000 0.000000 0.000000 0.000000 0.000000 0.037603
#
#
# Mechanical properties :
#
#
# Convention : Reuss Voigt Hill
#
# Bulk Modulus (GPa) = 104.49475 105.99386 105.24431
# Shear Modulus (GPa) = 10.56065 34.82437 22.69251
#
# Velocity S-wave (km/s) = 2.16947 3.93959 3.18017
# Velocity P-wave (km/s) = 7.26954 8.24212 7.77106
#
# Compressibility (1/GPa) = 0.00956986
#
# Stress axis : x y z
#
# Youngs Moduli (GPa) = 140.85271 139.08801 131.77453
#
# Poissons Ratio (x) = 0.18316 0.39800
# Poissons Ratio (y) = 0.18548 0.23942
# Poissons Ratio (z) = 0.42542 0.25271
#
# Static dielectric constant tensor:
#      x y z
#    x 1.898970 0.000000 0.000000 
#    y 0.000000 1.798040 0.000000 
#    z 0.000000 0.000000 1.397500 
# 
# From -- ./inp_files/17536.got.cif
#   From: 2010.05.17/outbox.cif.g08.bks.cpg/sg48_9_cif.got.tgz:17536.got - 2010.06.03 20:39:00.
