data_PCOD9390145
_publ_section_title
;
Structure prediction by ZEFSAII (Michael W. Deem and Ramdas Pophale) SiO2 
 PCOD9390145
Probable space group: P N N N
;
_chemical_formula_sum "Si O2"
_cell_formula_units_Z 52
_cell_length_a 17.974423
_cell_length_b 8.369502
_cell_length_c 16.524857
_cell_angle_alpha 90.000000
_cell_angle_beta 90.000000
_cell_angle_gamma 90.000000
_cell_volume 2485.949404
_symmetry_space_group_name_H-M "P N N N"
_symmetry_group_IT_number 48
_space_group.IT_coordinate_system_code '2'
_symmetry_cell_setting 'orthorhombic'
loop_
_space_group_symop_operation_xyz
x,y,z
1/2-x,1/2-y,z
x,1/2-y,1/2-z
1/2-x,y,1/2-z
-x,-y,-z
1/2+x,1/2+y,-z
-x,1/2+y,1/2+z
1/2+x,-y,1/2+z
loop_
_atom_site_type_symbol
_atom_site_label
_atom_site_fract_x
_atom_site_fract_y
_atom_site_fract_z
Si Si1 0.938328 0.221820 0.948587
Si Si2 0.896423 0.097322 0.382543
Si Si3 0.400930 0.227126 0.975539
Si Si4 0.302009 0.508754 0.024469
Si Si5 0.055829 0.047573 0.358526
Si Si6 0.750000 0.250000 0.112656
Si Si7 0.213490 0.074537 0.325637
O O1 0.874955 0.090959 0.935358
O O2 0.939011 0.361177 0.881717
O O3 0.025224 0.171330 0.951614
O O4 0.915530 0.304957 0.034440
O O5 0.823293 0.177950 0.345143
O O6 0.973103 0.093861 0.332286
O O7 0.884463 0.914067 0.411872
O O8 0.331418 0.337770 0.994943
O O9 0.426581 0.138774 0.057377
O O10 0.235406 0.504921 0.089346
O O11 0.276270 0.609087 0.947472
O O12 0.126887 0.087817 0.306134
O O13 0.250000 0.250000 0.331875
O O14 0.250000 0.987035 0.250000
#
# Coordination Sequence:
#
# PCOD9390145 Si02
#       7
#     8   8   8   8   8   4   8
#     4   8  16  27  43  67  88 112 156 187 232 294
#     4   8  16  28  44  64  90 118 147 184 234 293
#     4   9  15  26  46  64  85 126 153 178 235 286
#     4  11  18  28  43  62  93 125 156 201 228 258
#     4   9  16  32  45  58  87 123 151 194 238 262
#     4  10  20  28  43  72  98 117 156 186 234 298
#     4  11  22  32  44  64  88 127 176 197 216 263
#
# _framework density 20.917562
#
# number of rings (size 3 to 8) (size 9 to 14) (size 15 to 20)
#    0.000    2.615    1.538    5.077    0.000    0.000 
#    0.000    3.462    0.000    0.000    0.000    0.000 
#    0.000    2.462    0.000    0.000   20.923    0.769 
#
# Total GULP energy -289846.514019 kJ/mol
# GULP energy per Si atom -5573.971423 kJ/mol
# Density = 2.086995 g / cm^3
# Si number density = 20.917562 Si / 1000 Ang^3
#
#
#
# Elastic Constant Matrix: (Units=GPa)
#
#
# Indices 1 2 3 4 5 6 
#
# 1 192.6004 38.8962 17.9833 0.0000 0.0000 0.0000
# 2 38.8962 51.7523 3.6645 0.0000 0.0000 0.0000
# 3 17.9833 3.6645 11.8836 0.0000 0.0000 0.0000
# 4 0.0000 0.0000 0.0000 2.1406 0.0000 0.0000
# 5 0.0000 0.0000 0.0000 0.0000 -10.1862 0.0000
# 6 0.0000 0.0000 0.0000 0.0000 0.0000 31.5498
#
#
#
# Elastic Compliance Matrix: (Units=1/GPa)
#
#
# Indices 1 2 3 4 5 6 
#
# 1 0.006973 -0.004594 -0.009135 0.000000 0.000000 0.000000
# 2 -0.004594 0.022781 -0.000073 0.000000 0.000000 0.000000
# 3 -0.009135 -0.000073 0.097996 0.000000 0.000000 0.000000
# 4 0.000000 0.000000 0.000000 0.467151 0.000000 0.000000
# 5 0.000000 0.000000 0.000000 0.000000 -0.098172 0.000000
# 6 0.000000 0.000000 0.000000 0.000000 0.000000 0.031696
#
#
# Mechanical properties :
#
#
# Convention : Reuss Voigt Hill
#
# Bulk Modulus (GPa) = 9.98547 41.92494 25.95520
# Shear Modulus (GPa) = 8.48305 17.74701 13.11503
#
# Velocity S-wave (km/s) = 2.01600 2.91594 2.50669
# Velocity P-wave (km/s) = 3.19423 5.60565 4.56215
#
# Compressibility (1/GPa) = 0.10014549
#
# Stress axis : x y z
#
# Youngs Moduli (GPa) = 143.41451 43.89701 10.20446
#
# Poissons Ratio (x) = 0.20165 0.09322
# Poissons Ratio (y) = 0.65882 0.00075
# Poissons Ratio (z) = 1.31013 0.00321
#
# Static dielectric constant tensor:
#      x y z
#    x 1.903920 0.000000 0.000000 
#    y 0.000000 1.768990 0.000000 
#    z 0.000000 0.000000 1.745460 
# 
# From -- ./inp_files/31975.got.cif
#   From: 2010.05.17/outbox.cif.g08.bks.cpg/sg48_16_cif.got.tgz:31975.got - 2010.06.03 20:39:00.
