data_PCOD9390336
_publ_section_title
;
Structure prediction by ZEFSAII (Michael W. Deem and Ramdas Pophale) SiO2 
 PCOD9390336
Probable space group: P N N N
;
_chemical_formula_sum "Si O2"
_cell_formula_units_Z 56
_cell_length_a 8.829143
_cell_length_b 19.709782
_cell_length_c 15.197562
_cell_angle_alpha 90.000000
_cell_angle_beta 90.000000
_cell_angle_gamma 90.000000
_cell_volume 2644.687091
_symmetry_space_group_name_H-M "P N N N"
_symmetry_group_IT_number 48
_space_group.IT_coordinate_system_code '2'
_symmetry_cell_setting 'orthorhombic'
loop_
_space_group_symop_operation_xyz
x,y,z
1/2-x,1/2-y,z
x,1/2-y,1/2-z
1/2-x,y,1/2-z
-x,-y,-z
1/2+x,1/2+y,-z
-x,1/2+y,1/2+z
1/2+x,-y,1/2+z
loop_
_atom_site_type_symbol
_atom_site_label
_atom_site_fract_x
_atom_site_fract_y
_atom_site_fract_z
Si Si1 0.708123 0.477068 0.554349
Si Si2 0.750000 0.750000 0.415152
Si Si3 0.750000 0.250000 0.512988
Si Si4 0.952813 0.292255 0.829506
Si Si5 0.710045 0.896355 0.452733
Si Si6 0.058678 0.440084 0.825278
Si Si7 0.911234 0.381523 0.450077
Si Si8 0.599101 0.960302 0.697036
O O1 0.716597 0.554308 0.523296
O O2 0.546088 0.456030 0.589479
O O3 0.773665 0.431597 0.475431
O O4 0.824751 0.480910 0.636416
O O5 0.602088 0.749748 0.356224
O O6 0.762632 0.819637 0.466942
O O7 0.852748 0.207020 0.581870
O O8 0.848697 0.304477 0.457402
O O9 0.889704 0.250000 0.750000
O O10 0.994765 0.367056 0.796705
O O11 0.771631 0.924250 0.359531
O O12 0.532709 0.894014 0.471615
O O13 0.018799 0.501493 0.761107
O O14 0.003730 0.407260 0.363652
O O15 0.750000 0.933447 0.750000
#
# Coordination Sequence:
#
# PCOD9390336 Si02
#       8
#     8   4   4   8   8   8   8   8
#     4  10  20  37  60  91 126 168 218 265 319 392
#     4  10  21  38  54  90 129 160 206 254 325 394
#     4  12  23  38  62  90 133 182 222 270 322 401
#     4  11  23  35  56  89 133 175 210 258 333 410
#     4  10  20  36  61  89 128 166 211 265 324 387
#     4  10  21  37  59  93 131 168 216 270 330 396
#     4  11  22  40  61  94 130 172 227 268 327 395
#     4   9  20  36  61  91 130 175 219 278 331 395
#
# _framework density 21.174529
#
# number of rings (size 3 to 8) (size 9 to 14) (size 15 to 20)
#    0.000    1.714    2.857    2.571    2.000    2.286 
#    0.000    4.286    0.000    0.000    0.000   58.000 
#    0.000    0.000    0.000    0.000    0.000    0.000 
#
# Total GULP energy -312158.721154 kJ/mol
# GULP energy per Si atom -5574.262878 kJ/mol
# Density = 2.112633 g / cm^3
# Si number density = 21.174529 Si / 1000 Ang^3
#
#
#
# Elastic Constant Matrix: (Units=GPa)
#
#
# Indices 1 2 3 4 5 6 
#
# 1 104.6484 45.0774 39.8081 0.0000 0.0000 0.0000
# 2 45.0774 117.9649 48.8099 0.0000 0.0000 0.0000
# 3 39.8081 48.8099 75.6678 0.0000 0.0000 0.0000
# 4 0.0000 0.0000 0.0000 22.5086 0.0000 0.0000
# 5 0.0000 0.0000 0.0000 0.0000 36.5424 0.0000
# 6 0.0000 0.0000 0.0000 0.0000 0.0000 32.6171
#
#
#
# Elastic Compliance Matrix: (Units=1/GPa)
#
#
# Indices 1 2 3 4 5 6 
#
# 1 0.012602 -0.002827 -0.004806 0.000000 0.000000 0.000000
# 2 -0.002827 0.012197 -0.006381 0.000000 0.000000 0.000000
# 3 -0.004806 -0.006381 0.019860 0.000000 0.000000 0.000000
# 4 0.000000 0.000000 0.000000 0.044427 0.000000 0.000000
# 5 0.000000 0.000000 0.000000 0.000000 0.027365 0.000000
# 6 0.000000 0.000000 0.000000 0.000000 0.000000 0.030659
#
#
# Mechanical properties :
#
#
# Convention : Reuss Voigt Hill
#
# Bulk Modulus (GPa) = 60.12650 62.85243 61.48947
# Shear Modulus (GPa) = 27.67283 29.30602 28.48942
#
# Velocity S-wave (km/s) = 3.61902 3.72428 3.67203
# Velocity P-wave (km/s) = 6.77646 6.94559 6.86154
#
# Compressibility (1/GPa) = 0.01663160
#
# Stress axis : x y z
#
# Youngs Moduli (GPa) = 79.35424 81.98414 50.35197
#
# Poissons Ratio (x) = 0.23175 0.24200
# Poissons Ratio (y) = 0.22432 0.32129
# Poissons Ratio (z) = 0.38139 0.52313
#
# Static dielectric constant tensor:
#      x y z
#    x 1.899980 0.000000 0.000000 
#    y 0.000000 1.760760 0.000000 
#    z 0.000000 0.000000 1.776090 
# 
# From -- ./inp_files/25650.got.cif
#   From: 2010.05.17/outbox.cif.g08.bks.cpg/sg48_13_cif.got.tgz:25650.got - 2010.06.03 20:39:00.
