data_PCOD9390976
_publ_section_title
;
Structure prediction by ZEFSAII (Michael W. Deem and Ramdas Pophale) SiO2 
 PCOD9390976
Probable space group: P N N N
;
_chemical_formula_sum "Si O2"
_cell_formula_units_Z 64
_cell_length_a 9.351770
_cell_length_b 16.005955
_cell_length_c 22.872790
_cell_angle_alpha 90.000000
_cell_angle_beta 90.000000
_cell_angle_gamma 90.000000
_cell_volume 3423.690922
_symmetry_space_group_name_H-M "P N N N"
_symmetry_group_IT_number 48
_space_group.IT_coordinate_system_code '2'
_symmetry_cell_setting 'orthorhombic'
loop_
_space_group_symop_operation_xyz
x,y,z
1/2-x,1/2-y,z
x,1/2-y,1/2-z
1/2-x,y,1/2-z
-x,-y,-z
1/2+x,1/2+y,-z
-x,1/2+y,1/2+z
1/2+x,-y,1/2+z
loop_
_atom_site_type_symbol
_atom_site_label
_atom_site_fract_x
_atom_site_fract_y
_atom_site_fract_z
Si Si1 0.197325 0.553565 0.688418
Si Si2 0.818899 0.440755 0.974988
Si Si3 0.852348 0.893411 0.591632
Si Si4 0.248332 0.056237 0.924357
Si Si5 0.378649 0.801944 0.863812
Si Si6 0.556961 0.860451 0.637371
Si Si7 0.495690 0.625702 0.001986
Si Si8 0.078146 0.314641 0.973064
O O1 0.250000 0.519782 0.750000
O O2 0.231313 0.489757 0.636406
O O3 0.285660 0.640849 0.679549
O O4 0.030792 0.576824 0.678843
O O5 0.829775 0.509390 0.923623
O O6 0.664440 0.398871 0.981280
O O7 0.934395 0.368615 0.971269
O O8 0.841097 0.496615 0.033178
O O9 0.727942 0.866658 0.636437
O O10 0.012907 0.868262 0.608260
O O11 0.834162 0.840516 0.531649
O O12 0.323660 0.146698 0.922129
O O13 0.101751 0.066764 0.960981
O O14 0.250000 0.750000 0.897009
O O15 0.490727 0.729712 0.846648
O O16 0.515462 0.878110 0.568662
O O17 0.535777 0.719170 0.022094
#
# Coordination Sequence:
#
# PCOD9390976 Si02
#       8
#     8   8   8   8   8   8   8   8
#     4  11  24  42  60  79 113 166 217 254 286 337
#     4  11  21  32  52  83 124 153 188 231 295 374
#     4  11  20  34  55  87 119 155 185 235 305 374
#     4  11  21  36  54  84 117 155 198 243 297 364
#     4  10  22  35  58  82 117 158 199 240 295 360
#     4  11  21  34  57  86 119 156 193 238 305 366
#     4  12  21  34  55  88 125 156 187 236 315 381
#     4  11  22  31  53  85 123 154 182 232 305 378
#
# _framework density 18.693276000000001
#
# number of rings (size 3 to 8) (size 9 to 14) (size 15 to 20)
#    0.000    1.000    5.000    5.250    1.750    2.250 
#    0.000    0.625    0.000    4.500    0.000    0.000 
#    0.000    4.000    0.000    0.000    0.000    0.000 
#
# Total GULP energy -356939.070401 kJ/mol
# GULP energy per Si atom -5577.172975 kJ/mol
# Density = 1.865073 g / cm^3
# Si number density = 18.693276 Si / 1000 Ang^3
#
#
#
# Elastic Constant Matrix: (Units=GPa)
#
#
# Indices 1 2 3 4 5 6 
#
# 1 118.5241 25.4929 11.9847 0.0000 0.0000 0.0000
# 2 25.4929 81.6989 9.0271 0.0000 0.0000 0.0000
# 3 11.9847 9.0271 49.2076 0.0000 0.0000 0.0000
# 4 0.0000 0.0000 0.0000 11.4932 0.0000 0.0000
# 5 0.0000 0.0000 0.0000 0.0000 16.9106 0.0000
# 6 0.0000 0.0000 0.0000 0.0000 0.0000 34.7553
#
#
#
# Elastic Compliance Matrix: (Units=1/GPa)
#
#
# Indices 1 2 3 4 5 6 
#
# 1 0.009189 -0.002674 -0.001747 0.000000 0.000000 0.000000
# 2 -0.002674 0.013272 -0.001783 0.000000 0.000000 0.000000
# 3 -0.001747 -0.001783 0.021075 0.000000 0.000000 0.000000
# 4 0.000000 0.000000 0.000000 0.087008 0.000000 0.000000
# 5 0.000000 0.000000 0.000000 0.000000 0.059134 0.000000
# 6 0.000000 0.000000 0.000000 0.000000 0.000000 0.028773
#
#
# Mechanical properties :
#
#
# Convention : Reuss Voigt Hill
#
# Bulk Modulus (GPa) = 32.12812 38.04889 35.08851
# Shear Modulus (GPa) = 20.72666 26.16023 23.44345
#
# Velocity S-wave (km/s) = 3.33344 3.74498 3.54519
# Velocity P-wave (km/s) = 5.66040 6.25286 5.96399
#
# Compressibility (1/GPa) = 0.03112538
#
# Stress axis : x y z
#
# Youngs Moduli (GPa) = 108.82600 75.34916 47.45005
#
# Poissons Ratio (x) = 0.20150 0.08292
# Poissons Ratio (y) = 0.29102 0.08462
# Poissons Ratio (z) = 0.19017 0.13437
#
# Static dielectric constant tensor:
#      x y z
#    x 1.745170 0.000000 0.000000 
#    y 0.000000 1.706300 0.000000 
#    z 0.000000 0.000000 1.654630 
# 
# From -- ./inp_files/33716.got.cif
#   From: 2010.05.17/outbox.cif.g08.bks.cpg/sg48_17_cif.got.tgz:33716.got - 2010.06.03 20:39:00.
