data_PCOD9390969
_publ_section_title
;
Structure prediction by ZEFSAII (Michael W. Deem and Ramdas Pophale) SiO2 
 PCOD9390969
Probable space group: P N N N
;
_chemical_formula_sum "Si O2"
_cell_formula_units_Z 52
_cell_length_a 17.390690
_cell_length_b 8.419380
_cell_length_c 15.634145
_cell_angle_alpha 90.000000
_cell_angle_beta 90.000000
_cell_angle_gamma 90.000000
_cell_volume 2289.133181
_symmetry_space_group_name_H-M "P N N N"
_symmetry_group_IT_number 48
_space_group.IT_coordinate_system_code '2'
_symmetry_cell_setting 'orthorhombic'
loop_
_space_group_symop_operation_xyz
x,y,z
1/2-x,1/2-y,z
x,1/2-y,1/2-z
1/2-x,y,1/2-z
-x,-y,-z
1/2+x,1/2+y,-z
-x,1/2+y,1/2+z
1/2+x,-y,1/2+z
loop_
_atom_site_type_symbol
_atom_site_label
_atom_site_fract_x
_atom_site_fract_y
_atom_site_fract_z
Si Si1 0.649997 0.891721 0.559861
Si Si2 0.922482 0.237062 0.978850
Si Si3 0.869029 0.495048 0.734819
Si Si4 0.023536 0.159551 0.824140
Si Si5 0.250000 0.750000 0.250000
Si Si6 0.095572 0.670060 0.664089
Si Si7 0.329823 0.048457 0.068207
Si Si8 0.750000 0.250000 0.250000
O O1 0.633480 0.711380 0.529185
O O2 0.739852 0.930120 0.547862
O O3 0.605408 0.052129 0.532379
O O4 0.633917 0.875597 0.661653
O O5 0.988798 0.247772 0.906655
O O6 0.862679 0.379198 0.961189
O O7 0.936522 0.255989 0.079931
O O8 0.951345 0.413522 0.729189
O O9 0.808049 0.362843 0.700566
O O10 0.843062 0.539602 0.829052
O O11 0.068788 0.250000 0.750000
O O12 0.072464 0.009845 0.850337
O O13 0.061269 0.750000 0.750000
O O14 0.187299 0.673147 0.684689
#
# Coordination Sequence:
#
# PCOD9390969 Si02
#       8
#     8   8   8   8   2   8   8   2
#     4  10  22  31  56  96 139 188 239 282 336 421
#     4  11  23  42  70 100 146 188 231 304 373 440
#     4  11  19  32  58  91 147 196 233 272 335 438
#     4  11  22  42  67 111 145 186 235 288 385 460
#     4  12  16  28  56  92 136 208 242 256 328 420
#     4  10  25  49  77  99 130 186 255 313 378 437
#     4  11  20  34  55  96 142 186 235 281 342 422
#     4   8  24  52  80  96 118 190 266 316 378 412
#
# _framework density 22.716021999999999
#
# number of rings (size 3 to 8) (size 9 to 14) (size 15 to 20)
#    0.462    0.923    3.846    2.308    2.154    3.692 
#    2.769    1.154    0.000    0.000    0.000    0.000 
#    0.000    0.000    0.000    0.000    0.000    0.000 
#
# Total GULP energy -289654.812595 kJ/mol
# GULP energy per Si atom -5570.284858 kJ/mol
# Density = 2.266432 g / cm^3
# Si number density = 22.716022 Si / 1000 Ang^3
#
#
#
# Elastic Constant Matrix: (Units=GPa)
#
#
# Indices 1 2 3 4 5 6 
#
# 1 51.8023 8.2394 12.0566 0.0000 0.0000 0.0000
# 2 8.2394 111.4006 33.1139 0.0000 0.0000 0.0000
# 3 12.0566 33.1139 145.9813 0.0000 0.0000 0.0000
# 4 0.0000 0.0000 0.0000 21.3252 0.0000 0.0000
# 5 0.0000 0.0000 0.0000 0.0000 5.1593 0.0000
# 6 0.0000 0.0000 0.0000 0.0000 0.0000 12.3625
#
#
#
# Elastic Compliance Matrix: (Units=1/GPa)
#
#
# Indices 1 2 3 4 5 6 
#
# 1 0.019796 -0.001049 -0.001397 0.000000 0.000000 0.000000
# 2 -0.001049 0.009681 -0.002109 0.000000 0.000000 0.000000
# 3 -0.001397 -0.002109 0.007444 0.000000 0.000000 0.000000
# 4 0.000000 0.000000 0.000000 0.046893 0.000000 0.000000
# 5 0.000000 0.000000 0.000000 0.000000 0.193825 0.000000
# 6 0.000000 0.000000 0.000000 0.000000 0.000000 0.080889
#
#
# Mechanical properties :
#
#
# Convention : Reuss Voigt Hill
#
# Bulk Modulus (GPa) = 35.95734 46.22266 41.09000
# Shear Modulus (GPa) = 13.26578 24.82102 19.04340
#
# Velocity S-wave (km/s) = 2.41920 3.30914 2.89852
# Velocity P-wave (km/s) = 4.86485 5.91546 5.41569
#
# Compressibility (1/GPa) = 0.02781073
#
# Stress axis : x y z
#
# Youngs Moduli (GPa) = 50.51489 103.29276 134.33516
#
# Poissons Ratio (x) = 0.10834 0.18767
# Poissons Ratio (y) = 0.05298 0.28337
# Poissons Ratio (z) = 0.07057 0.21789
#
# Static dielectric constant tensor:
#      x y z
#    x 1.868900 0.000000 0.000000 
#    y 0.000000 2.018050 0.000000 
#    z 0.000000 0.000000 1.960660 
# 
# From -- ./inp_files/28312.got.cif
#   From: 2010.05.17/outbox.cif.g08.bks.cpg/sg48_15_cif.got.tgz:28312.got - 2010.06.03 20:39:00.
