data_PCOD9390814
_publ_section_title
;
Structure prediction by ZEFSAII (Michael W. Deem and Ramdas Pophale) SiO2 
 PCOD9390814
Probable space group: P N N N
;
_chemical_formula_sum "Si O2"
_cell_formula_units_Z 60
_cell_length_a 19.063194
_cell_length_b 13.365056
_cell_length_c 12.690052
_cell_angle_alpha 90.000000
_cell_angle_beta 90.000000
_cell_angle_gamma 90.000000
_cell_volume 3233.179765
_symmetry_space_group_name_H-M "P N N N"
_symmetry_group_IT_number 48
_space_group.IT_coordinate_system_code '2'
_symmetry_cell_setting 'orthorhombic'
loop_
_space_group_symop_operation_xyz
x,y,z
1/2-x,1/2-y,z
x,1/2-y,1/2-z
1/2-x,y,1/2-z
-x,-y,-z
1/2+x,1/2+y,-z
-x,1/2+y,1/2+z
1/2+x,-y,1/2+z
loop_
_atom_site_type_symbol
_atom_site_label
_atom_site_fract_x
_atom_site_fract_y
_atom_site_fract_z
Si Si1 0.563436 0.649519 0.801505
Si Si2 0.307945 0.073385 0.161042
Si Si3 0.442730 0.011526 0.685983
Si Si4 0.750000 0.750000 0.988985
Si Si5 0.384606 0.558204 0.496350
Si Si6 0.606322 0.678631 0.037195
Si Si7 0.830939 0.363075 0.216309
Si Si8 0.528458 0.876637 0.101723
O O1 0.531842 0.750000 0.750000
O O2 0.621688 0.609460 0.720465
O O3 0.506121 0.565964 0.825185
O O4 0.599303 0.676806 0.911336
O O5 0.250000 0.052736 0.250000
O O6 0.280000 0.161965 0.085614
O O7 0.328602 0.979215 0.089135
O O8 0.420086 0.075370 0.585758
O O9 0.465718 0.088261 0.777952
O O10 0.377612 0.944884 0.724121
O O11 0.687379 0.704319 0.058162
O O12 0.348649 0.616709 0.593097
O O13 0.449542 0.616275 0.442914
O O14 0.422511 0.457220 0.540341
O O15 0.559547 0.768055 0.082086
O O16 0.850204 0.250000 0.250000
O O17 0.750000 0.376587 0.250000
#
# Coordination Sequence:
#
# PCOD9390814 Si02
#       8
#     8   8   8   4   8   8   8   8
#     4  12  22  39  63  95 128 165 219 266 315 390
#     4  12  21  39  66  98 132 168 211 269 326 395
#     4  11  25  40  60  93 128 169 216 268 325 380
#     4  12  23  36  61  98 134 162 207 262 337 406
#     4  10  21  39  67  93 117 173 218 256 313 380
#     4  12  25  38  62  96 136 166 207 272 339 383
#     4  10  24  42  64  91 125 166 222 268 309 383
#     4  10  21  40  63  88 125 168 219 255 311 392
#
# _framework density 18.557582
#
# number of rings (size 3 to 8) (size 9 to 14) (size 15 to 20)
#    0.000    0.933    5.333    1.400    7.467    0.000 
#    0.000    0.667    0.000    0.000    0.000    0.000 
#    0.000    0.000    0.000    0.000    0.000    0.000 
#
# Total GULP energy -335253.944105 kJ/mol
# GULP energy per Si atom -5587.565735 kJ/mol
# Density = 1.851534 g / cm^3
# Si number density = 18.557582 Si / 1000 Ang^3
#
#
#
# Elastic Constant Matrix: (Units=GPa)
#
#
# Indices 1 2 3 4 5 6 
#
# 1 113.9004 55.0454 35.6450 0.0000 0.0000 0.0000
# 2 55.0454 109.6820 48.2939 0.0000 0.0000 0.0000
# 3 35.6450 48.2939 73.3091 0.0000 0.0000 0.0000
# 4 0.0000 0.0000 0.0000 24.3231 0.0000 0.0000
# 5 0.0000 0.0000 0.0000 0.0000 27.3619 0.0000
# 6 0.0000 0.0000 0.0000 0.0000 0.0000 16.5595
#
#
#
# Elastic Compliance Matrix: (Units=1/GPa)
#
#
# Indices 1 2 3 4 5 6 
#
# 1 0.011937 -0.004839 -0.002617 0.000000 0.000000 0.000000
# 2 -0.004839 0.014804 -0.007400 0.000000 0.000000 0.000000
# 3 -0.002617 -0.007400 0.019788 0.000000 0.000000 0.000000
# 4 0.000000 0.000000 0.000000 0.041113 0.000000 0.000000
# 5 0.000000 0.000000 0.000000 0.000000 0.036547 0.000000
# 6 0.000000 0.000000 0.000000 0.000000 0.000000 0.060388
#
#
# Mechanical properties :
#
#
# Convention : Reuss Voigt Hill
#
# Bulk Modulus (GPa) = 59.45699 63.87335 61.66517
# Shear Modulus (GPa) = 22.73840 24.17605 23.45723
#
# Velocity S-wave (km/s) = 3.50421 3.61329 3.55917
# Velocity P-wave (km/s) = 6.96286 7.20427 7.08459
#
# Compressibility (1/GPa) = 0.01681888
#
# Stress axis : x y z
#
# Youngs Moduli (GPa) = 83.77451 67.55088 50.53644
#
# Poissons Ratio (x) = 0.32685 0.13223
# Poissons Ratio (y) = 0.40535 0.37395
# Poissons Ratio (z) = 0.21920 0.49985
#
# Static dielectric constant tensor:
#      x y z
#    x 1.654540 0.000000 0.000000 
#    y 0.000000 1.615700 0.000000 
#    z 0.000000 0.000000 1.642120 
# 
# From -- ./inp_files/22924.got.cif
#   From: 2010.05.17/outbox.cif.g08.bks.cpg/sg48_12_cif.got.tgz:22924.got - 2010.06.03 20:39:00.
