data_PCOD9390392
_publ_section_title
;
Structure prediction by ZEFSAII (Michael W. Deem and Ramdas Pophale) SiO2 
 PCOD9390392
Probable space group: P N N N
;
_chemical_formula_sum "Si O2"
_cell_formula_units_Z 48
_cell_length_a 14.322601
_cell_length_b 11.629724
_cell_length_c 13.875525
_cell_angle_alpha 90.000000
_cell_angle_beta 90.000000
_cell_angle_gamma 90.000000
_cell_volume 2311.217013
_symmetry_space_group_name_H-M "P N N N"
_symmetry_group_IT_number 48
_space_group.IT_coordinate_system_code '2'
_symmetry_cell_setting 'orthorhombic'
loop_
_space_group_symop_operation_xyz
x,y,z
1/2-x,1/2-y,z
x,1/2-y,1/2-z
1/2-x,y,1/2-z
-x,-y,-z
1/2+x,1/2+y,-z
-x,1/2+y,1/2+z
1/2+x,-y,1/2+z
loop_
_atom_site_type_symbol
_atom_site_label
_atom_site_fract_x
_atom_site_fract_y
_atom_site_fract_z
Si Si1 0.433907 0.800888 0.342999
Si Si2 0.472729 0.135778 0.995272
Si Si3 0.930283 0.293512 0.355985
Si Si4 0.202360 0.052903 0.595205
Si Si5 0.794417 0.357558 0.519982
Si Si6 0.103882 0.042693 0.798507
O O1 0.383604 0.750000 0.250000
O O2 0.465260 0.699341 0.414761
O O3 0.376687 0.892484 0.407619
O O4 0.527290 0.859750 0.302798
O O5 0.495692 0.209329 0.091756
O O6 0.364856 0.140944 0.960641
O O7 0.500000 0.000000 0.000000
O O8 0.907598 0.250000 0.250000
O O9 0.842136 0.299555 0.426611
O O10 0.946351 0.429556 0.341290
O O11 0.142784 0.018809 0.690727
O O12 0.305233 0.079287 0.638253
O O13 0.224545 0.952309 0.518803
O O14 0.750000 0.250000 0.573903
#
# Coordination Sequence:
#
# PCOD9390392 Si02
#       6
#     8   8   8   8   8   8
#     4  11  23  40  65  93 131 172 212 267 330 402
#     4  11  22  38  61  92 128 169 214 264 326 391
#     4  10  21  36  63  91 125 166 211 268 321 391
#     4  10  20  37  62  94 129 161 217 275 317 392
#     4  10  21  37  60  94 125 161 212 267 324 374
#     4  10  21  39  62  95 127 167 214 268 335 383
#
# _framework density 20.768280000000001
#
# number of rings (size 3 to 8) (size 9 to 14) (size 15 to 20)
#    0.000    1.667    1.667    4.000    0.000    8.667 
#    0.000    0.000    0.000    0.000    0.000    0.000 
#    0.000    0.000    0.000    0.000    0.000    0.000 
#
# Total GULP energy -267446.912152 kJ/mol
# GULP energy per Si atom -5571.810670 kJ/mol
# Density = 2.072101 g / cm^3
# Si number density = 20.768280 Si / 1000 Ang^3
#
#
#
# Elastic Constant Matrix: (Units=GPa)
#
#
# Indices 1 2 3 4 5 6 
#
# 1 71.3841 34.8105 44.4925 0.0000 0.0000 0.0000
# 2 34.8105 82.7532 35.5642 0.0000 0.0000 0.0000
# 3 44.4925 35.5642 122.0671 0.0000 0.0000 0.0000
# 4 0.0000 0.0000 0.0000 20.9841 0.0000 0.0000
# 5 0.0000 0.0000 0.0000 0.0000 16.6568 0.0000
# 6 0.0000 0.0000 0.0000 0.0000 0.0000 37.9867
#
#
#
# Elastic Compliance Matrix: (Units=1/GPa)
#
#
# Indices 1 2 3 4 5 6 
#
# 1 0.020587 -0.006213 -0.005694 0.000000 0.000000 0.000000
# 2 -0.006213 0.015689 -0.002306 0.000000 0.000000 0.000000
# 3 -0.005694 -0.002306 0.010939 0.000000 0.000000 0.000000
# 4 0.000000 0.000000 0.000000 0.047655 0.000000 0.000000
# 5 0.000000 0.000000 0.000000 0.000000 0.060036 0.000000
# 6 0.000000 0.000000 0.000000 0.000000 0.000000 0.026325
#
#
# Mechanical properties :
#
#
# Convention : Reuss Voigt Hill
#
# Bulk Modulus (GPa) = 53.22179 56.21541 54.71860
# Shear Modulus (GPa) = 23.15661 25.88133 24.51897
#
# Velocity S-wave (km/s) = 3.34278 3.53398 3.43971
# Velocity P-wave (km/s) = 6.37032 6.61655 6.49460
#
# Compressibility (1/GPa) = 0.01878930
#
# Stress axis : x y z
#
# Youngs Moduli (GPa) = 48.57338 63.73927 91.41217
#
# Poissons Ratio (x) = 0.39603 0.52048
# Poissons Ratio (y) = 0.30180 0.21082
# Poissons Ratio (z) = 0.27656 0.14700
#
# Static dielectric constant tensor:
#      x y z
#    x 1.847270 0.000000 0.000000 
#    y 0.000000 1.820730 0.000000 
#    z 0.000000 0.000000 1.781660 
# 
# From -- ./inp_files/27251.got.cif
#   From: 2010.05.17/outbox.cif.g08.bks.cpg/sg48_14_cif.got.tgz:27251.got - 2010.06.03 20:39:00.
