data_PCOD9390954
_publ_section_title
;
Structure prediction by ZEFSAII (Michael W. Deem and Ramdas Pophale) SiO2 
 PCOD9390954
Probable space group: P N N N
;
_chemical_formula_sum "Si O2"
_cell_formula_units_Z 64
_cell_length_a 10.874294
_cell_length_b 9.168797
_cell_length_c 30.337119
_cell_angle_alpha 90.000000
_cell_angle_beta 90.000000
_cell_angle_gamma 90.000000
_cell_volume 3024.738004
_symmetry_space_group_name_H-M "P N N N"
_symmetry_group_IT_number 48
_space_group.IT_coordinate_system_code '2'
_symmetry_cell_setting 'orthorhombic'
loop_
_space_group_symop_operation_xyz
x,y,z
1/2-x,1/2-y,z
x,1/2-y,1/2-z
1/2-x,y,1/2-z
-x,-y,-z
1/2+x,1/2+y,-z
-x,1/2+y,1/2+z
1/2+x,-y,1/2+z
loop_
_atom_site_type_symbol
_atom_site_label
_atom_site_fract_x
_atom_site_fract_y
_atom_site_fract_z
Si Si1 0.753341 0.074447 0.198650
Si Si2 0.003539 0.964327 0.158058
Si Si3 0.523973 0.563004 0.940639
Si Si4 0.491973 0.950582 0.847146
Si Si5 0.609316 0.793981 0.702903
Si Si6 0.794381 0.582838 0.484913
Si Si7 0.868339 0.348833 0.066243
Si Si8 0.391855 0.706347 0.300421
O O1 0.750000 0.250000 0.194354
O O2 0.750000 0.039147 0.250000
O O3 0.631698 0.010210 0.178014
O O4 0.868930 0.012386 0.172719
O O5 0.025031 0.795271 0.164783
O O6 0.037297 0.024097 0.110361
O O7 0.093083 0.036981 0.194361
O O8 0.420307 0.449807 0.957905
O O9 0.462790 0.722635 0.949562
O O10 0.654042 0.555047 0.965738
O O11 0.533920 0.787436 0.834742
O O12 0.446310 0.940242 0.897606
O O13 0.593214 0.044906 0.820800
O O14 0.750000 0.750000 0.701949
O O15 0.554286 0.750000 0.750000
O O16 0.750000 0.750000 0.480052
O O17 0.693885 0.464019 0.467796
O O18 0.750000 0.250000 0.083456
O O19 0.250000 0.750000 0.303715
O O20 0.430310 0.750000 0.250000
#
# Coordination Sequence:
#
# PCOD9390954 Si02
#       8
#     8   8   8   8   8   8   8   8
#     4  11  20  33  59  96 131 166 216 274 329 383
#     4  12  23  41  66  96 137 181 224 288 330 395
#     4  10  22  44  67 100 134 168 221 274 339 405
#     4  12  22  39  65  94 127 180 224 277 336 400
#     4  11  22  37  62  94 128 178 234 275 326 391
#     4  10  23  42  71  98 129 175 210 272 346 422
#     4  10  21  43  69  99 136 168 211 276 346 407
#     4  11  26  46  62  90 140 190 232 278 332 391
#
# _framework density 21.158856
#
# number of rings (size 3 to 8) (size 9 to 14) (size 15 to 20)
#    0.000    1.125    2.500    4.875    1.750    3.500 
#    2.250    4.375    0.000    0.000    0.000    0.000 
#    0.000    0.000    0.000    0.000    0.000    0.000 
#
# Total GULP energy -356906.848774 kJ/mol
# GULP energy per Si atom -5576.669512 kJ/mol
# Density = 2.111070 g / cm^3
# Si number density = 21.158856 Si / 1000 Ang^3
#
#
#
# Elastic Constant Matrix: (Units=GPa)
#
#
# Indices 1 2 3 4 5 6 
#
# 1 81.5671 22.2469 35.3992 0.0000 0.0000 0.0000
# 2 22.2469 84.1032 39.6429 0.0000 0.0000 0.0000
# 3 35.3992 39.6429 124.6923 0.0000 0.0000 0.0000
# 4 0.0000 0.0000 0.0000 19.2373 0.0000 0.0000
# 5 0.0000 0.0000 0.0000 0.0000 21.9011 0.0000
# 6 0.0000 0.0000 0.0000 0.0000 0.0000 38.3834
#
#
#
# Elastic Compliance Matrix: (Units=1/GPa)
#
#
# Indices 1 2 3 4 5 6 
#
# 1 0.014321 -0.002202 -0.003366 0.000000 0.000000 0.000000
# 2 -0.002202 0.014325 -0.003929 0.000000 0.000000 0.000000
# 3 -0.003366 -0.003929 0.010224 0.000000 0.000000 0.000000
# 4 0.000000 0.000000 0.000000 0.051982 0.000000 0.000000
# 5 0.000000 0.000000 0.000000 0.000000 0.045660 0.000000
# 6 0.000000 0.000000 0.000000 0.000000 0.000000 0.026053
#
#
# Mechanical properties :
#
#
# Convention : Reuss Voigt Hill
#
# Bulk Modulus (GPa) = 50.30939 53.88230 52.09584
# Shear Modulus (GPa) = 26.56978 28.77593 27.67286
#
# Velocity S-wave (km/s) = 3.54747 3.69181 3.62036
# Velocity P-wave (km/s) = 6.37244 6.61011 6.49236
#
# Compressibility (1/GPa) = 0.01987701
#
# Stress axis : x y z
#
# Youngs Moduli (GPa) = 69.82747 69.81008 97.80547
#
# Poissons Ratio (x) = 0.15370 0.32918
# Poissons Ratio (y) = 0.15374 0.38429
# Poissons Ratio (z) = 0.23501 0.27429
#
# Static dielectric constant tensor:
#      x y z
#    x 1.734970 0.000000 0.000000 
#    y 0.000000 1.779320 0.000000 
#    z 0.000000 0.000000 1.814400 
# 
# From -- ./inp_files/38960.got.cif
#   From: 2010.05.17/outbox.cif.g08.bks.cpg/sg48_20_cif.got.tgz:38960.got - 2010.06.03 20:39:00.
