data_PCOD9390325
_publ_section_title
;
Structure prediction by ZEFSAII (Michael W. Deem and Ramdas Pophale) SiO2 
 PCOD9390325
Probable space group: P N N N
;
_chemical_formula_sum "Si O2"
_cell_formula_units_Z 32
_cell_length_a 4.669875
_cell_length_b 8.960069
_cell_length_c 26.682423
_cell_angle_alpha 90.000000
_cell_angle_beta 90.000000
_cell_angle_gamma 90.000000
_cell_volume 1116.456675
_symmetry_space_group_name_H-M "P N N N"
_symmetry_group_IT_number 48
_space_group.IT_coordinate_system_code '2'
_symmetry_cell_setting 'orthorhombic'
loop_
_space_group_symop_operation_xyz
x,y,z
1/2-x,1/2-y,z
x,1/2-y,1/2-z
1/2-x,y,1/2-z
-x,-y,-z
1/2+x,1/2+y,-z
-x,1/2+y,1/2+z
1/2+x,-y,1/2+z
loop_
_atom_site_type_symbol
_atom_site_label
_atom_site_fract_x
_atom_site_fract_y
_atom_site_fract_z
Si Si1 0.484761 0.950629 0.404677
Si Si2 0.250000 0.250000 0.187995
Si Si3 0.250000 0.750000 0.750000
Si Si4 0.250000 0.250000 0.989088
Si Si5 0.015940 0.060470 0.661332
Si Si6 0.250000 0.750000 0.941782
Si Si7 0.750000 0.250000 0.750000
O O1 0.592684 0.869012 0.454041
O O2 0.165607 0.907291 0.389476
O O3 0.663101 0.907773 0.355125
O O4 0.574262 0.123846 0.411994
O O5 0.511066 0.334900 0.217529
O O6 0.070539 0.385544 0.165779
O O7 0.499097 0.180502 0.023810
O O8 0.928080 0.144974 0.711634
#
# Coordination Sequence:
#
# PCOD9390325 Si02
#       7
#     8   4   2   4   8   4   2
#     4  12  25  45  68 101 139 175 220 277 333 387
#     4  11  22  41  64  91 122 170 224 279 328 373
#     4  10  20  36  60  88 116 152 220 292 324 364
#     4  12  24  43  70 104 140 175 216 269 336 407
#     4  12  26  44  68  96 136 179 226 277 327 392
#     4  12  24  44  74 101 132 175 224 269 332 409
#     4  12  28  46  68  98 132 182 228 268 340 400
#
# _framework density 28.662106000000001
#
# number of rings (size 3 to 8) (size 9 to 14) (size 15 to 20)
#    0.000    0.250    0.000   10.500    0.000    2.000 
#    0.000    0.000    0.000    0.000    0.000    0.000 
#    0.000    0.000    0.000    0.000    0.000    0.000 
#
# Total GULP energy -179307.019521 kJ/mol
# GULP energy per Si atom -5603.344360 kJ/mol
# Density = 2.859687 g / cm^3
# Si number density = 28.662106 Si / 1000 Ang^3
#
#
#
# Elastic Constant Matrix: (Units=GPa)
#
#
# Indices 1 2 3 4 5 6 
#
# 1 140.2450 -31.3802 25.2397 0.0000 0.0000 0.0000
# 2 -31.3802 117.3689 27.6446 0.0000 0.0000 0.0000
# 3 25.2397 27.6446 109.1868 0.0000 0.0000 0.0000
# 4 0.0000 0.0000 0.0000 47.2813 0.0000 0.0000
# 5 0.0000 0.0000 0.0000 0.0000 44.3304 0.0000
# 6 0.0000 0.0000 0.0000 0.0000 0.0000 28.7027
#
#
#
# Elastic Compliance Matrix: (Units=1/GPa)
#
#
# Indices 1 2 3 4 5 6 
#
# 1 0.008231 0.002817 -0.002616 0.000000 0.000000 0.000000
# 2 0.002817 0.010024 -0.003189 0.000000 0.000000 0.000000
# 3 -0.002616 -0.003189 0.010571 0.000000 0.000000 0.000000
# 4 0.000000 0.000000 0.000000 0.021150 0.000000 0.000000
# 5 0.000000 0.000000 0.000000 0.000000 0.022558 0.000000
# 6 0.000000 0.000000 0.000000 0.000000 0.000000 0.034840
#
#
# Mechanical properties :
#
#
# Convention : Reuss Voigt Hill
#
# Bulk Modulus (GPa) = 43.76328 45.53433 44.64881
# Shear Modulus (GPa) = 41.33330 47.08267 44.20799
#
# Velocity S-wave (km/s) = 3.80160 4.05740 3.93158
# Velocity P-wave (km/s) = 5.87975 6.15394 6.01841
#
# Compressibility (1/GPa) = 0.02285020
#
# Stress axis : x y z
#
# Youngs Moduli (GPa) = 121.48484 99.75585 94.60016
#
# Poissons Ratio (x) = -0.28101 0.24748
# Poissons Ratio (y) = -0.34222 0.30170
# Poissons Ratio (z) = 0.31781 0.31814
#
# Static dielectric constant tensor:
#      x y z
#    x 2.176820 0.000000 0.000000 
#    y 0.000000 2.404990 0.000000 
#    z 0.000000 0.000000 2.389150 
# 
# From -- ./inp_files/35208.got.cif
#   From: 2010.05.17/outbox.cif.g08.bks.cpg/sg48_18_cif.got.tgz:35208.got - 2010.06.03 20:39:00.
