data_PCOD9390668
_publ_section_title
;
Structure prediction by ZEFSAII (Michael W. Deem and Ramdas Pophale) SiO2 
 PCOD9390668
Probable space group: P N N N
;
_chemical_formula_sum "Si O2"
_cell_formula_units_Z 64
_cell_length_a 7.817387
_cell_length_b 21.650962
_cell_length_c 15.972956
_cell_angle_alpha 90.000000
_cell_angle_beta 90.000000
_cell_angle_gamma 90.000000
_cell_volume 2703.485878
_symmetry_space_group_name_H-M "P N N N"
_symmetry_group_IT_number 48
_space_group.IT_coordinate_system_code '2'
_symmetry_cell_setting 'orthorhombic'
loop_
_space_group_symop_operation_xyz
x,y,z
1/2-x,1/2-y,z
x,1/2-y,1/2-z
1/2-x,y,1/2-z
-x,-y,-z
1/2+x,1/2+y,-z
-x,1/2+y,1/2+z
1/2+x,-y,1/2+z
loop_
_atom_site_type_symbol
_atom_site_label
_atom_site_fract_x
_atom_site_fract_y
_atom_site_fract_z
Si Si1 0.042445 0.819902 0.264667
Si Si2 0.462246 0.357670 0.072328
Si Si3 0.098282 0.900360 0.417851
Si Si4 0.183144 0.813836 0.574492
Si Si5 0.994681 0.106508 0.892695
Si Si6 0.022855 0.524195 0.836187
Si Si7 0.084495 0.979666 0.854522
Si Si8 0.642743 0.841718 0.834956
O O1 0.987280 0.750000 0.250000
O O2 0.250000 0.820537 0.250000
O O3 0.013369 0.851449 0.354066
O O4 0.957921 0.860682 0.192619
O O5 0.636614 0.334179 0.114646
O O6 0.467329 0.429201 0.101094
O O7 0.286103 0.327636 0.096852
O O8 0.483430 0.351868 0.973572
O O9 0.115055 0.865131 0.507292
O O10 0.294539 0.909869 0.390206
O O11 0.018649 0.967989 0.399623
O O12 0.250000 0.750000 0.531999
O O13 0.032067 0.806603 0.642079
O O14 0.092650 0.043070 0.904644
O O15 0.220688 0.542748 0.848413
O O16 0.014347 0.504213 0.738272
O O17 0.909626 0.585789 0.840681
O O18 0.750000 0.830942 0.750000
#
# Coordination Sequence:
#
# PCOD9390668 Si02
#       8
#     8   8   8   8   8   8   8   8
#     4   9  18  33  62  97 135 189 245 280 343 435
#     4  11  24  43  70 106 147 191 246 310 374 427
#     4  10  22  39  68 102 145 196 242 292 367 442
#     4  11  28  51  74 108 150 192 251 315 371 442
#     4  10  21  36  61 102 143 191 241 302 352 429
#     4  11  23  39  69 105 144 189 243 304 377 454
#     4  11  21  39  64 101 154 190 235 313 371 433
#     4  12  26  48  82 105 143 192 247 312 390 460
#
# _framework density 23.673141999999999
#
# number of rings (size 3 to 8) (size 9 to 14) (size 15 to 20)
#    0.000    1.375    3.750    1.125    7.000    2.500 
#    0.000    1.875    0.000    1.500    0.000    0.000 
#    0.000    0.000    0.000    0.000    0.000    0.000 
#
# Total GULP energy -357385.099422 kJ/mol
# GULP energy per Si atom -5584.142178 kJ/mol
# Density = 2.361926 g / cm^3
# Si number density = 23.673142 Si / 1000 Ang^3
#
#
#
# Elastic Constant Matrix: (Units=GPa)
#
#
# Indices 1 2 3 4 5 6 
#
# 1 104.4851 10.6442 37.3481 0.0000 0.0000 0.0000
# 2 10.6442 87.0238 33.0369 0.0000 0.0000 0.0000
# 3 37.3481 33.0369 66.5715 0.0000 0.0000 0.0000
# 4 0.0000 0.0000 0.0000 10.7605 0.0000 0.0000
# 5 0.0000 0.0000 0.0000 0.0000 26.7531 0.0000
# 6 0.0000 0.0000 0.0000 0.0000 0.0000 19.9839
#
#
#
# Elastic Compliance Matrix: (Units=1/GPa)
#
#
# Indices 1 2 3 4 5 6 
#
# 1 0.012099 0.001352 -0.007459 0.000000 0.000000 0.000000
# 2 0.001352 0.014310 -0.007860 0.000000 0.000000 0.000000
# 3 -0.007459 -0.007860 0.023106 0.000000 0.000000 0.000000
# 4 0.000000 0.000000 0.000000 0.092933 0.000000 0.000000
# 5 0.000000 0.000000 0.000000 0.000000 0.037379 0.000000
# 6 0.000000 0.000000 0.000000 0.000000 0.000000 0.050040
#
#
# Mechanical properties :
#
#
# Convention : Reuss Voigt Hill
#
# Bulk Modulus (GPa) = 46.33532 46.68209 46.50870
# Shear Modulus (GPa) = 18.86835 23.30291 21.08563
#
# Velocity S-wave (km/s) = 2.82625 3.14086 2.98769
# Velocity P-wave (km/s) = 5.50142 5.73721 5.62055
#
# Compressibility (1/GPa) = 0.02158181
#
# Stress axis : x y z
#
# Youngs Moduli (GPa) = 82.65057 69.88352 43.27820
#
# Poissons Ratio (x) = -0.09446 0.32280
# Poissons Ratio (y) = -0.11171 0.34015
# Poissons Ratio (z) = 0.61646 0.54926
#
# Static dielectric constant tensor:
#      x y z
#    x 1.919390 0.000000 0.000000 
#    y 0.000000 1.984140 0.000000 
#    z 0.000000 0.000000 1.924420 
# 
# From -- ./inp_files/25748.got.cif
#   From: 2010.05.17/outbox.cif.g08.bks.cpg/sg48_13_cif.got.tgz:25748.got - 2010.06.03 20:39:00.
