data_PCOD9390573
_publ_section_title
;
Structure prediction by ZEFSAII (Michael W. Deem and Ramdas Pophale) SiO2 
 PCOD9390573
Probable space group: P N N N
;
_chemical_formula_sum "Si O2"
_cell_formula_units_Z 56
_cell_length_a 22.406056
_cell_length_b 14.235574
_cell_length_c 7.000242
_cell_angle_alpha 90.000000
_cell_angle_beta 90.000000
_cell_angle_gamma 90.000000
_cell_volume 2232.818667
_symmetry_space_group_name_H-M "P N N N"
_symmetry_group_IT_number 48
_space_group.IT_coordinate_system_code '2'
_symmetry_cell_setting 'orthorhombic'
loop_
_space_group_symop_operation_xyz
x,y,z
1/2-x,1/2-y,z
x,1/2-y,1/2-z
1/2-x,y,1/2-z
-x,-y,-z
1/2+x,1/2+y,-z
-x,1/2+y,1/2+z
1/2+x,-y,1/2+z
loop_
_atom_site_type_symbol
_atom_site_label
_atom_site_fract_x
_atom_site_fract_y
_atom_site_fract_z
Si Si1 0.126586 0.720747 0.473591
Si Si2 0.508626 0.391604 0.058734
Si Si3 0.149458 0.438226 0.536240
Si Si4 0.600024 0.758140 0.518372
Si Si5 0.239354 0.591157 0.471627
Si Si6 0.873540 0.421731 0.121554
Si Si7 0.575174 0.931157 0.862146
O O1 0.131007 0.750000 0.250000
O O2 0.072014 0.649104 0.500785
O O3 0.188850 0.668118 0.529108
O O4 0.112321 0.812009 0.599863
O O5 0.622178 0.494474 0.200406
O O6 0.500000 0.500000 0.000000
O O7 0.460746 0.316104 0.976416
O O8 0.149162 0.326440 0.572842
O O9 0.211499 0.488030 0.494841
O O10 0.113913 0.440236 0.333730
O O11 0.607665 0.750000 0.750000
O O12 0.595387 0.647797 0.484674
O O13 0.250000 0.610984 0.250000
O O14 0.302786 0.584721 0.572663
O O15 0.913519 0.470739 0.959938
O O16 0.010869 0.398466 0.217806
#
# Coordination Sequence:
#
# PCOD9390573 Si02
#       7
#     8   8   8   8   8   8   8
#     4  12  24  43  71 110 150 205 264 309 396 483
#     4  10  20  41  70  99 146 193 246 311 373 464
#     4  10  21  43  71 110 141 187 254 311 380 455
#     4   8  19  43  71  99 145 190 240 300 379 451
#     4  12  23  44  73  99 154 204 245 324 389 469
#     4  12  25  42  77 109 147 199 257 322 393 468
#     4  10  22  49  73 104 150 201 243 315 394 461
#
# _framework density 25.080407000000001
#
# number of rings (size 3 to 8) (size 9 to 14) (size 15 to 20)
#    0.000    1.714    2.857    3.429    0.000    1.143 
#   28.286    2.857    0.000    1.714    0.000    0.000 
#    0.000    0.000    0.000    0.000    0.000    0.000 
#
# Total GULP energy -312564.763280 kJ/mol
# GULP energy per Si atom -5581.513630 kJ/mol
# Density = 2.502332 g / cm^3
# Si number density = 25.080407 Si / 1000 Ang^3
#
#
#
# Elastic Constant Matrix: (Units=GPa)
#
#
# Indices 1 2 3 4 5 6 
#
# 1 89.9280 42.1463 22.9330 0.0000 0.0000 0.0000
# 2 42.1463 206.6809 59.4941 0.0000 0.0000 0.0000
# 3 22.9330 59.4941 118.2868 0.0000 0.0000 0.0000
# 4 0.0000 0.0000 0.0000 49.9024 0.0000 0.0000
# 5 0.0000 0.0000 0.0000 0.0000 37.5132 0.0000
# 6 0.0000 0.0000 0.0000 0.0000 0.0000 37.9177
#
#
#
# Elastic Compliance Matrix: (Units=1/GPa)
#
#
# Indices 1 2 3 4 5 6 
#
# 1 0.012472 -0.002160 -0.001332 0.000000 0.000000 0.000000
# 2 -0.002160 0.006032 -0.002615 0.000000 0.000000 0.000000
# 3 -0.001332 -0.002615 0.010027 0.000000 0.000000 0.000000
# 4 0.000000 0.000000 0.000000 0.020039 0.000000 0.000000
# 5 0.000000 0.000000 0.000000 0.000000 0.026657 0.000000
# 6 0.000000 0.000000 0.000000 0.000000 0.000000 0.026373
#
#
# Mechanical properties :
#
#
# Convention : Reuss Voigt Hill
#
# Bulk Modulus (GPa) = 61.28240 73.78250 67.53245
# Shear Modulus (GPa) = 41.92789 44.42148 43.17469
#
# Velocity S-wave (km/s) = 4.09313 4.21308 4.15354
# Velocity P-wave (km/s) = 6.84293 7.29034 7.07017
#
# Compressibility (1/GPa) = 0.01631790
#
# Stress axis : x y z
#
# Youngs Moduli (GPa) = 80.18028 165.79505 99.72673
#
# Poissons Ratio (x) = 0.35811 0.13280
# Poissons Ratio (y) = 0.17319 0.26077
# Poissons Ratio (z) = 0.10677 0.43354
#
# Static dielectric constant tensor:
#      x y z
#    x 2.040860 0.000000 0.000000 
#    y 0.000000 2.061190 0.000000 
#    z 0.000000 0.000000 2.111620 
# 
# From -- ./inp_files/28095.got.cif
#   From: 2010.05.17/outbox.cif.g08.bks.cpg/sg48_15_cif.got.tgz:28095.got - 2010.06.03 20:39:00.
