data_PCOD9390279
_publ_section_title
;
Structure prediction by ZEFSAII (Michael W. Deem and Ramdas Pophale) SiO2 
 PCOD9390279
Probable space group: P N N N
;
_chemical_formula_sum "Si O2"
_cell_formula_units_Z 48
_cell_length_a 30.351021
_cell_length_b 8.745244
_cell_length_c 7.821741
_cell_angle_alpha 90.000000
_cell_angle_beta 90.000000
_cell_angle_gamma 90.000000
_cell_volume 2076.101908
_symmetry_space_group_name_H-M "P N N N"
_symmetry_group_IT_number 48
_space_group.IT_coordinate_system_code '2'
_symmetry_cell_setting 'orthorhombic'
loop_
_space_group_symop_operation_xyz
x,y,z
1/2-x,1/2-y,z
x,1/2-y,1/2-z
1/2-x,y,1/2-z
-x,-y,-z
1/2+x,1/2+y,-z
-x,1/2+y,1/2+z
1/2+x,-y,1/2+z
loop_
_atom_site_type_symbol
_atom_site_label
_atom_site_fract_x
_atom_site_fract_y
_atom_site_fract_z
Si Si1 0.404250 0.859160 0.084130
Si Si2 0.434915 0.569829 0.897506
Si Si3 0.342952 0.414007 0.911776
Si Si4 0.174092 0.088369 0.511108
Si Si5 0.258974 0.580623 0.957300
Si Si6 0.473098 0.431002 0.246697
O O1 0.397400 0.750000 0.250000
O O2 0.445471 0.972901 0.116286
O O3 0.416729 0.739714 0.935760
O O4 0.361722 0.963463 0.046803
O O5 0.392450 0.465092 0.878453
O O6 0.474007 0.554228 0.760872
O O7 0.456416 0.508212 0.072439
O O8 0.325583 0.402207 0.717923
O O9 0.339767 0.262176 0.026867
O O10 0.309299 0.535429 0.991823
O O11 0.223354 0.036486 0.464942
O O12 0.250000 0.750000 0.020837
O O13 0.250000 0.583950 0.750000
O O14 0.463158 0.250000 0.250000
#
# Coordination Sequence:
#
# PCOD9390279 Si02
#       6
#     8   8   8   8   8   8
#     4  10  22  40  60  83 115 158 201 246 293 355
#     4  10  22  39  57  85 113 153 198 244 297 350
#     4  10  20  35  57  90 123 152 194 243 296 357
#     4  10  20  35  58  89 121 158 192 240 300 355
#     4   9  17  31  55  87 122 153 185 232 293 350
#     4  10  22  40  58  80 113 156 195 247 295 350
#
# _framework density 23.120253999999999
#
# number of rings (size 3 to 8) (size 9 to 14) (size 15 to 20)
#    0.000    2.167    0.000    2.500    2.333    4.000 
#   15.000    0.000    0.000   11.500    0.000   15.167 
#    0.000    0.000    0.000    0.000    0.000    0.000 
#
# Total GULP energy -267972.690450 kJ/mol
# GULP energy per Si atom -5582.764384 kJ/mol
# Density = 2.306763 g / cm^3
# Si number density = 23.120254 Si / 1000 Ang^3
#
#
#
# Elastic Constant Matrix: (Units=GPa)
#
#
# Indices 1 2 3 4 5 6 
#
# 1 65.6164 12.9319 -13.3557 0.0000 0.0000 0.0000
# 2 12.9319 122.5759 0.7933 0.0000 0.0000 0.0000
# 3 -13.3557 0.7933 53.0241 0.0000 0.0000 0.0000
# 4 0.0000 0.0000 0.0000 14.4378 0.0000 0.0000
# 5 0.0000 0.0000 0.0000 0.0000 -4.4333 0.0000
# 6 0.0000 0.0000 0.0000 0.0000 0.0000 38.3105
#
#
#
# Elastic Compliance Matrix: (Units=1/GPa)
#
#
# Indices 1 2 3 4 5 6 
#
# 1 0.016435 -0.001761 0.004166 0.000000 0.000000 0.000000
# 2 -0.001761 0.008348 -0.000568 0.000000 0.000000 0.000000
# 3 0.004166 -0.000568 0.019917 0.000000 0.000000 0.000000
# 4 0.000000 0.000000 0.000000 0.069262 0.000000 0.000000
# 5 0.000000 0.000000 0.000000 0.000000 -0.225568 0.000000
# 6 0.000000 0.000000 0.000000 0.000000 0.000000 0.026103
#
#
# Mechanical properties :
#
#
# Convention : Reuss Voigt Hill
#
# Bulk Modulus (GPa) = 20.67251 26.88392 23.77821
# Shear Modulus (GPa) = -68.44445 25.71947 -21.36249
#
# Velocity S-wave (km/s) = -5.44683 3.33892 -3.04299
# Velocity P-wave (km/s) = 5.53141 5.14952 1.42810
#
# Compressibility (1/GPa) = 0.04837342
#
# Stress axis : x y z
#
# Youngs Moduli (GPa) = 60.84542 119.79399 50.20784
#
# Poissons Ratio (x) = 0.21094 -0.20917
# Poissons Ratio (y) = 0.10714 0.02854
# Poissons Ratio (z) = -0.25348 0.06809
#
# Static dielectric constant tensor:
#      x y z
#    x 1.850440 0.000000 0.000000 
#    y 0.000000 1.902170 0.000000 
#    z 0.000000 0.000000 2.035940 
# 
# From -- ./inp_files/9444.got.cif
#   From: 2010.05.17/outbox.cif.g08.bks.cpg/sg48_5_cif.got.tgz:9444.got - 2010.06.03 20:39:00.
