data_PCOD9390448
_publ_section_title
;
Structure prediction by ZEFSAII (Michael W. Deem and Ramdas Pophale) SiO2 
 PCOD9390448
Probable space group: P N N N
;
_chemical_formula_sum "Si O2"
_cell_formula_units_Z 34
_cell_length_a 11.470811
_cell_length_b 24.192116
_cell_length_c 4.986822
_cell_angle_alpha 90.000000
_cell_angle_beta 90.000000
_cell_angle_gamma 90.000000
_cell_volume 1383.859015
_symmetry_space_group_name_H-M "P N N N"
_symmetry_group_IT_number 48
_space_group.IT_coordinate_system_code '2'
_symmetry_cell_setting 'orthorhombic'
loop_
_space_group_symop_operation_xyz
x,y,z
1/2-x,1/2-y,z
x,1/2-y,1/2-z
1/2-x,y,1/2-z
-x,-y,-z
1/2+x,1/2+y,-z
-x,1/2+y,1/2+z
1/2+x,-y,1/2+z
loop_
_atom_site_type_symbol
_atom_site_label
_atom_site_fract_x
_atom_site_fract_y
_atom_site_fract_z
Si Si1 0.832968 0.958155 0.501510
Si Si2 0.535592 0.178954 0.283918
Si Si3 0.331773 0.920200 0.000614
Si Si4 0.250000 0.750000 0.750000
Si Si5 0.613375 0.837384 0.183385
O O1 0.750000 0.965267 0.250000
O O2 0.892789 0.900448 0.428672
O O3 0.887107 0.019122 0.563033
O O4 0.750000 0.945679 0.750000
O O5 0.593156 0.129620 0.113008
O O6 0.651579 0.211653 0.388771
O O7 0.459843 0.163951 0.541890
O O8 0.446295 0.200890 0.048848
O O9 0.250000 0.930225 0.750000
O O10 0.250000 0.904841 0.250000
O O11 0.750000 0.825193 0.250000
#
# Coordination Sequence:
#
# PCOD9390448 Si02
#       5
#     8   8   8   2   8
#     4   9  18  35  64 100 149 185 229 283 344 434
#     4  12  26  45  75  98 142 187 238 309 354 419
#     4  10  20  38  63 104 144 188 236 287 352 429
#     4  12  32  54  74 110 132 182 252 308 364 412
#     4  11  24  45  71 107 141 187 231 287 364 438
#
# _framework density 24.568974000000001
#
# number of rings (size 3 to 8) (size 9 to 14) (size 15 to 20)
#    0.000    1.412    1.176    4.941    0.000    3.765 
#    0.000    3.529    0.000    0.000    0.000    0.000 
#    0.000    0.000    0.000    0.000    0.000    0.000 
#
# Total GULP energy -189298.697290 kJ/mol
# GULP energy per Si atom -5567.608744 kJ/mol
# Density = 2.451305 g / cm^3
# Si number density = 24.568974 Si / 1000 Ang^3
#
#
#
# Elastic Constant Matrix: (Units=GPa)
#
#
# Indices 1 2 3 4 5 6 
#
# 1 157.4550 57.8709 66.9180 0.0000 0.0000 0.0000
# 2 57.8709 94.2290 33.0325 0.0000 0.0000 0.0000
# 3 66.9180 33.0325 205.4170 0.0000 0.0000 0.0000
# 4 0.0000 0.0000 0.0000 -250.5134 0.0000 0.0000
# 5 0.0000 0.0000 0.0000 0.0000 51.3020 0.0000
# 6 0.0000 0.0000 0.0000 0.0000 0.0000 14.3635
#
#
#
# Elastic Compliance Matrix: (Units=1/GPa)
#
#
# Indices 1 2 3 4 5 6 
#
# 1 0.009034 -0.004786 -0.002173 0.000000 0.000000 0.000000
# 2 -0.004786 0.013782 -0.000657 0.000000 0.000000 0.000000
# 3 -0.002173 -0.000657 0.005682 0.000000 0.000000 0.000000
# 4 0.000000 0.000000 0.000000 -0.003992 0.000000 0.000000
# 5 0.000000 0.000000 0.000000 0.000000 0.019492 0.000000
# 6 0.000000 0.000000 0.000000 0.000000 0.000000 0.069621
#
#
# Mechanical properties :
#
#
# Convention : Reuss Voigt Hill
#
# Bulk Modulus (GPa) = 75.38828 85.86043 80.62436
# Shear Modulus (GPa) = 37.51663 -17.01762 10.24951
#
# Velocity S-wave (km/s) = 3.91191 -2.63467 2.04470
# Velocity P-wave (km/s) = 7.15228 5.07614 6.20170
#
# Compressibility (1/GPa) = 0.01326466
#
# Stress axis : x y z
#
# Youngs Moduli (GPa) = 110.69550 72.55687 176.00130
#
# Poissons Ratio (x) = 0.34728 0.38249
# Poissons Ratio (y) = 0.52982 0.11565
# Poissons Ratio (z) = 0.24057 0.04768
#
# Static dielectric constant tensor:
#      x y z
#    x 2.042450 0.000000 0.000000 
#    y 0.000000 2.183410 0.000000 
#    z 0.000000 0.000000 1.865210 
# 
# From -- ./inp_files/2533.got.cif
#   From: 2010.05.17/outbox.cif.g08.bks.cpg/sg48_2_cif.got.tgz:2533.got - 2010.06.03 20:39:00.
