data_PCOD9390076
_publ_section_title
;
Structure prediction by ZEFSAII (Michael W. Deem and Ramdas Pophale) SiO2 
 PCOD9390076
Probable space group: P N N N
;
_chemical_formula_sum "Si O2"
_cell_formula_units_Z 42
_cell_length_a 19.759647
_cell_length_b 10.531182
_cell_length_c 10.666131
_cell_angle_alpha 90.000000
_cell_angle_beta 90.000000
_cell_angle_gamma 90.000000
_cell_volume 2219.541212
_symmetry_space_group_name_H-M "P N N N"
_symmetry_group_IT_number 48
_space_group.IT_coordinate_system_code '2'
_symmetry_cell_setting 'orthorhombic'
loop_
_space_group_symop_operation_xyz
x,y,z
1/2-x,1/2-y,z
x,1/2-y,1/2-z
1/2-x,y,1/2-z
-x,-y,-z
1/2+x,1/2+y,-z
-x,1/2+y,1/2+z
1/2+x,-y,1/2+z
loop_
_atom_site_type_symbol
_atom_site_label
_atom_site_fract_x
_atom_site_fract_y
_atom_site_fract_z
Si Si1 0.933836 0.305898 0.376298
Si Si2 0.955002 0.701236 0.043612
Si Si3 0.141954 0.920140 0.109660
Si Si4 0.002921 0.435902 0.716829
Si Si5 0.827265 0.717149 0.603249
Si Si6 0.250000 0.750000 0.250000
O O1 0.902330 0.250000 0.250000
O O2 0.882772 0.354358 0.481655
O O3 0.986220 0.208247 0.439863
O O4 0.978265 0.427036 0.334832
O O5 0.969320 0.592535 0.145013
O O6 0.964299 0.831473 0.123778
O O7 0.882430 0.706080 0.977638
O O8 0.077538 0.916509 0.204050
O O9 0.202857 0.841126 0.167487
O O10 0.160121 0.066933 0.087655
O O11 0.750000 0.750000 0.569419
O O12 0.836771 0.750000 0.750000
#
# Coordination Sequence:
#
# PCOD9390076 Si02
#       6
#     8   8   8   8   8   2
#     4  11  21  39  64  92 128 160 202 263 311 358
#     4  10  19  37  62  93 120 156 209 255 310 365
#     4  11  22  44  62  90 130 161 206 256 305 365
#     4  10  20  38  67  90 119 162 201 264 317 352
#     4  11  22  39  62  90 123 162 206 258 310 361
#     4  12  24  40  68  88 124 176 214 240 304 388
#
# _framework density 18.922830000000001
#
# number of rings (size 3 to 8) (size 9 to 14) (size 15 to 20)
#    0.000    1.333    3.810    5.143    0.000    0.762 
#    6.857    2.381    0.000    0.000    0.000    0.000 
#    0.000    0.000    0.000    0.000    0.000    0.000 
#
# Total GULP energy -234732.510707 kJ/mol
# GULP energy per Si atom -5588.869303 kJ/mol
# Density = 1.887976 g / cm^3
# Si number density = 18.922830 Si / 1000 Ang^3
#
#
#
# Elastic Constant Matrix: (Units=GPa)
#
#
# Indices 1 2 3 4 5 6 
#
# 1 150.1854 38.1974 81.1978 0.0000 0.0000 0.0000
# 2 38.1974 51.8537 38.6327 0.0000 0.0000 0.0000
# 3 81.1978 38.6327 128.1278 0.0000 0.0000 0.0000
# 4 0.0000 0.0000 0.0000 24.2570 0.0000 0.0000
# 5 0.0000 0.0000 0.0000 0.0000 21.9313 0.0000
# 6 0.0000 0.0000 0.0000 0.0000 0.0000 22.6859
#
#
#
# Elastic Compliance Matrix: (Units=1/GPa)
#
#
# Indices 1 2 3 4 5 6 
#
# 1 0.010633 -0.003627 -0.005645 0.000000 0.000000 0.000000
# 2 -0.003627 0.026110 -0.005574 0.000000 0.000000 0.000000
# 3 -0.005645 -0.005574 0.013062 0.000000 0.000000 0.000000
# 4 0.000000 0.000000 0.000000 0.041225 0.000000 0.000000
# 5 0.000000 0.000000 0.000000 0.000000 0.045597 0.000000
# 6 0.000000 0.000000 0.000000 0.000000 0.000000 0.044080
#
#
# Mechanical properties :
#
#
# Convention : Reuss Voigt Hill
#
# Bulk Modulus (GPa) = 49.71757 71.80250 60.76004
# Shear Modulus (GPa) = 23.03059 25.25079 24.14069
#
# Velocity S-wave (km/s) = 3.49245 3.65692 3.57563
# Velocity P-wave (km/s) = 6.52640 7.47382 7.01612
#
# Compressibility (1/GPa) = 0.02011361
#
# Stress axis : x y z
#
# Youngs Moduli (GPa) = 94.04989 38.30012 76.55532
#
# Poissons Ratio (x) = 0.13892 0.43212
# Poissons Ratio (y) = 0.34112 0.42671
# Poissons Ratio (z) = 0.53087 0.21348
#
# Static dielectric constant tensor:
#      x y z
#    x 1.623100 0.000000 0.000000 
#    y 0.000000 1.658790 0.000000 
#    z 0.000000 0.000000 1.673210 
# 
# From -- ./inp_files/15058.got.cif
#   From: 2010.05.17/outbox.cif.g08.bks.cpg/sg48_8_cif.got.tgz:15058.got - 2010.06.03 20:39:00.
