data_PCOD9390324
_publ_section_title
;
Structure prediction by ZEFSAII (Michael W. Deem and Ramdas Pophale) SiO2 
 PCOD9390324
Probable space group: P N N N
;
_chemical_formula_sum "Si O2"
_cell_formula_units_Z 26
_cell_length_a 14.293819
_cell_length_b 13.636452
_cell_length_c 5.002970
_cell_angle_alpha 90.000000
_cell_angle_beta 90.000000
_cell_angle_gamma 90.000000
_cell_volume 975.163787
_symmetry_space_group_name_H-M "P N N N"
_symmetry_group_IT_number 48
_space_group.IT_coordinate_system_code '2'
_symmetry_cell_setting 'orthorhombic'
loop_
_space_group_symop_operation_xyz
x,y,z
1/2-x,1/2-y,z
x,1/2-y,1/2-z
1/2-x,y,1/2-z
-x,-y,-z
1/2+x,1/2+y,-z
-x,1/2+y,1/2+z
1/2+x,-y,1/2+z
loop_
_atom_site_type_symbol
_atom_site_label
_atom_site_fract_x
_atom_site_fract_y
_atom_site_fract_z
Si Si1 0.619086 0.150040 0.104768
Si Si2 0.250000 0.750000 0.250000
Si Si3 0.605795 0.653639 0.573410
Si Si4 0.608686 0.966522 0.443126
O O1 0.648012 0.250000 0.250000
O O2 0.507675 0.151330 0.071211
O O3 0.646694 0.058225 0.281408
O O4 0.672681 0.167237 0.834691
O O5 0.631747 0.750000 0.750000
O O6 0.374961 0.374610 0.735752
O O7 0.640851 0.566445 0.765687
O O8 0.500000 0.000000 0.500000
#
# Coordination Sequence:
#
# PCOD9390324 Si02
#       4
#     8   2   8   8
#     4  10  23  36  54  82 126 165 204 244 309 384
#     4  12  26  36  56  82 134 176 210 244 316 392
#     4  10  21  36  63  88 122 155 202 265 323 369
#     4  10  20  36  60  87 118 162 201 255 316 373
#
# _framework density 26.662184
#
# number of rings (size 3 to 8) (size 9 to 14) (size 15 to 20)
#    0.000    1.846    0.000    5.077   17.231    0.000 
#    0.000    0.000    0.000    0.000    0.000    1.077 
#    0.000    0.000    0.000    0.000    0.000    0.000 
#
# Total GULP energy -144941.881815 kJ/mol
# GULP energy per Si atom -5574.687762 kJ/mol
# Density = 2.660150 g / cm^3
# Si number density = 26.662184 Si / 1000 Ang^3
#
#
#
# Elastic Constant Matrix: (Units=GPa)
#
#
# Indices 1 2 3 4 5 6 
#
# 1 93.9272 22.2674 -1.5492 0.0000 0.0000 0.0000
# 2 22.2674 129.7356 35.1506 0.0000 0.0000 0.0000
# 3 -1.5492 35.1506 139.8444 0.0000 0.0000 0.0000
# 4 0.0000 0.0000 0.0000 163.2693 0.0000 0.0000
# 5 0.0000 0.0000 0.0000 0.0000 19.4837 0.0000
# 6 0.0000 0.0000 0.0000 0.0000 0.0000 -13.0951
#
#
#
# Elastic Compliance Matrix: (Units=1/GPa)
#
#
# Indices 1 2 3 4 5 6 
#
# 1 0.011153 -0.002090 0.000649 0.000000 0.000000 0.000000
# 2 -0.002090 0.008663 -0.002201 0.000000 0.000000 0.000000
# 3 0.000649 -0.002201 0.007711 0.000000 0.000000 0.000000
# 4 0.000000 0.000000 0.000000 0.006125 0.000000 0.000000
# 5 0.000000 0.000000 0.000000 0.000000 0.051325 0.000000
# 6 0.000000 0.000000 0.000000 0.000000 0.000000 -0.076364
#
#
# Mechanical properties :
#
#
# Convention : Reuss Voigt Hill
#
# Bulk Modulus (GPa) = 49.39910 52.80496 51.10203
# Shear Modulus (GPa) = 220.81180 54.44081 137.62631
#
# Velocity S-wave (km/s) = 9.11033 4.52361 7.19240
# Velocity P-wave (km/s) = 11.36803 6.86529 9.39054
#
# Compressibility (1/GPa) = 0.02024328
#
# Stress axis : x y z
#
# Youngs Moduli (GPa) = 89.66412 115.43411 129.68267
#
# Poissons Ratio (x) = 0.24126 -0.08415
# Poissons Ratio (y) = 0.18740 0.28538
# Poissons Ratio (z) = -0.05818 0.25403
#
# Static dielectric constant tensor:
#      x y z
#    x 2.060200 0.000000 0.000000 
#    y 0.000000 2.170610 0.000000 
#    z 0.000000 0.000000 2.643930 
# 
# From -- ./inp_files/4786.got.cif
#   From: 2010.05.17/outbox.cif.g08.bks.cpg/sg48_3_cif.got.tgz:4786.got - 2010.06.03 20:39:00.
