data_PCOD9390272
_publ_section_title
;
Structure prediction by ZEFSAII (Michael W. Deem and Ramdas Pophale) SiO2 
 PCOD9390272
Probable space group: P N N N
;
_chemical_formula_sum "Si O2"
_cell_formula_units_Z 48
_cell_length_a 16.161585
_cell_length_b 13.371840
_cell_length_c 12.296015
_cell_angle_alpha 90.000000
_cell_angle_beta 90.000000
_cell_angle_gamma 90.000000
_cell_volume 2657.293385
_symmetry_space_group_name_H-M "P N N N"
_symmetry_group_IT_number 48
_space_group.IT_coordinate_system_code '2'
_symmetry_cell_setting 'orthorhombic'
loop_
_space_group_symop_operation_xyz
x,y,z
1/2-x,1/2-y,z
x,1/2-y,1/2-z
1/2-x,y,1/2-z
-x,-y,-z
1/2+x,1/2+y,-z
-x,1/2+y,1/2+z
1/2+x,-y,1/2+z
loop_
_atom_site_type_symbol
_atom_site_label
_atom_site_fract_x
_atom_site_fract_y
_atom_site_fract_z
Si Si1 0.212946 0.855229 0.631901
Si Si2 0.203050 0.459711 0.017416
Si Si3 0.520775 0.359766 0.392782
Si Si4 0.608401 0.750000 0.250000
Si Si5 0.610373 0.750000 0.750000
Si Si6 0.032474 0.417056 0.886385
Si Si7 0.750000 0.750000 0.072296
Si Si8 0.250000 0.086594 0.250000
O O1 0.250000 0.750000 0.594829
O O2 0.250000 0.879467 0.750000
O O3 0.114205 0.841089 0.644742
O O4 0.234256 0.945534 0.550742
O O5 0.113025 0.442628 0.961533
O O6 0.242338 0.351060 0.995084
O O7 0.217637 0.474504 0.145331
O O8 0.451196 0.286433 0.345751
O O9 0.522935 0.360874 0.524409
O O10 0.499944 0.473669 0.354909
O O11 0.555921 0.846311 0.213467
O O12 0.670142 0.734609 0.148870
O O13 0.672175 0.840870 0.721523
#
# Coordination Sequence:
#
# PCOD9390272 Si02
#       8
#     8   8   8   4   4   8   4   4
#     4  10  22  40  63  85 108 151 202 246 287 340
#     4  10  20  35  57  84 121 151 191 235 293 352
#     4  10  20  36  59  79 113 149 190 231 288 351
#     4   9  18  30  52  84 115 142 190 238 291 342
#     4  11  20  34  55  86 112 148 191 232 278 347
#     4   9  19  36  56  82 110 153 185 230 300 351
#     4   9  18  29  52  88 118 147 181 246 298 334
#     4  11  22  34  55  88 120 153 190 233 286 360
#
# _framework density 18.063493000000001
#
# number of rings (size 3 to 8) (size 9 to 14) (size 15 to 20)
#    0.000    2.167    1.667    2.000    9.333    0.000 
#    0.000    2.083    0.000    3.000    0.000    0.000 
#    0.000    0.000    0.000    0.000    0.000    0.000 
#
# Total GULP energy -267283.484488 kJ/mol
# GULP energy per Si atom -5568.405927 kJ/mol
# Density = 1.802238 g / cm^3
# Si number density = 18.063493 Si / 1000 Ang^3
#
#
#
# Elastic Constant Matrix: (Units=GPa)
#
#
# Indices 1 2 3 4 5 6 
#
# 1 75.6864 27.3747 26.1554 0.0000 0.0000 0.0000
# 2 27.3747 111.2256 52.8235 0.0000 0.0000 0.0000
# 3 26.1554 52.8235 87.4402 0.0000 0.0000 0.0000
# 4 0.0000 0.0000 0.0000 -70.9904 0.0000 0.0000
# 5 0.0000 0.0000 0.0000 0.0000 18.2654 0.0000
# 6 0.0000 0.0000 0.0000 0.0000 0.0000 15.3998
#
#
#
# Elastic Compliance Matrix: (Units=1/GPa)
#
#
# Indices 1 2 3 4 5 6 
#
# 1 0.015112 -0.002205 -0.003188 0.000000 0.000000 0.000000
# 2 -0.002205 0.012930 -0.007151 0.000000 0.000000 0.000000
# 3 -0.003188 -0.007151 0.016710 0.000000 0.000000 0.000000
# 4 0.000000 0.000000 0.000000 -0.014086 0.000000 0.000000
# 5 0.000000 0.000000 0.000000 0.000000 0.054748 0.000000
# 6 0.000000 0.000000 0.000000 0.000000 0.000000 0.064936
#
#
# Mechanical properties :
#
#
# Convention : Reuss Voigt Hill
#
# Bulk Modulus (GPa) = 50.85840 54.11770 52.48805
# Shear Modulus (GPa) = 27.47356 3.73487 15.60422
#
# Velocity S-wave (km/s) = 3.90416 1.43949 2.94233
# Velocity P-wave (km/s) = 6.96705 5.72604 6.37681
#
# Compressibility (1/GPa) = 0.01966244
#
# Stress axis : x y z
#
# Youngs Moduli (GPa) = 66.17374 77.34045 59.84341
#
# Poissons Ratio (x) = 0.17055 0.19079
# Poissons Ratio (y) = 0.14592 0.42797
# Poissons Ratio (z) = 0.21097 0.55309
#
# Static dielectric constant tensor:
#      x y z
#    x 1.701330 0.000000 0.000000 
#    y 0.000000 1.640970 0.000000 
#    z 0.000000 0.000000 1.635630 
# 
# From -- ./inp_files/21302.got.cif
#   From: 2010.05.17/outbox.cif.g08.bks.cpg/sg48_11_cif.got.tgz:21302.got - 2010.06.03 20:39:00.
