data_PCOD9390320
_publ_section_title
;
Structure prediction by ZEFSAII (Michael W. Deem and Ramdas Pophale) SiO2 
 PCOD9390320
Probable space group: P N N N
;
_chemical_formula_sum "Si O2"
_cell_formula_units_Z 64
_cell_length_a 14.339868
_cell_length_b 24.608245
_cell_length_c 8.876321
_cell_angle_alpha 90.000000
_cell_angle_beta 90.000000
_cell_angle_gamma 90.000000
_cell_volume 3132.267145
_symmetry_space_group_name_H-M "P N N N"
_symmetry_group_IT_number 48
_space_group.IT_coordinate_system_code '2'
_symmetry_cell_setting 'orthorhombic'
loop_
_space_group_symop_operation_xyz
x,y,z
1/2-x,1/2-y,z
x,1/2-y,1/2-z
1/2-x,y,1/2-z
-x,-y,-z
1/2+x,1/2+y,-z
-x,1/2+y,1/2+z
1/2+x,-y,1/2+z
loop_
_atom_site_type_symbol
_atom_site_label
_atom_site_fract_x
_atom_site_fract_y
_atom_site_fract_z
Si Si1 0.395831 0.921883 0.608963
Si Si2 0.007647 0.298403 0.852467
Si Si3 0.932857 0.870427 0.068120
Si Si4 0.640302 0.762556 0.579033
Si Si5 0.918081 0.543017 0.963685
Si Si6 0.068909 0.623746 0.911930
Si Si7 0.354273 0.033071 0.716692
Si Si8 0.785161 0.448787 0.911185
O O1 0.474817 0.897263 0.502967
O O2 0.384443 0.879682 0.747406
O O3 0.303439 0.938251 0.517858
O O4 0.418996 0.981187 0.680964
O O5 0.965110 0.250000 0.750000
O O6 0.039067 0.342251 0.727184
O O7 0.093181 0.273192 0.947244
O O8 0.945228 0.323171 0.986795
O O9 0.862613 0.920561 0.093182
O O10 0.887835 0.824047 0.964265
O O11 0.750000 0.750000 0.575796
O O12 0.606909 0.750000 0.750000
O O13 0.884898 0.560386 0.128245
O O14 0.831550 0.509011 0.895590
O O15 0.000000 0.500000 0.000000
O O16 0.967714 0.594483 0.887660
O O17 0.132304 0.586154 0.017876
O O18 0.250000 0.013388 0.750000
O O19 0.750000 0.430414 0.750000
#
# Coordination Sequence:
#
# PCOD9390320 Si02
#       8
#     8   8   8   8   8   8   8   8
#     4  12  23  40  62  94 136 177 225 265 329 407
#     4  10  22  40  66  94 123 158 214 272 336 393
#     4  11  25  37  65  96 124 177 215 275 334 394
#     4  10  23  45  68  94 129 165 223 283 343 398
#     4  10  20  36  59  84 127 174 215 262 320 373
#     4  11  21  40  65  89 127 177 220 271 335 391
#     4  12  22  39  60  93 136 172 223 265 322 398
#     4  11  23  38  60  91 128 175 221 268 322 395
#
# _framework density 20.432485
#
# number of rings (size 3 to 8) (size 9 to 14) (size 15 to 20)
#    0.000    1.125    5.000    2.250    3.500    2.750 
#    0.000    0.000    0.000    8.625    0.000   18.375 
#    0.000    0.000    0.000    0.000    0.000    0.000 
#
# Total GULP energy -356687.941109 kJ/mol
# GULP energy per Si atom -5573.249080 kJ/mol
# Density = 2.038598 g / cm^3
# Si number density = 20.432485 Si / 1000 Ang^3
#
#
#
# Elastic Constant Matrix: (Units=GPa)
#
#
# Indices 1 2 3 4 5 6 
#
# 1 79.8685 28.8750 36.0512 0.0000 0.0000 0.0000
# 2 28.8750 72.1576 35.4866 0.0000 0.0000 0.0000
# 3 36.0512 35.4866 119.3804 0.0000 0.0000 0.0000
# 4 0.0000 0.0000 0.0000 39.4570 0.0000 0.0000
# 5 0.0000 0.0000 0.0000 0.0000 32.7610 0.0000
# 6 0.0000 0.0000 0.0000 0.0000 0.0000 17.6738
#
#
#
# Elastic Compliance Matrix: (Units=1/GPa)
#
#
# Indices 1 2 3 4 5 6 
#
# 1 0.015716 -0.004632 -0.003369 0.000000 0.000000 0.000000
# 2 -0.004632 0.017597 -0.003832 0.000000 0.000000 0.000000
# 3 -0.003369 -0.003832 0.010533 0.000000 0.000000 0.000000
# 4 0.000000 0.000000 0.000000 0.025344 0.000000 0.000000
# 5 0.000000 0.000000 0.000000 0.000000 0.030524 0.000000
# 6 0.000000 0.000000 0.000000 0.000000 0.000000 0.056581
#
#
# Mechanical properties :
#
#
# Convention : Reuss Voigt Hill
#
# Bulk Modulus (GPa) = 49.55516 52.47023 51.01270
# Shear Modulus (GPa) = 26.78274 29.37795 28.08034
#
# Velocity S-wave (km/s) = 3.62441 3.79595 3.71118
# Velocity P-wave (km/s) = 6.46691 6.70432 6.58669
#
# Compressibility (1/GPa) = 0.02017953
#
# Stress axis : x y z
#
# Youngs Moduli (GPa) = 63.62953 56.82900 94.93922
#
# Poissons Ratio (x) = 0.26324 0.31986
# Poissons Ratio (y) = 0.29474 0.36380
# Poissons Ratio (z) = 0.21437 0.21776
#
# Static dielectric constant tensor:
#      x y z
#    x 1.793050 0.000000 0.000000 
#    y 0.000000 1.770090 0.000000 
#    z 0.000000 0.000000 1.845360 
# 
# From -- ./inp_files/13280.got.cif
#   From: 2010.05.17/outbox.cif.g08.bks.cpg/sg48_7_cif.got.tgz:13280.got - 2010.06.03 20:39:00.
