data_PCOD9390310
_publ_section_title
;
Structure prediction by ZEFSAII (Michael W. Deem and Ramdas Pophale) SiO2 
 PCOD9390310
Probable space group: P N N N
;
_chemical_formula_sum "Si O2"
_cell_formula_units_Z 40
_cell_length_a 30.000328
_cell_length_b 12.848795
_cell_length_c 5.077589
_cell_angle_alpha 90.000000
_cell_angle_beta 90.000000
_cell_angle_gamma 90.000000
_cell_volume 1957.248404
_symmetry_space_group_name_H-M "P N N N"
_symmetry_group_IT_number 48
_space_group.IT_coordinate_system_code '2'
_symmetry_cell_setting 'orthorhombic'
loop_
_space_group_symop_operation_xyz
x,y,z
1/2-x,1/2-y,z
x,1/2-y,1/2-z
1/2-x,y,1/2-z
-x,-y,-z
1/2+x,1/2+y,-z
-x,1/2+y,1/2+z
1/2+x,-y,1/2+z
loop_
_atom_site_type_symbol
_atom_site_label
_atom_site_fract_x
_atom_site_fract_y
_atom_site_fract_z
Si Si1 0.541556 0.469055 0.249655
Si Si2 0.199109 0.127186 0.808168
Si Si3 0.091627 0.626861 0.252086
Si Si4 0.350914 0.446856 0.310423
Si Si5 0.450182 0.366590 0.350735
O O1 0.561892 0.409256 0.504521
O O2 0.490318 0.433770 0.223890
O O3 0.546638 0.590461 0.343853
O O4 0.569431 0.420965 0.012794
O O5 0.195564 0.250000 0.750000
O O6 0.250000 0.096440 0.750000
O O7 0.166279 0.072409 0.602988
O O8 0.183403 0.100121 0.101328
O O9 0.094375 0.750000 0.250000
O O10 0.138811 0.568250 0.228960
O O11 0.399300 0.392522 0.273973
O O12 0.458665 0.250000 0.250000
#
# Coordination Sequence:
#
# PCOD9390310 Si02
#       5
#     8   8   8   8   8
#     4  10  23  37  55  85 120 167 210 242 295 359
#     4  11  23  41  63  87 118 151 184 235 307 374
#     4  11  22  40  61  84 121 164 205 246 292 351
#     4  11  23  37  60  90 115 149 199 245 291 355
#     4  10  20  36  57  85 123 159 202 256 300 348
#
# _framework density 20.436855999999999
#
# number of rings (size 3 to 8) (size 9 to 14) (size 15 to 20)
#    0.000    1.400    0.000    6.600    0.000   10.400 
#    0.000   11.000    0.000    3.600    0.000    0.000 
#    0.000    0.000    0.000    0.000    0.000    0.000 
#
# Total GULP energy -223391.150402 kJ/mol
# GULP energy per Si atom -5584.778760 kJ/mol
# Density = 2.039034 g / cm^3
# Si number density = 20.436856 Si / 1000 Ang^3
#
#
#
# Elastic Constant Matrix: (Units=GPa)
#
#
# Indices 1 2 3 4 5 6 
#
# 1 74.2285 14.6187 -6.9221 0.0000 0.0000 0.0000
# 2 14.6187 138.7581 20.3958 0.0000 0.0000 0.0000
# 3 -6.9221 20.3958 83.5652 0.0000 0.0000 0.0000
# 4 0.0000 0.0000 0.0000 26.8932 0.0000 0.0000
# 5 0.0000 0.0000 0.0000 0.0000 31.2929 0.0000
# 6 0.0000 0.0000 0.0000 0.0000 0.0000 20.7545
#
#
#
# Elastic Compliance Matrix: (Units=1/GPa)
#
#
# Indices 1 2 3 4 5 6 
#
# 1 0.013953 -0.001701 0.001571 0.000000 0.000000 0.000000
# 2 -0.001701 0.007682 -0.002016 0.000000 0.000000 0.000000
# 3 0.001571 -0.002016 0.012589 0.000000 0.000000 0.000000
# 4 0.000000 0.000000 0.000000 0.037184 0.000000 0.000000
# 5 0.000000 0.000000 0.000000 0.000000 0.031956 0.000000
# 6 0.000000 0.000000 0.000000 0.000000 0.000000 0.048182
#
#
# Mechanical properties :
#
#
# Convention : Reuss Voigt Hill
#
# Bulk Modulus (GPa) = 33.40820 39.19295 36.30057
# Shear Modulus (GPa) = 30.15382 33.68542 31.91962
#
# Velocity S-wave (km/s) = 3.84534 4.06429 3.95633
# Velocity P-wave (km/s) = 6.00817 6.42214 6.21860
#
# Compressibility (1/GPa) = 0.02993277
#
# Stress axis : x y z
#
# Youngs Moduli (GPa) = 71.66709 130.16931 79.43533
#
# Poissons Ratio (x) = 0.22141 -0.12479
# Poissons Ratio (y) = 0.12190 0.16014
# Poissons Ratio (z) = -0.11259 0.26241
#
# Static dielectric constant tensor:
#      x y z
#    x 1.718520 0.000000 0.000000 
#    y 0.000000 1.760680 0.000000 
#    z 0.000000 0.000000 1.836370 
# 
# From -- ./inp_files/6290.got.cif
#   From: 2010.05.17/outbox.cif.g08.bks.cpg/sg48_4_cif.got.tgz:6290.got - 2010.06.03 20:39:00.
