data_PCOD9390335
_publ_section_title
;
Structure prediction by ZEFSAII (Michael W. Deem and Ramdas Pophale) SiO2 
 PCOD9390335
Probable space group: P N N N
;
_chemical_formula_sum "Si O2"
_cell_formula_units_Z 44
_cell_length_a 33.506024
_cell_length_b 7.730908
_cell_length_c 7.319236
_cell_angle_alpha 90.000000
_cell_angle_beta 90.000000
_cell_angle_gamma 90.000000
_cell_volume 1895.916259
_symmetry_space_group_name_H-M "P N N N"
_symmetry_group_IT_number 48
_space_group.IT_coordinate_system_code '2'
_symmetry_cell_setting 'orthorhombic'
loop_
_space_group_symop_operation_xyz
x,y,z
1/2-x,1/2-y,z
x,1/2-y,1/2-z
1/2-x,y,1/2-z
-x,-y,-z
1/2+x,1/2+y,-z
-x,1/2+y,1/2+z
1/2+x,-y,1/2+z
loop_
_atom_site_type_symbol
_atom_site_label
_atom_site_fract_x
_atom_site_fract_y
_atom_site_fract_z
Si Si1 0.295279 0.224295 0.027120
Si Si2 0.441381 0.126223 0.478999
Si Si3 0.491649 0.750000 0.750000
Si Si4 0.645528 0.477242 0.926129
Si Si5 0.654915 0.405008 0.493039
Si Si6 0.933025 0.998771 0.386379
O O1 0.250000 0.250000 0.965771
O O2 0.293759 0.250000 0.250000
O O3 0.329117 0.367206 0.986542
O O4 0.310649 0.041619 0.947701
O O5 0.479599 0.111895 0.350342
O O6 0.435546 0.334543 0.481794
O O7 0.401028 0.027258 0.427246
O O8 0.445385 0.068941 0.687493
O O9 0.463153 0.660389 0.596981
O O10 0.652337 0.444762 0.710936
O O11 0.659093 0.300541 0.023608
O O12 0.612927 0.446526 0.396981
#
# Coordination Sequence:
#
# PCOD9390335 Si02
#       6
#     8   8   4   8   8   8
#     4   9  18  34  59  92 127 160 202 255 308 375
#     4  11  23  39  61  85 121 166 204 262 320 369
#     4  12  24  40  60  88 123 163 220 268 308 382
#     4  10  20  36  61  89 122 166 207 250 315 377
#     4  10  20  36  61  89 123 165 204 254 315 374
#     4  11  23  39  59  87 120 160 208 261 319 369
#
# _framework density 23.207777
#
# number of rings (size 3 to 8) (size 9 to 14) (size 15 to 20)
#    0.000    1.636    1.818    3.273    1.273    0.727 
#    0.000    7.273    0.000    2.182    0.000    2.545 
#    0.000    0.000    0.000    0.000    0.000    0.000 
#
# Total GULP energy -245531.904794 kJ/mol
# GULP energy per Si atom -5580.270564 kJ/mol
# Density = 2.315495 g / cm^3
# Si number density = 23.207777 Si / 1000 Ang^3
#
#
#
# Elastic Constant Matrix: (Units=GPa)
#
#
# Indices 1 2 3 4 5 6 
#
# 1 169.9624 76.0351 5.2775 0.0000 0.0000 0.0000
# 2 76.0351 123.0118 1.9864 0.0000 0.0000 0.0000
# 3 5.2775 1.9864 41.9829 0.0000 0.0000 0.0000
# 4 0.0000 0.0000 0.0000 20.6075 0.0000 0.0000
# 5 0.0000 0.0000 0.0000 0.0000 -11.2831 0.0000
# 6 0.0000 0.0000 0.0000 0.0000 0.0000 13.3792
#
#
#
# Elastic Compliance Matrix: (Units=1/GPa)
#
#
# Indices 1 2 3 4 5 6 
#
# 1 0.008158 -0.005030 -0.000788 0.000000 0.000000 0.000000
# 2 -0.005030 0.011237 0.000101 0.000000 0.000000 0.000000
# 3 -0.000788 0.000101 0.023913 0.000000 0.000000 0.000000
# 4 0.000000 0.000000 0.000000 0.048526 0.000000 0.000000
# 5 0.000000 0.000000 0.000000 0.000000 -0.088628 0.000000
# 6 0.000000 0.000000 0.000000 0.000000 0.000000 0.074743
#
#
# Mechanical properties :
#
#
# Convention : Reuss Voigt Hill
#
# Bulk Modulus (GPa) = 31.37284 55.72835 43.55059
# Shear Modulus (GPa) = 49.99576 21.31792 35.65684
#
# Velocity S-wave (km/s) = 4.64644 3.03408 3.92397
# Velocity P-wave (km/s) = 6.50642 6.02819 6.27187
#
# Compressibility (1/GPa) = 0.03187470
#
# Stress axis : x y z
#
# Youngs Moduli (GPa) = 122.57323 88.99308 41.81743
#
# Poissons Ratio (x) = 0.44764 0.03293
# Poissons Ratio (y) = 0.61655 -0.00421
# Poissons Ratio (z) = 0.09654 -0.00896
#
# Static dielectric constant tensor:
#      x y z
#    x 1.838840 0.000000 0.000000 
#    y 0.000000 1.999280 0.000000 
#    z 0.000000 0.000000 1.950540 
# 
# From -- ./inp_files/16710.got.cif
#   From: 2010.05.17/outbox.cif.g08.bks.cpg/sg48_9_cif.got.tgz:16710.got - 2010.06.03 20:39:00.
