data_PCOD9390826
_publ_section_title
;
Structure prediction by ZEFSAII (Michael W. Deem and Ramdas Pophale) SiO2 
 PCOD9390826
Probable space group: P N N N
;
_chemical_formula_sum "Si O2"
_cell_formula_units_Z 48
_cell_length_a 5.972591
_cell_length_b 26.434385
_cell_length_c 12.118764
_cell_angle_alpha 90.000000
_cell_angle_beta 90.000000
_cell_angle_gamma 90.000000
_cell_volume 1913.331910
_symmetry_space_group_name_H-M "P N N N"
_symmetry_group_IT_number 48
_space_group.IT_coordinate_system_code '2'
_symmetry_cell_setting 'orthorhombic'
loop_
_space_group_symop_operation_xyz
x,y,z
1/2-x,1/2-y,z
x,1/2-y,1/2-z
1/2-x,y,1/2-z
-x,-y,-z
1/2+x,1/2+y,-z
-x,1/2+y,1/2+z
1/2+x,-y,1/2+z
loop_
_atom_site_type_symbol
_atom_site_label
_atom_site_fract_x
_atom_site_fract_y
_atom_site_fract_z
Si Si1 0.750000 0.250000 0.932341
Si Si2 0.642691 0.342646 0.072819
Si Si3 0.750000 0.966703 0.250000
Si Si4 0.385922 0.918121 0.363683
Si Si5 0.354042 0.194392 0.864993
Si Si6 0.116987 0.483014 0.109566
Si Si7 0.654194 0.636019 0.595265
O O1 0.624591 0.287852 0.015580
O O2 0.610777 0.211164 0.858696
O O3 0.648269 0.383615 0.970962
O O4 0.406052 0.348616 0.138833
O O5 0.894252 0.347827 0.126145
O O6 0.560172 0.002632 0.202964
O O7 0.644468 0.928349 0.338093
O O8 0.250000 0.902412 0.250000
O O9 0.309467 0.975568 0.385036
O O10 0.250000 0.250000 0.886254
O O11 0.250000 0.176712 0.750000
O O12 0.333671 0.158355 0.969992
O O13 0.165520 0.424284 0.107445
O O14 0.000000 0.500000 0.000000
#
# Coordination Sequence:
#
# PCOD9390826 Si02
#       7
#     4   8   4   8   8   8   8
#     4  10  22  41  54  82 128 169 218 272 314 381
#     4  11  23  39  61  88 124 173 218 264 324 385
#     4  10  24  42  64  90 135 173 230 280 350 406
#     4  10  23  40  59  91 125 171 221 272 328 395
#     4  10  21  40  56  84 128 173 217 264 317 383
#     4  11  22  42  64  92 127 174 222 287 335 405
#     4  11  24  39  62  89 120 171 218 271 327 388
#
# _framework density 25.087128
#
# number of rings (size 3 to 8) (size 9 to 14) (size 15 to 20)
#    0.000    1.500    3.333    1.000    4.667    5.333 
#    3.000    0.000    0.000    0.000    0.000    0.000 
#    0.000   50.000    0.000    0.000    0.000    1.000 
#
# Total GULP energy -267744.781975 kJ/mol
# GULP energy per Si atom -5578.016291 kJ/mol
# Density = 2.503003 g / cm^3
# Si number density = 25.087128 Si / 1000 Ang^3
#
#
#
# Elastic Constant Matrix: (Units=GPa)
#
#
# Indices 1 2 3 4 5 6 
#
# 1 157.6332 36.7568 27.6303 0.0000 0.0000 0.0000
# 2 36.7568 131.5062 18.2271 0.0000 0.0000 0.0000
# 3 27.6303 18.2271 56.3581 0.0000 0.0000 0.0000
# 4 0.0000 0.0000 0.0000 30.5784 0.0000 0.0000
# 5 0.0000 0.0000 0.0000 0.0000 30.8596 0.0000
# 6 0.0000 0.0000 0.0000 0.0000 0.0000 36.3910
#
#
#
# Elastic Compliance Matrix: (Units=1/GPa)
#
#
# Indices 1 2 3 4 5 6 
#
# 1 0.007250 -0.001606 -0.003035 0.000000 0.000000 0.000000
# 2 -0.001606 0.008317 -0.001902 0.000000 0.000000 0.000000
# 3 -0.003035 -0.001902 0.019847 0.000000 0.000000 0.000000
# 4 0.000000 0.000000 0.000000 0.032703 0.000000 0.000000
# 5 0.000000 0.000000 0.000000 0.000000 0.032405 0.000000
# 6 0.000000 0.000000 0.000000 0.000000 0.000000 0.027479
#
#
# Mechanical properties :
#
#
# Convention : Reuss Voigt Hill
#
# Bulk Modulus (GPa) = 44.78879 56.74734 50.76806
# Shear Modulus (GPa) = 33.66315 37.09136 35.37726
#
# Velocity S-wave (km/s) = 3.66710 3.84930 3.75930
# Velocity P-wave (km/s) = 5.98517 6.51348 6.25490
#
# Compressibility (1/GPa) = 0.02232702
#
# Stress axis : x y z
#
# Youngs Moduli (GPa) = 137.92523 120.23956 50.38539
#
# Poissons Ratio (x) = 0.19308 0.15293
# Poissons Ratio (y) = 0.22148 0.09586
# Poissons Ratio (z) = 0.41863 0.22875
#
# Static dielectric constant tensor:
#      x y z
#    x 3.338170 0.000000 0.000000 
#    y 0.000000 1.980610 0.000000 
#    z 0.000000 0.000000 1.948430 
# 
# From -- ./inp_files/6487.got.cif
#   From: 2010.05.17/outbox.cif.g08.bks.cpg/sg48_4_cif.got.tgz:6487.got - 2010.06.03 20:39:00.
