data_PCOD9390372
_publ_section_title
;
Structure prediction by ZEFSAII (Michael W. Deem and Ramdas Pophale) SiO2 
 PCOD9390372
Probable space group: P N N N
;
_chemical_formula_sum "Si O2"
_cell_formula_units_Z 64
_cell_length_a 9.546071
_cell_length_b 32.379119
_cell_length_c 10.711755
_cell_angle_alpha 90.000000
_cell_angle_beta 90.000000
_cell_angle_gamma 90.000000
_cell_volume 3310.932440
_symmetry_space_group_name_H-M "P N N N"
_symmetry_group_IT_number 48
_space_group.IT_coordinate_system_code '2'
_symmetry_cell_setting 'orthorhombic'
loop_
_space_group_symop_operation_xyz
x,y,z
1/2-x,1/2-y,z
x,1/2-y,1/2-z
1/2-x,y,1/2-z
-x,-y,-z
1/2+x,1/2+y,-z
-x,1/2+y,1/2+z
1/2+x,-y,1/2+z
loop_
_atom_site_type_symbol
_atom_site_label
_atom_site_fract_x
_atom_site_fract_y
_atom_site_fract_z
Si Si1 0.734459 0.898992 0.603528
Si Si2 0.775725 0.797722 0.115889
Si Si3 0.922846 0.016351 0.626660
Si Si4 0.234684 0.798504 0.601432
Si Si5 0.029513 0.345675 0.995730
Si Si6 0.880161 0.511632 0.598873
Si Si7 0.490199 0.652339 0.018732
Si Si8 0.583694 0.105128 0.765901
O O1 0.750000 0.899858 0.750000
O O2 0.885786 0.884734 0.551984
O O3 0.684987 0.944233 0.562586
O O4 0.606636 0.868432 0.569523
O O5 0.750000 0.750000 0.124829
O O6 0.750000 0.818438 0.250000
O O7 0.930884 0.808178 0.075628
O O8 0.658481 0.815176 0.026045
O O9 0.968329 0.061372 0.678037
O O10 0.755963 0.018174 0.595962
O O11 0.932026 0.988794 0.755211
O O12 0.000000 0.000000 0.500000
O O13 0.250000 0.750000 0.558160
O O14 0.250000 0.797521 0.750000
O O15 0.351811 0.829404 0.544058
O O16 0.087471 0.820574 0.570378
O O17 0.959666 0.360615 0.867070
O O18 0.000000 0.500000 0.500000
O O19 0.468984 0.619490 0.130294
O O20 0.750000 0.103001 0.750000
#
# Coordination Sequence:
#
# PCOD9390372 Si02
#       8
#     8   8   8   8   8   8   8   8
#     4  11  23  41  65  92 128 167 218 272 318 390
#     4  10  20  37  59  91 129 163 206 262 321 385
#     4  11  24  44  67  94 132 171 213 272 335 402
#     4  11  24  43  64  93 133 177 224 271 322 395
#     4  11  23  39  64  95 126 168 218 262 330 385
#     4  11  23  43  65  94 128 169 218 274 330 396
#     4  11  23  40  65  97 129 171 218 267 331 384
#     4  12  22  40  65  94 131 166 210 270 330 394
#
# _framework density 19.329902000000001
#
# number of rings (size 3 to 8) (size 9 to 14) (size 15 to 20)
#    0.000    1.000    5.000    3.000    0.000    0.500 
#    0.000    3.125    0.000    6.000    0.000    0.000 
#    0.000    0.000    0.000    0.000    0.000    0.000 
#
# Total GULP energy -356652.884848 kJ/mol
# GULP energy per Si atom -5572.701326 kJ/mol
# Density = 1.928591 g / cm^3
# Si number density = 19.329902 Si / 1000 Ang^3
#
#
#
# Elastic Constant Matrix: (Units=GPa)
#
#
# Indices 1 2 3 4 5 6 
#
# 1 124.7989 38.9084 62.8308 0.0000 0.0000 0.0000
# 2 38.9084 101.6338 36.0299 0.0000 0.0000 0.0000
# 3 62.8308 36.0299 100.5883 0.0000 0.0000 0.0000
# 4 0.0000 0.0000 0.0000 17.5574 0.0000 0.0000
# 5 0.0000 0.0000 0.0000 0.0000 23.9932 0.0000
# 6 0.0000 0.0000 0.0000 0.0000 0.0000 28.0036
#
#
#
# Elastic Compliance Matrix: (Units=1/GPa)
#
#
# Indices 1 2 3 4 5 6 
#
# 1 0.012118 -0.002240 -0.006767 0.000000 0.000000 0.000000
# 2 -0.002240 0.011685 -0.002786 0.000000 0.000000 0.000000
# 3 -0.006767 -0.002786 0.015166 0.000000 0.000000 0.000000
# 4 0.000000 0.000000 0.000000 0.056956 0.000000 0.000000
# 5 0.000000 0.000000 0.000000 0.000000 0.041679 0.000000
# 6 0.000000 0.000000 0.000000 0.000000 0.000000 0.035710
#
#
# Mechanical properties :
#
#
# Convention : Reuss Voigt Hill
#
# Bulk Modulus (GPa) = 65.00844 66.95103 65.97973
# Shear Modulus (GPa) = 24.74913 26.52763 25.63838
#
# Velocity S-wave (km/s) = 3.58209 3.70856 3.64587
# Velocity P-wave (km/s) = 7.12829 7.28348 7.20630
#
# Compressibility (1/GPa) = 0.01538262
#
# Stress axis : x y z
#
# Youngs Moduli (GPa) = 82.52033 85.58329 65.93555
#
# Poissons Ratio (x) = 0.19173 0.44619
# Poissons Ratio (y) = 0.18487 0.18369
# Poissons Ratio (z) = 0.55842 0.23843
#
# Static dielectric constant tensor:
#      x y z
#    x 1.690330 0.000000 0.000000 
#    y 0.000000 1.853820 0.000000 
#    z 0.000000 0.000000 1.720660 
# 
# From -- ./inp_files/19062.got.cif
#   From: 2010.05.17/outbox.cif.g08.bks.cpg/sg48_10_cif.got.tgz:19062.got - 2010.06.03 20:39:00.
