data_PCOD9390838
_publ_section_title
;
Structure prediction by ZEFSAII (Michael W. Deem and Ramdas Pophale) SiO2 
 PCOD9390838
Probable space group: P N N N
;
_chemical_formula_sum "Si O2"
_cell_formula_units_Z 36
_cell_length_a 13.697300
_cell_length_b 8.722984
_cell_length_c 15.183097
_cell_angle_alpha 90.000000
_cell_angle_beta 90.000000
_cell_angle_gamma 90.000000
_cell_volume 1814.096604
_symmetry_space_group_name_H-M "P N N N"
_symmetry_group_IT_number 48
_space_group.IT_coordinate_system_code '2'
_symmetry_cell_setting 'orthorhombic'
loop_
_space_group_symop_operation_xyz
x,y,z
1/2-x,1/2-y,z
x,1/2-y,1/2-z
1/2-x,y,1/2-z
-x,-y,-z
1/2+x,1/2+y,-z
-x,1/2+y,1/2+z
1/2+x,-y,1/2+z
loop_
_atom_site_type_symbol
_atom_site_label
_atom_site_fract_x
_atom_site_fract_y
_atom_site_fract_z
Si Si1 0.639842 0.782225 0.916776
Si Si2 0.090984 0.343425 0.607076
Si Si3 0.019002 0.615784 0.697760
Si Si4 0.926082 0.092831 0.651824
Si Si5 0.750000 0.750000 0.250000
Si Si6 0.750000 0.250000 0.750000
O O1 0.750000 0.750000 0.888401
O O2 0.572106 0.700644 0.845416
O O3 0.603250 0.959323 0.917276
O O4 0.628714 0.706059 0.012152
O O5 0.174203 0.326811 0.681854
O O6 0.064811 0.521609 0.617573
O O7 0.996785 0.232216 0.623065
O O8 0.076522 0.750000 0.750000
O O9 0.984657 0.491361 0.769316
O O10 0.823842 0.153140 0.689916
#
# Coordination Sequence:
#
# PCOD9390838 Si02
#       6
#     8   8   8   8   2   2
#     4  11  24  38  63  96 128 167 215 267 322 387
#     4  12  22  44  64  91 127 172 215 265 318 385
#     4  10  21  40  63  89 126 164 204 264 331 376
#     4  11  22  38  65  91 127 168 213 262 330 384
#     4  12  22  40  74  82 118 176 228 236 324 398
#     4  12  18  36  66  90 128 162 216 268 320 390
#
# _framework density 19.844588999999999
#
# number of rings (size 3 to 8) (size 9 to 14) (size 15 to 20)
#    0.000    0.889    5.556    2.667    0.000    3.111 
#    0.000    0.556    0.000    2.667    0.000    0.000 
#    0.000    0.000    0.000    0.000    0.000    0.000 
#
# Total GULP energy -200676.270050 kJ/mol
# GULP energy per Si atom -5574.340835 kJ/mol
# Density = 1.979942 g / cm^3
# Si number density = 19.844589 Si / 1000 Ang^3
#
#
#
# Elastic Constant Matrix: (Units=GPa)
#
#
# Indices 1 2 3 4 5 6 
#
# 1 80.8313 27.0331 -3.7275 0.0000 0.0000 0.0000
# 2 27.0331 99.1117 19.6048 0.0000 0.0000 0.0000
# 3 -3.7275 19.6048 70.1359 0.0000 0.0000 0.0000
# 4 0.0000 0.0000 0.0000 19.2616 0.0000 0.0000
# 5 0.0000 0.0000 0.0000 0.0000 16.0989 0.0000
# 6 0.0000 0.0000 0.0000 0.0000 0.0000 -4.6712
#
#
#
# Elastic Compliance Matrix: (Units=1/GPa)
#
#
# Indices 1 2 3 4 5 6 
#
# 1 0.013848 -0.004152 0.001897 0.000000 0.000000 0.000000
# 2 -0.004152 0.011925 -0.003554 0.000000 0.000000 0.000000
# 3 0.001897 -0.003554 0.015352 0.000000 0.000000 0.000000
# 4 0.000000 0.000000 0.000000 0.051917 0.000000 0.000000
# 5 0.000000 0.000000 0.000000 0.000000 0.062116 0.000000
# 6 0.000000 0.000000 0.000000 0.000000 0.000000 -0.214079
#
#
# Mechanical properties :
#
#
# Convention : Reuss Voigt Hill
#
# Bulk Modulus (GPa) = 33.89171 37.32221 35.60696
# Shear Modulus (GPa) = -133.45262 19.94910 -56.75176
#
# Velocity S-wave (km/s) = -8.20944 3.17403 -5.35352
# Velocity P-wave (km/s) = 8.52902 5.68161 4.49797
#
# Compressibility (1/GPa) = 0.02950574
#
# Stress axis : x y z
#
# Youngs Moduli (GPa) = 72.21508 83.85647 65.13690
#
# Poissons Ratio (x) = 0.34818 -0.12354
# Poissons Ratio (y) = 0.29985 0.23150
# Poissons Ratio (z) = -0.13696 0.29803
#
# Static dielectric constant tensor:
#      x y z
#    x 1.691710 0.000000 0.000000 
#    y 0.000000 1.795430 0.000000 
#    z 0.000000 0.000000 1.699640 
# 
# From -- ./inp_files/12245.got.cif
#   From: 2010.05.17/outbox.cif.g08.bks.cpg/sg48_7_cif.got.tgz:12245.got - 2010.06.03 20:39:00.
