data_PCOD9390998
_publ_section_title
;
Structure prediction by ZEFSAII (Michael W. Deem and Ramdas Pophale) SiO2 
 PCOD9390998
Probable space group: P N N N
;
_chemical_formula_sum "Si O2"
_cell_formula_units_Z 34
_cell_length_a 9.287464
_cell_length_b 8.298715
_cell_length_c 22.753402
_cell_angle_alpha 90.000000
_cell_angle_beta 90.000000
_cell_angle_gamma 90.000000
_cell_volume 1753.696088
_symmetry_space_group_name_H-M "P N N N"
_symmetry_group_IT_number 48
_space_group.IT_coordinate_system_code '2'
_symmetry_cell_setting 'orthorhombic'
loop_
_space_group_symop_operation_xyz
x,y,z
1/2-x,1/2-y,z
x,1/2-y,1/2-z
1/2-x,y,1/2-z
-x,-y,-z
1/2+x,1/2+y,-z
-x,1/2+y,1/2+z
1/2+x,-y,1/2+z
loop_
_atom_site_type_symbol
_atom_site_label
_atom_site_fract_x
_atom_site_fract_y
_atom_site_fract_z
Si Si1 0.525767 0.665473 0.691898
Si Si2 0.917831 0.720201 0.450061
Si Si3 0.250000 0.750000 0.750000
Si Si4 0.070510 0.105762 0.080176
Si Si5 0.841583 0.090647 0.616529
O O1 0.587951 0.750000 0.750000
O O2 0.357863 0.647415 0.709482
O O3 0.541458 0.785320 0.636764
O O4 0.600493 0.501407 0.673402
O O5 0.750000 0.750000 0.439443
O O6 0.945111 0.702928 0.519774
O O7 0.964978 0.547896 0.422962
O O8 0.023317 0.854036 0.422746
O O9 0.230851 0.030054 0.084116
O O10 0.750000 0.250000 0.630358
#
# Coordination Sequence:
#
# PCOD9390998 Si02
#       5
#     8   8   2   8   8
#     4  10  22  41  65  86 123 159 214 252 313 375
#     4  10  22  37  61  91 126 165 204 258 314 371
#     4   8  24  40  62 102 112 164 212 260 306 376
#     4  10  22  40  59  92 125 163 208 254 317 376
#     4  10  22  41  62  93 126 161 209 258 315 377
#
# _framework density 19.387623000000001
#
# number of rings (size 3 to 8) (size 9 to 14) (size 15 to 20)
#    0.706    1.412    0.000    2.118    3.294    5.647 
#    6.353    8.235    0.000    7.059    0.000    0.000 
#    0.000    0.000    0.000    0.000    0.000    0.000 
#
# Total GULP energy -189737.033879 kJ/mol
# GULP energy per Si atom -5580.500996 kJ/mol
# Density = 1.934350 g / cm^3
# Si number density = 19.387623 Si / 1000 Ang^3
#
#
#
# Elastic Constant Matrix: (Units=GPa)
#
#
# Indices 1 2 3 4 5 6 
#
# 1 146.6428 41.8586 49.4442 0.0000 0.0000 0.0000
# 2 41.8586 68.8357 64.7239 0.0000 0.0000 0.0000
# 3 49.4442 64.7239 123.3176 0.0000 0.0000 0.0000
# 4 0.0000 0.0000 0.0000 28.9551 0.0000 0.0000
# 5 0.0000 0.0000 0.0000 0.0000 28.7817 0.0000
# 6 0.0000 0.0000 0.0000 0.0000 0.0000 13.3305
#
#
#
# Elastic Compliance Matrix: (Units=1/GPa)
#
#
# Indices 1 2 3 4 5 6 
#
# 1 0.008364 -0.003816 -0.001351 0.000000 0.000000 0.000000
# 2 -0.003816 0.030423 -0.014438 0.000000 0.000000 0.000000
# 3 -0.001351 -0.014438 0.016228 0.000000 0.000000 0.000000
# 4 0.000000 0.000000 0.000000 0.034536 0.000000 0.000000
# 5 0.000000 0.000000 0.000000 0.000000 0.034744 0.000000
# 6 0.000000 0.000000 0.000000 0.000000 0.000000 0.075016
#
#
# Mechanical properties :
#
#
# Convention : Reuss Voigt Hill
#
# Bulk Modulus (GPa) = 63.26456 72.31661 67.79059
# Shear Modulus (GPa) = 20.50944 26.39808 23.45376
#
# Velocity S-wave (km/s) = 3.25601 3.69398 3.48189
# Velocity P-wave (km/s) = 6.84381 7.45489 7.15588
#
# Compressibility (1/GPa) = 0.01580664
#
# Stress axis : x y z
#
# Youngs Moduli (GPa) = 119.56022 32.86964 61.62045
#
# Poissons Ratio (x) = 0.12544 0.08323
# Poissons Ratio (y) = 0.45626 0.88966
# Poissons Ratio (z) = 0.16148 0.47456
#
# Static dielectric constant tensor:
#      x y z
#    x 1.707670 0.000000 0.000000 
#    y 0.000000 1.683700 0.000000 
#    z 0.000000 0.000000 1.650400 
# 
# From -- ./inp_files/33231.got.cif
#   From: 2010.05.17/outbox.cif.g08.bks.cpg/sg48_17_cif.got.tgz:33231.got - 2010.06.03 20:39:00.
