data_PCOD9390458
_publ_section_title
;
Structure prediction by ZEFSAII (Michael W. Deem and Ramdas Pophale) SiO2 
 PCOD9390458
Probable space group: P N N N
;
_chemical_formula_sum "Si O2"
_cell_formula_units_Z 64
_cell_length_a 17.420047
_cell_length_b 15.283001
_cell_length_c 12.589651
_cell_angle_alpha 90.000000
_cell_angle_beta 90.000000
_cell_angle_gamma 90.000000
_cell_volume 3351.750286
_symmetry_space_group_name_H-M "P N N N"
_symmetry_group_IT_number 48
_space_group.IT_coordinate_system_code '2'
_symmetry_cell_setting 'orthorhombic'
loop_
_space_group_symop_operation_xyz
x,y,z
1/2-x,1/2-y,z
x,1/2-y,1/2-z
1/2-x,y,1/2-z
-x,-y,-z
1/2+x,1/2+y,-z
-x,1/2+y,1/2+z
1/2+x,-y,1/2+z
loop_
_atom_site_type_symbol
_atom_site_label
_atom_site_fract_x
_atom_site_fract_y
_atom_site_fract_z
Si Si1 0.167207 0.056695 0.302803
Si Si2 0.668681 0.139166 0.813425
Si Si3 0.811607 0.927662 0.153428
Si Si4 0.407542 0.700673 0.108522
Si Si5 0.201340 0.339481 0.996032
Si Si6 0.565590 0.440043 0.062399
Si Si7 0.085623 0.274439 0.578194
Si Si8 0.059152 0.330257 0.334496
O O1 0.250000 0.055597 0.250000
O O2 0.168226 0.127810 0.394524
O O3 0.109533 0.091427 0.214122
O O4 0.155974 0.959794 0.349276
O O5 0.750000 0.147111 0.750000
O O6 0.650313 0.216376 0.896530
O O7 0.606711 0.157174 0.721997
O O8 0.750000 0.935267 0.250000
O O9 0.757119 0.911688 0.051749
O O10 0.867198 0.841934 0.151584
O O11 0.871528 0.003942 0.125333
O O12 0.495967 0.729849 0.101686
O O13 0.395535 0.623787 0.023800
O O14 0.250000 0.250000 0.006592
O O15 0.131384 0.316106 0.918352
O O16 0.522400 0.374422 0.142101
O O17 0.500000 0.500000 0.000000
O O18 0.088997 0.303786 0.452653
O O19 0.057899 0.250000 0.250000
#
# Coordination Sequence:
#
# PCOD9390458 Si02
#       8
#     8   8   8   8   8   8   8   8
#     4  11  22  33  62  95 130 154 200 267 317 383
#     4  10  23  38  57  95 123 162 216 261 321 367
#     4  11  24  41  64  96 128 167 218 268 317 403
#     4  10  20  38  64  84 124 170 216 262 309 398
#     4  10  22  38  60  93 132 159 200 258 345 387
#     4  11  22  41  70  90 124 176 228 260 320 400
#     4  10  21  39  62  96 127 169 206 257 346 391
#     4  11  21  38  66  97 131 167 212 271 324 393
#
# _framework density 19.094501000000001
#
# number of rings (size 3 to 8) (size 9 to 14) (size 15 to 20)
#    0.000    1.500    3.750    3.000    3.500    4.250 
#    0.000    3.125    0.000    0.000    0.000    0.000 
#    0.000    0.000    0.000    0.000    0.000    0.000 
#
# Total GULP energy -356660.250021 kJ/mol
# GULP energy per Si atom -5572.816407 kJ/mol
# Density = 1.905104 g / cm^3
# Si number density = 19.094501 Si / 1000 Ang^3
#
#
#
# Elastic Constant Matrix: (Units=GPa)
#
#
# Indices 1 2 3 4 5 6 
#
# 1 86.9359 32.3311 32.2566 0.0000 0.0000 0.0000
# 2 32.3311 100.3813 32.6914 0.0000 0.0000 0.0000
# 3 32.2566 32.6914 74.8430 0.0000 0.0000 0.0000
# 4 0.0000 0.0000 0.0000 27.5986 0.0000 0.0000
# 5 0.0000 0.0000 0.0000 0.0000 26.5273 0.0000
# 6 0.0000 0.0000 0.0000 0.0000 0.0000 38.9190
#
#
#
# Elastic Compliance Matrix: (Units=1/GPa)
#
#
# Indices 1 2 3 4 5 6 
#
# 1 0.014457 -0.003063 -0.004893 0.000000 0.000000 0.000000
# 2 -0.003063 0.012263 -0.004036 0.000000 0.000000 0.000000
# 3 -0.004893 -0.004036 0.017233 0.000000 0.000000 0.000000
# 4 0.000000 0.000000 0.000000 0.036234 0.000000 0.000000
# 5 0.000000 0.000000 0.000000 0.000000 0.037697 0.000000
# 6 0.000000 0.000000 0.000000 0.000000 0.000000 0.025694
#
#
# Mechanical properties :
#
#
# Convention : Reuss Voigt Hill
#
# Bulk Modulus (GPa) = 50.07802 50.74650 50.41226
# Shear Modulus (GPa) = 28.69936 29.60106 29.15021
#
# Velocity S-wave (km/s) = 3.88108 3.94158 3.91145
# Velocity P-wave (km/s) = 6.80934 6.88106 6.84529
#
# Compressibility (1/GPa) = 0.01996884
#
# Stress axis : x y z
#
# Youngs Moduli (GPa) = 69.16898 81.54562 58.02725
#
# Poissons Ratio (x) = 0.24977 0.28393
# Poissons Ratio (y) = 0.21186 0.23422
# Poissons Ratio (z) = 0.33845 0.32915
#
# Static dielectric constant tensor:
#      x y z
#    x 1.694250 0.000000 0.000000 
#    y 0.000000 1.735570 0.000000 
#    z 0.000000 0.000000 1.627510 
# 
# From -- ./inp_files/22327.got.cif
#   From: 2010.05.17/outbox.cif.g08.bks.cpg/sg48_12_cif.got.tgz:22327.got - 2010.06.03 20:39:00.
