data_PCOD9390114
_publ_section_title
;
Structure prediction by ZEFSAII (Michael W. Deem and Ramdas Pophale) SiO2 
 PCOD9390114
Probable space group: P N N N
;
_chemical_formula_sum "Si O2"
_cell_formula_units_Z 58
_cell_length_a 8.250612
_cell_length_b 18.431883
_cell_length_c 16.956505
_cell_angle_alpha 90.000000
_cell_angle_beta 90.000000
_cell_angle_gamma 90.000000
_cell_volume 2578.648884
_symmetry_space_group_name_H-M "P N N N"
_symmetry_group_IT_number 48
_space_group.IT_coordinate_system_code '2'
_symmetry_cell_setting 'orthorhombic'
loop_
_space_group_symop_operation_xyz
x,y,z
1/2-x,1/2-y,z
x,1/2-y,1/2-z
1/2-x,y,1/2-z
-x,-y,-z
1/2+x,1/2+y,-z
-x,1/2+y,1/2+z
1/2+x,-y,1/2+z
loop_
_atom_site_type_symbol
_atom_site_label
_atom_site_fract_x
_atom_site_fract_y
_atom_site_fract_z
Si Si1 0.584781 0.871451 0.149836
Si Si2 0.775740 0.437696 0.036288
Si Si3 0.726869 0.465095 0.639132
Si Si4 0.588437 0.929526 0.396976
Si Si5 0.250000 0.250000 0.750000
Si Si6 0.460522 0.339475 0.463480
Si Si7 0.981885 0.171010 0.037981
Si Si8 0.295693 0.368663 0.164776
O O1 0.422619 0.917132 0.173183
O O2 0.758342 0.911760 0.157563
O O3 0.627637 0.797809 0.195990
O O4 0.565161 0.859520 0.055358
O O5 0.641846 0.490866 0.072493
O O6 0.693071 0.360902 0.018905
O O7 0.936149 0.406233 0.075662
O O8 0.815513 0.473767 0.953349
O O9 0.755439 0.546072 0.668618
O O10 0.908277 0.429912 0.639528
O O11 0.583184 0.872224 0.469925
O O12 0.518974 0.256692 0.466709
O O13 0.308611 0.334792 0.405728
O O14 0.028407 0.146144 0.127082
O O15 0.250000 0.337930 0.250000
#
# Coordination Sequence:
#
# PCOD9390114 Si02
#       8
#     8   8   8   8   2   8   8   8
#     4  11  24  43  70  97 136 177 227 274 347 420
#     4  10  19  38  68  99 123 167 233 281 331 407
#     4  10  21  41  67 101 132 172 225 285 335 402
#     4  11  19  39  72  98 130 176 227 280 332 405
#     4  12  28  48  66 108 142 182 218 292 358 440
#     4  11  23  39  65  96 131 176 223 275 343 413
#     4  11  20  37  61  94 132 172 218 279 339 399
#     4  12  24  39  62  94 131 174 229 274 339 402
#
# _framework density 22.492398999999999
#
# number of rings (size 3 to 8) (size 9 to 14) (size 15 to 20)
#    0.000    1.103    4.138    3.310    0.000    4.414 
#    0.000    3.448    0.000    1.655    0.000    0.000 
#    0.000    0.000    0.000    0.000    0.000    0.000 
#
# Total GULP energy -323024.595604 kJ/mol
# GULP energy per Si atom -5569.389579 kJ/mol
# Density = 2.244121 g / cm^3
# Si number density = 22.492399 Si / 1000 Ang^3
#
#
#
# Elastic Constant Matrix: (Units=GPa)
#
#
# Indices 1 2 3 4 5 6 
#
# 1 126.3724 60.0760 13.6907 0.0000 0.0000 0.0000
# 2 60.0760 91.7512 22.7332 0.0000 0.0000 0.0000
# 3 13.6907 22.7332 87.0382 0.0000 0.0000 0.0000
# 4 0.0000 0.0000 0.0000 13.2791 0.0000 0.0000
# 5 0.0000 0.0000 0.0000 0.0000 -5.4585 0.0000
# 6 0.0000 0.0000 0.0000 0.0000 0.0000 36.7753
#
#
#
# Elastic Compliance Matrix: (Units=1/GPa)
#
#
# Indices 1 2 3 4 5 6 
#
# 1 0.011492 -0.007566 0.000169 0.000000 0.000000 0.000000
# 2 -0.007566 0.016635 -0.003155 0.000000 0.000000 0.000000
# 3 0.000169 -0.003155 0.012287 0.000000 0.000000 0.000000
# 4 0.000000 0.000000 0.000000 0.075306 0.000000 0.000000
# 5 0.000000 0.000000 0.000000 0.000000 -0.183201 0.000000
# 6 0.000000 0.000000 0.000000 0.000000 0.000000 0.027192
#
#
# Mechanical properties :
#
#
# Convention : Reuss Voigt Hill
#
# Bulk Modulus (GPa) = 51.79031 55.35129 53.57080
# Shear Modulus (GPa) = -392.19304 22.82997 -184.68153
#
# Velocity S-wave (km/s) = -13.21913 3.18938 -9.07120
# Velocity P-wave (km/s) = 14.48856 6.18265 9.26534
#
# Compressibility (1/GPa) = 0.01930863
#
# Stress axis : x y z
#
# Youngs Moduli (GPa) = 87.01885 60.11487 81.38921
#
# Poissons Ratio (x) = 0.45484 -0.01372
# Poissons Ratio (y) = 0.65841 0.25675
# Poissons Ratio (z) = -0.01467 0.18964
#
# Static dielectric constant tensor:
#      x y z
#    x 2.293070 0.000000 0.000000 
#    y 0.000000 1.574770 0.000000 
#    z 0.000000 0.000000 1.877600 
# 
# From -- ./inp_files/30487.got.cif
#   From: 2010.05.17/outbox.cif.g08.bks.cpg/sg48_16_cif.got.tgz:30487.got - 2010.06.03 20:39:00.
