data_PCOD9390382
_publ_section_title
;
Structure prediction by ZEFSAII (Michael W. Deem and Ramdas Pophale) SiO2 
 PCOD9390382
Probable space group: P N N N
;
_chemical_formula_sum "Si O2"
_cell_formula_units_Z 48
_cell_length_a 14.736360
_cell_length_b 11.387662
_cell_length_c 15.833812
_cell_angle_alpha 90.000000
_cell_angle_beta 90.000000
_cell_angle_gamma 90.000000
_cell_volume 2657.114534
_symmetry_space_group_name_H-M "P N N N"
_symmetry_group_IT_number 48
_space_group.IT_coordinate_system_code '2'
_symmetry_cell_setting 'orthorhombic'
loop_
_space_group_symop_operation_xyz
x,y,z
1/2-x,1/2-y,z
x,1/2-y,1/2-z
1/2-x,y,1/2-z
-x,-y,-z
1/2+x,1/2+y,-z
-x,1/2+y,1/2+z
1/2+x,-y,1/2+z
loop_
_atom_site_type_symbol
_atom_site_label
_atom_site_fract_x
_atom_site_fract_y
_atom_site_fract_z
Si Si1 0.750000 0.056962 0.250000
Si Si2 0.100005 0.750000 0.750000
Si Si3 0.273180 0.113262 0.349175
Si Si4 0.868652 0.995416 0.536056
Si Si5 0.748426 0.617827 0.097137
Si Si6 0.528022 0.169172 0.069929
Si Si7 0.926758 0.900324 0.977545
O O1 0.737936 0.975201 0.169972
O O2 0.835154 0.139900 0.231941
O O3 0.049308 0.714816 0.836013
O O4 0.250000 0.250000 0.375009
O O5 0.250000 0.108357 0.250000
O O6 0.373883 0.090508 0.386739
O O7 0.208833 0.016584 0.393589
O O8 0.889661 0.116390 0.486775
O O9 0.830923 0.904400 0.466718
O O10 0.959554 0.941013 0.575320
O O11 0.750000 0.750000 0.129299
O O12 0.655263 0.597720 0.045304
O O13 0.479651 0.277206 0.023666
O O14 0.000000 0.000000 0.000000
#
# Coordination Sequence:
#
# PCOD9390382 Si02
#       7
#     4   4   8   8   8   8   8
#     4  11  23  40  56  86 115 163 196 246 310 369
#     4  11  24  36  58  87 126 146 204 261 312 352
#     4  10  20  38  63  92 121 163 207 255 307 371
#     4  10  20  37  61  86 122 158 198 246 310 372
#     4  11  20  41  58  82 121 161 202 239 308 380
#     4  11  21  37  59  89 118 154 198 261 304 362
#     4  11  22  37  60  89 120 156 205 256 307 361
#
# _framework density 18.064708
#
# number of rings (size 3 to 8) (size 9 to 14) (size 15 to 20)
#    0.000    1.333    5.000    2.250    2.333    0.000 
#    0.000    0.000    0.000    1.000    0.000    0.000 
#    0.000    0.000    0.000    0.000    0.000    0.000 
#
# Total GULP energy -267456.060782 kJ/mol
# GULP energy per Si atom -5572.001266 kJ/mol
# Density = 1.802359 g / cm^3
# Si number density = 18.064708 Si / 1000 Ang^3
#
#
#
# Elastic Constant Matrix: (Units=GPa)
#
#
# Indices 1 2 3 4 5 6 
#
# 1 82.3704 42.4088 38.0859 0.0000 0.0000 0.0000
# 2 42.4088 87.0738 51.9769 0.0000 0.0000 0.0000
# 3 38.0859 51.9769 109.1054 0.0000 0.0000 0.0000
# 4 0.0000 0.0000 0.0000 35.1515 0.0000 0.0000
# 5 0.0000 0.0000 0.0000 0.0000 39.6308 0.0000
# 6 0.0000 0.0000 0.0000 0.0000 0.0000 26.0076
#
#
#
# Elastic Compliance Matrix: (Units=1/GPa)
#
#
# Indices 1 2 3 4 5 6 
#
# 1 0.016771 -0.006531 -0.002743 0.000000 0.000000 0.000000
# 2 -0.006531 0.018591 -0.006577 0.000000 0.000000 0.000000
# 3 -0.002743 -0.006577 0.013256 0.000000 0.000000 0.000000
# 4 0.000000 0.000000 0.000000 0.028448 0.000000 0.000000
# 5 0.000000 0.000000 0.000000 0.000000 0.025233 0.000000
# 6 0.000000 0.000000 0.000000 0.000000 0.000000 0.038450
#
#
# Mechanical properties :
#
#
# Convention : Reuss Voigt Hill
#
# Bulk Modulus (GPa) = 59.11308 60.38808 59.75058
# Shear Modulus (GPa) = 28.07556 29.89652 28.98604
#
# Velocity S-wave (km/s) = 3.94657 4.07254 4.01005
# Velocity P-wave (km/s) = 7.31855 7.45758 7.38839
#
# Compressibility (1/GPa) = 0.01691673
#
# Stress axis : x y z
#
# Youngs Moduli (GPa) = 59.62661 53.78855 75.43621
#
# Poissons Ratio (x) = 0.35128 0.20693
# Poissons Ratio (y) = 0.38941 0.49614
# Poissons Ratio (z) = 0.16356 0.35377
#
# Static dielectric constant tensor:
#      x y z
#    x 1.661340 0.000000 0.000000 
#    y 0.000000 1.599800 0.000000 
#    z 0.000000 0.000000 1.631590 
# 
# From -- ./inp_files/31586.got.cif
#   From: 2010.05.17/outbox.cif.g08.bks.cpg/sg48_16_cif.got.tgz:31586.got - 2010.06.03 20:39:00.
