data_PCOD9390119
_publ_section_title
;
Structure prediction by ZEFSAII (Michael W. Deem and Ramdas Pophale) SiO2 
 PCOD9390119
Probable space group: P N N N
;
_chemical_formula_sum "Si O2"
_cell_formula_units_Z 48
_cell_length_a 7.517724
_cell_length_b 29.275638
_cell_length_c 9.891137
_cell_angle_alpha 90.000000
_cell_angle_beta 90.000000
_cell_angle_gamma 90.000000
_cell_volume 2176.902424
_symmetry_space_group_name_H-M "P N N N"
_symmetry_group_IT_number 48
_space_group.IT_coordinate_system_code '2'
_symmetry_cell_setting 'orthorhombic'
loop_
_space_group_symop_operation_xyz
x,y,z
1/2-x,1/2-y,z
x,1/2-y,1/2-z
1/2-x,y,1/2-z
-x,-y,-z
1/2+x,1/2+y,-z
-x,1/2+y,1/2+z
1/2+x,-y,1/2+z
loop_
_atom_site_type_symbol
_atom_site_label
_atom_site_fract_x
_atom_site_fract_y
_atom_site_fract_z
Si Si1 0.963438 0.402663 0.731496
Si Si2 0.031544 0.746752 0.593413
Si Si3 0.439860 0.648365 0.979136
Si Si4 0.948897 0.898425 0.718785
Si Si5 0.033210 0.839839 0.461780
Si Si6 0.437678 0.502303 0.663914
O O1 0.750000 0.404086 0.750000
O O2 0.017588 0.389561 0.579703
O O3 0.020934 0.451926 0.782200
O O4 0.032778 0.361023 0.822954
O O5 0.250000 0.750000 0.593928
O O6 0.977926 0.750000 0.750000
O O7 0.971319 0.697688 0.538031
O O8 0.969410 0.790310 0.508228
O O9 0.429622 0.624577 0.833612
O O10 0.247990 0.661167 0.040015
O O11 0.750000 0.883410 0.750000
O O12 0.995354 0.877389 0.575331
O O13 0.958340 0.952917 0.713972
O O14 0.250000 0.511050 0.750000
O O15 0.500000 0.500000 0.500000
#
# Coordination Sequence:
#
# PCOD9390119 Si02
#       6
#     8   8   8   8   8   8
#     4  10  23  40  64  94 132 169 217 272 337 398
#     4   9  16  30  59  93 124 166 217 267 322 390
#     4  10  21  37  63  94 125 172 215 273 329 396
#     4  12  25  40  64  92 126 168 222 270 338 400
#     4  10  19  39  62  90 130 168 214 271 330 396
#     4  12  27  46  72  97 132 179 223 278 347 414
#
# _framework density 22.049676999999999
#
# number of rings (size 3 to 8) (size 9 to 14) (size 15 to 20)
#    0.000    1.500    3.333    2.000    4.667    1.333 
#    0.000    5.000    0.000    0.000    0.000    3.500 
#    0.000    0.000    0.000    0.000    0.000    0.000 
#
# Total GULP energy -267398.393836 kJ/mol
# GULP energy per Si atom -5570.799872 kJ/mol
# Density = 2.199949 g / cm^3
# Si number density = 22.049677 Si / 1000 Ang^3
#
#
#
# Elastic Constant Matrix: (Units=GPa)
#
#
# Indices 1 2 3 4 5 6 
#
# 1 44.5974 6.8321 16.6046 0.0000 0.0000 0.0000
# 2 6.8321 149.6115 15.7686 0.0000 0.0000 0.0000
# 3 16.6046 15.7686 69.8106 0.0000 0.0000 0.0000
# 4 0.0000 0.0000 0.0000 129.5192 0.0000 0.0000
# 5 0.0000 0.0000 0.0000 0.0000 6.5895 0.0000
# 6 0.0000 0.0000 0.0000 0.0000 0.0000 -32.0941
#
#
#
# Elastic Compliance Matrix: (Units=1/GPa)
#
#
# Indices 1 2 3 4 5 6 
#
# 1 0.024641 -0.000520 -0.005743 0.000000 0.000000 0.000000
# 2 -0.000520 0.006858 -0.001425 0.000000 0.000000 0.000000
# 3 -0.005743 -0.001425 0.016013 0.000000 0.000000 0.000000
# 4 0.000000 0.000000 0.000000 0.007721 0.000000 0.000000
# 5 0.000000 0.000000 0.000000 0.000000 0.151757 0.000000
# 6 0.000000 0.000000 0.000000 0.000000 0.000000 -0.031158
#
#
# Mechanical properties :
#
#
# Convention : Reuss Voigt Hill
#
# Bulk Modulus (GPa) = 31.11980 38.04779 34.58379
# Shear Modulus (GPa) = 24.76233 35.79054 30.27643
#
# Velocity S-wave (km/s) = 3.35479 4.03324 3.70956
# Velocity P-wave (km/s) = 5.39910 6.24358 5.83663
#
# Compressibility (1/GPa) = 0.03213389
#
# Stress axis : x y z
#
# Youngs Moduli (GPa) = 40.58293 145.81617 62.45115
#
# Poissons Ratio (x) = 0.07581 0.35868
# Poissons Ratio (y) = 0.02110 0.08902
# Poissons Ratio (z) = 0.23309 0.20784
#
# Static dielectric constant tensor:
#      x y z
#    x 1.908000 0.000000 0.000000 
#    y 0.000000 1.765830 0.000000 
#    z 0.000000 0.000000 1.803740 
# 
# From -- ./inp_files/9505.got.cif
#   From: 2010.05.17/outbox.cif.g08.bks.cpg/sg48_5_cif.got.tgz:9505.got - 2010.06.03 20:39:00.
