data_PCOD9390536
_publ_section_title
;
Structure prediction by ZEFSAII (Michael W. Deem and Ramdas Pophale) SiO2 
 PCOD9390536
Probable space group: P N N N
;
_chemical_formula_sum "Si O2"
_cell_formula_units_Z 54
_cell_length_a 14.162429
_cell_length_b 6.121886
_cell_length_c 28.559362
_cell_angle_alpha 90.000000
_cell_angle_beta 90.000000
_cell_angle_gamma 90.000000
_cell_volume 2476.118842
_symmetry_space_group_name_H-M "P N N N"
_symmetry_group_IT_number 48
_space_group.IT_coordinate_system_code '2'
_symmetry_cell_setting 'orthorhombic'
loop_
_space_group_symop_operation_xyz
x,y,z
1/2-x,1/2-y,z
x,1/2-y,1/2-z
1/2-x,y,1/2-z
-x,-y,-z
1/2+x,1/2+y,-z
-x,1/2+y,1/2+z
1/2+x,-y,1/2+z
loop_
_atom_site_type_symbol
_atom_site_label
_atom_site_fract_x
_atom_site_fract_y
_atom_site_fract_z
Si Si1 0.413528 0.504386 0.766409
Si Si2 0.005556 0.132957 0.862766
Si Si3 0.403170 0.426591 0.475801
Si Si4 0.138409 0.281306 0.381869
Si Si5 0.250000 0.750000 0.250000
Si Si6 0.653860 0.628809 0.056799
Si Si7 0.587479 0.001979 0.800189
Si Si8 0.250000 0.750000 0.984965
O O1 0.371587 0.750000 0.750000
O O2 0.432689 0.493797 0.822346
O O3 0.516250 0.515113 0.742617
O O4 0.377493 0.250000 0.750000
O O5 0.074003 0.175042 0.905960
O O6 0.967548 0.342917 0.836128
O O7 0.913026 0.013287 0.883526
O O8 0.500000 0.500000 0.500000
O O9 0.410659 0.365741 0.421739
O O10 0.373463 0.214130 0.505432
O O11 0.317226 0.594683 0.484580
O O12 0.250000 0.250000 0.389542
O O13 0.114583 0.208709 0.329294
O O14 0.316921 0.892911 0.217683
O O15 0.750000 0.750000 0.071074
O O16 0.679330 0.378884 0.049098
#
# Coordination Sequence:
#
# PCOD9390536 Si02
#       8
#     8   8   8   8   2   8   8   4
#     4  10  20  40  62  93 128 180 223 279 341 413
#     4  11  22  41  63  92 126 173 223 278 334 415
#     4  11  24  42  64  93 129 175 219 281 351 417
#     4  12  25  36  57  95 131 173 220 272 330 420
#     4  12  20  38  58  88 128 180 226 270 342 404
#     4  10  23  43  68  94 124 169 227 287 351 413
#     4  11  23  37  59  88 129 176 222 269 333 409
#     4  10  22  43  64  92 131 171 214 281 342 410
#
# _framework density 21.808322
#
# number of rings (size 3 to 8) (size 9 to 14) (size 15 to 20)
#    0.000    1.185    3.704    4.000    0.000    7.704 
#    0.000    0.000    0.000    4.000    0.000    0.000 
#    0.000    0.000    0.000    0.000    0.000    0.000 
#
# Total GULP energy -301225.048308 kJ/mol
# GULP energy per Si atom -5578.241635 kJ/mol
# Density = 2.175869 g / cm^3
# Si number density = 21.808322 Si / 1000 Ang^3
#
#
#
# Elastic Constant Matrix: (Units=GPa)
#
#
# Indices 1 2 3 4 5 6 
#
# 1 53.3130 1.7677 5.1616 0.0000 0.0000 0.0000
# 2 1.7677 59.8979 4.9646 0.0000 0.0000 0.0000
# 3 5.1616 4.9646 83.7461 0.0000 0.0000 0.0000
# 4 0.0000 0.0000 0.0000 20.5389 0.0000 0.0000
# 5 0.0000 0.0000 0.0000 0.0000 26.1288 0.0000
# 6 0.0000 0.0000 0.0000 0.0000 0.0000 35.6877
#
#
#
# Elastic Compliance Matrix: (Units=1/GPa)
#
#
# Indices 1 2 3 4 5 6 
#
# 1 0.018883 -0.000463 -0.001136 0.000000 0.000000 0.000000
# 2 -0.000463 0.016789 -0.000967 0.000000 0.000000 0.000000
# 3 -0.001136 -0.000967 0.012068 0.000000 0.000000 0.000000
# 4 0.000000 0.000000 0.000000 0.048688 0.000000 0.000000
# 5 0.000000 0.000000 0.000000 0.000000 0.038272 0.000000
# 6 0.000000 0.000000 0.000000 0.000000 0.000000 0.028021
#
#
# Mechanical properties :
#
#
# Convention : Reuss Voigt Hill
#
# Bulk Modulus (GPa) = 23.47016 24.52719 23.99867
# Shear Modulus (GPa) = 27.46419 28.80861 28.13640
#
# Velocity S-wave (km/s) = 3.55257 3.63849 3.59579
# Velocity P-wave (km/s) = 5.25482 5.37797 5.31675
#
# Compressibility (1/GPa) = 0.04260730
#
# Stress axis : x y z
#
# Youngs Moduli (GPa) = 52.95904 59.56324 82.86236
#
# Poissons Ratio (x) = 0.02758 0.09416
# Poissons Ratio (y) = 0.02452 0.08011
# Poissons Ratio (z) = 0.06018 0.05758
#
# Static dielectric constant tensor:
#      x y z
#    x 1.768990 0.000000 0.000000 
#    y 0.000000 1.911200 0.000000 
#    z 0.000000 0.000000 1.760310 
# 
# From -- ./inp_files/39093.got.cif
#   From: 2010.05.17/outbox.cif.g08.bks.cpg/sg48_20_cif.got.tgz:39093.got - 2010.06.03 20:39:00.
