data_PCOD9390121
_publ_section_title
;
Structure prediction by ZEFSAII (Michael W. Deem and Ramdas Pophale) SiO2 
 PCOD9390121
Probable space group: P N N N
;
_chemical_formula_sum "Si O2"
_cell_formula_units_Z 48
_cell_length_a 13.572261
_cell_length_b 9.240753
_cell_length_c 18.346312
_cell_angle_alpha 90.000000
_cell_angle_beta 90.000000
_cell_angle_gamma 90.000000
_cell_volume 2300.956136
_symmetry_space_group_name_H-M "P N N N"
_symmetry_group_IT_number 48
_space_group.IT_coordinate_system_code '2'
_symmetry_cell_setting 'orthorhombic'
loop_
_space_group_symop_operation_xyz
x,y,z
1/2-x,1/2-y,z
x,1/2-y,1/2-z
1/2-x,y,1/2-z
-x,-y,-z
1/2+x,1/2+y,-z
-x,1/2+y,1/2+z
1/2+x,-y,1/2+z
loop_
_atom_site_type_symbol
_atom_site_label
_atom_site_fract_x
_atom_site_fract_y
_atom_site_fract_z
Si Si1 0.930034 0.290692 0.089307
Si Si2 0.848479 0.786389 0.936962
Si Si3 0.529745 0.681311 0.177908
Si Si4 0.317022 0.564107 0.821316
Si Si5 0.588186 0.088601 0.539422
Si Si6 0.845899 0.902185 0.413052
O O1 0.861275 0.215572 0.150009
O O2 0.918903 0.461391 0.083210
O O3 0.044631 0.245537 0.097326
O O4 0.889661 0.218346 0.014824
O O5 0.750000 0.750000 0.893085
O O6 0.837006 0.958086 0.951257
O O7 0.845851 0.690376 0.011928
O O8 0.485177 0.750000 0.250000
O O9 0.588001 0.534487 0.194782
O O10 0.452046 0.649751 0.114732
O O11 0.611680 0.792386 0.146975
O O12 0.250000 0.572390 0.750000
O O13 0.254815 0.477334 0.883909
O O14 0.500000 0.000000 0.500000
#
# Coordination Sequence:
#
# PCOD9390121 Si02
#       6
#     8   8   8   8   8   8
#     4  11  23  39  57  91 137 174 218 282 338 386
#     4  11  21  38  64  88 117 173 232 277 322 391
#     4  12  22  39  61  93 130 180 221 264 336 423
#     4  12  24  40  60  95 142 180 211 271 350 427
#     4  10  19  39  63  83 132 176 220 276 330 381
#     4  12  23  34  59  92 133 171 221 271 337 400
#
# _framework density 20.860894999999999
#
# number of rings (size 3 to 8) (size 9 to 14) (size 15 to 20)
#    0.000    0.667    8.333    3.500    0.000    1.333 
#    0.000    0.000    0.000    0.000    0.000   10.500 
#    0.000    0.000    0.000    0.000    0.000    0.000 
#
# Total GULP energy -268105.253307 kJ/mol
# GULP energy per Si atom -5585.526111 kJ/mol
# Density = 2.081341 g / cm^3
# Si number density = 20.860895 Si / 1000 Ang^3
#
#
#
# Elastic Constant Matrix: (Units=GPa)
#
#
# Indices 1 2 3 4 5 6 
#
# 1 77.6127 14.7945 20.6562 0.0000 0.0000 0.0000
# 2 14.7945 99.9271 11.9849 0.0000 0.0000 0.0000
# 3 20.6562 11.9849 86.6079 0.0000 0.0000 0.0000
# 4 0.0000 0.0000 0.0000 32.8105 0.0000 0.0000
# 5 0.0000 0.0000 0.0000 0.0000 34.5409 0.0000
# 6 0.0000 0.0000 0.0000 0.0000 0.0000 35.9709
#
#
#
# Elastic Compliance Matrix: (Units=1/GPa)
#
#
# Indices 1 2 3 4 5 6 
#
# 1 0.014038 -0.001705 -0.003112 0.000000 0.000000 0.000000
# 2 -0.001705 0.010383 -0.001030 0.000000 0.000000 0.000000
# 3 -0.003112 -0.001030 0.012431 0.000000 0.000000 0.000000
# 4 0.000000 0.000000 0.000000 0.030478 0.000000 0.000000
# 5 0.000000 0.000000 0.000000 0.000000 0.028951 0.000000
# 6 0.000000 0.000000 0.000000 0.000000 0.000000 0.027800
#
#
# Mechanical properties :
#
#
# Convention : Reuss Voigt Hill
#
# Bulk Modulus (GPa) = 39.74967 39.89099 39.82033
# Shear Modulus (GPa) = 34.68317 35.11195 34.89756
#
# Velocity S-wave (km/s) = 4.08191 4.10707 4.09451
# Velocity P-wave (km/s) = 6.42744 6.45403 6.44075
#
# Compressibility (1/GPa) = 0.02515744
#
# Stress axis : x y z
#
# Youngs Moduli (GPa) = 71.23638 96.30856 80.44351
#
# Poissons Ratio (x) = 0.16421 0.25035
# Poissons Ratio (y) = 0.12146 0.08287
# Poissons Ratio (z) = 0.22169 0.09922
#
# Static dielectric constant tensor:
#      x y z
#    x 1.919680 0.000000 0.000000 
#    y 0.000000 1.739080 0.000000 
#    z 0.000000 0.000000 1.788320 
# 
# From -- ./inp_files/31544.got.cif
#   From: 2010.05.17/outbox.cif.g08.bks.cpg/sg48_16_cif.got.tgz:31544.got - 2010.06.03 20:39:00.
