data_PCOD9390285
_publ_section_title
;
Structure prediction by ZEFSAII (Michael W. Deem and Ramdas Pophale) SiO2 
 PCOD9390285
Probable space group: P N N N
;
_chemical_formula_sum "Si O2"
_cell_formula_units_Z 64
_cell_length_a 17.091557
_cell_length_b 8.506269
_cell_length_c 21.722639
_cell_angle_alpha 90.000000
_cell_angle_beta 90.000000
_cell_angle_gamma 90.000000
_cell_volume 3158.154158
_symmetry_space_group_name_H-M "P N N N"
_symmetry_group_IT_number 48
_space_group.IT_coordinate_system_code '2'
_symmetry_cell_setting 'orthorhombic'
loop_
_space_group_symop_operation_xyz
x,y,z
1/2-x,1/2-y,z
x,1/2-y,1/2-z
1/2-x,y,1/2-z
-x,-y,-z
1/2+x,1/2+y,-z
-x,1/2+y,1/2+z
1/2+x,-y,1/2+z
loop_
_atom_site_type_symbol
_atom_site_label
_atom_site_fract_x
_atom_site_fract_y
_atom_site_fract_z
Si Si1 0.011329 0.922064 0.067316
Si Si2 0.965846 0.441196 0.903875
Si Si3 0.082508 0.195569 0.317329
Si Si4 0.633658 0.068803 0.103792
Si Si5 0.338875 0.376741 0.074151
Si Si6 0.675430 0.933539 0.981756
Si Si7 0.418148 0.628156 0.841402
Si Si8 0.842128 0.574366 0.235954
O O1 0.012211 0.738515 0.083444
O O2 0.098222 0.987317 0.081523
O O3 0.945442 0.997977 0.110401
O O4 0.000000 0.000000 0.000000
O O5 0.935509 0.514505 0.838020
O O6 0.895320 0.477981 0.949502
O O7 0.043978 0.540927 0.918110
O O8 0.109066 0.250000 0.250000
O O9 0.143453 0.267190 0.366667
O O10 0.998170 0.279672 0.325518
O O11 0.639572 0.248633 0.125537
O O12 0.644227 0.967214 0.165186
O O13 0.687321 0.007238 0.048781
O O14 0.349917 0.250969 0.018026
O O15 0.252995 0.440783 0.060090
O O16 0.383341 0.550703 0.780508
O O17 0.871323 0.750000 0.250000
O O18 0.750000 0.569124 0.250000
#
# Coordination Sequence:
#
# PCOD9390285 Si02
#       8
#     8   8   8   8   8   8   8   8
#     4  11  21  35  57  86 121 158 198 247 302 359
#     4  10  20  35  58  89 118 151 199 250 294 354
#     4   9  18  37  62  85 113 155 203 246 300 364
#     4  11  21  37  62  83 111 158 197 236 294 354
#     4   9  21  36  55  85 119 152 196 252 301 358
#     4  10  20  38  59  84 117 152 195 245 297 355
#     4  10  21  37  57  85 116 151 199 245 286 349
#     4  11  25  41  58  86 121 154 193 241 293 348
#
# _framework density 20.265003
#
# number of rings (size 3 to 8) (size 9 to 14) (size 15 to 20)
#    0.000    1.875    0.000    5.250    0.000    4.500 
#    0.000    8.125    0.000    0.000    0.000   12.250 
#    0.000    0.000    0.000    0.000    0.000    0.000 
#
# Total GULP energy -356904.138016 kJ/mol
# GULP energy per Si atom -5576.627157 kJ/mol
# Density = 2.021888 g / cm^3
# Si number density = 20.265003 Si / 1000 Ang^3
#
#
#
# Elastic Constant Matrix: (Units=GPa)
#
#
# Indices 1 2 3 4 5 6 
#
# 1 54.0268 18.2495 31.3410 0.0000 0.0000 0.0000
# 2 18.2495 107.8008 42.2236 0.0000 0.0000 0.0000
# 3 31.3410 42.2236 131.3721 0.0000 0.0000 0.0000
# 4 0.0000 0.0000 0.0000 27.8528 0.0000 0.0000
# 5 0.0000 0.0000 0.0000 0.0000 19.0791 0.0000
# 6 0.0000 0.0000 0.0000 0.0000 0.0000 14.8606
#
#
#
# Elastic Compliance Matrix: (Units=1/GPa)
#
#
# Indices 1 2 3 4 5 6 
#
# 1 0.021815 -0.001893 -0.004596 0.000000 0.000000 0.000000
# 2 -0.001893 0.010777 -0.003012 0.000000 0.000000 0.000000
# 3 -0.004596 -0.003012 0.009676 0.000000 0.000000 0.000000
# 4 0.000000 0.000000 0.000000 0.035903 0.000000 0.000000
# 5 0.000000 0.000000 0.000000 0.000000 0.052413 0.000000
# 6 0.000000 0.000000 0.000000 0.000000 0.000000 0.067292
#
#
# Mechanical properties :
#
#
# Convention : Reuss Voigt Hill
#
# Bulk Modulus (GPa) = 42.98081 52.98087 47.98084
# Shear Modulus (GPa) = 22.25851 25.78422 24.02136
#
# Velocity S-wave (km/s) = 3.31776 3.57087 3.44664
# Velocity P-wave (km/s) = 5.99434 6.57285 6.29025
#
# Compressibility (1/GPa) = 0.02326620
#
# Stress axis : x y z
#
# Youngs Moduli (GPa) = 45.84038 92.79381 103.34328
#
# Poissons Ratio (x) = 0.17565 0.47496
# Poissons Ratio (y) = 0.08677 0.31128
# Poissons Ratio (z) = 0.21068 0.27950
#
# Static dielectric constant tensor:
#      x y z
#    x 1.733610 0.000000 0.000000 
#    y 0.000000 1.764460 0.000000 
#    z 0.000000 0.000000 1.624630 
# 
# From -- ./inp_files/34691.got.cif
#   From: 2010.05.17/outbox.cif.g08.bks.cpg/sg48_18_cif.got.tgz:34691.got - 2010.06.03 20:39:00.
