data_PCOD9390024
_publ_section_title
;
Structure prediction by ZEFSAII (Michael W. Deem and Ramdas Pophale) SiO2 
 PCOD9390024
Probable space group: P N N N
;
_chemical_formula_sum "Si O2"
_cell_formula_units_Z 36
_cell_length_a 13.246157
_cell_length_b 5.030876
_cell_length_c 24.745346
_cell_angle_alpha 90.000000
_cell_angle_beta 90.000000
_cell_angle_gamma 90.000000
_cell_volume 1649.024249
_symmetry_space_group_name_H-M "P N N N"
_symmetry_group_IT_number 48
_space_group.IT_coordinate_system_code '2'
_symmetry_cell_setting 'orthorhombic'
loop_
_space_group_symop_operation_xyz
x,y,z
1/2-x,1/2-y,z
x,1/2-y,1/2-z
1/2-x,y,1/2-z
-x,-y,-z
1/2+x,1/2+y,-z
-x,1/2+y,1/2+z
1/2+x,-y,1/2+z
loop_
_atom_site_type_symbol
_atom_site_label
_atom_site_fract_x
_atom_site_fract_y
_atom_site_fract_z
Si Si1 0.750000 0.250000 0.890032
Si Si2 0.680804 0.498653 0.075214
Si Si3 0.501587 0.780479 0.635602
Si Si4 0.092199 0.694018 0.187645
Si Si5 0.637169 0.625662 0.960292
O O1 0.812094 0.423143 0.846078
O O2 0.662927 0.352362 0.929723
O O3 0.750000 0.250000 0.057259
O O4 0.608710 0.389563 0.121589
O O5 0.750000 0.750000 0.090318
O O6 0.614839 0.590560 0.023203
O O7 0.506628 0.520979 0.672933
O O8 0.555600 0.730894 0.577199
O O9 0.561736 0.019166 0.664193
O O10 0.112288 0.750000 0.250000
O O11 0.750000 0.750000 0.958075
#
# Coordination Sequence:
#
# PCOD9390024 Si02
#       5
#     4   8   8   8   8
#     4  10  19  36  56  92 130 166 193 246 308 396
#     4  11  23  39  62  90 125 166 212 260 316 374
#     4  11  23  39  62  89 125 165 212 261 313 372
#     4  11  23  39  62  89 124 165 212 260 315 373
#     4  10  19  36  57  92 132 165 199 244 313 393
#
# _framework density 21.831091000000001
#
# number of rings (size 3 to 8) (size 9 to 14) (size 15 to 20)
#    0.000    1.333    3.333    3.000    0.000    0.000 
#    0.000    8.889    0.000   10.000    0.000    0.000 
#    0.000    0.000    0.000    0.000    0.000    0.000 
#
# Total GULP energy -200683.885230 kJ/mol
# GULP energy per Si atom -5574.552368 kJ/mol
# Density = 2.178140 g / cm^3
# Si number density = 21.831091 Si / 1000 Ang^3
#
#
#
# Elastic Constant Matrix: (Units=GPa)
#
#
# Indices 1 2 3 4 5 6 
#
# 1 41.8659 8.7314 19.5595 0.0000 0.0000 0.0000
# 2 8.7314 88.0029 9.0128 0.0000 0.0000 0.0000
# 3 19.5595 9.0128 60.2928 0.0000 0.0000 0.0000
# 4 0.0000 0.0000 0.0000 28.1950 0.0000 0.0000
# 5 0.0000 0.0000 0.0000 0.0000 8.0755 0.0000
# 6 0.0000 0.0000 0.0000 0.0000 0.0000 30.2289
#
#
#
# Elastic Compliance Matrix: (Units=1/GPa)
#
#
# Indices 1 2 3 4 5 6 
#
# 1 0.028465 -0.001908 -0.008949 0.000000 0.000000 0.000000
# 2 -0.001908 0.011668 -0.001125 0.000000 0.000000 0.000000
# 3 -0.008949 -0.001125 0.019657 0.000000 0.000000 0.000000
# 4 0.000000 0.000000 0.000000 0.035467 0.000000 0.000000
# 5 0.000000 0.000000 0.000000 0.000000 0.123832 0.000000
# 6 0.000000 0.000000 0.000000 0.000000 0.000000 0.033081
#
#
# Mechanical properties :
#
#
# Convention : Reuss Voigt Hill
#
# Bulk Modulus (GPa) = 27.91302 29.41875 28.66589
# Shear Modulus (GPa) = 17.35658 23.49041 20.42350
#
# Velocity S-wave (km/s) = 2.82270 3.28381 3.06195
# Velocity P-wave (km/s) = 4.84120 5.28041 5.06557
#
# Compressibility (1/GPa) = 0.03582557
#
# Stress axis : x y z
#
# Youngs Moduli (GPa) = 35.13146 85.70611 50.87229
#
# Poissons Ratio (x) = 0.16350 0.45525
# Poissons Ratio (y) = 0.06702 0.05725
# Poissons Ratio (z) = 0.31439 0.09644
#
# Static dielectric constant tensor:
#      x y z
#    x 1.886340 0.000000 0.000000 
#    y 0.000000 1.928590 0.000000 
#    z 0.000000 0.000000 1.788770 
# 
# From -- ./inp_files/4966.got.cif
#   From: 2010.05.17/outbox.cif.g08.bks.cpg/sg48_3_cif.got.tgz:4966.got - 2010.06.03 20:39:00.
