data_PCOD9390017
_publ_section_title
;
Structure prediction by ZEFSAII (Michael W. Deem and Ramdas Pophale) SiO2 
 PCOD9390017
Probable space group: P N N N
;
_chemical_formula_sum "Si O2"
_cell_formula_units_Z 32
_cell_length_a 5.450186
_cell_length_b 17.006567
_cell_length_c 16.363387
_cell_angle_alpha 90.000000
_cell_angle_beta 90.000000
_cell_angle_gamma 90.000000
_cell_volume 1516.705215
_symmetry_space_group_name_H-M "P N N N"
_symmetry_group_IT_number 48
_space_group.IT_coordinate_system_code '2'
_symmetry_cell_setting 'orthorhombic'
loop_
_space_group_symop_operation_xyz
x,y,z
1/2-x,1/2-y,z
x,1/2-y,1/2-z
1/2-x,y,1/2-z
-x,-y,-z
1/2+x,1/2+y,-z
-x,1/2+y,1/2+z
1/2+x,-y,1/2+z
loop_
_atom_site_type_symbol
_atom_site_label
_atom_site_fract_x
_atom_site_fract_y
_atom_site_fract_z
Si Si1 0.468056 0.634342 0.491139
Si Si2 0.501613 0.776059 0.371932
Si Si3 0.807663 0.439130 0.654927
Si Si4 0.474050 0.073693 0.438902
O O1 0.491290 0.721683 0.453527
O O2 0.415376 0.578045 0.410439
O O3 0.720760 0.615920 0.536599
O O4 0.227298 0.621282 0.548120
O O5 0.750000 0.750000 0.332184
O O6 0.490655 0.869624 0.375047
O O7 0.250000 0.750000 0.331523
O O8 0.750000 0.425973 0.750000
O O9 0.922272 0.525512 0.644169
O O10 0.500000 0.000000 0.500000
#
# Coordination Sequence:
#
# PCOD9390017 Si02
#       4
#     8   8   8   8
#     4  10  20  36  54  74 111 155 192 227 266 339
#     4  10  20  35  52  78 112 149 187 225 280 339
#     4  10  21  36  56  86 120 151 182 233 293 346
#     4  10  19  36  55  74 107 152 197 229 266 332
#
# _framework density 21.098365000000001
#
# number of rings (size 3 to 8) (size 9 to 14) (size 15 to 20)
#    0.000    2.000    0.000    7.500    0.000    6.500 
#    0.000   38.750    0.000    0.000    0.000    0.000 
#    0.000  259.000    0.000    0.000    0.000    0.000 
#
# Total GULP energy -178138.995425 kJ/mol
# GULP energy per Si atom -5566.843607 kJ/mol
# Density = 2.105034 g / cm^3
# Si number density = 21.098365 Si / 1000 Ang^3
#
#
#
# Elastic Constant Matrix: (Units=GPa)
#
#
# Indices 1 2 3 4 5 6 
#
# 1 208.7184 66.0907 41.2498 0.0000 0.0000 0.0000
# 2 66.0907 115.7229 61.8593 0.0000 0.0000 0.0000
# 3 41.2498 61.8593 62.2770 0.0000 0.0000 0.0000
# 4 0.0000 0.0000 0.0000 -0.6706 0.0000 0.0000
# 5 0.0000 0.0000 0.0000 0.0000 -40.6649 0.0000
# 6 0.0000 0.0000 0.0000 0.0000 0.0000 32.6681
#
#
#
# Elastic Compliance Matrix: (Units=1/GPa)
#
#
# Indices 1 2 3 4 5 6 
#
# 1 0.005890 -0.002726 -0.001194 0.000000 0.000000 0.000000
# 2 -0.002726 0.019685 -0.017747 0.000000 0.000000 0.000000
# 3 -0.001194 -0.017747 0.034476 0.000000 0.000000 0.000000
# 4 0.000000 0.000000 0.000000 -1.491205 0.000000 0.000000
# 5 0.000000 0.000000 0.000000 0.000000 -0.024591 0.000000
# 6 0.000000 0.000000 0.000000 0.000000 0.000000 0.030611
#
#
# Mechanical properties :
#
#
# Convention : Reuss Voigt Hill
#
# Bulk Modulus (GPa) = 59.81821 80.56865 70.19343
# Shear Modulus (GPa) = -3.63312 12.76777 4.56732
#
# Velocity S-wave (km/s) = -1.31367 2.46266 1.47291
# Velocity P-wave (km/s) = 5.11005 6.80855 6.01951
#
# Compressibility (1/GPa) = 0.01671732
#
# Stress axis : x y z
#
# Youngs Moduli (GPa) = 169.77300 50.80065 29.00532
#
# Poissons Ratio (x) = 0.13847 0.03463
# Poissons Ratio (y) = 0.46275 0.51477
# Poissons Ratio (z) = 0.20271 0.90158
#
# Static dielectric constant tensor:
#      x y z
#    x 1.961430 0.000000 0.000000 
#    y 0.000000 1.840730 0.000000 
#    z 0.000000 0.000000 1.812640 
# 
# From -- ./inp_files/29361.got.cif
#   From: 2010.05.17/outbox.cif.g08.bks.cpg/sg48_15_cif.got.tgz:29361.got - 2010.06.03 20:39:00.
