data_PCOD9390186
_publ_section_title
;
Structure prediction by ZEFSAII (Michael W. Deem and Ramdas Pophale) SiO2 
 PCOD9390186
Probable space group: P N N N
;
_chemical_formula_sum "Si O2"
_cell_formula_units_Z 64
_cell_length_a 26.888947
_cell_length_b 5.543891
_cell_length_c 23.056228
_cell_angle_alpha 90.000000
_cell_angle_beta 90.000000
_cell_angle_gamma 90.000000
_cell_volume 3436.977873
_symmetry_space_group_name_H-M "P N N N"
_symmetry_group_IT_number 48
_space_group.IT_coordinate_system_code '2'
_symmetry_cell_setting 'orthorhombic'
loop_
_space_group_symop_operation_xyz
x,y,z
1/2-x,1/2-y,z
x,1/2-y,1/2-z
1/2-x,y,1/2-z
-x,-y,-z
1/2+x,1/2+y,-z
-x,1/2+y,1/2+z
1/2+x,-y,1/2+z
loop_
_atom_site_type_symbol
_atom_site_label
_atom_site_fract_x
_atom_site_fract_y
_atom_site_fract_z
Si Si1 0.882164 0.839024 0.398649
Si Si2 0.722176 0.507505 0.415943
Si Si3 0.885598 0.873686 0.594814
Si Si4 0.025652 0.245623 0.680275
Si Si5 0.945707 0.104748 0.498884
Si Si6 0.621285 0.489012 0.006757
Si Si7 0.700758 0.115383 0.956901
Si Si8 0.968321 0.753703 0.819619
O O1 0.832809 0.992986 0.387221
O O2 0.919875 0.769061 0.348192
O O3 0.863180 0.603386 0.432740
O O4 0.914695 0.970164 0.448651
O O5 0.750000 0.750000 0.395197
O O6 0.715094 0.539023 0.486175
O O7 0.750000 0.250000 0.407919
O O8 0.881436 0.668976 0.546455
O O9 0.914491 0.774847 0.650159
O O10 0.921775 0.062843 0.562199
O O11 0.830369 0.986174 0.593989
O O12 0.029088 0.250000 0.750000
O O13 0.995970 0.493650 0.663467
O O14 0.998737 0.991068 0.664463
O O15 0.934160 0.381590 0.485483
O O16 0.000000 0.000000 0.500000
O O17 0.662010 0.297677 0.987077
O O18 0.750000 0.250000 0.936185
O O19 0.963500 0.750000 0.750000
#
# Coordination Sequence:
#
# PCOD9390186 Si02
#       8
#     8   8   8   8   8   8   8   8
#     4  11  21  34  56  82 114 155 191 239 287 349
#     4  11  22  35  55  81 117 153 189 231 281 345
#     4  10  21  32  53  81 113 150 193 234 285 346
#     4  10  24  41  62  85 112 151 198 244 290 342
#     4  10  21  31  46  79 120 153 186 224 290 351
#     4  10  20  34  48  84 114 152 193 228 295 350
#     4  10  20  33  52  77 120 149 191 232 282 348
#     4  10  23  42  60  84 114 153 198 239 289 350
#
# _framework density 18.621009000000001
#
# number of rings (size 3 to 8) (size 9 to 14) (size 15 to 20)
#    0.000    1.750    3.750    2.250    8.750    1.000 
#    0.000    0.000    0.000    0.375    0.000    6.125 
#    0.000    0.000    0.000    0.000    0.000    0.000 
#
# Total GULP energy -356448.745568 kJ/mol
# GULP energy per Si atom -5569.511649 kJ/mol
# Density = 1.857863 g / cm^3
# Si number density = 18.621009 Si / 1000 Ang^3
#
#
#
# Elastic Constant Matrix: (Units=GPa)
#
#
# Indices 1 2 3 4 5 6 
#
# 1 144.7779 57.6274 29.3573 0.0000 0.0000 0.0000
# 2 57.6274 103.2637 22.3929 0.0000 0.0000 0.0000
# 3 29.3573 22.3929 34.6122 0.0000 0.0000 0.0000
# 4 0.0000 0.0000 0.0000 7.3727 0.0000 0.0000
# 5 0.0000 0.0000 0.0000 0.0000 16.0534 0.0000
# 6 0.0000 0.0000 0.0000 0.0000 0.0000 38.3110
#
#
#
# Elastic Compliance Matrix: (Units=1/GPa)
#
#
# Indices 1 2 3 4 5 6 
#
# 1 0.009703 -0.004222 -0.005498 0.000000 0.000000 0.000000
# 2 -0.004222 0.013102 -0.004895 0.000000 0.000000 0.000000
# 3 -0.005498 -0.004895 0.036722 0.000000 0.000000 0.000000
# 4 0.000000 0.000000 0.000000 0.135635 0.000000 0.000000
# 5 0.000000 0.000000 0.000000 0.000000 0.062292 0.000000
# 6 0.000000 0.000000 0.000000 0.000000 0.000000 0.026102
#
#
# Mechanical properties :
#
#
# Convention : Reuss Voigt Hill
#
# Bulk Modulus (GPa) = 33.00822 55.71210 44.36016
# Shear Modulus (GPa) = 15.48541 23.89916 19.69229
#
# Velocity S-wave (km/s) = 2.88689 3.58642 3.25550
# Velocity P-wave (km/s) = 5.37373 6.86540 6.16485
#
# Compressibility (1/GPa) = 0.03029548
#
# Stress axis : x y z
#
# Youngs Moduli (GPa) = 103.06467 76.32521 27.23196
#
# Poissons Ratio (x) = 0.32228 0.14972
# Poissons Ratio (y) = 0.43519 0.13330
# Poissons Ratio (z) = 0.56663 0.37362
#
# Static dielectric constant tensor:
#      x y z
#    x 1.713670 0.000000 0.000000 
#    y 0.000000 1.797170 0.000000 
#    z 0.000000 0.000000 1.609600 
# 
# From -- ./inp_files/36857.got.cif
#   From: 2010.05.17/outbox.cif.g08.bks.cpg/sg48_19_cif.got.tgz:36857.got - 2010.06.03 20:39:00.
