data_PCOD9390153
_publ_section_title
;
Structure prediction by ZEFSAII (Michael W. Deem and Ramdas Pophale) SiO2 
 PCOD9390153
Probable space group: P N N N
;
_chemical_formula_sum "Si O2"
_cell_formula_units_Z 48
_cell_length_a 25.104788
_cell_length_b 5.036267
_cell_length_c 24.104801
_cell_angle_alpha 90.000000
_cell_angle_beta 90.000000
_cell_angle_gamma 90.000000
_cell_volume 3047.676421
_symmetry_space_group_name_H-M "P N N N"
_symmetry_group_IT_number 48
_space_group.IT_coordinate_system_code '2'
_symmetry_cell_setting 'orthorhombic'
loop_
_space_group_symop_operation_xyz
x,y,z
1/2-x,1/2-y,z
x,1/2-y,1/2-z
1/2-x,y,1/2-z
-x,-y,-z
1/2+x,1/2+y,-z
-x,1/2+y,1/2+z
1/2+x,-y,1/2+z
loop_
_atom_site_type_symbol
_atom_site_label
_atom_site_fract_x
_atom_site_fract_y
_atom_site_fract_z
Si Si1 0.558763 0.419008 0.022402
Si Si2 0.152037 0.823562 0.186167
Si Si3 0.310134 0.331341 0.378312
Si Si4 0.999938 0.321265 0.120356
Si Si5 0.098162 0.104529 0.464135
Si Si6 0.974687 0.184111 0.813817
O O1 0.547478 0.289085 0.082037
O O2 0.500000 0.500000 0.000000
O O3 0.591188 0.689962 0.014877
O O4 0.585840 0.192852 0.984474
O O5 0.162985 0.750000 0.250000
O O6 0.184980 0.619437 0.149093
O O7 0.088838 0.778315 0.176909
O O8 0.166263 0.118937 0.166084
O O9 0.250000 0.250000 0.390309
O O10 0.346967 0.344584 0.432612
O O11 0.051973 0.329834 0.080765
O O12 0.994810 0.612916 0.145804
O O13 0.011199 0.113914 0.169285
O O14 0.985635 0.250000 0.750000
#
# Coordination Sequence:
#
# PCOD9390153 Si02
#       6
#     8   8   8   8   8   8
#     4  10  20  30  51  72  88 115 148 191 247 277
#     4  11  22  37  50  64  88 124 166 212 250 278
#     4  12  24  36  51  67  89 125 161 207 257 285
#     4  11  18  32  49  68  92 116 153 191 231 282
#     4  11  19  34  47  68  94 114 152 203 235 287
#     4  11  20  31  48  68  93 125 153 189 238 277
#
# _framework density 15.749705000000001
#
# number of rings (size 3 to 8) (size 9 to 14) (size 15 to 20)
#    0.000    1.000    3.333    7.500    0.000    4.667 
#    0.000    0.000    0.000    0.000    0.000    0.000 
#    0.000    0.000    0.000    0.000    0.000   58.333 
#
# Total GULP energy -267989.134041 kJ/mol
# GULP energy per Si atom -5583.106959 kJ/mol
# Density = 1.571386 g / cm^3
# Si number density = 15.749705 Si / 1000 Ang^3
#
#
#
# Elastic Constant Matrix: (Units=GPa)
#
#
# Indices 1 2 3 4 5 6 
#
# 1 38.9392 -1.1474 18.2462 0.0000 0.0000 0.0000
# 2 -1.1474 59.4267 -5.5475 0.0000 0.0000 0.0000
# 3 18.2462 -5.5475 35.5383 0.0000 0.0000 0.0000
# 4 0.0000 0.0000 0.0000 28.3029 0.0000 0.0000
# 5 0.0000 0.0000 0.0000 0.0000 7.0568 0.0000
# 6 0.0000 0.0000 0.0000 0.0000 0.0000 13.8520
#
#
#
# Elastic Compliance Matrix: (Units=1/GPa)
#
#
# Indices 1 2 3 4 5 6 
#
# 1 0.033873 -0.000984 -0.017545 0.000000 0.000000 0.000000
# 2 -0.000984 0.017105 0.003175 0.000000 0.000000 0.000000
# 3 -0.017545 0.003175 0.037642 0.000000 0.000000 0.000000
# 4 0.000000 0.000000 0.000000 0.035332 0.000000 0.000000
# 5 0.000000 0.000000 0.000000 0.000000 0.141707 0.000000
# 6 0.000000 0.000000 0.000000 0.000000 0.000000 0.072192
#
#
# Mechanical properties :
#
#
# Convention : Reuss Voigt Hill
#
# Bulk Modulus (GPa) = 17.26718 17.44520 17.35619
# Shear Modulus (GPa) = 12.89115 17.99921 15.44518
#
# Velocity S-wave (km/s) = 2.86405 3.38424 3.13495
# Velocity P-wave (km/s) = 4.68234 5.13530 4.91405
#
# Compressibility (1/GPa) = 0.05791333
#
# Stress axis : x y z
#
# Youngs Moduli (GPa) = 29.52180 58.46294 26.56587
#
# Poissons Ratio (x) = 0.05752 0.46610
# Poissons Ratio (y) = 0.02904 -0.08435
# Poissons Ratio (z) = 0.51796 -0.18563
#
# Static dielectric constant tensor:
#      x y z
#    x 1.511650 0.000000 0.000000 
#    y 0.000000 1.557910 0.000000 
#    z 0.000000 0.000000 1.545530 
# 
# From -- ./inp_files/34783.got.cif
#   From: 2010.05.17/outbox.cif.g08.bks.cpg/sg48_18_cif.got.tgz:34783.got - 2010.06.03 20:39:00.
