data_PCOD9390408
_publ_section_title
;
Structure prediction by ZEFSAII (Michael W. Deem and Ramdas Pophale) SiO2 
 PCOD9390408
Probable space group: P N N N
;
_chemical_formula_sum "Si O2"
_cell_formula_units_Z 40
_cell_length_a 9.379769
_cell_length_b 19.390390
_cell_length_c 11.478670
_cell_angle_alpha 90.000000
_cell_angle_beta 90.000000
_cell_angle_gamma 90.000000
_cell_volume 2087.710414
_symmetry_space_group_name_H-M "P N N N"
_symmetry_group_IT_number 48
_space_group.IT_coordinate_system_code '2'
_symmetry_cell_setting 'orthorhombic'
loop_
_space_group_symop_operation_xyz
x,y,z
1/2-x,1/2-y,z
x,1/2-y,1/2-z
1/2-x,y,1/2-z
-x,-y,-z
1/2+x,1/2+y,-z
-x,1/2+y,1/2+z
1/2+x,-y,1/2+z
loop_
_atom_site_type_symbol
_atom_site_label
_atom_site_fract_x
_atom_site_fract_y
_atom_site_fract_z
Si Si1 0.094887 0.275929 0.413071
Si Si2 0.995549 0.530157 0.370137
Si Si3 0.250000 0.449958 0.250000
Si Si4 0.598374 0.682127 0.182073
Si Si5 0.491777 0.141836 0.187616
Si Si6 0.750000 0.051482 0.250000
O O1 0.250000 0.250000 0.372993
O O2 0.113042 0.298071 0.545778
O O3 0.033529 0.331725 0.321646
O O4 0.000117 0.207778 0.395046
O O5 0.133683 0.496443 0.312067
O O6 0.000000 0.500000 0.500000
O O7 0.987068 0.610323 0.331512
O O8 0.849404 0.497033 0.325250
O O9 0.151658 0.402549 0.165514
O O10 0.537375 0.750000 0.250000
O O11 0.750000 0.670167 0.250000
O O12 0.636190 0.098780 0.182098
#
# Coordination Sequence:
#
# PCOD9390408 Si02
#       6
#     8   8   4   8   8   4
#     4  11  19  35  63  92 128 165 210 264 329 391
#     4  11  24  44  66  93 131 174 215 273 327 387
#     4  10  20  39  65  88 128 158 208 264 326 378
#     4  11  22  39  62  89 129 175 220 259 320 402
#     4  10  20  37  65 100 121 158 215 275 327 389
#     4  10  22  41  63  96 130 158 212 272 330 382
#
# _framework density 19.159745000000001
#
# number of rings (size 3 to 8) (size 9 to 14) (size 15 to 20)
#    0.000    1.400    5.000    3.000    0.000    1.600 
#    3.600    2.500    0.000    0.000    0.000    0.000 
#    0.000    0.000    0.000    0.000    0.000    0.000 
#
# Total GULP energy -222716.354380 kJ/mol
# GULP energy per Si atom -5567.908859 kJ/mol
# Density = 1.911614 g / cm^3
# Si number density = 19.159745 Si / 1000 Ang^3
#
#
#
# Elastic Constant Matrix: (Units=GPa)
#
#
# Indices 1 2 3 4 5 6 
#
# 1 106.6323 49.5736 31.7878 0.0000 0.0000 0.0000
# 2 49.5736 142.1406 36.2990 0.0000 0.0000 0.0000
# 3 31.7878 36.2990 115.9635 0.0000 0.0000 0.0000
# 4 0.0000 0.0000 0.0000 12.6960 0.0000 0.0000
# 5 0.0000 0.0000 0.0000 0.0000 1.4486 0.0000
# 6 0.0000 0.0000 0.0000 0.0000 0.0000 19.9904
#
#
#
# Elastic Compliance Matrix: (Units=1/GPa)
#
#
# Indices 1 2 3 4 5 6 
#
# 1 0.011640 -0.003527 -0.002087 0.000000 0.000000 0.000000
# 2 -0.003527 0.008715 -0.001761 0.000000 0.000000 0.000000
# 3 -0.002087 -0.001761 0.009747 0.000000 0.000000 0.000000
# 4 0.000000 0.000000 0.000000 0.078765 0.000000 0.000000
# 5 0.000000 0.000000 0.000000 0.000000 0.690345 0.000000
# 6 0.000000 0.000000 0.000000 0.000000 0.000000 0.050024
#
#
# Mechanical properties :
#
#
# Convention : Reuss Voigt Hill
#
# Bulk Modulus (GPa) = 65.13746 66.67303 65.90525
# Shear Modulus (GPa) = 5.75307 23.29873 14.52590
#
# Velocity S-wave (km/s) = 1.73471 3.49094 2.75643
# Velocity P-wave (km/s) = 6.17115 7.15003 6.67855
#
# Compressibility (1/GPa) = 0.01535215
#
# Stress axis : x y z
#
# Youngs Moduli (GPa) = 85.91354 114.74449 102.59844
#
# Poissons Ratio (x) = 0.40466 0.21410
# Poissons Ratio (y) = 0.30298 0.18070
# Poissons Ratio (z) = 0.17928 0.20210
#
# Static dielectric constant tensor:
#      x y z
#    x 1.661790 0.000000 0.000000 
#    y 0.000000 1.783300 0.000000 
#    z 0.000000 0.000000 1.452570 
# 
# From -- ./inp_files/18678.got.cif
#   From: 2010.05.17/outbox.cif.g08.bks.cpg/sg48_10_cif.got.tgz:18678.got - 2010.06.03 20:39:00.
