data_PCOD9390558
_publ_section_title
;
Structure prediction by ZEFSAII (Michael W. Deem and Ramdas Pophale) SiO2 
 PCOD9390558
Probable space group: P N N N
;
_chemical_formula_sum "Si O2"
_cell_formula_units_Z 54
_cell_length_a 6.139883
_cell_length_b 13.706120
_cell_length_c 29.032330
_cell_angle_alpha 90.000000
_cell_angle_beta 90.000000
_cell_angle_gamma 90.000000
_cell_volume 2443.185920
_symmetry_space_group_name_H-M "P N N N"
_symmetry_group_IT_number 48
_space_group.IT_coordinate_system_code '2'
_symmetry_cell_setting 'orthorhombic'
loop_
_space_group_symop_operation_xyz
x,y,z
1/2-x,1/2-y,z
x,1/2-y,1/2-z
1/2-x,y,1/2-z
-x,-y,-z
1/2+x,1/2+y,-z
-x,1/2+y,1/2+z
1/2+x,-y,1/2+z
loop_
_atom_site_type_symbol
_atom_site_label
_atom_site_fract_x
_atom_site_fract_y
_atom_site_fract_z
Si Si1 0.413532 0.017748 0.153516
Si Si2 0.992497 0.595083 0.243630
Si Si3 0.750000 0.250000 0.250000
Si Si4 0.088232 0.890665 0.999389
Si Si5 0.472053 0.404725 0.193207
Si Si6 0.227094 0.863249 0.894859
Si Si7 0.861438 0.148059 0.587138
Si Si8 0.250000 0.250000 0.950128
O O1 0.520828 0.949882 0.192391
O O2 0.557596 0.077426 0.117749
O O3 0.285746 0.097160 0.184591
O O4 0.296393 0.936972 0.121856
O O5 0.250000 0.634721 0.250000
O O6 0.750000 0.644104 0.250000
O O7 0.991411 0.504796 0.279389
O O8 0.596209 0.319447 0.219376
O O9 0.161407 0.869769 0.947710
O O10 0.281961 0.880274 0.036124
O O11 0.911285 0.813089 0.018043
O O12 0.000000 0.000000 0.000000
O O13 0.557071 0.407865 0.141055
O O14 0.250000 0.750000 0.883257
O O15 0.750000 0.250000 0.600754
O O16 0.115361 0.174518 0.581640
#
# Coordination Sequence:
#
# PCOD9390558 Si02
#       8
#     8   8   2   8   8   8   8   4
#     4  11  24  42  66  95 133 182 231 290 351 427
#     4  10  20  41  63  95 130 185 227 288 351 430
#     4  12  20  44  62  92 142 186 250 268 350 424
#     4  11  24  41  67  96 137 180 225 287 356 431
#     4  11  23  40  62  91 137 184 231 281 342 432
#     4  12  24  39  57  97 138 178 232 274 336 433
#     4  10  23  45  69 101 129 175 240 293 362 426
#     4  10  22  44  68  98 135 181 220 294 352 418
#
# _framework density 22.102288000000001
#
# number of rings (size 3 to 8) (size 9 to 14) (size 15 to 20)
#    0.000    1.185    2.963    3.111    0.000    7.704 
#    5.333    0.000    0.000    4.000    1.926    0.000 
#    0.000    0.000    0.000    0.000    0.000    0.000 
#
# Total GULP energy -301199.777818 kJ/mol
# GULP energy per Si atom -5577.773663 kJ/mol
# Density = 2.205198 g / cm^3
# Si number density = 22.102288 Si / 1000 Ang^3
#
#
#
# Elastic Constant Matrix: (Units=GPa)
#
#
# Indices 1 2 3 4 5 6 
#
# 1 98.2033 30.4048 25.5429 0.0000 0.0000 0.0000
# 2 30.4048 111.1947 28.4581 0.0000 0.0000 0.0000
# 3 25.5429 28.4581 116.6695 0.0000 0.0000 0.0000
# 4 0.0000 0.0000 0.0000 59.3867 0.0000 0.0000
# 5 0.0000 0.0000 0.0000 0.0000 38.9922 0.0000
# 6 0.0000 0.0000 0.0000 0.0000 0.0000-1497.9850
#
#
#
# Elastic Compliance Matrix: (Units=1/GPa)
#
#
# Indices 1 2 3 4 5 6 
#
# 1 0.011494 -0.002665 -0.001866 0.000000 0.000000 0.000000
# 2 -0.002665 0.010210 -0.001907 0.000000 0.000000 0.000000
# 3 -0.001866 -0.001907 0.009445 0.000000 0.000000 0.000000
# 4 0.000000 0.000000 0.000000 0.016839 0.000000 0.000000
# 5 0.000000 0.000000 0.000000 0.000000 0.025646 0.000000
# 6 0.000000 0.000000 0.000000 0.000000 0.000000 -0.000668
#
#
# Mechanical properties :
#
#
# Convention : Reuss Voigt Hill
#
# Bulk Modulus (GPa) = 54.72898 54.98657 54.85777
# Shear Modulus (GPa) = 54.38735 -263.81044 -104.71154
#
# Velocity S-wave (km/s) = 4.96594 -10.93700 -6.89048
# Velocity P-wave (km/s) = 7.59580 11.59993 6.19929
#
# Compressibility (1/GPa) = 0.01827186
#
# Stress axis : x y z
#
# Youngs Moduli (GPa) = 87.00552 97.94289 105.87671
#
# Poissons Ratio (x) = 0.26103 0.19759
# Poissons Ratio (y) = 0.23188 0.20190
# Poissons Ratio (z) = 0.16237 0.18677
#
# Static dielectric constant tensor:
#      x y z
#    x 1.987930 0.000000 0.000000 
#    y 0.000000 1.786650 0.000000 
#    z 0.000000 0.000000 1.771410 
# 
# From -- ./inp_files/3751.got.cif
#   From: 2010.05.17/outbox.cif.g08.bks.cpg/sg48_2_cif.got.tgz:3751.got - 2010.06.03 20:39:00.
