data_PCOD9390118
_publ_section_title
;
Structure prediction by ZEFSAII (Michael W. Deem and Ramdas Pophale) SiO2 
 PCOD9390118
Probable space group: P N N N
;
_chemical_formula_sum "Si O2"
_cell_formula_units_Z 60
_cell_length_a 12.174463
_cell_length_b 20.361617
_cell_length_c 12.060730
_cell_angle_alpha 90.000000
_cell_angle_beta 90.000000
_cell_angle_gamma 90.000000
_cell_volume 2989.755500
_symmetry_space_group_name_H-M "P N N N"
_symmetry_group_IT_number 48
_space_group.IT_coordinate_system_code '2'
_symmetry_cell_setting 'orthorhombic'
loop_
_space_group_symop_operation_xyz
x,y,z
1/2-x,1/2-y,z
x,1/2-y,1/2-z
1/2-x,y,1/2-z
-x,-y,-z
1/2+x,1/2+y,-z
-x,1/2+y,1/2+z
1/2+x,-y,1/2+z
loop_
_atom_site_type_symbol
_atom_site_label
_atom_site_fract_x
_atom_site_fract_y
_atom_site_fract_z
Si Si1 0.941024 0.432045 0.967875
Si Si2 0.750000 0.750000 0.026394
Si Si3 0.365164 0.560966 0.805060
Si Si4 0.525476 0.047811 0.720563
Si Si5 0.301586 0.986927 0.465002
Si Si6 0.869090 0.878066 0.048484
Si Si7 0.004616 0.823069 0.843236
Si Si8 0.051474 0.315808 0.108616
O O1 0.955110 0.417278 0.837169
O O2 0.812107 0.448508 0.977913
O O3 0.000000 0.500000 0.000000
O O4 0.991875 0.373755 0.042061
O O5 0.841859 0.713172 0.952317
O O6 0.807144 0.811811 0.086930
O O7 0.250000 0.543284 0.750000
O O8 0.462313 0.519782 0.749828
O O9 0.389103 0.637534 0.803877
O O10 0.372733 0.539711 0.932758
O O11 0.442342 0.090339 0.645324
O O12 0.632866 0.028695 0.648076
O O13 0.292340 0.064513 0.495062
O O14 0.948143 0.856563 0.948320
O O15 0.025603 0.748318 0.876243
O O16 0.923811 0.831192 0.737377
#
# Coordination Sequence:
#
# PCOD9390118 Si02
#       8
#     8   4   8   8   8   8   8   8
#     4  12  25  41  60  95 135 162 215 275 326 387
#     4  10  22  41  65  94 126 172 211 263 334 380
#     4  11  20  36  65  96 126 166 213 273 330 378
#     4  11  22  41  63  95 131 170 215 269 325 407
#     4  11  21  39  65  94 125 173 216 262 329 392
#     4  10  20  38  66  92 126 164 216 261 314 395
#     4  10  19  39  62  85 130 162 211 265 320 391
#     4  10  23  39  59  93 126 164 210 271 323 386
#
# _framework density 20.068529999999999
#
# number of rings (size 3 to 8) (size 9 to 14) (size 15 to 20)
#    0.000    1.333    2.667    4.400    0.000    5.333 
#    2.400    8.000    0.000    0.000    6.933    0.000 
#    0.000    0.000    0.000    0.000    0.000    0.000 
#
# Total GULP energy -334568.615987 kJ/mol
# GULP energy per Si atom -5576.143600 kJ/mol
# Density = 2.002285 g / cm^3
# Si number density = 20.068530 Si / 1000 Ang^3
#
#
#
# Elastic Constant Matrix: (Units=GPa)
#
#
# Indices 1 2 3 4 5 6 
#
# 1 58.1433 44.1873 4.9851 0.0000 0.0000 0.0000
# 2 44.1873 148.7153 42.4411 0.0000 0.0000 0.0000
# 3 4.9851 42.4411 97.2937 0.0000 0.0000 0.0000
# 4 0.0000 0.0000 0.0000 29.2530 0.0000 0.0000
# 5 0.0000 0.0000 0.0000 0.0000 22.3772 0.0000
# 6 0.0000 0.0000 0.0000 0.0000 0.0000 36.2437
#
#
#
# Elastic Compliance Matrix: (Units=1/GPa)
#
#
# Indices 1 2 3 4 5 6 
#
# 1 0.022557 -0.007279 0.002019 0.000000 0.000000 0.000000
# 2 -0.007279 0.010029 -0.004002 0.000000 0.000000 0.000000
# 3 0.002019 -0.004002 0.011920 0.000000 0.000000 0.000000
# 4 0.000000 0.000000 0.000000 0.034185 0.000000 0.000000
# 5 0.000000 0.000000 0.000000 0.000000 0.044688 0.000000
# 6 0.000000 0.000000 0.000000 0.000000 0.000000 0.027591
#
#
# Mechanical properties :
#
#
# Convention : Reuss Voigt Hill
#
# Bulk Modulus (GPa) = 38.48489 54.15325 46.31907
# Shear Modulus (GPa) = 28.06552 31.74403 29.90478
#
# Velocity S-wave (km/s) = 3.74369 3.98148 3.86441
# Velocity P-wave (km/s) = 6.15673 6.94111 6.56065
#
# Compressibility (1/GPa) = 0.02598422
#
# Stress axis : x y z
#
# Youngs Moduli (GPa) = 44.33148 99.71062 83.88997
#
# Poissons Ratio (x) = 0.72576 -0.16940
# Poissons Ratio (y) = 0.32267 0.33572
# Poissons Ratio (z) = -0.08952 0.39903
#
# Static dielectric constant tensor:
#      x y z
#    x 1.759820 0.000000 0.000000 
#    y 0.000000 1.753900 0.000000 
#    z 0.000000 0.000000 1.740770 
# 
# From -- ./inp_files/20320.got.cif
#   From: 2010.05.17/outbox.cif.g08.bks.cpg/sg48_11_cif.got.tgz:20320.got - 2010.06.03 20:39:00.
