data_PCOD9390072
_publ_section_title
;
Structure prediction by ZEFSAII (Michael W. Deem and Ramdas Pophale) SiO2 
 PCOD9390072
Probable space group: P N N N
;
_chemical_formula_sum "Si O2"
_cell_formula_units_Z 40
_cell_length_a 9.076382
_cell_length_b 11.038352
_cell_length_c 18.221287
_cell_angle_alpha 90.000000
_cell_angle_beta 90.000000
_cell_angle_gamma 90.000000
_cell_volume 1825.559757
_symmetry_space_group_name_H-M "P N N N"
_symmetry_group_IT_number 48
_space_group.IT_coordinate_system_code '2'
_symmetry_cell_setting 'orthorhombic'
loop_
_space_group_symop_operation_xyz
x,y,z
1/2-x,1/2-y,z
x,1/2-y,1/2-z
1/2-x,y,1/2-z
-x,-y,-z
1/2+x,1/2+y,-z
-x,1/2+y,1/2+z
1/2+x,-y,1/2+z
loop_
_atom_site_type_symbol
_atom_site_label
_atom_site_fract_x
_atom_site_fract_y
_atom_site_fract_z
Si Si1 0.250000 0.454173 0.750000
Si Si2 0.116240 0.321078 0.383634
Si Si3 0.750000 0.750000 0.143787
Si Si4 0.287520 0.942222 0.468857
Si Si5 0.695545 0.384074 0.130193
Si Si6 0.505944 0.286854 0.533565
O O1 0.321914 0.355268 0.805098
O O2 0.199287 0.550204 0.811872
O O3 0.250000 0.250000 0.346142
O O4 0.179599 0.441526 0.421425
O O5 0.970248 0.362017 0.339973
O O6 0.059710 0.238533 0.452539
O O7 0.623433 0.801467 0.091739
O O8 0.317573 0.960174 0.555536
O O9 0.397024 0.832514 0.447968
O O10 0.120317 0.896655 0.463910
O O11 0.750000 0.250000 0.109897
#
# Coordination Sequence:
#
# PCOD9390072 Si02
#       6
#     4   8   4   8   8   8
#     4  11  25  38  62  84 123 167 204 236 284 377
#     4  11  21  34  59  95 126 152 195 262 317 361
#     4  11  22  40  62  94 116 153 206 258 296 353
#     4  10  20  37  62  92 122 158 191 261 327 355
#     4  11  21  41  60  87 123 165 208 241 299 374
#     4  10  19  37  61  92 122 150 200 261 314 359
#
# _framework density 21.911089
#
# number of rings (size 3 to 8) (size 9 to 14) (size 15 to 20)
#    0.000    1.400    5.000    5.100    0.000    2.400 
#    0.000    0.000    0.000   32.400    0.000    0.000 
#    0.000    0.000    0.000    0.000    0.000    0.000 
#
# Total GULP energy -223010.585281 kJ/mol
# GULP energy per Si atom -5575.264632 kJ/mol
# Density = 2.186122 g / cm^3
# Si number density = 21.911089 Si / 1000 Ang^3
#
#
#
# Elastic Constant Matrix: (Units=GPa)
#
#
# Indices 1 2 3 4 5 6 
#
# 1 123.2391 27.7491 11.1396 0.0000 0.0000 0.0000
# 2 27.7491 65.4371 9.2503 0.0000 0.0000 0.0000
# 3 11.1396 9.2503 49.6637 0.0000 0.0000 0.0000
# 4 0.0000 0.0000 0.0000 21.6252 0.0000 0.0000
# 5 0.0000 0.0000 0.0000 0.0000 7.2603 0.0000
# 6 0.0000 0.0000 0.0000 0.0000 0.0000 31.3798
#
#
#
# Elastic Compliance Matrix: (Units=1/GPa)
#
#
# Indices 1 2 3 4 5 6 
#
# 1 0.009058 -0.003650 -0.001352 0.000000 0.000000 0.000000
# 2 -0.003650 0.017166 -0.002379 0.000000 0.000000 0.000000
# 3 -0.001352 -0.002379 0.020882 0.000000 0.000000 0.000000
# 4 0.000000 0.000000 0.000000 0.046242 0.000000 0.000000
# 5 0.000000 0.000000 0.000000 0.000000 0.137734 0.000000
# 6 0.000000 0.000000 0.000000 0.000000 0.000000 0.031868
#
#
# Mechanical properties :
#
#
# Convention : Reuss Voigt Hill
#
# Bulk Modulus (GPa) = 30.91694 37.17978 34.04836
# Shear Modulus (GPa) = 17.33141 24.73312 21.03227
#
# Velocity S-wave (km/s) = 2.81550 3.36340 3.10157
# Velocity P-wave (km/s) = 4.97094 5.66468 5.32911
#
# Compressibility (1/GPa) = 0.03234473
#
# Stress axis : x y z
#
# Youngs Moduli (GPa) = 110.39478 58.25479 47.88878
#
# Poissons Ratio (x) = 0.21264 0.06474
# Poissons Ratio (y) = 0.40296 0.11391
# Poissons Ratio (z) = 0.14925 0.13856
#
# Static dielectric constant tensor:
#      x y z
#    x 1.868930 0.000000 0.000000 
#    y 0.000000 1.864020 0.000000 
#    z 0.000000 0.000000 1.776040 
# 
# From -- ./inp_files/18666.got.cif
#   From: 2010.05.17/outbox.cif.g08.bks.cpg/sg48_10_cif.got.tgz:18666.got - 2010.06.03 20:39:00.
