data_PCOD9390540
_publ_section_title
;
Structure prediction by ZEFSAII (Michael W. Deem and Ramdas Pophale) SiO2 
 PCOD9390540
Probable space group: P N N N
;
_chemical_formula_sum "Si O2"
_cell_formula_units_Z 56
_cell_length_a 23.198906
_cell_length_b 8.894834
_cell_length_c 12.600508
_cell_angle_alpha 90.000000
_cell_angle_beta 90.000000
_cell_angle_gamma 90.000000
_cell_volume 2600.120091
_symmetry_space_group_name_H-M "P N N N"
_symmetry_group_IT_number 48
_space_group.IT_coordinate_system_code '2'
_symmetry_cell_setting 'orthorhombic'
loop_
_space_group_symop_operation_xyz
x,y,z
1/2-x,1/2-y,z
x,1/2-y,1/2-z
1/2-x,y,1/2-z
-x,-y,-z
1/2+x,1/2+y,-z
-x,1/2+y,1/2+z
1/2+x,-y,1/2+z
loop_
_atom_site_type_symbol
_atom_site_label
_atom_site_fract_x
_atom_site_fract_y
_atom_site_fract_z
Si Si1 0.669832 0.500552 0.080399
Si Si2 0.638940 0.561120 0.519040
Si Si3 0.250000 0.250000 0.995804
Si Si4 0.995900 0.036660 0.814579
Si Si5 0.904480 0.250000 0.750000
Si Si6 0.886628 0.074315 0.286051
Si Si7 0.316496 0.749754 0.085326
Si Si8 0.942507 0.672104 0.510871
O O1 0.723692 0.607529 0.063245
O O2 0.658531 0.493437 0.203764
O O3 0.612719 0.571637 0.025730
O O4 0.680414 0.340244 0.025096
O O5 0.692222 0.675275 0.544008
O O6 0.631385 0.486445 0.401345
O O7 0.655997 0.414706 0.584373
O O8 0.581980 0.662074 0.532465
O O9 0.949420 0.112668 0.738079
O O10 0.015017 0.153600 0.909250
O O11 0.051119 0.989937 0.746915
O O12 0.971674 0.898593 0.884971
O O13 0.860608 0.174920 0.833979
O O14 0.888101 0.250000 0.250000
O O15 0.250000 0.750000 0.118142
#
# Coordination Sequence:
#
# PCOD9390540 Si02
#       8
#     8   8   4   8   4   8   8   8
#     4  10  20  40  64  90 129 164 212 259 327 374
#     4  11  23  39  65  93 131 168 216 261 328 391
#     4  10  22  39  64  91 124 170 208 261 316 397
#     4  10  21  40  64  93 134 171 213 264 325 389
#     4  12  25  42  70  92 120 173 226 264 328 390
#     4  11  23  38  61  98 134 168 208 266 319 398
#     4  12  24  44  64  94 123 168 218 277 321 388
#     4   9  20  39  66  94 129 172 207 265 318 384
#
# _framework density 21.537468000000001
#
# number of rings (size 3 to 8) (size 9 to 14) (size 15 to 20)
#    0.000    1.429    4.286    1.071    0.000    6.857 
#    0.000    3.571    0.000    0.857    0.000    0.000 
#    0.000    0.000    0.000    0.000    0.000    0.000 
#
# Total GULP energy -311866.037436 kJ/mol
# GULP energy per Si atom -5569.036383 kJ/mol
# Density = 2.148845 g / cm^3
# Si number density = 21.537468 Si / 1000 Ang^3
#
#
#
# Elastic Constant Matrix: (Units=GPa)
#
#
# Indices 1 2 3 4 5 6 
#
# 1 67.7306 15.5504 7.6870 0.0000 0.0000 0.0000
# 2 15.5504 82.6609 0.0637 0.0000 0.0000 0.0000
# 3 7.6870 0.0637 33.1696 0.0000 0.0000 0.0000
# 4 0.0000 0.0000 0.0000 16.7552 0.0000 0.0000
# 5 0.0000 0.0000 0.0000 0.0000 1.1670 0.0000
# 6 0.0000 0.0000 0.0000 0.0000 0.0000 36.8191
#
#
#
# Elastic Compliance Matrix: (Units=1/GPa)
#
#
# Indices 1 2 3 4 5 6 
#
# 1 0.015866 -0.002982 -0.003671 0.000000 0.000000 0.000000
# 2 -0.002982 0.012658 0.000667 0.000000 0.000000 0.000000
# 3 -0.003671 0.000667 0.030998 0.000000 0.000000 0.000000
# 4 0.000000 0.000000 0.000000 0.059683 0.000000 0.000000
# 5 0.000000 0.000000 0.000000 0.000000 0.856869 0.000000
# 6 0.000000 0.000000 0.000000 0.000000 0.000000 0.027160
#
#
# Mechanical properties :
#
#
# Convention : Reuss Voigt Hill
#
# Bulk Modulus (GPa) = 21.03102 25.57370 23.30236
# Shear Modulus (GPa) = 4.84940 21.63227 13.24084
#
# Velocity S-wave (km/s) = 1.50217 3.17267 2.48217
# Velocity P-wave (km/s) = 3.57697 5.03199 4.36553
#
# Compressibility (1/GPa) = 0.04754881
#
# Stress axis : x y z
#
# Youngs Moduli (GPa) = 63.02934 79.00100 32.26061
#
# Poissons Ratio (x) = 0.23557 0.11843
# Poissons Ratio (y) = 0.18795 -0.02151
# Poissons Ratio (z) = 0.23139 -0.05267
#
# Static dielectric constant tensor:
#      x y z
#    x 1.762800 0.000000 0.000000 
#    y 0.000000 1.574560 0.000000 
#    z 0.000000 0.000000 1.785890 
# 
# From -- ./inp_files/28389.got.cif
#   From: 2010.05.17/outbox.cif.g08.bks.cpg/sg48_15_cif.got.tgz:28389.got - 2010.06.03 20:39:00.
