data_PCOD9390064
_publ_section_title
;
Structure prediction by ZEFSAII (Michael W. Deem and Ramdas Pophale) SiO2 
 PCOD9390064
Probable space group: P N N N
;
_chemical_formula_sum "Si O2"
_cell_formula_units_Z 58
_cell_length_a 23.759012
_cell_length_b 9.673702
_cell_length_c 12.222029
_cell_angle_alpha 90.000000
_cell_angle_beta 90.000000
_cell_angle_gamma 90.000000
_cell_volume 2809.081836
_symmetry_space_group_name_H-M "P N N N"
_symmetry_group_IT_number 48
_space_group.IT_coordinate_system_code '2'
_symmetry_cell_setting 'orthorhombic'
loop_
_space_group_symop_operation_xyz
x,y,z
1/2-x,1/2-y,z
x,1/2-y,1/2-z
1/2-x,y,1/2-z
-x,-y,-z
1/2+x,1/2+y,-z
-x,1/2+y,1/2+z
1/2+x,-y,1/2+z
loop_
_atom_site_type_symbol
_atom_site_label
_atom_site_fract_x
_atom_site_fract_y
_atom_site_fract_z
Si Si1 0.816629 0.235745 0.379302
Si Si2 0.598927 0.491106 0.400110
Si Si3 0.850049 0.142164 0.896314
Si Si4 0.250000 0.750000 0.250000
Si Si5 0.020208 0.521792 0.718267
Si Si6 0.564711 0.718314 0.076591
Si Si7 0.550696 0.143973 0.893975
Si Si8 0.908048 0.853438 0.847186
O O1 0.750000 0.250000 0.390903
O O2 0.829399 0.250000 0.250000
O O3 0.841714 0.084512 0.408091
O O4 0.841957 0.339996 0.471417
O O5 0.561026 0.413636 0.309047
O O6 0.593965 0.650646 0.364300
O O7 0.568611 0.469858 0.516860
O O8 0.792118 0.168223 0.831241
O O9 0.895154 0.263204 0.871684
O O10 0.875708 0.998584 0.854165
O O11 0.977881 0.423027 0.788191
O O12 0.975329 0.619903 0.661648
O O13 0.056969 0.427771 0.636760
O O14 0.499892 0.764053 0.058424
O O15 0.599386 0.709809 0.966078
O O16 0.891544 0.750000 0.750000
#
# Coordination Sequence:
#
# PCOD9390064 Si02
#       8
#     8   8   8   2   8   8   8   8
#     4  10  23  45  70 100 127 165 226 296 341 396
#     4  10  21  35  64  92 129 170 217 260 335 390
#     4  11  24  41  69  97 126 175 226 285 341 397
#     4  12  24  44  72  96 120 164 244 288 336 398
#     4  11  21  36  58  93 137 175 213 258 325 411
#     4  11  22  36  56  95 134 174 211 255 329 416
#     4  10  19  37  59  91 129 169 211 269 327 399
#     4  12  25  40  60  92 140 180 218 272 338 408
#
# _framework density 20.647316
#
# number of rings (size 3 to 8) (size 9 to 14) (size 15 to 20)
#    0.000    1.241    2.069    6.207    1.931    2.759 
#    0.000    0.345    0.000    0.000    0.000    0.000 
#    0.000    0.000    0.000    0.000    0.000    0.000 
#
# Total GULP energy -323563.862366 kJ/mol
# GULP energy per Si atom -5578.687282 kJ/mol
# Density = 2.060032 g / cm^3
# Si number density = 20.647316 Si / 1000 Ang^3
#
#
#
# Elastic Constant Matrix: (Units=GPa)
#
#
# Indices 1 2 3 4 5 6 
#
# 1 99.3785 31.4539 17.4725 0.0000 0.0000 0.0000
# 2 31.4539 62.5978 23.8913 0.0000 0.0000 0.0000
# 3 17.4725 23.8913 115.2748 0.0000 0.0000 0.0000
# 4 0.0000 0.0000 0.0000 39.6125 0.0000 0.0000
# 5 0.0000 0.0000 0.0000 0.0000 23.0198 0.0000
# 6 0.0000 0.0000 0.0000 0.0000 0.0000 28.0041
#
#
#
# Elastic Compliance Matrix: (Units=1/GPa)
#
#
# Indices 1 2 3 4 5 6 
#
# 1 0.012006 -0.005797 -0.000618 0.000000 0.000000 0.000000
# 2 -0.005797 0.020146 -0.003297 0.000000 0.000000 0.000000
# 3 -0.000618 -0.003297 0.009452 0.000000 0.000000 0.000000
# 4 0.000000 0.000000 0.000000 0.025245 0.000000 0.000000
# 5 0.000000 0.000000 0.000000 0.000000 0.043441 0.000000
# 6 0.000000 0.000000 0.000000 0.000000 0.000000 0.035709
#
#
# Mechanical properties :
#
#
# Convention : Reuss Voigt Hill
#
# Bulk Modulus (GPa) = 45.08524 46.98739 46.03632
# Shear Modulus (GPa) = 28.93264 31.75618 30.34441
#
# Velocity S-wave (km/s) = 3.74743 3.92603 3.83777
# Velocity P-wave (km/s) = 6.37241 6.58469 6.47942
#
# Compressibility (1/GPa) = 0.02218021
#
# Stress axis : x y z
#
# Youngs Moduli (GPa) = 83.29205 49.63780 105.79864
#
# Poissons Ratio (x) = 0.28773 0.06542
# Poissons Ratio (y) = 0.48282 0.34879
# Poissons Ratio (z) = 0.05151 0.16364
#
# Static dielectric constant tensor:
#      x y z
#    x 1.700510 0.000000 0.000000 
#    y 0.000000 1.812290 0.000000 
#    z 0.000000 0.000000 1.850100 
# 
# From -- ./inp_files/23645.got.cif
#   From: 2010.05.17/outbox.cif.g08.bks.cpg/sg48_12_cif.got.tgz:23645.got - 2010.06.03 20:39:00.
