data_PCOD9390414
_publ_section_title
;
Structure prediction by ZEFSAII (Michael W. Deem and Ramdas Pophale) SiO2 
 PCOD9390414
Probable space group: P N N N
;
_chemical_formula_sum "Si O2"
_cell_formula_units_Z 32
_cell_length_a 8.552891
_cell_length_b 11.515695
_cell_length_c 13.562724
_cell_angle_alpha 90.000000
_cell_angle_beta 90.000000
_cell_angle_gamma 90.000000
_cell_volume 1335.826378
_symmetry_space_group_name_H-M "P N N N"
_symmetry_group_IT_number 48
_space_group.IT_coordinate_system_code '2'
_symmetry_cell_setting 'orthorhombic'
loop_
_space_group_symop_operation_xyz
x,y,z
1/2-x,1/2-y,z
x,1/2-y,1/2-z
1/2-x,y,1/2-z
-x,-y,-z
1/2+x,1/2+y,-z
-x,1/2+y,1/2+z
1/2+x,-y,1/2+z
loop_
_atom_site_type_symbol
_atom_site_label
_atom_site_fract_x
_atom_site_fract_y
_atom_site_fract_z
Si Si1 0.862047 0.631777 0.453487
Si Si2 0.938267 0.751394 0.863538
Si Si3 0.579650 0.385740 0.767695
Si Si4 0.848901 0.043625 0.351584
O O1 0.750000 0.750000 0.438818
O O2 0.950764 0.646252 0.557486
O O3 0.751012 0.522131 0.434456
O O4 0.995436 0.613630 0.372507
O O5 0.750000 0.750000 0.858598
O O6 0.986809 0.750000 0.750000
O O7 0.046713 0.645468 0.898991
O O8 0.592006 0.250000 0.750000
O O9 0.750000 0.440713 0.750000
O O10 0.466174 0.448070 0.691750
O O11 0.750000 0.076044 0.250000
#
# Coordination Sequence:
#
# PCOD9390414 Si02
#       4
#     8   8   8   8
#     4  10  20  41  71  99 143 188 242 300 356 432
#     4  10  24  44  70 101 150 192 238 299 361 432
#     4  10  20  37  66 105 141 180 240 306 358 422
#     4  10  22  42  74 104 139 197 242 293 370 428
#
# _framework density 23.955207999999999
#
# number of rings (size 3 to 8) (size 9 to 14) (size 15 to 20)
#    0.000    2.000    2.500    0.000    3.500    4.500 
#    0.000   10.000    0.000    0.000    0.000    0.000 
#    0.000    0.000    0.000    0.000    0.000    0.000 
#
# Total GULP energy -178332.308420 kJ/mol
# GULP energy per Si atom -5572.884638 kJ/mol
# Density = 2.390068 g / cm^3
# Si number density = 23.955208 Si / 1000 Ang^3
#
#
#
# Elastic Constant Matrix: (Units=GPa)
#
#
# Indices 1 2 3 4 5 6 
#
# 1 139.3421 82.1202 44.6673 0.0000 0.0000 0.0000
# 2 82.1202 103.0258 54.3587 0.0000 0.0000 0.0000
# 3 44.6673 54.3587 141.9373 0.0000 0.0000 0.0000
# 4 0.0000 0.0000 0.0000 -4.3691 0.0000 0.0000
# 5 0.0000 0.0000 0.0000 0.0000 0.1526 0.0000
# 6 0.0000 0.0000 0.0000 0.0000 0.0000 50.2597
#
#
#
# Elastic Compliance Matrix: (Units=1/GPa)
#
#
# Indices 1 2 3 4 5 6 
#
# 1 0.013537 -0.010706 -0.000160 0.000000 0.000000 0.000000
# 2 -0.010706 0.020631 -0.004532 0.000000 0.000000 0.000000
# 3 -0.000160 -0.004532 0.008831 0.000000 0.000000 0.000000
# 4 0.000000 0.000000 0.000000 -0.228879 0.000000 0.000000
# 5 0.000000 0.000000 0.000000 0.000000 6.553874 0.000000
# 6 0.000000 0.000000 0.000000 0.000000 0.000000 0.019897
#
#
# Mechanical properties :
#
#
# Convention : Reuss Voigt Hill
#
# Bulk Modulus (GPa) = 81.94252 82.95529 82.44890
# Shear Modulus (GPa) = 0.77848 22.75257 11.76553
#
# Velocity S-wave (km/s) = 0.57068 3.08522 2.21859
# Velocity P-wave (km/s) = 5.89195 6.88447 6.40746
#
# Compressibility (1/GPa) = 0.01220368
#
# Stress axis : x y z
#
# Youngs Moduli (GPa) = 73.86966 48.47054 113.23217
#
# Poissons Ratio (x) = 0.51892 0.01812
# Poissons Ratio (y) = 0.79085 0.51318
# Poissons Ratio (z) = 0.01182 0.21967
#
# Static dielectric constant tensor:
#      x y z
#    x 2.005470 0.000000 0.000000 
#    y 0.000000 1.953980 0.000000 
#    z 0.000000 0.000000 1.980180 
# 
# From -- ./inp_files/24801.got.cif
#   From: 2010.05.17/outbox.cif.g08.bks.cpg/sg48_13_cif.got.tgz:24801.got - 2010.06.03 20:39:00.
