data_PCOD9390566
_publ_section_title
;
Structure prediction by ZEFSAII (Michael W. Deem and Ramdas Pophale) SiO2 
 PCOD9390566
Probable space group: P N N N
;
_chemical_formula_sum "Si O2"
_cell_formula_units_Z 40
_cell_length_a 12.034068
_cell_length_b 15.121244
_cell_length_c 10.641686
_cell_angle_alpha 90.000000
_cell_angle_beta 90.000000
_cell_angle_gamma 90.000000
_cell_volume 1936.468437
_symmetry_space_group_name_H-M "P N N N"
_symmetry_group_IT_number 48
_space_group.IT_coordinate_system_code '2'
_symmetry_cell_setting 'orthorhombic'
loop_
_space_group_symop_operation_xyz
x,y,z
1/2-x,1/2-y,z
x,1/2-y,1/2-z
1/2-x,y,1/2-z
-x,-y,-z
1/2+x,1/2+y,-z
-x,1/2+y,1/2+z
1/2+x,-y,1/2+z
loop_
_atom_site_type_symbol
_atom_site_label
_atom_site_fract_x
_atom_site_fract_y
_atom_site_fract_z
Si Si1 0.379952 0.251188 0.401866
Si Si2 0.284062 0.648416 0.962903
Si Si3 0.125059 0.928024 0.221831
Si Si4 0.996838 0.074973 0.106164
Si Si5 0.457836 0.599464 0.484676
O O1 0.250000 0.250000 0.437326
O O2 0.387149 0.250000 0.250000
O O3 0.432455 0.157766 0.439789
O O4 0.455701 0.330147 0.457096
O O5 0.250000 0.750000 0.950616
O O6 0.350319 0.629427 0.095379
O O7 0.166280 0.600549 0.957841
O O8 0.374516 0.611700 0.865465
O O9 0.250000 0.957834 0.250000
O O10 0.069209 0.877001 0.337872
O O11 0.055786 0.018858 0.213479
O O12 0.000000 0.000000 0.000000
O O13 0.500000 0.500000 0.500000
#
# Coordination Sequence:
#
# PCOD9390566 Si02
#       5
#     8   8   8   8   8
#     4  11  25  41  67  92 127 171 217 262 320 389
#     4  10  20  41  66  94 123 165 216 271 320 378
#     4   9  21  37  67  91 127 168 218 256 324 386
#     4  10  21  40  64  93 127 165 210 263 317 378
#     4  11  23  40  63  94 127 167 215 264 320 387
#
# _framework density 20.65616
#
# number of rings (size 3 to 8) (size 9 to 14) (size 15 to 20)
#    0.000    1.800    2.000    1.200   11.200    3.600 
#    0.000    5.000    0.000    4.800    0.000    0.000 
#    0.000    0.000    0.000    0.000    0.000    0.000 
#
# Total GULP energy -222922.762725 kJ/mol
# GULP energy per Si atom -5573.069068 kJ/mol
# Density = 2.060915 g / cm^3
# Si number density = 20.656160 Si / 1000 Ang^3
#
#
#
# Elastic Constant Matrix: (Units=GPa)
#
#
# Indices 1 2 3 4 5 6 
#
# 1 176.1928 75.3134 37.3030 0.0000 0.0000 0.0000
# 2 75.3134 143.9621 22.7110 0.0000 0.0000 0.0000
# 3 37.3030 22.7110 61.2771 0.0000 0.0000 0.0000
# 4 0.0000 0.0000 0.0000 19.0858 0.0000 0.0000
# 5 0.0000 0.0000 0.0000 0.0000 28.3340 0.0000
# 6 0.0000 0.0000 0.0000 0.0000 0.0000 50.7923
#
#
#
# Elastic Compliance Matrix: (Units=1/GPa)
#
#
# Indices 1 2 3 4 5 6 
#
# 1 0.007962 -0.003612 -0.003508 0.000000 0.000000 0.000000
# 2 -0.003612 0.009016 -0.001143 0.000000 0.000000 0.000000
# 3 -0.003508 -0.001143 0.018879 0.000000 0.000000 0.000000
# 4 0.000000 0.000000 0.000000 0.052395 0.000000 0.000000
# 5 0.000000 0.000000 0.000000 0.000000 0.035293 0.000000
# 6 0.000000 0.000000 0.000000 0.000000 0.000000 0.019688
#
#
# Mechanical properties :
#
#
# Convention : Reuss Voigt Hill
#
# Bulk Modulus (GPa) = 51.73121 72.45407 62.09264
# Shear Modulus (GPa) = 30.08358 36.04938 33.06648
#
# Velocity S-wave (km/s) = 3.82042 4.18211 4.00535
# Velocity P-wave (km/s) = 6.67526 7.64673 7.17745
#
# Compressibility (1/GPa) = 0.01933069
#
# Stress axis : x y z
#
# Youngs Moduli (GPa) = 125.59126 110.91189 52.96982
#
# Poissons Ratio (x) = 0.40061 0.18584
# Poissons Ratio (y) = 0.45364 0.06053
# Poissons Ratio (z) = 0.44063 0.12675
#
# Static dielectric constant tensor:
#      x y z
#    x 1.756310 0.000000 0.000000 
#    y 0.000000 1.664260 0.000000 
#    z 0.000000 0.000000 2.415340 
# 
# From -- ./inp_files/19766.got.cif
#   From: 2010.05.17/outbox.cif.g08.bks.cpg/sg48_10_cif.got.tgz:19766.got - 2010.06.03 20:39:00.
