data_PCOD9390614
_publ_section_title
;
Structure prediction by ZEFSAII (Michael W. Deem and Ramdas Pophale) SiO2 
 PCOD9390614
Probable space group: P N N N
;
_chemical_formula_sum "Si O2"
_cell_formula_units_Z 46
_cell_length_a 13.162910
_cell_length_b 8.129525
_cell_length_c 17.692884
_cell_angle_alpha 90.000000
_cell_angle_beta 90.000000
_cell_angle_gamma 90.000000
_cell_volume 1893.283774
_symmetry_space_group_name_H-M "P N N N"
_symmetry_group_IT_number 48
_space_group.IT_coordinate_system_code '2'
_symmetry_cell_setting 'orthorhombic'
loop_
_space_group_symop_operation_xyz
x,y,z
1/2-x,1/2-y,z
x,1/2-y,1/2-z
1/2-x,y,1/2-z
-x,-y,-z
1/2+x,1/2+y,-z
-x,1/2+y,1/2+z
1/2+x,-y,1/2+z
loop_
_atom_site_type_symbol
_atom_site_label
_atom_site_fract_x
_atom_site_fract_y
_atom_site_fract_z
Si Si1 0.250000 0.250000 0.750000
Si Si2 0.750000 0.750000 0.618047
Si Si3 0.780214 0.065488 0.050259
Si Si4 0.528324 0.661907 0.552057
Si Si5 0.697852 0.081465 0.631253
Si Si6 0.396321 0.049940 0.856381
Si Si7 0.018011 0.375004 0.587690
O O1 0.326986 0.116346 0.788280
O O2 0.644231 0.714362 0.571561
O O3 0.757062 0.583020 0.664260
O O4 0.750000 0.250000 0.076834
O O5 0.687002 0.955143 0.077014
O O6 0.879178 0.979549 0.085960
O O7 0.781479 0.072135 0.959712
O O8 0.500000 0.500000 0.500000
O O9 0.464511 0.614052 0.628033
O O10 0.492530 0.813120 0.498314
O O11 0.750000 0.250000 0.657303
O O12 0.577419 0.055634 0.631838
O O13 0.468365 0.202800 0.870119
#
# Coordination Sequence:
#
# PCOD9390614 Si02
#       7
#     2   4   8   8   8   8   8
#     4  12  24  46  74  88 130 180 244 304 354 418
#     4  12  22  35  56  84 137 183 215 278 340 420
#     4  11  21  34  56  90 133 173 222 274 339 432
#     4  10  21  33  58  92 132 179 224 276 347 431
#     4  11  22  34  52  90 131 178 219 259 341 432
#     4  11  23  42  65  92 130 182 234 288 348 420
#     4  11  20  37  57  91 135 176 216 279 348 424
#
# _framework density 24.296410000000002
#
# number of rings (size 3 to 8) (size 9 to 14) (size 15 to 20)
#    0.000    1.043    3.478    6.783    2.435    0.000 
#    0.000    0.435    0.000    0.000    0.000    6.696 
#    0.000    0.000    0.000    0.000    0.000    0.000 
#
# Total GULP energy -256104.654364 kJ/mol
# GULP energy per Si atom -5567.492486 kJ/mol
# Density = 2.424111 g / cm^3
# Si number density = 24.296410 Si / 1000 Ang^3
#
#
#
# Elastic Constant Matrix: (Units=GPa)
#
#
# Indices 1 2 3 4 5 6 
#
# 1 109.5688 47.1123 17.1532 0.0000 0.0000 0.0000
# 2 47.1123 149.9668 4.8233 0.0000 0.0000 0.0000
# 3 17.1532 4.8233 38.8235 0.0000 0.0000 0.0000
# 4 0.0000 0.0000 0.0000 -2.6019 0.0000 0.0000
# 5 0.0000 0.0000 0.0000 0.0000 6.4183 0.0000
# 6 0.0000 0.0000 0.0000 0.0000 0.0000 59.8209
#
#
#
# Elastic Compliance Matrix: (Units=1/GPa)
#
#
# Indices 1 2 3 4 5 6 
#
# 1 0.011307 -0.003405 -0.004573 0.000000 0.000000 0.000000
# 2 -0.003405 0.007720 0.000545 0.000000 0.000000 0.000000
# 3 -0.004573 0.000545 0.027710 0.000000 0.000000 0.000000
# 4 0.000000 0.000000 0.000000 -0.384334 0.000000 0.000000
# 5 0.000000 0.000000 0.000000 0.000000 0.155805 0.000000
# 6 0.000000 0.000000 0.000000 0.000000 0.000000 0.016717
#
#
# Mechanical properties :
#
#
# Convention : Reuss Voigt Hill
#
# Bulk Modulus (GPa) = 31.37496 48.50407 39.93951
# Shear Modulus (GPa) = -35.82000 28.01214 -3.90393
#
# Velocity S-wave (km/s) = -3.84382 3.39917 -1.26897
# Velocity P-wave (km/s) = 2.59970 5.95085 3.78511
#
# Compressibility (1/GPa) = 0.03187255
#
# Stress axis : x y z
#
# Youngs Moduli (GPa) = 88.44427 129.52922 36.08795
#
# Poissons Ratio (x) = 0.44104 0.16501
# Poissons Ratio (y) = 0.30114 -0.01968
# Poissons Ratio (z) = 0.40441 -0.07062
#
# Static dielectric constant tensor:
#      x y z
#    x 2.066870 0.000000 0.000000 
#    y 0.000000 2.012080 0.000000 
#    z 0.000000 0.000000 2.007900 
# 
# From -- ./inp_files/36277.got.cif
#   From: 2010.05.17/outbox.cif.g08.bks.cpg/sg48_19_cif.got.tgz:36277.got - 2010.06.03 20:39:00.
