data_PCOD9390212
_publ_section_title
;
Structure prediction by ZEFSAII (Michael W. Deem and Ramdas Pophale) SiO2 
 PCOD9390212
Probable space group: P N N N
;
_chemical_formula_sum "Si O2"
_cell_formula_units_Z 58
_cell_length_a 26.701529
_cell_length_b 8.793824
_cell_length_c 12.069653
_cell_angle_alpha 90.000000
_cell_angle_beta 90.000000
_cell_angle_gamma 90.000000
_cell_volume 2834.057678
_symmetry_space_group_name_H-M "P N N N"
_symmetry_group_IT_number 48
_space_group.IT_coordinate_system_code '2'
_symmetry_cell_setting 'orthorhombic'
loop_
_space_group_symop_operation_xyz
x,y,z
1/2-x,1/2-y,z
x,1/2-y,1/2-z
1/2-x,y,1/2-z
-x,-y,-z
1/2+x,1/2+y,-z
-x,1/2+y,1/2+z
1/2+x,-y,1/2+z
loop_
_atom_site_type_symbol
_atom_site_label
_atom_site_fract_x
_atom_site_fract_y
_atom_site_fract_z
Si Si1 0.465162 0.557344 0.365272
Si Si2 0.955689 0.090851 0.880971
Si Si3 0.750000 0.750000 0.750000
Si Si4 0.072785 0.437471 0.591800
Si Si5 0.423720 0.085926 0.927617
Si Si6 0.181476 0.576611 0.893633
Si Si7 0.234194 0.088554 0.025127
Si Si8 0.330606 0.932166 0.649460
O O1 0.441091 0.561069 0.244898
O O2 0.455725 0.729411 0.410113
O O3 0.441920 0.433195 0.445569
O O4 0.525524 0.537401 0.362881
O O5 0.014083 0.044006 0.884684
O O6 0.923496 0.996214 0.966249
O O7 0.773361 0.632641 0.656080
O O8 0.085760 0.260509 0.603485
O O9 0.110342 0.537377 0.663335
O O10 0.373672 0.988931 0.916937
O O11 0.220272 0.522798 0.988152
O O12 0.193993 0.525986 0.767232
O O13 0.179911 0.758384 0.882010
O O14 0.250000 0.250000 0.975020
O O15 0.187561 0.029781 0.954976
#
# Coordination Sequence:
#
# PCOD9390212 Si02
#       8
#     8   8   2   8   8   8   8   8
#     4   9  18  34  53  76 111 156 203 250 298 355
#     4   9  18  34  53  76 111 156 203 250 298 355
#     4   8  24  48  68  92 120 156 190 254 280 356
#     4  10  20  34  54  83 117 153 198 247 301 353
#     4  10  20  34  54  83 117 153 198 247 301 353
#     4  11  23  39  62  94 125 155 194 246 301 361
#     4  10  22  44  68  90 121 151 193 238 297 350
#     4  11  23  39  62  94 125 155 194 246 301 361
#
# _framework density 20.465356
#
# number of rings (size 3 to 8) (size 9 to 14) (size 15 to 20)
#    0.414    1.655    0.000    3.310    0.000    6.621 
#    2.483    1.379    0.000    0.000    0.000    0.000 
#    0.000    0.000    0.000    0.000    0.000    0.000 
#
# Total GULP energy -323048.742916 kJ/mol
# GULP energy per Si atom -5569.805912 kJ/mol
# Density = 2.041878 g / cm^3
# Si number density = 20.465356 Si / 1000 Ang^3
#
#
#
# Elastic Constant Matrix: (Units=GPa)
#
#
# Indices 1 2 3 4 5 6 
#
# 1 61.4577 10.8679 10.5178 0.0000 0.0000 0.0000
# 2 10.8679 32.5608 17.3625 0.0000 0.0000 0.0000
# 3 10.5178 17.3625 90.1600 0.0000 0.0000 0.0000
# 4 0.0000 0.0000 0.0000 30.2438 0.0000 0.0000
# 5 0.0000 0.0000 0.0000 0.0000 16.5983 0.0000
# 6 0.0000 0.0000 0.0000 0.0000 0.0000 29.6161
#
#
#
# Elastic Compliance Matrix: (Units=1/GPa)
#
#
# Indices 1 2 3 4 5 6 
#
# 1 0.017375 -0.005258 -0.001014 0.000000 0.000000 0.000000
# 2 -0.005258 0.035818 -0.006284 0.000000 0.000000 0.000000
# 3 -0.001014 -0.006284 0.012420 0.000000 0.000000 0.000000
# 4 0.000000 0.000000 0.000000 0.033065 0.000000 0.000000
# 5 0.000000 0.000000 0.000000 0.000000 0.060247 0.000000
# 6 0.000000 0.000000 0.000000 0.000000 0.000000 0.033765
#
#
# Mechanical properties :
#
#
# Convention : Reuss Voigt Hill
#
# Bulk Modulus (GPa) = 24.69205 29.07498 26.88352
# Shear Modulus (GPa) = 21.61669 24.98701 23.30185
#
# Velocity S-wave (km/s) = 3.25354 3.49799 3.37798
# Velocity P-wave (km/s) = 5.11913 5.52742 5.32719
#
# Compressibility (1/GPa) = 0.04049886
#
# Stress axis : x y z
#
# Youngs Moduli (GPa) = 57.55456 27.91910 80.51606
#
# Poissons Ratio (x) = 0.14681 0.08166
# Poissons Ratio (y) = 0.30264 0.50597
# Poissons Ratio (z) = 0.05838 0.17545
#
# Static dielectric constant tensor:
#      x y z
#    x 1.769020 0.000000 0.000000 
#    y 0.000000 1.726160 0.000000 
#    z 0.000000 0.000000 1.777430 
# 
# From -- ./inp_files/23668.got.cif
#   From: 2010.05.17/outbox.cif.g08.bks.cpg/sg48_12_cif.got.tgz:23668.got - 2010.06.03 20:39:00.
