data_PCOD9390774
_publ_section_title
;
Structure prediction by ZEFSAII (Michael W. Deem and Ramdas Pophale) SiO2 
 PCOD9390774
Probable space group: P N N N
;
_chemical_formula_sum "Si O2"
_cell_formula_units_Z 32
_cell_length_a 7.076213
_cell_length_b 5.290381
_cell_length_c 34.986950
_cell_angle_alpha 90.000000
_cell_angle_beta 90.000000
_cell_angle_gamma 90.000000
_cell_volume 1309.766660
_symmetry_space_group_name_H-M "P N N N"
_symmetry_group_IT_number 48
_space_group.IT_coordinate_system_code '2'
_symmetry_cell_setting 'orthorhombic'
loop_
_space_group_symop_operation_xyz
x,y,z
1/2-x,1/2-y,z
x,1/2-y,1/2-z
1/2-x,y,1/2-z
-x,-y,-z
1/2+x,1/2+y,-z
-x,1/2+y,1/2+z
1/2+x,-y,1/2+z
loop_
_atom_site_type_symbol
_atom_site_label
_atom_site_fract_x
_atom_site_fract_y
_atom_site_fract_z
Si Si1 0.531193 0.187612 0.616171
Si Si2 0.122171 0.001480 0.961613
Si Si3 0.024780 0.186108 0.351265
Si Si4 0.036745 0.997616 0.733024
O O1 0.750000 0.250000 0.624878
O O2 0.455267 0.476040 0.617891
O O3 0.508369 0.050944 0.575512
O O4 0.448133 0.973120 0.644706
O O5 0.250000 0.750000 0.958951
O O6 0.250000 0.250000 0.963271
O O7 0.000000 0.000000 0.000000
O O8 0.250000 0.250000 0.353674
O O9 0.975418 0.045038 0.311987
O O10 0.951412 0.250000 0.750000
O O11 0.250000 0.998904 0.750000
O O12 0.945300 0.750000 0.750000
#
# Coordination Sequence:
#
# PCOD9390774 Si02
#       4
#     8   8   8   8
#     4  10  22  43  67  97 134 177 225 284 349 406
#     4  12  26  46  70 107 142 186 233 282 344 417
#     4  10  21  40  65  91 127 174 227 283 341 414
#     4  10  21  39  57  89 124 168 217 268 351 392
#
# _framework density 24.431833000000001
#
# number of rings (size 3 to 8) (size 9 to 14) (size 15 to 20)
#    0.000    1.500    0.000    4.500    0.000    3.500 
#   27.000    1.250    0.000    0.000    0.000    0.000 
#    0.000    0.000    0.000    0.000    0.000    0.000 
#
# Total GULP energy -178658.778846 kJ/mol
# GULP energy per Si atom -5583.086839 kJ/mol
# Density = 2.437622 g / cm^3
# Si number density = 24.431833 Si / 1000 Ang^3
#
#
#
# Elastic Constant Matrix: (Units=GPa)
#
#
# Indices 1 2 3 4 5 6 
#
# 1 86.1975 49.1419 -5.6641 0.0000 0.0000 0.0000
# 2 49.1419 286.1916 72.7635 0.0000 0.0000 0.0000
# 3 -5.6641 72.7635 126.3867 0.0000 0.0000 0.0000
# 4 0.0000 0.0000 0.0000 40.9732 0.0000 0.0000
# 5 0.0000 0.0000 0.0000 0.0000 255.8922 0.0000
# 6 0.0000 0.0000 0.0000 0.0000 0.0000 -13.3742
#
#
#
# Elastic Compliance Matrix: (Units=1/GPa)
#
#
# Indices 1 2 3 4 5 6 
#
# 1 0.013386 -0.002871 0.002253 0.000000 0.000000 0.000000
# 2 -0.002871 0.004709 -0.002840 0.000000 0.000000 0.000000
# 3 0.002253 -0.002840 0.009648 0.000000 0.000000 0.000000
# 4 0.000000 0.000000 0.000000 0.024406 0.000000 0.000000
# 5 0.000000 0.000000 0.000000 0.000000 0.003908 0.000000
# 6 0.000000 0.000000 0.000000 0.000000 0.000000 -0.074771
#
#
# Mechanical properties :
#
#
# Convention : Reuss Voigt Hill
#
# Bulk Modulus (GPa) = 48.01402 81.25092 64.63247
# Shear Modulus (GPa) = -1030.01699 82.20055 -473.90822
#
# Velocity S-wave (km/s) = -20.55489 5.80671 -13.94248
# Velocity P-wave (km/s) = 23.31615 8.84791 15.25381
#
# Compressibility (1/GPa) = 0.02082725
#
# Stress axis : x y z
#
# Youngs Moduli (GPa) = 74.70316 212.34827 103.64641
#
# Poissons Ratio (x) = 0.60973 -0.23352
# Poissons Ratio (y) = 0.21450 0.29435
# Poissons Ratio (z) = -0.16831 0.60305
#
# Static dielectric constant tensor:
#      x y z
#    x 1.975780 0.000000 0.000000 
#    y 0.000000 1.999880 0.000000 
#    z 0.000000 0.000000 2.097810 
# 
# From -- ./inp_files/38491.got.cif
#   From: 2010.05.17/outbox.cif.g08.bks.cpg/sg48_20_cif.got.tgz:38491.got - 2010.06.03 20:39:00.
