data_PCOD9390869
_publ_section_title
;
Structure prediction by ZEFSAII (Michael W. Deem and Ramdas Pophale) SiO2 
 PCOD9390869
Probable space group: P N N N
;
_chemical_formula_sum "Si O2"
_cell_formula_units_Z 64
_cell_length_a 27.379191
_cell_length_b 11.643644
_cell_length_c 8.132255
_cell_angle_alpha 90.000000
_cell_angle_beta 90.000000
_cell_angle_gamma 90.000000
_cell_volume 2592.510465
_symmetry_space_group_name_H-M "P N N N"
_symmetry_group_IT_number 48
_space_group.IT_coordinate_system_code '2'
_symmetry_cell_setting 'orthorhombic'
loop_
_space_group_symop_operation_xyz
x,y,z
1/2-x,1/2-y,z
x,1/2-y,1/2-z
1/2-x,y,1/2-z
-x,-y,-z
1/2+x,1/2+y,-z
-x,1/2+y,1/2+z
1/2+x,-y,1/2+z
loop_
_atom_site_type_symbol
_atom_site_label
_atom_site_fract_x
_atom_site_fract_y
_atom_site_fract_z
Si Si1 0.807945 0.983130 0.580336
Si Si2 0.076903 0.754517 0.926654
Si Si3 0.860235 0.616194 0.227896
Si Si4 0.558367 0.513954 0.090513
Si Si5 0.112019 0.378071 0.283831
Si Si6 0.174673 0.761601 0.436344
Si Si7 0.282316 0.973792 0.582708
Si Si8 0.508876 0.577905 0.653325
O O1 0.807041 0.114086 0.512181
O O2 0.749838 0.966305 0.562439
O O3 0.834325 0.905162 0.444824
O O4 0.844137 0.965891 0.736315
O O5 0.104162 0.750000 0.750000
O O6 0.027891 0.683665 0.888651
O O7 0.067988 0.885703 0.969911
O O8 0.116370 0.716480 0.056853
O O9 0.869484 0.750000 0.250000
O O10 0.909596 0.543575 0.247231
O O11 0.824640 0.562253 0.365133
O O12 0.505598 0.492125 0.178482
O O13 0.583544 0.599119 0.957690
O O14 0.131369 0.250000 0.250000
O O15 0.065087 0.388561 0.164048
O O16 0.191281 0.750000 0.250000
O O17 0.194001 0.649288 0.531666
O O18 0.250000 0.964084 0.750000
O O19 0.500000 0.500000 0.500000
#
# Coordination Sequence:
#
# PCOD9390869 Si02
#       8
#     8   8   8   8   8   8   8   8
#     4  11  25  42  68 100 141 191 241 301 368 442
#     4  10  21  40  70 101 141 187 237 299 367 450
#     4  11  23  45  72 103 137 190 250 309 367 450
#     4  11  22  42  70 102 138 190 243 301 378 440
#     4  12  25  46  68 100 147 200 251 308 370 447
#     4  12  24  43  70 106 145 183 231 306 370 444
#     4  10  25  44  72 105 145 186 246 300 384 447
#     4  11  24  43  69 108 146 188 248 305 373 460
#
# _framework density 24.686495000000001
#
# number of rings (size 3 to 8) (size 9 to 14) (size 15 to 20)
#    0.000    1.000    1.250    6.375    1.750    4.750 
#    0.000    1.250    0.000    0.000    0.000    0.000 
#    0.000    0.000    0.000    0.000    0.000    0.000 
#
# Total GULP energy -357104.934636 kJ/mol
# GULP energy per Si atom -5579.764604 kJ/mol
# Density = 2.463031 g / cm^3
# Si number density = 24.686495 Si / 1000 Ang^3
#
#
#
# Elastic Constant Matrix: (Units=GPa)
#
#
# Indices 1 2 3 4 5 6 
#
# 1 139.1149 27.5656 15.7792 0.0000 0.0000 0.0000
# 2 27.5656 105.5020 11.7814 0.0000 0.0000 0.0000
# 3 15.7792 11.7814 66.1414 0.0000 0.0000 0.0000
# 4 0.0000 0.0000 0.0000 35.1223 0.0000 0.0000
# 5 0.0000 0.0000 0.0000 0.0000 37.2150 0.0000
# 6 0.0000 0.0000 0.0000 0.0000 0.0000 24.6009
#
#
#
# Elastic Compliance Matrix: (Units=1/GPa)
#
#
# Indices 1 2 3 4 5 6 
#
# 1 0.007727 -0.001850 -0.001514 0.000000 0.000000 0.000000
# 2 -0.001850 0.010114 -0.001360 0.000000 0.000000 0.000000
# 3 -0.001514 -0.001360 0.015723 0.000000 0.000000 0.000000
# 4 0.000000 0.000000 0.000000 0.028472 0.000000 0.000000
# 5 0.000000 0.000000 0.000000 0.000000 0.026871 0.000000
# 6 0.000000 0.000000 0.000000 0.000000 0.000000 0.040649
#
#
# Mechanical properties :
#
#
# Convention : Reuss Voigt Hill
#
# Bulk Modulus (GPa) = 41.46756 46.77898 44.12327
# Shear Modulus (GPa) = 34.00426 36.42980 35.21703
#
# Velocity S-wave (km/s) = 3.71542 3.84565 3.78109
# Velocity P-wave (km/s) = 5.93632 6.22166 6.08066
#
# Compressibility (1/GPa) = 0.02411523
#
# Stress axis : x y z
#
# Youngs Moduli (GPa) = 129.42420 98.87593 63.60292
#
# Poissons Ratio (x) = 0.18289 0.09628
# Poissons Ratio (y) = 0.23940 0.08651
# Poissons Ratio (z) = 0.19592 0.13449
#
# Static dielectric constant tensor:
#      x y z
#    x 2.207770 0.000000 0.000000 
#    y 0.000000 1.899050 0.000000 
#    z 0.000000 0.000000 2.016180 
# 
# From -- ./inp_files/16965.got.cif
#   From: 2010.05.17/outbox.cif.g08.bks.cpg/sg48_9_cif.got.tgz:16965.got - 2010.06.03 20:39:00.
