data_PCOD9390290
_publ_section_title
;
Structure prediction by ZEFSAII (Michael W. Deem and Ramdas Pophale) SiO2 
 PCOD9390290
Probable space group: P N N N
;
_chemical_formula_sum "Si O2"
_cell_formula_units_Z 58
_cell_length_a 28.840831
_cell_length_b 5.111888
_cell_length_c 18.444129
_cell_angle_alpha 90.000000
_cell_angle_beta 90.000000
_cell_angle_gamma 90.000000
_cell_volume 2719.238188
_symmetry_space_group_name_H-M "P N N N"
_symmetry_group_IT_number 48
_space_group.IT_coordinate_system_code '2'
_symmetry_cell_setting 'orthorhombic'
loop_
_space_group_symop_operation_xyz
x,y,z
1/2-x,1/2-y,z
x,1/2-y,1/2-z
1/2-x,y,1/2-z
-x,-y,-z
1/2+x,1/2+y,-z
-x,1/2+y,1/2+z
1/2+x,-y,1/2+z
loop_
_atom_site_type_symbol
_atom_site_label
_atom_site_fract_x
_atom_site_fract_y
_atom_site_fract_z
Si Si1 0.799555 0.636271 0.430680
Si Si2 0.831751 0.344189 0.988003
Si Si3 0.972976 0.001689 0.200365
Si Si4 0.197244 0.636570 0.173849
Si Si5 0.936698 0.253422 0.511427
Si Si6 0.130013 0.004142 0.802605
Si Si7 0.250000 0.250000 0.250000
Si Si8 0.473972 0.266608 0.420607
O O1 0.750000 0.750000 0.406071
O O2 0.798132 0.381533 0.481784
O O3 0.831453 0.542624 0.364025
O O4 0.820436 0.874573 0.478014
O O5 0.828907 0.336098 0.900737
O O6 0.884032 0.276479 0.010718
O O7 0.964441 0.250000 0.250000
O O8 0.922204 0.969759 0.163685
O O9 0.014915 0.097178 0.150390
O O10 0.982753 0.750000 0.250000
O O11 0.250000 0.750000 0.169162
O O12 0.177545 0.750000 0.250000
O O13 0.211247 0.342869 0.191647
O O14 0.947778 0.554439 0.529785
O O15 0.974523 0.173919 0.451311
O O16 0.947403 0.042308 0.576060
O O17 0.135520 0.750000 0.750000
O O18 0.133786 0.250000 0.750000
#
# Coordination Sequence:
#
# PCOD9390290 Si02
#       8
#     8   8   8   8   8   8   2   8
#     4  12  26  42  64  97 128 169 213 270 330 364
#     4  12  25  41  64  94 132 159 215 270 320 375
#     4  10  20  35  61  91 119 159 205 262 310 365
#     4   9  20  37  61  87 115 162 203 247 302 376
#     4  10  22  38  62  88 116 168 197 257 317 370
#     4  10  22  41  65  91 125 168 215 255 312 388
#     4   8  18  36  64  82 108 160 212 224 310 360
#     4  10  20  39  60  85 121 153 211 246 309 386
#
# _framework density 21.329504
#
# number of rings (size 3 to 8) (size 9 to 14) (size 15 to 20)
#    0.000    1.793    0.000    4.552    4.828    4.690 
#    0.000    2.759    0.000    0.000    0.000    0.000 
#    0.000    0.000    0.000    0.000    0.000    0.000 
#
# Total GULP energy -323043.741227 kJ/mol
# GULP energy per Si atom -5569.719676 kJ/mol
# Density = 2.128096 g / cm^3
# Si number density = 21.329504 Si / 1000 Ang^3
#
#
#
# Elastic Constant Matrix: (Units=GPa)
#
#
# Indices 1 2 3 4 5 6 
#
# 1 55.9989 18.7157 0.9540 0.0000 0.0000 0.0000
# 2 18.7157 119.6288 27.9246 0.0000 0.0000 0.0000
# 3 0.9540 27.9246 60.8249 0.0000 0.0000 0.0000
# 4 0.0000 0.0000 0.0000 40.8517 0.0000 0.0000
# 5 0.0000 0.0000 0.0000 0.0000 24.4718 0.0000
# 6 0.0000 0.0000 0.0000 0.0000 0.0000 22.0644
#
#
#
# Elastic Compliance Matrix: (Units=1/GPa)
#
#
# Indices 1 2 3 4 5 6 
#
# 1 0.018919 -0.003238 0.001190 0.000000 0.000000 0.000000
# 2 -0.003238 0.009917 -0.004502 0.000000 0.000000 0.000000
# 3 0.001190 -0.004502 0.018489 0.000000 0.000000 0.000000
# 4 0.000000 0.000000 0.000000 0.024479 0.000000 0.000000
# 5 0.000000 0.000000 0.000000 0.000000 0.040863 0.000000
# 6 0.000000 0.000000 0.000000 0.000000 0.000000 0.045322
#
#
# Mechanical properties :
#
#
# Convention : Reuss Voigt Hill
#
# Bulk Modulus (GPa) = 29.21845 36.84901 33.03373
# Shear Modulus (GPa) = 27.39780 30.06816 28.73298
#
# Velocity S-wave (km/s) = 3.58788 3.75867 3.67427
# Velocity P-wave (km/s) = 5.55808 6.01252 5.78976
#
# Compressibility (1/GPa) = 0.03422495
#
# Stress axis : x y z
#
# Youngs Moduli (GPa) = 52.85616 100.84133 54.08687
#
# Poissons Ratio (x) = 0.32648 -0.06434
# Poissons Ratio (y) = 0.17113 0.24349
# Poissons Ratio (z) = -0.06288 0.45398
#
# Static dielectric constant tensor:
#      x y z
#    x 1.797100 0.000000 0.000000 
#    y 0.000000 2.102620 0.000000 
#    z 0.000000 0.000000 1.788440 
# 
# From -- ./inp_files/32418.got.cif
#   From: 2010.05.17/outbox.cif.g08.bks.cpg/sg48_17_cif.got.tgz:32418.got - 2010.06.03 20:39:00.
