data_PCOD9390539
_publ_section_title
;
Structure prediction by ZEFSAII (Michael W. Deem and Ramdas Pophale) SiO2 
 PCOD9390539
Probable space group: P N N N
;
_chemical_formula_sum "Si O2"
_cell_formula_units_Z 48
_cell_length_a 8.113763
_cell_length_b 17.675387
_cell_length_c 14.589832
_cell_angle_alpha 90.000000
_cell_angle_beta 90.000000
_cell_angle_gamma 90.000000
_cell_volume 2092.384723
_symmetry_space_group_name_H-M "P N N N"
_symmetry_group_IT_number 48
_space_group.IT_coordinate_system_code '2'
_symmetry_cell_setting 'orthorhombic'
loop_
_space_group_symop_operation_xyz
x,y,z
1/2-x,1/2-y,z
x,1/2-y,1/2-z
1/2-x,y,1/2-z
-x,-y,-z
1/2+x,1/2+y,-z
-x,1/2+y,1/2+z
1/2+x,-y,1/2+z
loop_
_atom_site_type_symbol
_atom_site_label
_atom_site_fract_x
_atom_site_fract_y
_atom_site_fract_z
Si Si1 0.915896 0.051430 0.925032
Si Si2 0.750000 0.750000 0.920451
Si Si3 0.996912 0.860173 0.644366
Si Si4 0.491342 0.280264 0.913331
Si Si5 0.250000 0.250000 0.750000
Si Si6 0.447524 0.520957 0.270136
Si Si7 0.250000 0.750000 0.750000
Si Si8 0.580369 0.389001 0.567053
O O1 0.010914 0.032810 0.832010
O O2 0.718805 0.043834 0.932537
O O3 0.912902 0.142465 0.928341
O O4 0.000000 0.000000 0.000000
O O5 0.824618 0.684263 0.859498
O O6 0.610857 0.724319 0.991924
O O7 0.134735 0.803718 0.686332
O O8 0.028587 0.883224 0.538503
O O9 0.980273 0.935482 0.702393
O O10 0.374171 0.288567 0.824070
O O11 0.587419 0.200643 0.905424
O O12 0.250000 0.536926 0.250000
O O13 0.521239 0.577126 0.346549
#
# Coordination Sequence:
#
# PCOD9390539 Si02
#       8
#     8   4   8   8   2   8   2   8
#     4  11  25  41  69 104 147 184 234 291 362 424
#     4   9  24  40  74  93 128 190 220 282 348 420
#     4  11  26  46  69 101 143 178 241 288 355 428
#     4  10  21  41  69 101 134 184 232 290 354 426
#     4  10  20  40  64 102 136 166 246 308 348 428
#     4  10  24  43  68 102 135 187 230 283 356 421
#     4  12  32  42  70 108 134 192 236 292 368 412
#     4  10  23  45  73  99 138 188 232 292 355 431
#
# _framework density 22.940329999999999
#
# number of rings (size 3 to 8) (size 9 to 14) (size 15 to 20)
#    0.000    1.667    0.000    2.000   14.000    0.000 
#    6.000    4.167    0.000    0.000    0.000    0.000 
#    0.000    0.000    0.000    0.000    0.000    0.000 
#
# Total GULP energy -267296.891516 kJ/mol
# GULP energy per Si atom -5568.685240 kJ/mol
# Density = 2.288812 g / cm^3
# Si number density = 22.940330 Si / 1000 Ang^3
#
#
#
# Elastic Constant Matrix: (Units=GPa)
#
#
# Indices 1 2 3 4 5 6 
#
# 1 32.5835 27.5730 30.0449 0.0000 0.0000 0.0000
# 2 27.5730 153.4013 80.1005 0.0000 0.0000 0.0000
# 3 30.0449 80.1005 149.2004 0.0000 0.0000 0.0000
# 4 0.0000 0.0000 0.0000 45.6790 0.0000 0.0000
# 5 0.0000 0.0000 0.0000 0.0000 16.9412 0.0000
# 6 0.0000 0.0000 0.0000 0.0000 0.0000 16.9849
#
#
#
# Elastic Compliance Matrix: (Units=1/GPa)
#
#
# Indices 1 2 3 4 5 6 
#
# 1 0.039452 -0.004089 -0.005749 0.000000 0.000000 0.000000
# 2 -0.004089 0.009482 -0.004267 0.000000 0.000000 0.000000
# 3 -0.005749 -0.004267 0.010151 0.000000 0.000000 0.000000
# 4 0.000000 0.000000 0.000000 0.021892 0.000000 0.000000
# 5 0.000000 0.000000 0.000000 0.000000 0.059028 0.000000
# 6 0.000000 0.000000 0.000000 0.000000 0.000000 0.058876
#
#
# Mechanical properties :
#
#
# Convention : Reuss Voigt Hill
#
# Bulk Modulus (GPa) = 32.38973 67.84690 50.11832
# Shear Modulus (GPa) = 21.06302 29.08548 25.07425
#
# Velocity S-wave (km/s) = 3.03341 3.56459 3.30967
# Velocity P-wave (km/s) = 5.13990 6.82505 6.04152
#
# Compressibility (1/GPa) = 0.03087398
#
# Stress axis : x y z
#
# Youngs Moduli (GPa) = 25.34716 105.46321 98.51273
#
# Poissons Ratio (x) = 0.43127 0.56637
# Poissons Ratio (y) = 0.10365 0.42036
# Poissons Ratio (z) = 0.14573 0.45002
#
# Static dielectric constant tensor:
#      x y z
#    x 1.130230 0.000000 0.000000 
#    y 0.000000 1.758010 0.000000 
#    z 0.000000 0.000000 1.978050 
# 
# From -- ./inp_files/25455.got.cif
#   From: 2010.05.17/outbox.cif.g08.bks.cpg/sg48_13_cif.got.tgz:25455.got - 2010.06.03 20:39:00.
