data_PCOD9390819
_publ_section_title
;
Structure prediction by ZEFSAII (Michael W. Deem and Ramdas Pophale) SiO2 
 PCOD9390819
Probable space group: P N N N
;
_chemical_formula_sum "Si O2"
_cell_formula_units_Z 40
_cell_length_a 11.336959
_cell_length_b 10.206592
_cell_length_c 16.316734
_cell_angle_alpha 90.000000
_cell_angle_beta 90.000000
_cell_angle_gamma 90.000000
_cell_volume 1888.037275
_symmetry_space_group_name_H-M "P N N N"
_symmetry_group_IT_number 48
_space_group.IT_coordinate_system_code '2'
_symmetry_cell_setting 'orthorhombic'
loop_
_space_group_symop_operation_xyz
x,y,z
1/2-x,1/2-y,z
x,1/2-y,1/2-z
1/2-x,y,1/2-z
-x,-y,-z
1/2+x,1/2+y,-z
-x,1/2+y,1/2+z
1/2+x,-y,1/2+z
loop_
_atom_site_type_symbol
_atom_site_label
_atom_site_fract_x
_atom_site_fract_y
_atom_site_fract_z
Si Si1 0.408355 0.470683 0.927816
Si Si2 0.351222 0.560010 0.582318
Si Si3 0.625244 0.127816 0.794731
Si Si4 0.988099 0.191730 0.547619
Si Si5 0.045861 0.903529 0.749720
O O1 0.279226 0.526469 0.948854
O O2 0.430174 0.313895 0.926660
O O3 0.434819 0.536273 0.839767
O O4 0.500000 0.500000 0.000000
O O5 0.427640 0.432919 0.559185
O O6 0.422554 0.680557 0.540174
O O7 0.352663 0.577815 0.680611
O O8 0.560513 0.250000 0.750000
O O9 0.750000 0.116908 0.750000
O O10 0.619195 0.171275 0.888460
O O11 0.560390 0.990887 0.785625
O O12 0.019273 0.750000 0.750000
#
# Coordination Sequence:
#
# PCOD9390819 Si02
#       5
#     8   8   8   8   8
#     4  12  25  39  68  99 132 182 232 283 349 429
#     4  10  24  43  67  93 137 178 222 293 351 416
#     4  10  21  39  68  95 129 174 225 289 345 412
#     4  10  22  44  65  97 131 176 234 284 351 422
#     4  11  24  43  62  98 137 177 227 280 353 420
#
# _framework density 21.186024
#
# number of rings (size 3 to 8) (size 9 to 14) (size 15 to 20)
#    0.000    1.400    2.000    2.400    2.800    4.400 
#    0.000    2.000    0.000    0.000    0.000    0.000 
#    0.000    0.000    0.000    0.000    0.000    0.000 
#
# Total GULP energy -222930.754575 kJ/mol
# GULP energy per Si atom -5573.268864 kJ/mol
# Density = 2.113780 g / cm^3
# Si number density = 21.186024 Si / 1000 Ang^3
#
#
#
# Elastic Constant Matrix: (Units=GPa)
#
#
# Indices 1 2 3 4 5 6 
#
# 1 88.5076 26.9006 28.9022 0.0000 0.0000 0.0000
# 2 26.9006 148.5360 23.2261 0.0000 0.0000 0.0000
# 3 28.9022 23.2261 129.1834 0.0000 0.0000 0.0000
# 4 0.0000 0.0000 0.0000 31.5663 0.0000 0.0000
# 5 0.0000 0.0000 0.0000 0.0000 35.0679 0.0000
# 6 0.0000 0.0000 0.0000 0.0000 0.0000 18.3326
#
#
#
# Elastic Compliance Matrix: (Units=1/GPa)
#
#
# Indices 1 2 3 4 5 6 
#
# 1 0.012694 -0.001908 -0.002497 0.000000 0.000000 0.000000
# 2 -0.001908 0.007214 -0.000870 0.000000 0.000000 0.000000
# 3 -0.002497 -0.000870 0.008456 0.000000 0.000000 0.000000
# 4 0.000000 0.000000 0.000000 0.031679 0.000000 0.000000
# 5 0.000000 0.000000 0.000000 0.000000 0.028516 0.000000
# 6 0.000000 0.000000 0.000000 0.000000 0.000000 0.054548
#
#
# Mechanical properties :
#
#
# Convention : Reuss Voigt Hill
#
# Bulk Modulus (GPa) = 56.13842 58.25386 57.19614
# Shear Modulus (GPa) = 31.32921 36.13990 33.73455
#
# Velocity S-wave (km/s) = 3.84965 4.13466 3.99470
# Velocity P-wave (km/s) = 6.80552 7.09577 6.95216
#
# Compressibility (1/GPa) = 0.01781311
#
# Stress axis : x y z
#
# Youngs Moduli (GPa) = 78.77813 138.61825 118.25944
#
# Poissons Ratio (x) = 0.26455 0.29528
# Poissons Ratio (y) = 0.15035 0.10289
# Poissons Ratio (z) = 0.19670 0.12060
#
# Static dielectric constant tensor:
#      x y z
#    x 1.760580 0.000000 0.000000 
#    y 0.000000 1.877740 0.000000 
#    z 0.000000 0.000000 1.833690 
# 
# From -- ./inp_files/26245.got.cif
#   From: 2010.05.17/outbox.cif.g08.bks.cpg/sg48_14_cif.got.tgz:26245.got - 2010.06.03 20:39:00.
