data_PCOD9390815
_publ_section_title
;
Structure prediction by ZEFSAII (Michael W. Deem and Ramdas Pophale) SiO2 
 PCOD9390815
Probable space group: P N N N
;
_chemical_formula_sum "Si O2"
_cell_formula_units_Z 58
_cell_length_a 26.328755
_cell_length_b 6.135323
_cell_length_c 18.190403
_cell_angle_alpha 90.000000
_cell_angle_beta 90.000000
_cell_angle_gamma 90.000000
_cell_volume 2938.394318
_symmetry_space_group_name_H-M "P N N N"
_symmetry_group_IT_number 48
_space_group.IT_coordinate_system_code '2'
_symmetry_cell_setting 'orthorhombic'
loop_
_space_group_symop_operation_xyz
x,y,z
1/2-x,1/2-y,z
x,1/2-y,1/2-z
1/2-x,y,1/2-z
-x,-y,-z
1/2+x,1/2+y,-z
-x,1/2+y,1/2+z
1/2+x,-y,1/2+z
loop_
_atom_site_type_symbol
_atom_site_label
_atom_site_fract_x
_atom_site_fract_y
_atom_site_fract_z
Si Si1 0.354567 0.176725 0.465887
Si Si2 0.100403 0.949781 0.568559
Si Si3 0.750000 0.250000 0.750000
Si Si4 0.937081 0.369461 0.825006
Si Si5 0.960570 0.493022 0.215325
Si Si6 0.046879 0.619143 0.462635
Si Si7 0.695323 0.212473 0.472483
Si Si8 0.822305 0.034442 0.627443
O O1 0.379562 0.353422 0.519125
O O2 0.324401 0.282507 0.397770
O O3 0.402494 0.023474 0.447659
O O4 0.314459 0.037606 0.510870
O O5 0.062239 0.811547 0.517980
O O6 0.149995 0.799778 0.577418
O O7 0.074285 0.013451 0.643571
O O8 0.786560 0.108864 0.694893
O O9 0.924941 0.250000 0.750000
O O10 0.965467 0.216988 0.883790
O O11 0.882338 0.429935 0.857016
O O12 0.980201 0.543949 0.806636
O O13 0.959034 0.750000 0.250000
O O14 0.946066 0.250000 0.250000
O O15 0.000000 0.500000 0.500000
O O16 0.750000 0.250000 0.440176
O O17 0.691931 0.331537 0.553128
#
# Coordination Sequence:
#
# PCOD9390815 Si02
#       8
#     8   8   2   8   8   8   8   8
#     4  10  21  39  67  94 129 170 230 284 339 408
#     4  10  23  41  67 103 128 180 227 280 351 423
#     4  12  24  44  62  80 142 180 246 282 340 406
#     4  11  23  41  60  95 135 181 228 286 348 407
#     4  11  28  46  69 102 144 185 222 288 359 434
#     4  11  23  38  67  97 136 178 231 287 345 426
#     4  10  21  42  67  95 130 162 227 287 344 402
#     4  11  22  40  60  88 128 184 226 287 330 403
#
# _framework density 19.738672000000001
#
# number of rings (size 3 to 8) (size 9 to 14) (size 15 to 20)
#    0.000    1.379    5.517    0.828    9.655    3.310 
#    0.000    2.759    0.000    0.414    0.000    0.000 
#    0.000    0.000    0.000    0.000    0.000    0.000 
#
# Total GULP energy -323050.595299 kJ/mol
# GULP energy per Si atom -5569.837850 kJ/mol
# Density = 1.969375 g / cm^3
# Si number density = 19.738672 Si / 1000 Ang^3
#
#
#
# Elastic Constant Matrix: (Units=GPa)
#
#
# Indices 1 2 3 4 5 6 
#
# 1 77.4632 23.3345 32.3880 0.0000 0.0000 0.0000
# 2 23.3345 94.6787 33.4280 0.0000 0.0000 0.0000
# 3 32.3880 33.4280 73.3592 0.0000 0.0000 0.0000
# 4 0.0000 0.0000 0.0000 4.5802 0.0000 0.0000
# 5 0.0000 0.0000 0.0000 0.0000 11.1017 0.0000
# 6 0.0000 0.0000 0.0000 0.0000 0.0000 11.9650
#
#
#
# Elastic Compliance Matrix: (Units=1/GPa)
#
#
# Indices 1 2 3 4 5 6 
#
# 1 0.016067 -0.001734 -0.006303 0.000000 0.000000 0.000000
# 2 -0.001734 0.012774 -0.005055 0.000000 0.000000 0.000000
# 3 -0.006303 -0.005055 0.018718 0.000000 0.000000 0.000000
# 4 0.000000 0.000000 0.000000 0.218333 0.000000 0.000000
# 5 0.000000 0.000000 0.000000 0.000000 0.090076 0.000000
# 6 0.000000 0.000000 0.000000 0.000000 0.000000 0.083577
#
#
# Mechanical properties :
#
#
# Convention : Reuss Voigt Hill
#
# Bulk Modulus (GPa) = 46.78653 47.08911 46.93782
# Shear Modulus (GPa) = 10.57402 15.95274 13.26338
#
# Velocity S-wave (km/s) = 2.31703 2.84597 2.59501
# Velocity P-wave (km/s) = 5.55991 5.89130 5.72800
#
# Compressibility (1/GPa) = 0.02137367
#
# Stress axis : x y z
#
# Youngs Moduli (GPa) = 62.23819 78.28197 53.42451
#
# Poissons Ratio (x) = 0.13578 0.33675
# Poissons Ratio (y) = 0.10795 0.27007
# Poissons Ratio (z) = 0.39231 0.39573
#
# Static dielectric constant tensor:
#      x y z
#    x 1.670270 0.000000 0.000000 
#    y 0.000000 1.798430 0.000000 
#    z 0.000000 0.000000 1.665190 
# 
# From -- ./inp_files/32415.got.cif
#   From: 2010.05.17/outbox.cif.g08.bks.cpg/sg48_17_cif.got.tgz:32415.got - 2010.06.03 20:39:00.
