data_PCOD9390444
_publ_section_title
;
Structure prediction by ZEFSAII (Michael W. Deem and Ramdas Pophale) SiO2 
 PCOD9390444
Probable space group: P N N N
;
_chemical_formula_sum "Si O2"
_cell_formula_units_Z 60
_cell_length_a 11.517499
_cell_length_b 21.496701
_cell_length_c 10.710089
_cell_angle_alpha 90.000000
_cell_angle_beta 90.000000
_cell_angle_gamma 90.000000
_cell_volume 2651.692003
_symmetry_space_group_name_H-M "P N N N"
_symmetry_group_IT_number 48
_space_group.IT_coordinate_system_code '2'
_symmetry_cell_setting 'orthorhombic'
loop_
_space_group_symop_operation_xyz
x,y,z
1/2-x,1/2-y,z
x,1/2-y,1/2-z
1/2-x,y,1/2-z
-x,-y,-z
1/2+x,1/2+y,-z
-x,1/2+y,1/2+z
1/2+x,-y,1/2+z
loop_
_atom_site_type_symbol
_atom_site_label
_atom_site_fract_x
_atom_site_fract_y
_atom_site_fract_z
Si Si1 0.223102 0.915758 0.444184
Si Si2 0.888589 0.962843 0.551756
Si Si3 0.282749 0.119269 0.603568
Si Si4 0.031587 0.886732 0.967749
Si Si5 0.564930 0.116586 0.185545
Si Si6 0.639657 0.212527 0.875068
Si Si7 0.001899 0.756846 0.592392
Si Si8 0.250000 0.250000 0.466111
O O1 0.360198 0.910150 0.453673
O O2 0.164719 0.904858 0.585530
O O3 0.175943 0.858377 0.364355
O O4 0.184592 0.981385 0.389703
O O5 0.806178 0.930957 0.451746
O O6 0.942526 0.907571 0.631880
O O7 0.000000 0.000000 0.500000
O O8 0.250000 0.120661 0.750000
O O9 0.411343 0.102651 0.544289
O O10 0.260945 0.188099 0.548914
O O11 0.058633 0.910418 0.825841
O O12 0.040972 0.812723 0.941232
O O13 0.562942 0.192498 0.182536
O O14 0.750000 0.250000 0.935308
O O15 0.617901 0.250000 0.750000
O O16 0.526565 0.211280 0.958819
O O17 0.866062 0.754518 0.614391
#
# Coordination Sequence:
#
# PCOD9390444 Si02
#       8
#     8   8   8   8   8   8   8   4
#     4  10  22  43  67  99 136 179 229 278 353 421
#     4  10  23  46  69  95 134 186 230 274 350 413
#     4  11  25  45  67  96 137 180 233 288 346 414
#     4  11  23  40  65 104 131 175 230 285 352 412
#     4  10  21  41  69  96 138 176 223 283 339 420
#     4  10  20  38  62  95 134 170 219 279 337 406
#     4  10  20  38  63  96 134 166 220 278 349 402
#     4  10  21  42  65  96 130 177 221 284 350 410
#
# _framework density 22.627061999999999
#
# number of rings (size 3 to 8) (size 9 to 14) (size 15 to 20)
#    0.000    1.733    2.667    1.000    0.000    5.333 
#    0.000    6.000    0.000    0.000    0.000    0.000 
#    0.000    0.000    0.000    0.000    0.000    0.000 
#
# Total GULP energy -334342.210751 kJ/mol
# GULP energy per Si atom -5572.370179 kJ/mol
# Density = 2.257556 g / cm^3
# Si number density = 22.627062 Si / 1000 Ang^3
#
#
#
# Elastic Constant Matrix: (Units=GPa)
#
#
# Indices 1 2 3 4 5 6 
#
# 1 126.2416 28.8468 38.9799 0.0000 0.0000 0.0000
# 2 28.8468 105.7312 12.6499 0.0000 0.0000 0.0000
# 3 38.9799 12.6499 107.4392 0.0000 0.0000 0.0000
# 4 0.0000 0.0000 0.0000 -34.6543 0.0000 0.0000
# 5 0.0000 0.0000 0.0000 0.0000 2.6000 0.0000
# 6 0.0000 0.0000 0.0000 0.0000 0.0000 26.2876
#
#
#
# Elastic Compliance Matrix: (Units=1/GPa)
#
#
# Indices 1 2 3 4 5 6 
#
# 1 0.009394 -0.002186 -0.003151 0.000000 0.000000 0.000000
# 2 -0.002186 0.010102 -0.000396 0.000000 0.000000 0.000000
# 3 -0.003151 -0.000396 0.010497 0.000000 0.000000 0.000000
# 4 0.000000 0.000000 0.000000 -0.028856 0.000000 0.000000
# 5 0.000000 0.000000 0.000000 0.000000 0.384615 0.000000
# 6 0.000000 0.000000 0.000000 0.000000 0.000000 0.038041
#
#
# Mechanical properties :
#
#
# Convention : Reuss Voigt Hill
#
# Bulk Modulus (GPa) = 53.97572 55.59613 54.78592
# Shear Modulus (GPa) = 11.32672 16.10903 13.71788
#
# Velocity S-wave (km/s) = 2.23980 2.67111 2.46491
# Velocity P-wave (km/s) = 5.53129 5.84269 5.68912
#
# Compressibility (1/GPa) = 0.01852685
#
# Stress axis : x y z
#
# Youngs Moduli (GPa) = 106.45465 98.99268 95.26205
#
# Poissons Ratio (x) = 0.21639 0.30015
# Poissons Ratio (y) = 0.23270 0.03775
# Poissons Ratio (z) = 0.33541 0.03923
#
# Static dielectric constant tensor:
#      x y z
#    x 1.843210 0.000000 0.000000 
#    y 0.000000 1.808540 0.000000 
#    z 0.000000 0.000000 1.955230 
# 
# From -- ./inp_files/20329.got.cif
#   From: 2010.05.17/outbox.cif.g08.bks.cpg/sg48_11_cif.got.tgz:20329.got - 2010.06.03 20:39:00.
