data_PCOD9390275
_publ_section_title
;
Structure prediction by ZEFSAII (Michael W. Deem and Ramdas Pophale) SiO2 
 PCOD9390275
Probable space group: P N N N
;
_chemical_formula_sum "Si O2"
_cell_formula_units_Z 64
_cell_length_a 7.527019
_cell_length_b 19.101014
_cell_length_c 18.288537
_cell_angle_alpha 90.000000
_cell_angle_beta 90.000000
_cell_angle_gamma 90.000000
_cell_volume 2629.410546
_symmetry_space_group_name_H-M "P N N N"
_symmetry_group_IT_number 48
_space_group.IT_coordinate_system_code '2'
_symmetry_cell_setting 'orthorhombic'
loop_
_space_group_symop_operation_xyz
x,y,z
1/2-x,1/2-y,z
x,1/2-y,1/2-z
1/2-x,y,1/2-z
-x,-y,-z
1/2+x,1/2+y,-z
-x,1/2+y,1/2+z
1/2+x,-y,1/2+z
loop_
_atom_site_type_symbol
_atom_site_label
_atom_site_fract_x
_atom_site_fract_y
_atom_site_fract_z
Si Si1 0.946383 0.768879 0.125786
Si Si2 0.017610 0.887676 0.379053
Si Si3 0.456608 0.098724 0.723000
Si Si4 0.474858 0.830922 0.674148
Si Si5 0.156625 0.038987 0.912088
Si Si6 0.454992 0.664293 0.667674
Si Si7 0.011202 0.352792 0.483304
Si Si8 0.849513 0.402042 0.033930
O O1 0.750000 0.750000 0.153658
O O2 0.049435 0.695624 0.124553
O O3 0.013676 0.831121 0.178685
O O4 0.928860 0.795809 0.042199
O O5 0.059283 0.915251 0.298242
O O6 0.810690 0.903924 0.395282
O O7 0.101047 0.920616 0.451293
O O8 0.250000 0.106628 0.750000
O O9 0.457244 0.038153 0.662081
O O10 0.495197 0.746804 0.667675
O O11 0.260910 0.843585 0.671961
O O12 0.530512 0.859288 0.753727
O O13 0.570040 0.856422 0.600620
O O14 0.256132 0.968082 0.928963
O O15 0.049934 0.073400 0.977953
O O16 0.496098 0.626791 0.590568
O O17 0.799454 0.342771 0.477122
#
# Coordination Sequence:
#
# PCOD9390275 Si02
#       8
#     8   8   8   8   8   8   8   8
#     4  11  18  33  61  88 116 146 193 246 294 356
#     4  11  21  35  59  91 115 152 195 257 296 341
#     4   9  18  34  58  88 112 153 204 240 289 347
#     4   8  14  29  51  79 110 138 187 236 287 339
#     4  10  21  38  56  79 118 161 200 236 280 361
#     4   8  15  29  50  79 111 141 178 244 289 328
#     4  10  20  35  57  86 112 156 195 237 304 356
#     4  11  22  36  56  86 124 151 198 247 296 348
#
# _framework density 24.340057999999999
#
# number of rings (size 3 to 8) (size 9 to 14) (size 15 to 20)
#    0.000    2.250    3.750    2.625    0.000    1.500 
#   13.500    2.500    0.000    3.750    0.000    0.000 
#    0.000    0.000    0.000    0.000    0.000    0.000 
#
# Total GULP energy -356902.583979 kJ/mol
# GULP energy per Si atom -5576.602875 kJ/mol
# Density = 2.428466 g / cm^3
# Si number density = 24.340058 Si / 1000 Ang^3
#
#
#
# Elastic Constant Matrix: (Units=GPa)
#
#
# Indices 1 2 3 4 5 6 
#
# 1 30.9931 0.1506 22.7632 0.0000 0.0000 0.0000
# 2 0.1506 56.7279 64.8952 0.0000 0.0000 0.0000
# 3 22.7632 64.8952 267.6489 0.0000 0.0000 0.0000
# 4 0.0000 0.0000 0.0000 15.6285 0.0000 0.0000
# 5 0.0000 0.0000 0.0000 0.0000 29.7628 0.0000
# 6 0.0000 0.0000 0.0000 0.0000 0.0000 7.5057
#
#
#
# Elastic Compliance Matrix: (Units=1/GPa)
#
#
# Indices 1 2 3 4 5 6 
#
# 1 0.035268 0.004619 -0.004119 0.000000 0.000000 0.000000
# 2 0.004619 0.024999 -0.006454 0.000000 0.000000 0.000000
# 3 -0.004119 -0.006454 0.005652 0.000000 0.000000 0.000000
# 4 0.000000 0.000000 0.000000 0.063986 0.000000 0.000000
# 5 0.000000 0.000000 0.000000 0.000000 0.033599 0.000000
# 6 0.000000 0.000000 0.000000 0.000000 0.000000 0.133232
#
#
# Mechanical properties :
#
#
# Convention : Reuss Voigt Hill
#
# Bulk Modulus (GPa) = 18.51525 58.99866 38.75695
# Shear Modulus (GPa) = 15.30700 28.41681 21.86191
#
# Velocity S-wave (km/s) = 2.51047 3.42056 3.00023
# Velocity P-wave (km/s) = 4.00334 6.31603 5.28767
#
# Compressibility (1/GPa) = 0.05400955
#
# Stress axis : x y z
#
# Youngs Moduli (GPa) = 28.35400 40.00127 176.94377
#
# Poissons Ratio (x) = -0.18476 0.72891
# Poissons Ratio (y) = -0.13096 1.14204
# Poissons Ratio (z) = 0.11680 0.25818
#
# Static dielectric constant tensor:
#      x y z
#    x 2.035390 0.000000 0.000000 
#    y 0.000000 1.877500 0.000000 
#    z 0.000000 0.000000 2.074960 
# 
# From -- ./inp_files/30575.got.cif
#   From: 2010.05.17/outbox.cif.g08.bks.cpg/sg48_16_cif.got.tgz:30575.got - 2010.06.03 20:39:00.
