data_PCOD9390600
_publ_section_title
;
Structure prediction by ZEFSAII (Michael W. Deem and Ramdas Pophale) SiO2 
 PCOD9390600
Probable space group: P N N N
;
_chemical_formula_sum "Si O2"
_cell_formula_units_Z 40
_cell_length_a 14.382686
_cell_length_b 9.377443
_cell_length_c 14.320822
_cell_angle_alpha 90.000000
_cell_angle_beta 90.000000
_cell_angle_gamma 90.000000
_cell_volume 1931.489621
_symmetry_space_group_name_H-M "P N N N"
_symmetry_group_IT_number 48
_space_group.IT_coordinate_system_code '2'
_symmetry_cell_setting 'orthorhombic'
loop_
_space_group_symop_operation_xyz
x,y,z
1/2-x,1/2-y,z
x,1/2-y,1/2-z
1/2-x,y,1/2-z
-x,-y,-z
1/2+x,1/2+y,-z
-x,1/2+y,1/2+z
1/2+x,-y,1/2+z
loop_
_atom_site_type_symbol
_atom_site_label
_atom_site_fract_x
_atom_site_fract_y
_atom_site_fract_z
Si Si1 0.250000 0.750000 0.080159
Si Si2 0.750000 0.750000 0.494092
Si Si3 0.999161 0.413755 0.400860
Si Si4 0.084015 0.309357 0.649140
Si Si5 0.792955 0.952729 0.848203
Si Si6 0.052428 0.847831 0.485984
O O1 0.291986 0.622107 0.139972
O O2 0.163623 0.674538 0.026418
O O3 0.836498 0.717914 0.427573
O O4 0.738162 0.619274 0.565752
O O5 0.101167 0.405357 0.358678
O O6 0.000000 0.500000 0.500000
O O7 0.936310 0.521703 0.341850
O O8 0.968692 0.255549 0.426355
O O9 0.108878 0.250000 0.750000
O O10 0.995473 0.225265 0.605533
O O11 0.750000 0.912937 0.750000
O O12 0.000000 0.000000 0.500000
#
# Coordination Sequence:
#
# PCOD9390600 Si02
#       6
#     4   4   8   8   8   8
#     4  12  23  38  68 108 137 178 241 292 358 442
#     4  12  22  46  66  96 138 180 244 296 358 434
#     4  10  20  46  65  91 145 185 221 294 363 427
#     4  11  23  42  69  96 133 187 240 287 362 439
#     4  12  25  40  68 103 137 180 232 295 367 434
#     4  11  23  43  69 102 144 193 236 296 371 444
#
# _framework density 20.709403999999999
#
# number of rings (size 3 to 8) (size 9 to 14) (size 15 to 20)
#    0.000    0.800    8.000    2.100    2.800    0.000 
#    0.000    1.000    0.000    0.000    0.000    8.400 
#    0.000    0.000    0.000    0.000    0.000    0.000 
#
# Total GULP energy -223192.682761 kJ/mol
# GULP energy per Si atom -5579.817069 kJ/mol
# Density = 2.066227 g / cm^3
# Si number density = 20.709404 Si / 1000 Ang^3
#
#
#
# Elastic Constant Matrix: (Units=GPa)
#
#
# Indices 1 2 3 4 5 6 
#
# 1 146.9473 45.0911 52.2623 0.0000 0.0000 0.0000
# 2 45.0911 165.7767 47.6486 0.0000 0.0000 0.0000
# 3 52.2623 47.6486 125.8697 0.0000 0.0000 0.0000
# 4 0.0000 0.0000 0.0000 10.7037 0.0000 0.0000
# 5 0.0000 0.0000 0.0000 0.0000 26.9256 0.0000
# 6 0.0000 0.0000 0.0000 0.0000 0.0000 32.8180
#
#
#
# Elastic Compliance Matrix: (Units=1/GPa)
#
#
# Indices 1 2 3 4 5 6 
#
# 1 0.008270 -0.001417 -0.002898 0.000000 0.000000 0.000000
# 2 -0.001417 0.007011 -0.002066 0.000000 0.000000 0.000000
# 3 -0.002898 -0.002066 0.009930 0.000000 0.000000 0.000000
# 4 0.000000 0.000000 0.000000 0.093425 0.000000 0.000000
# 5 0.000000 0.000000 0.000000 0.000000 0.037139 0.000000
# 6 0.000000 0.000000 0.000000 0.000000 0.000000 0.030471
#
#
# Mechanical properties :
#
#
# Convention : Reuss Voigt Hill
#
# Bulk Modulus (GPa) = 80.31419 80.95533 80.63476
# Shear Modulus (GPa) = 24.61133 33.66224 29.13679
#
# Velocity S-wave (km/s) = 3.45108 4.03607 3.75498
# Velocity P-wave (km/s) = 7.39903 7.80357 7.60399
#
# Compressibility (1/GPa) = 0.01245110
#
# Stress axis : x y z
#
# Youngs Moduli (GPa) = 120.91253 142.62568 100.70541
#
# Poissons Ratio (x) = 0.20206 0.29181
# Poissons Ratio (y) = 0.17129 0.20805
# Poissons Ratio (z) = 0.35037 0.29466
#
# Static dielectric constant tensor:
#      x y z
#    x 0.074460 0.000000 0.000000 
#    y 0.000000 1.795620 0.000000 
#    z 0.000000 0.000000 1.731650 
# 
# From -- ./inp_files/25120.got.cif
#   From: 2010.05.17/outbox.cif.g08.bks.cpg/sg48_13_cif.got.tgz:25120.got - 2010.06.03 20:39:00.
