data_PCOD9390282
_publ_section_title
;
Structure prediction by ZEFSAII (Michael W. Deem and Ramdas Pophale) SiO2 
 PCOD9390282
Probable space group: P N N N
;
_chemical_formula_sum "Si O2"
_cell_formula_units_Z 28
_cell_length_a 7.650461
_cell_length_b 15.751010
_cell_length_c 10.343286
_cell_angle_alpha 90.000000
_cell_angle_beta 90.000000
_cell_angle_gamma 90.000000
_cell_volume 1246.391694
_symmetry_space_group_name_H-M "P N N N"
_symmetry_group_IT_number 48
_space_group.IT_coordinate_system_code '2'
_symmetry_cell_setting 'orthorhombic'
loop_
_space_group_symop_operation_xyz
x,y,z
1/2-x,1/2-y,z
x,1/2-y,1/2-z
1/2-x,y,1/2-z
-x,-y,-z
1/2+x,1/2+y,-z
-x,1/2+y,1/2+z
1/2+x,-y,1/2+z
loop_
_atom_site_type_symbol
_atom_site_label
_atom_site_fract_x
_atom_site_fract_y
_atom_site_fract_z
Si Si1 0.527211 0.086581 0.079558
Si Si2 0.609208 0.084763 0.506007
Si Si3 0.036356 0.745977 0.099085
Si Si4 0.250000 0.005497 0.250000
O O1 0.407771 0.067327 0.204373
O O2 0.736401 0.095770 0.097761
O O3 0.477145 0.165734 0.986462
O O4 0.500000 0.000000 0.000000
O O5 0.490289 0.166795 0.525810
O O6 0.500000 0.000000 0.500000
O O7 0.707780 0.062043 0.638723
O O8 0.250000 0.750000 0.097169
O O9 0.981545 0.750000 0.250000
#
# Coordination Sequence:
#
# PCOD9390282 Si02
#       4
#     8   8   8   4
#     4   9  18  34  57  85 117 156 197 244 307 370
#     4  10  20  35  58  87 115 151 200 251 307 368
#     4   9  16  32  59  85 110 147 196 246 301 368
#     4  10  20  38  58  80 122 162 196 252 308 372
#
# _framework density 22.464848
#
# number of rings (size 3 to 8) (size 9 to 14) (size 15 to 20)
#    0.000    2.571    0.000    5.143    0.000    1.143 
#    0.000    8.571    0.000   12.000    0.000    0.000 
#    0.000    0.000    0.000    0.000    0.000    0.000 
#
# Total GULP energy -155952.405298 kJ/mol
# GULP energy per Si atom -5569.728761 kJ/mol
# Density = 2.241372 g / cm^3
# Si number density = 22.464848 Si / 1000 Ang^3
#
#
#
# Elastic Constant Matrix: (Units=GPa)
#
#
# Indices 1 2 3 4 5 6 
#
# 1 64.0445 27.8546 29.0474 0.0000 0.0000 0.0000
# 2 27.8546 215.1626 38.3230 0.0000 0.0000 0.0000
# 3 29.0474 38.3230 71.0115 0.0000 0.0000 0.0000
# 4 0.0000 0.0000 0.0000 41.0880 0.0000 0.0000
# 5 0.0000 0.0000 0.0000 0.0000 28.6535 0.0000
# 6 0.0000 0.0000 0.0000 0.0000 0.0000 21.3634
#
#
#
# Elastic Compliance Matrix: (Units=1/GPa)
#
#
# Indices 1 2 3 4 5 6 
#
# 1 0.019455 -0.001218 -0.007301 0.000000 0.000000 0.000000
# 2 -0.001218 0.005218 -0.002318 0.000000 0.000000 0.000000
# 3 -0.007301 -0.002318 0.018319 0.000000 0.000000 0.000000
# 4 0.000000 0.000000 0.000000 0.024338 0.000000 0.000000
# 5 0.000000 0.000000 0.000000 0.000000 0.034900 0.000000
# 6 0.000000 0.000000 0.000000 0.000000 0.000000 0.046809
#
#
# Mechanical properties :
#
#
# Convention : Reuss Voigt Hill
#
# Bulk Modulus (GPa) = 46.90585 60.07427 53.49006
# Shear Modulus (GPa) = 28.11839 35.22056 31.66948
#
# Velocity S-wave (km/s) = 3.54172 3.96385 3.75872
# Velocity P-wave (km/s) = 6.13596 6.91006 6.53449
#
# Compressibility (1/GPa) = 0.02131930
#
# Stress axis : x y z
#
# Youngs Moduli (GPa) = 51.40002 191.63735 54.58683
#
# Poissons Ratio (x) = 0.23347 0.39852
# Poissons Ratio (y) = 0.06262 0.12652
# Poissons Ratio (z) = 0.37526 0.44417
#
# Static dielectric constant tensor:
#      x y z
#    x 1.883550 0.000000 0.000000 
#    y 0.000000 1.914190 0.000000 
#    z 0.000000 0.000000 1.797220 
# 
# From -- ./inp_files/11798.got.cif
#   From: 2010.05.17/outbox.cif.g08.bks.cpg/sg48_6_cif.got.tgz:11798.got - 2010.06.03 20:39:00.
