data_PCOD9390897
_publ_section_title
;
Structure prediction by ZEFSAII (Michael W. Deem and Ramdas Pophale) SiO2 
 PCOD9390897
Probable space group: P N N N
;
_chemical_formula_sum "Si O2"
_cell_formula_units_Z 32
_cell_length_a 15.540506
_cell_length_b 7.485000
_cell_length_c 11.176055
_cell_angle_alpha 90.000000
_cell_angle_beta 90.000000
_cell_angle_gamma 90.000000
_cell_volume 1300.006400
_symmetry_space_group_name_H-M "P N N N"
_symmetry_group_IT_number 48
_space_group.IT_coordinate_system_code '2'
_symmetry_cell_setting 'orthorhombic'
loop_
_space_group_symop_operation_xyz
x,y,z
1/2-x,1/2-y,z
x,1/2-y,1/2-z
1/2-x,y,1/2-z
-x,-y,-z
1/2+x,1/2+y,-z
-x,1/2+y,1/2+z
1/2+x,-y,1/2+z
loop_
_atom_site_type_symbol
_atom_site_label
_atom_site_fract_x
_atom_site_fract_y
_atom_site_fract_z
Si Si1 0.769222 0.464935 0.487200
Si Si2 0.081263 0.894341 0.855241
Si Si3 0.591507 0.418889 0.531913
Si Si4 0.890413 0.542707 0.708702
O O1 0.750000 0.250000 0.486122
O O2 0.834331 0.511131 0.379866
O O3 0.671223 0.531467 0.476547
O O4 0.815938 0.515143 0.611370
O O5 0.095307 0.750000 0.750000
O O6 0.988669 0.980287 0.837363
O O7 0.080858 0.775219 0.974949
O O8 0.500000 0.500000 0.500000
O O9 0.613653 0.423805 0.671858
O O10 0.886003 0.750000 0.750000
#
# Coordination Sequence:
#
# PCOD9390897 Si02
#       4
#     8   8   8   8
#     4  10  24  39  64  96 128 167 223 264 326 392
#     4  10  21  41  66  93 126 172 214 271 328 390
#     4  11  21  39  58  90 130 166 211 269 322 374
#     4  11  22  41  68  94 130 170 220 271 328 385
#
# _framework density 24.615265000000001
#
# number of rings (size 3 to 8) (size 9 to 14) (size 15 to 20)
#    0.000    1.500    5.000    1.500    0.000   13.500 
#    0.000    0.000    0.000    1.500    0.000    7.000 
#    0.000    0.000    0.000    0.000    0.000    0.000 
#
# Total GULP energy -178723.449772 kJ/mol
# GULP energy per Si atom -5585.107805 kJ/mol
# Density = 2.455924 g / cm^3
# Si number density = 24.615265 Si / 1000 Ang^3
#
#
#
# Elastic Constant Matrix: (Units=GPa)
#
#
# Indices 1 2 3 4 5 6 
#
# 1 222.6410 -4.7942 24.4980 0.0000 0.0000 0.0000
# 2 -4.7942 20.7916 21.9576 0.0000 0.0000 0.0000
# 3 24.4980 21.9576 82.2461 0.0000 0.0000 0.0000
# 4 0.0000 0.0000 0.0000 40.4020 0.0000 0.0000
# 5 0.0000 0.0000 0.0000 0.0000 33.7568 0.0000
# 6 0.0000 0.0000 0.0000 0.0000 0.0000 20.6840
#
#
#
# Elastic Compliance Matrix: (Units=1/GPa)
#
#
# Indices 1 2 3 4 5 6 
#
# 1 0.004837 0.003672 -0.002421 0.000000 0.000000 0.000000
# 2 0.003672 0.069769 -0.019720 0.000000 0.000000 0.000000
# 3 -0.002421 -0.019720 0.018145 0.000000 0.000000 0.000000
# 4 0.000000 0.000000 0.000000 0.024751 0.000000 0.000000
# 5 0.000000 0.000000 0.000000 0.000000 0.029624 0.000000
# 6 0.000000 0.000000 0.000000 0.000000 0.000000 0.048347
#
#
# Mechanical properties :
#
#
# Convention : Reuss Voigt Hill
#
# Bulk Modulus (GPa) = 17.91719 45.44462 31.68090
# Shear Modulus (GPa) = 19.91910 37.90306 28.91108
#
# Velocity S-wave (km/s) = 2.84776 3.92831 3.43084
# Velocity P-wave (km/s) = 4.25531 6.25120 5.34721
#
# Compressibility (1/GPa) = 0.05581233
#
# Stress axis : x y z
#
# Youngs Moduli (GPa) = 206.73868 14.33294 55.11258
#
# Poissons Ratio (x) = -0.05263 0.13344
# Poissons Ratio (y) = -0.75920 1.08685
# Poissons Ratio (z) = 0.50055 0.28265
#
# Static dielectric constant tensor:
#      x y z
#    x 2.259770 0.000000 0.000000 
#    y 0.000000 4.254120 0.000000 
#    z 0.000000 0.000000 2.036700 
# 
# From -- ./inp_files/10094.got.cif
#   From: 2010.05.17/outbox.cif.g08.bks.cpg/sg48_6_cif.got.tgz:10094.got - 2010.06.03 20:39:00.
