data_PCOD9390238
_publ_section_title
;
Structure prediction by ZEFSAII (Michael W. Deem and Ramdas Pophale) SiO2 
 PCOD9390238
Probable space group: P N N N
;
_chemical_formula_sum "Si O2"
_cell_formula_units_Z 52
_cell_length_a 8.776206
_cell_length_b 14.791904
_cell_length_c 19.994110
_cell_angle_alpha 90.000000
_cell_angle_beta 90.000000
_cell_angle_gamma 90.000000
_cell_volume 2595.571312
_symmetry_space_group_name_H-M "P N N N"
_symmetry_group_IT_number 48
_space_group.IT_coordinate_system_code '2'
_symmetry_cell_setting 'orthorhombic'
loop_
_space_group_symop_operation_xyz
x,y,z
1/2-x,1/2-y,z
x,1/2-y,1/2-z
1/2-x,y,1/2-z
-x,-y,-z
1/2+x,1/2+y,-z
-x,1/2+y,1/2+z
1/2+x,-y,1/2+z
loop_
_atom_site_type_symbol
_atom_site_label
_atom_site_fract_x
_atom_site_fract_y
_atom_site_fract_z
Si Si1 0.505969 0.840875 0.339964
Si Si2 0.107238 0.191815 0.423439
Si Si3 0.750000 0.250000 0.750000
Si Si4 0.087122 0.702849 0.055167
Si Si5 0.300064 0.505472 0.827728
Si Si6 0.902569 0.289820 0.324381
Si Si7 0.750000 0.750000 0.250000
Si Si8 0.488093 0.504116 0.418636
O O1 0.355402 0.813575 0.297331
O O2 0.508171 0.775827 0.403361
O O3 0.643984 0.809756 0.294566
O O4 0.560463 0.942319 0.353381
O O5 0.250000 0.250000 0.449038
O O6 0.984295 0.191432 0.482654
O O7 0.045744 0.252100 0.363060
O O8 0.112055 0.085635 0.401563
O O9 0.250000 0.750000 0.050635
O O10 0.082926 0.604690 0.091940
O O11 0.250000 0.488122 0.750000
O O12 0.372689 0.604707 0.825509
O O13 0.149452 0.500266 0.876850
O O14 0.750000 0.250000 0.357646
O O15 0.909607 0.250000 0.250000
O O16 0.500000 0.500000 0.500000
#
# Coordination Sequence:
#
# PCOD9390238 Si02
#       8
#     8   8   2   8   8   8   2   8
#     4  11  23  40  63  97 134 177 225 275 334 408
#     4  11  25  44  68  99 135 175 224 287 345 409
#     4  10  24  46  56  94 146 174 218 290 340 374
#     4  11  25  43  67  92 137 186 224 278 342 410
#     4  12  23  40  73 106 129 185 234 279 342 426
#     4  11  21  44  72  98 132 172 227 281 340 404
#     4  10  20  34  64  82 130 174 214 258 324 390
#     4  10  24  42  66  97 137 174 229 289 340 406
#
# _framework density 20.034123999999998
#
# number of rings (size 3 to 8) (size 9 to 14) (size 15 to 20)
#    0.000    1.077    4.615    1.385    9.692    1.538 
#    0.000    1.538    0.000    0.000    0.000    0.000 
#    0.000    0.000    0.000    0.000    0.000    0.000 
#
# Total GULP energy -289622.837006 kJ/mol
# GULP energy per Si atom -5569.669942 kJ/mol
# Density = 1.998853 g / cm^3
# Si number density = 20.034124 Si / 1000 Ang^3
#
#
#
# Elastic Constant Matrix: (Units=GPa)
#
#
# Indices 1 2 3 4 5 6 
#
# 1 81.0565 58.7232 23.0195 0.0000 0.0000 0.0000
# 2 58.7232 212.7814 30.8987 0.0000 0.0000 0.0000
# 3 23.0195 30.8987 82.1033 0.0000 0.0000 0.0000
# 4 0.0000 0.0000 0.0000 -43.1197 0.0000 0.0000
# 5 0.0000 0.0000 0.0000 0.0000 4.6691 0.0000
# 6 0.0000 0.0000 0.0000 0.0000 0.0000 468.2976
#
#
#
# Elastic Compliance Matrix: (Units=1/GPa)
#
#
# Indices 1 2 3 4 5 6 
#
# 1 0.016092 -0.004005 -0.003005 0.000000 0.000000 0.000000
# 2 -0.004005 0.005968 -0.001123 0.000000 0.000000 0.000000
# 3 -0.003005 -0.001123 0.013445 0.000000 0.000000 0.000000
# 4 0.000000 0.000000 0.000000 -0.023191 0.000000 0.000000
# 5 0.000000 0.000000 0.000000 0.000000 0.214175 0.000000
# 6 0.000000 0.000000 0.000000 0.000000 0.000000 0.002135
#
#
# Mechanical properties :
#
#
# Convention : Reuss Voigt Hill
#
# Bulk Modulus (GPa) = 51.97588 66.80267 59.38928
# Shear Modulus (GPa) = 19.89645 103.52271 61.70958
#
# Velocity S-wave (km/s) = 3.15481 7.19620 5.55600
# Velocity P-wave (km/s) = 6.26661 10.12245 8.41827
#
# Compressibility (1/GPa) = 0.01923969
#
# Stress axis : x y z
#
# Youngs Moduli (GPa) = 62.14417 167.56140 74.37777
#
# Poissons Ratio (x) = 0.67103 0.22347
# Poissons Ratio (y) = 0.24887 0.08354
# Poissons Ratio (z) = 0.18672 0.18820
#
# Static dielectric constant tensor:
#      x y z
#    x 1.798700 0.000000 0.000000 
#    y 0.000000 1.815690 0.000000 
#    z 0.000000 0.000000 1.689410 
# 
# From -- ./inp_files/33564.got.cif
#   From: 2010.05.17/outbox.cif.g08.bks.cpg/sg48_17_cif.got.tgz:33564.got - 2010.06.03 20:39:00.
