data_PCOD9390303
_publ_section_title
;
Structure prediction by ZEFSAII (Michael W. Deem and Ramdas Pophale) SiO2 
 PCOD9390303
Probable space group: P N N N
;
_chemical_formula_sum "Si O2"
_cell_formula_units_Z 56
_cell_length_a 25.902019
_cell_length_b 8.412717
_cell_length_c 14.861037
_cell_angle_alpha 90.000000
_cell_angle_beta 90.000000
_cell_angle_gamma 90.000000
_cell_volume 3238.314413
_symmetry_space_group_name_H-M "P N N N"
_symmetry_group_IT_number 48
_space_group.IT_coordinate_system_code '2'
_symmetry_cell_setting 'orthorhombic'
loop_
_space_group_symop_operation_xyz
x,y,z
1/2-x,1/2-y,z
x,1/2-y,1/2-z
1/2-x,y,1/2-z
-x,-y,-z
1/2+x,1/2+y,-z
-x,1/2+y,1/2+z
1/2+x,-y,1/2+z
loop_
_atom_site_type_symbol
_atom_site_label
_atom_site_fract_x
_atom_site_fract_y
_atom_site_fract_z
Si Si1 0.532483 0.440664 0.258352
Si Si2 0.147239 0.436645 0.079446
Si Si3 0.950343 0.937998 0.057780
Si Si4 0.138372 0.053299 0.071364
Si Si5 0.083788 0.057493 0.250718
Si Si6 0.252982 0.939333 0.355256
Si Si7 0.446734 0.056852 0.951617
O O1 0.534484 0.250000 0.250000
O O2 0.547545 0.510630 0.161649
O O3 0.473353 0.494098 0.273722
O O4 0.559486 0.494785 0.349864
O O5 0.145749 0.244641 0.073909
O O6 0.124187 0.492356 0.174853
O O7 0.205810 0.494576 0.084568
O O8 0.104664 0.491476 0.007005
O O9 0.950609 0.747592 0.049741
O O10 0.895459 0.992079 0.015213
O O11 0.000000 0.000000 0.000000
O O12 0.101093 0.004816 0.153366
O O13 0.193756 0.983471 0.095624
O O14 0.083265 0.250000 0.250000
O O15 0.250000 0.750000 0.350505
O O16 0.250000 0.999791 0.250000
O O17 0.500000 0.000000 0.000000
#
# Coordination Sequence:
#
# PCOD9390303 Si02
#       7
#     8   8   8   8   8   8   8
#     4  11  21  37  56  81 116 152 189 229 279 336
#     4  10  20  36  56  77 109 151 189 222 268 335
#     4  11  22  36  56  84 114 149 190 232 280 334
#     4  10  20  36  56  77 109 151 189 222 268 335
#     4   9  16  30  52  79 109 145 185 218 257 329
#     4  11  23  35  51  82 115 142 181 233 282 326
#     4  11  22  36  56  84 114 149 190 232 280 334
#
# _framework density 17.292947000000002
#
# number of rings (size 3 to 8) (size 9 to 14) (size 15 to 20)
#    0.000    1.571    4.286    1.714    0.000    2.857 
#    0.000    0.000    0.000    0.857    0.000    6.000 
#    0.000    0.000    0.000    0.000    0.000    0.000 
#
# Total GULP energy -312187.333875 kJ/mol
# GULP energy per Si atom -5574.773819 kJ/mol
# Density = 1.725359 g / cm^3
# Si number density = 17.292947 Si / 1000 Ang^3
#
#
#
# Elastic Constant Matrix: (Units=GPa)
#
#
# Indices 1 2 3 4 5 6 
#
# 1 100.2652 18.4489 33.8813 0.0000 0.0000 0.0000
# 2 18.4489 36.4361 18.3490 0.0000 0.0000 0.0000
# 3 33.8813 18.3490 94.6671 0.0000 0.0000 0.0000
# 4 0.0000 0.0000 0.0000 24.6606 0.0000 0.0000
# 5 0.0000 0.0000 0.0000 0.0000 28.0090 0.0000
# 6 0.0000 0.0000 0.0000 0.0000 0.0000 24.0914
#
#
#
# Elastic Compliance Matrix: (Units=1/GPa)
#
#
# Indices 1 2 3 4 5 6 
#
# 1 0.011927 -0.004310 -0.003433 0.000000 0.000000 0.000000
# 2 -0.004310 0.031971 -0.004654 0.000000 0.000000 0.000000
# 3 -0.003433 -0.004654 0.012694 0.000000 0.000000 0.000000
# 4 0.000000 0.000000 0.000000 0.040551 0.000000 0.000000
# 5 0.000000 0.000000 0.000000 0.000000 0.035703 0.000000
# 6 0.000000 0.000000 0.000000 0.000000 0.000000 0.041509
#
#
# Mechanical properties :
#
#
# Convention : Reuss Voigt Hill
#
# Bulk Modulus (GPa) = 31.44920 41.41409 36.43164
# Shear Modulus (GPa) = 23.83805 26.06479 24.95142
#
# Velocity S-wave (km/s) = 3.71682 3.88654 3.80263
# Velocity P-wave (km/s) = 6.05354 6.64386 6.35555
#
# Compressibility (1/GPa) = 0.03179732
#
# Stress axis : x y z
#
# Youngs Moduli (GPa) = 83.84536 31.27786 78.77607
#
# Poissons Ratio (x) = 0.13481 0.27045
# Poissons Ratio (y) = 0.36137 0.36665
# Poissons Ratio (z) = 0.28786 0.14558
#
# Static dielectric constant tensor:
#      x y z
#    x 1.587190 0.000000 0.000000 
#    y 0.000000 1.601620 0.000000 
#    z 0.000000 0.000000 1.588220 
# 
# From -- ./inp_files/28374.got.cif
#   From: 2010.05.17/outbox.cif.g08.bks.cpg/sg48_15_cif.got.tgz:28374.got - 2010.06.03 20:39:00.
