data_PCOD9390006
_publ_section_title
;
Structure prediction by ZEFSAII (Michael W. Deem and Ramdas Pophale) SiO2 
 PCOD9390006
Probable space group: P N N N
;
_chemical_formula_sum "Si O2"
_cell_formula_units_Z 40
_cell_length_a 18.665779
_cell_length_b 5.389774
_cell_length_c 16.907747
_cell_angle_alpha 90.000000
_cell_angle_beta 90.000000
_cell_angle_gamma 90.000000
_cell_volume 1700.992565
_symmetry_space_group_name_H-M "P N N N"
_symmetry_group_IT_number 48
_space_group.IT_coordinate_system_code '2'
_symmetry_cell_setting 'orthorhombic'
loop_
_space_group_symop_operation_xyz
x,y,z
1/2-x,1/2-y,z
x,1/2-y,1/2-z
1/2-x,y,1/2-z
-x,-y,-z
1/2+x,1/2+y,-z
-x,1/2+y,1/2+z
1/2+x,-y,1/2+z
loop_
_atom_site_type_symbol
_atom_site_label
_atom_site_fract_x
_atom_site_fract_y
_atom_site_fract_z
Si Si1 0.502486 0.303747 0.338979
Si Si2 0.062281 0.303610 0.655938
Si Si3 0.335854 0.483299 0.964710
Si Si4 0.655914 0.993886 0.798855
Si Si5 0.177526 0.512815 0.028217
O O1 0.531810 0.250000 0.250000
O O2 0.546759 0.528199 0.377775
O O3 0.425033 0.426542 0.325739
O O4 0.506191 0.020846 0.370103
O O5 0.061336 0.250000 0.750000
O O6 0.135711 0.419926 0.622229
O O7 0.250157 0.498268 0.976209
O O8 0.362526 0.740998 0.000904
O O9 0.361166 0.247816 0.015578
O O10 0.676909 0.750000 0.750000
O O11 0.657596 0.250000 0.750000
O O12 0.698477 0.026652 0.880121
#
# Coordination Sequence:
#
# PCOD9390006 Si02
#       5
#     8   8   8   8   8
#     4   9  18  33  56  88 119 146 191 250 295 344
#     4  10  19  35  61  88 114 153 198 240 294 356
#     4  10  21  40  58  80 121 161 196 251 299 346
#     4  11  21  38  62  89 119 158 202 246 294 358
#     4  10  22  40  59  83 121 162 197 249 304 346
#
# _framework density 23.515684
#
# number of rings (size 3 to 8) (size 9 to 14) (size 15 to 20)
#    0.000    2.000    0.000    5.400    0.000    0.000 
#    0.000   20.000    0.000    4.800    0.000    0.000 
#    0.000    0.000    0.000    0.000    0.000    0.000 
#
# Total GULP energy -222898.645550 kJ/mol
# GULP energy per Si atom -5572.466139 kJ/mol
# Density = 2.346216 g / cm^3
# Si number density = 23.515684 Si / 1000 Ang^3
#
#
#
# Elastic Constant Matrix: (Units=GPa)
#
#
# Indices 1 2 3 4 5 6 
#
# 1 67.0975 36.5078 35.8773 0.0000 0.0000 0.0000
# 2 36.5078 264.5909 53.6994 0.0000 0.0000 0.0000
# 3 35.8773 53.6994 46.4538 0.0000 0.0000 0.0000
# 4 0.0000 0.0000 0.0000 32.0698 0.0000 0.0000
# 5 0.0000 0.0000 0.0000 0.0000-3328.6899 0.0000
# 6 0.0000 0.0000 0.0000 0.0000 0.0000 74.1153
#
#
#
# Elastic Compliance Matrix: (Units=1/GPa)
#
#
# Indices 1 2 3 4 5 6 
#
# 1 0.025467 0.000624 -0.020390 0.000000 0.000000 0.000000
# 2 0.000624 0.004953 -0.006208 0.000000 0.000000 0.000000
# 3 -0.020390 -0.006208 0.044451 0.000000 0.000000 0.000000
# 4 0.000000 0.000000 0.000000 0.031182 0.000000 0.000000
# 5 0.000000 0.000000 0.000000 0.000000 -0.000300 0.000000
# 6 0.000000 0.000000 0.000000 0.000000 0.000000 0.013492
#
#
# Mechanical properties :
#
#
# Convention : Reuss Voigt Hill
#
# Bulk Modulus (GPa) = 43.62424 70.03457 56.82940
# Shear Modulus (GPa) = 27.95892 -627.69713 -299.86911
#
# Velocity S-wave (km/s) = 3.45185 -16.35563 -11.30467
# Velocity P-wave (km/s) = 5.87183 18.07840 12.09029
#
# Compressibility (1/GPa) = 0.02292304
#
# Stress axis : x y z
#
# Youngs Moduli (GPa) = 39.26694 201.88985 22.49670
#
# Poissons Ratio (x) = -0.12606 0.45871
# Poissons Ratio (y) = -0.02452 0.13966
# Poissons Ratio (z) = 0.80067 1.25334
#
# Static dielectric constant tensor:
#      x y z
#    x 1.958080 0.000000 0.000000 
#    y 0.000000 1.998750 0.000000 
#    z 0.000000 0.000000 1.897170 
# 
# From -- ./inp_files/28506.got.cif
#   From: 2010.05.17/outbox.cif.g08.bks.cpg/sg48_15_cif.got.tgz:28506.got - 2010.06.03 20:39:00.
