data_PCOD9390874
_publ_section_title
;
Structure prediction by ZEFSAII (Michael W. Deem and Ramdas Pophale) SiO2 
 PCOD9390874
Probable space group: P N N N
;
_chemical_formula_sum "Si O2"
_cell_formula_units_Z 46
_cell_length_a 12.626460
_cell_length_b 23.695431
_cell_length_c 7.889929
_cell_angle_alpha 90.000000
_cell_angle_beta 90.000000
_cell_angle_gamma 90.000000
_cell_volume 2360.583216
_symmetry_space_group_name_H-M "P N N N"
_symmetry_group_IT_number 48
_space_group.IT_coordinate_system_code '2'
_symmetry_cell_setting 'orthorhombic'
loop_
_space_group_symop_operation_xyz
x,y,z
1/2-x,1/2-y,z
x,1/2-y,1/2-z
1/2-x,y,1/2-z
-x,-y,-z
1/2+x,1/2+y,-z
-x,1/2+y,1/2+z
1/2+x,-y,1/2+z
loop_
_atom_site_type_symbol
_atom_site_label
_atom_site_fract_x
_atom_site_fract_y
_atom_site_fract_z
Si Si1 0.474634 0.895228 0.553823
Si Si2 0.758417 0.456201 0.446439
Si Si3 0.715121 0.926103 0.571616
Si Si4 0.986447 0.813825 0.260017
Si Si5 0.250000 0.349109 0.750000
Si Si6 0.890876 0.151693 0.408928
Si Si7 0.250000 0.750000 0.750000
O O1 0.377978 0.937117 0.519689
O O2 0.587623 0.925963 0.562027
O O3 0.476845 0.850141 0.401603
O O4 0.449169 0.865944 0.734442
O O5 0.750000 0.474078 0.250000
O O6 0.735042 0.511543 0.554557
O O7 0.685168 0.400824 0.460404
O O8 0.750000 0.900751 0.750000
O O9 0.751836 0.888419 0.415388
O O10 0.025537 0.750000 0.250000
O O11 0.859098 0.815237 0.252213
O O12 0.029931 0.838383 0.436219
O O13 0.821625 0.207334 0.363036
#
# Coordination Sequence:
#
# PCOD9390874 Si02
#       7
#     8   8   8   8   4   8   2
#     4  10  22  42  59  90 124 161 207 250 305 379
#     4  10  21  41  58  88 127 160 195 257 312 367
#     4  11  22  38  65  88 120 163 207 253 308 366
#     4  11  24  40  66  92 120 166 210 255 308 364
#     4  10  23  45  60  90 129 157 210 264 298 362
#     4  11  23  41  62  89 129 162 202 253 318 368
#     4  12  20  42  66  84 136 166 196 268 308 382
#
# _framework density 19.486708
#
# number of rings (size 3 to 8) (size 9 to 14) (size 15 to 20)
#    0.000    1.391    3.478    2.870    2.435    0.000 
#    0.000    2.609    0.000    3.130    0.000    0.000 
#    0.000    0.000    0.000    0.000    0.000    0.000 
#
# Total GULP energy -256892.576163 kJ/mol
# GULP energy per Si atom -5584.621221 kJ/mol
# Density = 1.944236 g / cm^3
# Si number density = 19.486708 Si / 1000 Ang^3
#
#
#
# Elastic Constant Matrix: (Units=GPa)
#
#
# Indices 1 2 3 4 5 6 
#
# 1 29.6866 9.0725 15.6010 0.0000 0.0000 0.0000
# 2 9.0725 90.3022 40.9675 0.0000 0.0000 0.0000
# 3 15.6010 40.9675 116.6703 0.0000 0.0000 0.0000
# 4 0.0000 0.0000 0.0000 -38.8503 0.0000 0.0000
# 5 0.0000 0.0000 0.0000 0.0000 28.5881 0.0000
# 6 0.0000 0.0000 0.0000 0.0000 0.0000 -7.5939
#
#
#
# Elastic Compliance Matrix: (Units=1/GPa)
#
#
# Indices 1 2 3 4 5 6 
#
# 1 0.036456 -0.001726 -0.004269 0.000000 0.000000 0.000000
# 2 -0.001726 0.013254 -0.004423 0.000000 0.000000 0.000000
# 3 -0.004269 -0.004423 0.010695 0.000000 0.000000 0.000000
# 4 0.000000 0.000000 0.000000 -0.025740 0.000000 0.000000
# 5 0.000000 0.000000 0.000000 0.000000 0.034980 0.000000
# 6 0.000000 0.000000 0.000000 0.000000 0.000000 -0.131685
#
#
# Mechanical properties :
#
#
# Convention : Reuss Voigt Hill
#
# Bulk Modulus (GPa) = 25.27219 40.88234 33.07726
# Shear Modulus (GPa) = -178.48228 7.82997 -85.32616
#
# Velocity S-wave (km/s) = -9.58074 2.00670 -6.62434
# Velocity P-wave (km/s) = 10.45899 5.13753 6.44190
#
# Compressibility (1/GPa) = 0.03956919
#
# Stress axis : x y z
#
# Youngs Moduli (GPa) = 27.43027 75.44881 93.50046
#
# Poissons Ratio (x) = 0.13023 0.39913
# Poissons Ratio (y) = 0.04735 0.41357
# Poissons Ratio (z) = 0.11709 0.33373
#
# Static dielectric constant tensor:
#      x y z
#    x 1.671510 0.000000 0.000000 
#    y 0.000000 1.667210 0.000000 
#    z 0.000000 0.000000 0.135070 
# 
# From -- ./inp_files/11290.got.cif
#   From: 2010.05.17/outbox.cif.g08.bks.cpg/sg48_6_cif.got.tgz:11290.got - 2010.06.03 20:39:00.
