data_PCOD9390023
_publ_section_title
;
Structure prediction by ZEFSAII (Michael W. Deem and Ramdas Pophale) SiO2 
 PCOD9390023
Probable space group: P N N N
;
_chemical_formula_sum "Si O2"
_cell_formula_units_Z 64
_cell_length_a 28.505604
_cell_length_b 5.357930
_cell_length_c 21.310772
_cell_angle_alpha 90.000000
_cell_angle_beta 90.000000
_cell_angle_gamma 90.000000
_cell_volume 3254.816176
_symmetry_space_group_name_H-M "P N N N"
_symmetry_group_IT_number 48
_space_group.IT_coordinate_system_code '2'
_symmetry_cell_setting 'orthorhombic'
loop_
_space_group_symop_operation_xyz
x,y,z
1/2-x,1/2-y,z
x,1/2-y,1/2-z
1/2-x,y,1/2-z
-x,-y,-z
1/2+x,1/2+y,-z
-x,1/2+y,1/2+z
1/2+x,-y,1/2+z
loop_
_atom_site_type_symbol
_atom_site_label
_atom_site_fract_x
_atom_site_fract_y
_atom_site_fract_z
Si Si1 0.750595 0.997463 0.594825
Si Si2 0.420424 0.257951 0.675781
Si Si3 0.470141 0.749902 0.492509
Si Si4 0.087205 0.303810 0.317026
Si Si5 0.032415 0.795379 0.346044
Si Si6 0.645436 0.917412 0.560664
Si Si7 0.892649 0.254092 0.396962
Si Si8 0.158597 0.580253 0.006915
O O1 0.750000 0.750000 0.635832
O O2 0.701532 0.951482 0.560215
O O3 0.750000 0.250000 0.632886
O O4 0.791751 0.037303 0.543057
O O5 0.410713 0.250000 0.750000
O O6 0.476976 0.265860 0.666569
O O7 0.401528 0.517158 0.647340
O O8 0.398669 0.015527 0.639934
O O9 0.500000 0.500000 0.500000
O O10 0.458207 0.746480 0.419284
O O11 0.432303 0.750815 0.548457
O O12 0.500000 0.000000 0.500000
O O13 0.110303 0.250000 0.250000
O O14 0.059190 0.565108 0.313111
O O15 0.123986 0.328876 0.373799
O O16 0.052110 0.070870 0.329857
O O17 0.634047 0.692583 0.512404
O O18 0.632759 0.201862 0.545968
O O19 0.845081 0.192202 0.436916
#
# Coordination Sequence:
#
# PCOD9390023 Si02
#       8
#     8   8   8   8   8   8   8   8
#     4   8  16  31  55  82 113 141 169 216 288 356
#     4  12  25  41  56  76 113 163 208 246 284 348
#     4  12  21  37  55  80 107 137 187 251 308 345
#     4  12  24  37  55  81 113 159 209 248 284 345
#     4  12  24  41  57  79 111 156 208 256 298 339
#     4  10  19  36  56  85 118 149 181 235 304 356
#     4  12  22  38  58  84 112 150 197 244 302 351
#     4  10  20  35  59  87 114 143 184 239 301 363
#
# _framework density 19.663167999999999
#
# number of rings (size 3 to 8) (size 9 to 14) (size 15 to 20)
#    0.000    1.000    2.500    6.000    0.000    0.000 
#    0.000    0.000    0.000    3.375    0.000    8.750 
#    0.000   67.500    0.000    0.000    0.000    0.000 
#
# Total GULP energy -356319.884874 kJ/mol
# GULP energy per Si atom -5567.498201 kJ/mol
# Density = 1.961841 g / cm^3
# Si number density = 19.663168 Si / 1000 Ang^3
#
#
#
# Elastic Constant Matrix: (Units=GPa)
#
#
# Indices 1 2 3 4 5 6 
#
# 1 48.0007 29.3638 22.2511 0.0000 0.0000 0.0000
# 2 29.3638 192.3179 26.4421 0.0000 0.0000 0.0000
# 3 22.2511 26.4421 94.2571 0.0000 0.0000 0.0000
# 4 0.0000 0.0000 0.0000 33.3699 0.0000 0.0000
# 5 0.0000 0.0000 0.0000 0.0000 3.2932 0.0000
# 6 0.0000 0.0000 0.0000 0.0000 0.0000 13.3839
#
#
#
# Elastic Compliance Matrix: (Units=1/GPa)
#
#
# Indices 1 2 3 4 5 6 
#
# 1 0.025090 -0.003137 -0.005043 0.000000 0.000000 0.000000
# 2 -0.003137 0.005801 -0.000887 0.000000 0.000000 0.000000
# 3 -0.005043 -0.000887 0.012048 0.000000 0.000000 0.000000
# 4 0.000000 0.000000 0.000000 0.029967 0.000000 0.000000
# 5 0.000000 0.000000 0.000000 0.000000 0.303653 0.000000
# 6 0.000000 0.000000 0.000000 0.000000 0.000000 0.074716
#
#
# Mechanical properties :
#
#
# Convention : Reuss Voigt Hill
#
# Bulk Modulus (GPa) = 40.31390 54.52107 47.41749
# Shear Modulus (GPa) = 10.46730 27.11065 18.78898
#
# Velocity S-wave (km/s) = 2.30973 3.71718 3.09454
# Velocity P-wave (km/s) = 5.25927 6.79787 6.07745
#
# Compressibility (1/GPa) = 0.02480534
#
# Stress axis : x y z
#
# Youngs Moduli (GPa) = 39.85653 172.39387 82.99823
#
# Poissons Ratio (x) = 0.54088 0.41854
# Poissons Ratio (y) = 0.12505 0.07359
# Poissons Ratio (z) = 0.20099 0.15285
#
# Static dielectric constant tensor:
#      x y z
#    x 1.832110 0.000000 0.000000 
#    y 0.000000 1.877420 0.000000 
#    z 0.000000 0.000000 1.673650 
# 
# From -- ./inp_files/32503.got.cif
#   From: 2010.05.17/outbox.cif.g08.bks.cpg/sg48_17_cif.got.tgz:32503.got - 2010.06.03 20:39:00.
