data_PCOD9390404
_publ_section_title
;
Structure prediction by ZEFSAII (Michael W. Deem and Ramdas Pophale) SiO2 
 PCOD9390404
Probable space group: P N N N
;
_chemical_formula_sum "Si O2"
_cell_formula_units_Z 56
_cell_length_a 14.830536
_cell_length_b 12.570346
_cell_length_c 13.820858
_cell_angle_alpha 90.000000
_cell_angle_beta 90.000000
_cell_angle_gamma 90.000000
_cell_volume 2576.553023
_symmetry_space_group_name_H-M "P N N N"
_symmetry_group_IT_number 48
_space_group.IT_coordinate_system_code '2'
_symmetry_cell_setting 'orthorhombic'
loop_
_space_group_symop_operation_xyz
x,y,z
1/2-x,1/2-y,z
x,1/2-y,1/2-z
1/2-x,y,1/2-z
-x,-y,-z
1/2+x,1/2+y,-z
-x,1/2+y,1/2+z
1/2+x,-y,1/2+z
loop_
_atom_site_type_symbol
_atom_site_label
_atom_site_fract_x
_atom_site_fract_y
_atom_site_fract_z
Si Si1 0.464138 0.005315 0.851801
Si Si2 0.842094 0.630332 0.286945
Si Si3 0.408678 0.190569 0.154661
Si Si4 0.388825 0.048517 0.527650
Si Si5 0.382455 0.612609 0.472919
Si Si6 0.446808 0.829874 0.534510
Si Si7 0.746621 0.541668 0.632903
O O1 0.421858 0.064508 0.761705
O O2 0.524431 0.085319 0.916240
O O3 0.531110 0.912016 0.818982
O O4 0.392742 0.950706 0.925361
O O5 0.849887 0.750000 0.250000
O O6 0.750000 0.581129 0.250000
O O7 0.835018 0.624909 0.401459
O O8 0.376981 0.250000 0.250000
O O9 0.479037 0.266567 0.098472
O O10 0.320802 0.139408 0.104780
O O11 0.488265 0.100577 0.534562
O O12 0.341791 0.050063 0.422656
O O13 0.388408 0.929197 0.572627
O O14 0.384246 0.738301 0.491073
O O15 0.302235 0.562914 0.410656
O O16 0.750000 0.537711 0.750000
#
# Coordination Sequence:
#
# PCOD9390404 Si02
#       7
#     8   8   8   8   8   8   8
#     4   9  18  36  60  87 116 155 205 257 307 381
#     4  11  23  36  57  87 121 160 198 249 317 377
#     4  10  20  37  64  91 117 155 210 262 322 389
#     4  11  24  41  59  89 129 158 206 263 312 375
#     4   9  19  38  63  86 118 161 209 252 312 388
#     4  10  22  39  62  87 119 168 205 254 313 375
#     4  11  24  40  63  94 129 166 210 276 331 379
#
# _framework density 21.734463000000002
#
# number of rings (size 3 to 8) (size 9 to 14) (size 15 to 20)
#    0.000    1.857    0.000    4.286    0.000    8.286 
#    0.000    2.857    0.000    5.571    0.000    0.000 
#    0.000    0.000    0.000    0.000    0.000    0.000 
#
# Total GULP energy -312289.790565 kJ/mol
# GULP energy per Si atom -5576.603403 kJ/mol
# Density = 2.168499 g / cm^3
# Si number density = 21.734463 Si / 1000 Ang^3
#
#
#
# Elastic Constant Matrix: (Units=GPa)
#
#
# Indices 1 2 3 4 5 6 
#
# 1 54.7842 19.4997 17.6294 0.0000 0.0000 0.0000
# 2 19.4997 125.1557 33.6926 0.0000 0.0000 0.0000
# 3 17.6294 33.6926 79.9483 0.0000 0.0000 0.0000
# 4 0.0000 0.0000 0.0000 17.7178 0.0000 0.0000
# 5 0.0000 0.0000 0.0000 0.0000 25.5372 0.0000
# 6 0.0000 0.0000 0.0000 0.0000 0.0000 27.3300
#
#
#
# Elastic Compliance Matrix: (Units=1/GPa)
#
#
# Indices 1 2 3 4 5 6 
#
# 1 0.020168 -0.002194 -0.003523 0.000000 0.000000 0.000000
# 2 -0.002194 0.009251 -0.003415 0.000000 0.000000 0.000000
# 3 -0.003523 -0.003415 0.014724 0.000000 0.000000 0.000000
# 4 0.000000 0.000000 0.000000 0.056441 0.000000 0.000000
# 5 0.000000 0.000000 0.000000 0.000000 0.039159 0.000000
# 6 0.000000 0.000000 0.000000 0.000000 0.000000 0.036590
#
#
# Mechanical properties :
#
#
# Convention : Reuss Voigt Hill
#
# Bulk Modulus (GPa) = 38.63971 44.61462 41.62717
# Shear Modulus (GPa) = 24.60366 26.72142 25.66254
#
# Velocity S-wave (km/s) = 3.36819 3.51015 3.43990
# Velocity P-wave (km/s) = 5.73959 6.08276 5.91367
#
# Compressibility (1/GPa) = 0.02588011
#
# Stress axis : x y z
#
# Youngs Moduli (GPa) = 49.58372 108.09421 67.91621
#
# Poissons Ratio (x) = 0.23715 0.23924
# Poissons Ratio (y) = 0.10878 0.23193
# Poissons Ratio (z) = 0.17467 0.36914
#
# Static dielectric constant tensor:
#      x y z
#    x 1.862570 0.000000 0.000000 
#    y 0.000000 1.877390 0.000000 
#    z 0.000000 0.000000 1.845860 
# 
# From -- ./inp_files/27330.got.cif
#   From: 2010.05.17/outbox.cif.g08.bks.cpg/sg48_14_cif.got.tgz:27330.got - 2010.06.03 20:39:00.
