data_PCOD9390419
_publ_section_title
;
Structure prediction by ZEFSAII (Michael W. Deem and Ramdas Pophale) SiO2 
 PCOD9390419
Probable space group: P N N N
;
_chemical_formula_sum "Si O2"
_cell_formula_units_Z 34
_cell_length_a 19.535799
_cell_length_b 5.386110
_cell_length_c 15.749635
_cell_angle_alpha 90.000000
_cell_angle_beta 90.000000
_cell_angle_gamma 90.000000
_cell_volume 1657.207501
_symmetry_space_group_name_H-M "P N N N"
_symmetry_group_IT_number 48
_space_group.IT_coordinate_system_code '2'
_symmetry_cell_setting 'orthorhombic'
loop_
_space_group_symop_operation_xyz
x,y,z
1/2-x,1/2-y,z
x,1/2-y,1/2-z
1/2-x,y,1/2-z
-x,-y,-z
1/2+x,1/2+y,-z
-x,1/2+y,1/2+z
1/2+x,-y,1/2+z
loop_
_atom_site_type_symbol
_atom_site_label
_atom_site_fract_x
_atom_site_fract_y
_atom_site_fract_z
Si Si1 0.183592 0.893230 0.612187
Si Si2 0.403067 0.750000 0.750000
Si Si3 0.052126 0.969459 0.081009
Si Si4 0.482406 0.250000 0.750000
Si Si5 0.750000 0.750000 0.250000
Si Si6 0.081341 0.024956 0.475775
O O1 0.250000 0.750000 0.575941
O O2 0.138490 0.691046 0.663874
O O3 0.208179 0.071827 0.687831
O O4 0.134962 0.054774 0.551732
O O5 0.443045 0.501148 0.723905
O O6 0.102322 0.747829 0.055884
O O7 0.019915 0.859802 0.166726
O O8 0.083672 0.243103 0.087736
O O9 0.000000 0.000000 0.000000
O O10 0.000000 0.000000 0.500000
#
# Coordination Sequence:
#
# PCOD9390419 Si02
#       6
#     8   4   8   4   2   8
#     4  12  25  39  59  92 136 186 233 279 350 441
#     4  12  21  36  56  92 128 184 221 274 336 431
#     4  10  20  38  55  92 123 175 224 279 342 403
#     4  12  23  36  67  92 137 179 234 290 353 418
#     4  12  24  44  60  98 144 186 226 270 350 458
#     4  10  22  39  60  83 126 174 228 276 333 400
#
# _framework density 20.516439999999999
#
# number of rings (size 3 to 8) (size 9 to 14) (size 15 to 20)
#    0.000    0.941    2.353    7.765    3.294    0.000 
#    0.000    0.000    0.000    0.000    0.000    0.824 
#    0.000    0.000    0.000    0.000    0.000    0.000 
#
# Total GULP energy -189290.777723 kJ/mol
# GULP energy per Si atom -5567.375815 kJ/mol
# Density = 2.046974 g / cm^3
# Si number density = 20.516440 Si / 1000 Ang^3
#
#
#
# Elastic Constant Matrix: (Units=GPa)
#
#
# Indices 1 2 3 4 5 6 
#
# 1 71.8381 30.6027 46.8550 0.0000 0.0000 0.0000
# 2 30.6027 169.2277 31.9714 0.0000 0.0000 0.0000
# 3 46.8550 31.9714 97.6077 0.0000 0.0000 0.0000
# 4 0.0000 0.0000 0.0000 31.4055 0.0000 0.0000
# 5 0.0000 0.0000 0.0000 0.0000 32.7670 0.0000
# 6 0.0000 0.0000 0.0000 0.0000 0.0000 18.0299
#
#
#
# Elastic Compliance Matrix: (Units=1/GPa)
#
#
# Indices 1 2 3 4 5 6 
#
# 1 0.020885 -0.002007 -0.009368 0.000000 0.000000 0.000000
# 2 -0.002007 0.006492 -0.001163 0.000000 0.000000 0.000000
# 3 -0.009368 -0.001163 0.015123 0.000000 0.000000 0.000000
# 4 0.000000 0.000000 0.000000 0.031842 0.000000 0.000000
# 5 0.000000 0.000000 0.000000 0.000000 0.030519 0.000000
# 6 0.000000 0.000000 0.000000 0.000000 0.000000 0.055464
#
#
# Mechanical properties :
#
#
# Convention : Reuss Voigt Hill
#
# Bulk Modulus (GPa) = 57.39256 61.94796 59.67026
# Shear Modulus (GPa) = 26.14943 31.72343 28.93643
#
# Velocity S-wave (km/s) = 3.57397 3.93650 3.75961
# Velocity P-wave (km/s) = 6.71310 7.13591 6.92773
#
# Compressibility (1/GPa) = 0.01742386
#
# Stress axis : x y z
#
# Youngs Moduli (GPa) = 47.88019 154.03927 66.12370
#
# Poissons Ratio (x) = 0.30915 0.61947
# Poissons Ratio (y) = 0.09609 0.07690
# Poissons Ratio (z) = 0.44856 0.17915
#
# Static dielectric constant tensor:
#      x y z
#    x -0.022780 0.000000 0.000000 
#    y 0.000000 1.798550 0.000000 
#    z 0.000000 0.000000 1.649770 
# 
# From -- ./inp_files/24246.got.cif
#   From: 2010.05.17/outbox.cif.g08.bks.cpg/sg48_13_cif.got.tgz:24246.got - 2010.06.03 20:39:00.
