data_PCOD9390196
_publ_section_title
;
Structure prediction by ZEFSAII (Michael W. Deem and Ramdas Pophale) SiO2 
 PCOD9390196
Probable space group: P N N N
;
_chemical_formula_sum "Si O2"
_cell_formula_units_Z 48
_cell_length_a 18.305273
_cell_length_b 11.043208
_cell_length_c 10.680165
_cell_angle_alpha 90.000000
_cell_angle_beta 90.000000
_cell_angle_gamma 90.000000
_cell_volume 2158.984004
_symmetry_space_group_name_H-M "P N N N"
_symmetry_group_IT_number 48
_space_group.IT_coordinate_system_code '2'
_symmetry_cell_setting 'orthorhombic'
loop_
_space_group_symop_operation_xyz
x,y,z
1/2-x,1/2-y,z
x,1/2-y,1/2-z
1/2-x,y,1/2-z
-x,-y,-z
1/2+x,1/2+y,-z
-x,1/2+y,1/2+z
1/2+x,-y,1/2+z
loop_
_atom_site_type_symbol
_atom_site_label
_atom_site_fract_x
_atom_site_fract_y
_atom_site_fract_z
Si Si1 0.750000 0.542334 0.750000
Si Si2 0.207060 0.866913 0.454103
Si Si3 0.879611 0.250000 0.250000
Si Si4 0.631062 0.750000 0.750000
Si Si5 0.674014 0.998390 0.204425
Si Si6 0.991336 0.817144 0.581419
Si Si7 0.098523 0.750000 0.250000
Si Si8 0.015111 0.420788 0.806163
O O1 0.756880 0.453147 0.632081
O O2 0.681454 0.631930 0.736853
O O3 0.250000 0.750000 0.505994
O O4 0.175655 0.957657 0.559221
O O5 0.148245 0.808179 0.358555
O O6 0.834453 0.371042 0.269488
O O7 0.933444 0.239570 0.369390
O O8 0.577602 0.757205 0.630703
O O9 0.750000 0.942099 0.250000
O O10 0.599898 0.926218 0.232228
O O11 0.988542 0.847610 0.436699
O O12 0.990402 0.944385 0.657486
O O13 0.042590 0.641543 0.285417
#
# Coordination Sequence:
#
# PCOD9390196 Si02
#       8
#     4   8   4   4   8   8   4   8
#     4  11  21  38  54  98 125 171 216 258 334 387
#     4  12  23  40  67  97 130 169 220 276 333 380
#     4   9  17  33  61  93 109 152 212 254 318 368
#     4  10  20  33  63  84 130 172 208 264 324 408
#     4  11  23  41  64  91 127 171 214 266 324 395
#     4   9  18  37  61  88 122 163 214 266 314 389
#     4  12  21  38  63  92 128 162 212 274 319 390
#     4  10  21  37  62  90 123 174 217 265 331 372
#
# _framework density 22.232678
#
# number of rings (size 3 to 8) (size 9 to 14) (size 15 to 20)
#    0.000    1.500    1.667    6.250    0.000    0.000 
#    3.000    0.417    0.000    7.000    0.000    0.000 
#    0.000    0.000    0.000    0.000    0.000    0.000 
#
# Total GULP energy -268110.033308 kJ/mol
# GULP energy per Si atom -5585.625694 kJ/mol
# Density = 2.218208 g / cm^3
# Si number density = 22.232678 Si / 1000 Ang^3
#
#
#
# Elastic Constant Matrix: (Units=GPa)
#
#
# Indices 1 2 3 4 5 6 
#
# 1 117.5255 4.3781 13.0780 0.0000 0.0000 0.0000
# 2 4.3781 45.2787 11.3227 0.0000 0.0000 0.0000
# 3 13.0780 11.3227 48.6423 0.0000 0.0000 0.0000
# 4 0.0000 0.0000 0.0000 23.6298 0.0000 0.0000
# 5 0.0000 0.0000 0.0000 0.0000 22.7713 0.0000
# 6 0.0000 0.0000 0.0000 0.0000 0.0000 27.1282
#
#
#
# Elastic Compliance Matrix: (Units=1/GPa)
#
#
# Indices 1 2 3 4 5 6 
#
# 1 0.008774 -0.000274 -0.002295 0.000000 0.000000 0.000000
# 2 -0.000274 0.023459 -0.005387 0.000000 0.000000 0.000000
# 3 -0.002295 -0.005387 0.022429 0.000000 0.000000 0.000000
# 4 0.000000 0.000000 0.000000 0.042319 0.000000 0.000000
# 5 0.000000 0.000000 0.000000 0.000000 0.043915 0.000000
# 6 0.000000 0.000000 0.000000 0.000000 0.000000 0.036862
#
#
# Mechanical properties :
#
#
# Convention : Reuss Voigt Hill
#
# Bulk Modulus (GPa) = 25.80671 29.88936 27.84804
# Shear Modulus (GPa) = 24.20268 26.88372 25.54320
#
# Velocity S-wave (km/s) = 3.30299 3.48113 3.39322
# Velocity P-wave (km/s) = 5.11655 5.44341 5.28251
#
# Compressibility (1/GPa) = 0.03874960
#
# Stress axis : x y z
#
# Youngs Moduli (GPa) = 113.96769 42.62744 44.58462
#
# Poissons Ratio (x) = 0.01170 0.10233
# Poissons Ratio (y) = 0.03128 0.24017
# Poissons Ratio (z) = 0.26158 0.22963
#
# Static dielectric constant tensor:
#      x y z
#    x 1.867270 0.000000 0.000000 
#    y 0.000000 1.823840 0.000000 
#    z 0.000000 0.000000 1.875230 
# 
# From -- ./inp_files/22192.got.cif
#   From: 2010.05.17/outbox.cif.g08.bks.cpg/sg48_12_cif.got.tgz:22192.got - 2010.06.03 20:39:00.
