data_PCOD9390977
_publ_section_title
;
Structure prediction by ZEFSAII (Michael W. Deem and Ramdas Pophale) SiO2 
 PCOD9390977
Probable space group: P N N N
;
_chemical_formula_sum "Si O2"
_cell_formula_units_Z 36
_cell_length_a 26.882981
_cell_length_b 5.924892
_cell_length_c 11.008805
_cell_angle_alpha 90.000000
_cell_angle_beta 90.000000
_cell_angle_gamma 90.000000
_cell_volume 1753.468799
_symmetry_space_group_name_H-M "P N N N"
_symmetry_group_IT_number 48
_space_group.IT_coordinate_system_code '2'
_symmetry_cell_setting 'orthorhombic'
loop_
_space_group_symop_operation_xyz
x,y,z
1/2-x,1/2-y,z
x,1/2-y,1/2-z
1/2-x,y,1/2-z
-x,-y,-z
1/2+x,1/2+y,-z
-x,1/2+y,1/2+z
1/2+x,-y,1/2+z
loop_
_atom_site_type_symbol
_atom_site_label
_atom_site_fract_x
_atom_site_fract_y
_atom_site_fract_z
Si Si1 0.564383 0.120417 0.581687
Si Si2 0.629928 0.494806 0.519298
Si Si3 0.767565 0.500023 0.108644
Si Si4 0.956193 0.750594 0.110648
Si Si5 0.894549 0.750000 0.750000
O O1 0.616127 0.250462 0.570511
O O2 0.515643 0.272377 0.601947
O O3 0.555448 0.984908 0.457332
O O4 0.570717 0.942435 0.690798
O O5 0.673980 0.500917 0.422964
O O6 0.578758 0.573323 0.456232
O O7 0.636850 0.652538 0.637366
O O8 0.750000 0.750000 0.061648
O O9 0.750000 0.499388 0.250000
O O10 0.750000 0.250000 0.060832
O O11 0.941966 0.750000 0.250000
#
# Coordination Sequence:
#
# PCOD9390977 Si02
#       5
#     8   8   8   8   4
#     4  10  22  40  61  95 139 180 220 278 335 413
#     4  11  23  40  70  92 133 176 230 277 350 406
#     4  10  25  45  72  99 136 173 227 296 359 409
#     4  10  22  35  61  99 136 173 226 269 338 410
#     4  10  22  40  67  92 134 180 221 272 340 412
#
# _framework density 20.530730999999999
#
# number of rings (size 3 to 8) (size 9 to 14) (size 15 to 20)
#    0.000    1.778    0.000    2.667    9.333    6.222 
#    0.000    0.556    0.000    0.000    0.000    0.000 
#    0.000    0.000    0.000    0.000    0.000    0.000 
#
# Total GULP energy -200567.636387 kJ/mol
# GULP energy per Si atom -5571.323233 kJ/mol
# Density = 2.048400 g / cm^3
# Si number density = 20.530731 Si / 1000 Ang^3
#
#
#
# Elastic Constant Matrix: (Units=GPa)
#
#
# Indices 1 2 3 4 5 6 
#
# 1 109.1944 50.8247 33.6214 0.0000 0.0000 0.0000
# 2 50.8247 104.9141 23.3008 0.0000 0.0000 0.0000
# 3 33.6214 23.3008 124.1260 0.0000 0.0000 0.0000
# 4 0.0000 0.0000 0.0000 20.6401 0.0000 0.0000
# 5 0.0000 0.0000 0.0000 0.0000 36.7925 0.0000
# 6 0.0000 0.0000 0.0000 0.0000 0.0000 19.3219
#
#
#
# Elastic Compliance Matrix: (Units=1/GPa)
#
#
# Indices 1 2 3 4 5 6 
#
# 1 0.012441 -0.005508 -0.002336 0.000000 0.000000 0.000000
# 2 -0.005508 0.012385 -0.000833 0.000000 0.000000 0.000000
# 3 -0.002336 -0.000833 0.008845 0.000000 0.000000 0.000000
# 4 0.000000 0.000000 0.000000 0.048449 0.000000 0.000000
# 5 0.000000 0.000000 0.000000 0.000000 0.027179 0.000000
# 6 0.000000 0.000000 0.000000 0.000000 0.000000 0.051755
#
#
# Mechanical properties :
#
#
# Convention : Reuss Voigt Hill
#
# Bulk Modulus (GPa) = 61.28391 61.52536 61.40464
# Shear Modulus (GPa) = 27.19642 30.71675 28.95659
#
# Velocity S-wave (km/s) = 3.64355 3.87219 3.75961
# Velocity P-wave (km/s) = 6.90038 7.07278 6.98711
#
# Compressibility (1/GPa) = 0.01631750
#
# Stress axis : x y z
#
# Youngs Moduli (GPa) = 80.37962 80.74308 113.05335
#
# Poissons Ratio (x) = 0.44474 0.26407
# Poissons Ratio (y) = 0.44274 0.09417
# Poissons Ratio (z) = 0.18775 0.06725
#
# Static dielectric constant tensor:
#      x y z
#    x 1.704100 0.000000 0.000000 
#    y 0.000000 1.853670 0.000000 
#    z 0.000000 0.000000 1.714060 
# 
# From -- ./inp_files/2209.got.cif
#   From: 2010.05.17/outbox.cif.g08.bks.cpg/sg48_2_cif.got.tgz:2209.got - 2010.06.03 20:39:00.
