data_PCOD9390543
_publ_section_title
;
Structure prediction by ZEFSAII (Michael W. Deem and Ramdas Pophale) SiO2 
 PCOD9390543
Probable space group: P N N N
;
_chemical_formula_sum "Si O2"
_cell_formula_units_Z 40
_cell_length_a 13.128558
_cell_length_b 11.666334
_cell_length_c 11.128219
_cell_angle_alpha 90.000000
_cell_angle_beta 90.000000
_cell_angle_gamma 90.000000
_cell_volume 1704.421865
_symmetry_space_group_name_H-M "P N N N"
_symmetry_group_IT_number 48
_space_group.IT_coordinate_system_code '2'
_symmetry_cell_setting 'orthorhombic'
loop_
_space_group_symop_operation_xyz
x,y,z
1/2-x,1/2-y,z
x,1/2-y,1/2-z
1/2-x,y,1/2-z
-x,-y,-z
1/2+x,1/2+y,-z
-x,1/2+y,1/2+z
1/2+x,-y,1/2+z
loop_
_atom_site_type_symbol
_atom_site_label
_atom_site_fract_x
_atom_site_fract_y
_atom_site_fract_z
Si Si1 0.712951 0.485459 0.615484
Si Si2 0.921034 0.693258 0.885300
Si Si3 0.978470 0.316791 0.867889
Si Si4 0.403945 0.970763 0.796596
Si Si5 0.794781 0.378057 0.414156
O O1 0.750000 0.491553 0.750000
O O2 0.677325 0.614682 0.583236
O O3 0.618626 0.396719 0.597075
O O4 0.806575 0.426808 0.545578
O O5 0.905666 0.750000 0.750000
O O6 0.008180 0.600467 0.858905
O O7 0.969373 0.742492 0.012807
O O8 0.941491 0.250000 0.750000
O O9 0.063606 0.399381 0.808587
O O10 0.388858 0.907477 0.669318
O O11 0.297695 0.954111 0.863261
O O12 0.750000 0.250000 0.405841
#
# Coordination Sequence:
#
# PCOD9390543 Si02
#       5
#     8   8   8   8   8
#     4  11  25  41  63  95 133 163 208 277 327 381
#     4  11  22  44  68  89 128 176 215 255 322 398
#     4  11  24  43  65  92 130 172 214 267 327 381
#     4  10  20  40  64  94 123 162 216 267 309 385
#     4  11  21  36  67 100 125 159 214 267 326 375
#
# _framework density 23.46837
#
# number of rings (size 3 to 8) (size 9 to 14) (size 15 to 20)
#    0.000    1.200    4.000    3.600    2.800    2.000 
#    0.000    6.000    0.000    0.000    0.000    0.000 
#    0.000    0.000    0.000    0.000    0.000    0.000 
#
# Total GULP energy -222712.822441 kJ/mol
# GULP energy per Si atom -5567.820561 kJ/mol
# Density = 2.341496 g / cm^3
# Si number density = 23.468370 Si / 1000 Ang^3
#
#
#
# Elastic Constant Matrix: (Units=GPa)
#
#
# Indices 1 2 3 4 5 6 
#
# 1 18.6150 -2.2456 -0.2383 0.0000 0.0000 0.0000
# 2 -2.2456 34.4058 22.9509 0.0000 0.0000 0.0000
# 3 -0.2383 22.9509 142.2122 0.0000 0.0000 0.0000
# 4 0.0000 0.0000 0.0000 -67.4980 0.0000 0.0000
# 5 0.0000 0.0000 0.0000 0.0000 21.2198 0.0000
# 6 0.0000 0.0000 0.0000 0.0000 0.0000 10.2390
#
#
#
# Elastic Compliance Matrix: (Units=1/GPa)
#
#
# Indices 1 2 3 4 5 6 
#
# 1 0.054183 0.003895 -0.000538 0.000000 0.000000 0.000000
# 2 0.003895 0.032851 -0.005295 0.000000 0.000000 0.000000
# 3 -0.000538 -0.005295 0.007885 0.000000 0.000000 0.000000
# 4 0.000000 0.000000 0.000000 -0.014815 0.000000 0.000000
# 5 0.000000 0.000000 0.000000 0.000000 0.047126 0.000000
# 6 0.000000 0.000000 0.000000 0.000000 0.000000 0.097666
#
#
# Mechanical properties :
#
#
# Convention : Reuss Voigt Hill
#
# Bulk Modulus (GPa) = 10.98368 26.24079 18.61223
# Shear Modulus (GPa) = 19.29607 4.44321 11.86964
#
# Velocity S-wave (km/s) = 2.87054 1.37746 2.25138
# Velocity P-wave (km/s) = 3.95942 3.70614 3.83487
#
# Compressibility (1/GPa) = 0.09104418
#
# Stress axis : x y z
#
# Youngs Moduli (GPa) = 18.45595 30.44017 126.81656
#
# Poissons Ratio (x) = -0.11857 0.06821
# Poissons Ratio (y) = -0.07189 0.67152
# Poissons Ratio (z) = 0.00993 0.16119
#
# Static dielectric constant tensor:
#      x y z
#    x 1.916600 0.000000 0.000000 
#    y 0.000000 1.911580 0.000000 
#    z 0.000000 0.000000 2.124950 
# 
# From -- ./inp_files/20966.got.cif
#   From: 2010.05.17/outbox.cif.g08.bks.cpg/sg48_11_cif.got.tgz:20966.got - 2010.06.03 20:39:00.
