data_PCOD9390968
_publ_section_title
;
Structure prediction by ZEFSAII (Michael W. Deem and Ramdas Pophale) SiO2 
 PCOD9390968
Probable space group: P N N N
;
_chemical_formula_sum "Si O2"
_cell_formula_units_Z 32
_cell_length_a 10.349680
_cell_length_b 12.827815
_cell_length_c 9.098089
_cell_angle_alpha 90.000000
_cell_angle_beta 90.000000
_cell_angle_gamma 90.000000
_cell_volume 1207.896690
_symmetry_space_group_name_H-M "P N N N"
_symmetry_group_IT_number 48
_space_group.IT_coordinate_system_code '2'
_symmetry_cell_setting 'orthorhombic'
loop_
_space_group_symop_operation_xyz
x,y,z
1/2-x,1/2-y,z
x,1/2-y,1/2-z
1/2-x,y,1/2-z
-x,-y,-z
1/2+x,1/2+y,-z
-x,1/2+y,1/2+z
1/2+x,-y,1/2+z
loop_
_atom_site_type_symbol
_atom_site_label
_atom_site_fract_x
_atom_site_fract_y
_atom_site_fract_z
Si Si1 0.104956 0.931188 0.312682
Si Si2 0.247067 0.628979 0.924125
Si Si3 0.893879 0.849185 0.812801
Si Si4 0.869848 0.913653 0.135905
O O1 0.250000 0.910484 0.250000
O O2 0.126217 0.917111 0.485012
O O3 0.991731 0.872730 0.229964
O O4 0.059899 0.045387 0.261237
O O5 0.250000 0.750000 0.978651
O O6 0.250000 0.637438 0.750000
O O7 0.352617 0.532663 0.937430
O O8 0.968852 0.750000 0.750000
O O9 0.750000 0.847337 0.750000
O O10 0.877552 0.847685 0.986612
O O11 0.750000 0.905062 0.250000
#
# Coordination Sequence:
#
# PCOD9390968 Si02
#       4
#     8   8   8   8
#     4  11  23  47  76 105 151 201 251 319 389 459
#     4  10  23  46  74 112 152 201 258 320 389 470
#     4  10  21  45  74 108 149 205 257 315 387 465
#     4  11  24  47  77 110 153 200 258 322 392 466
#
# _framework density 26.492332999999999
#
# number of rings (size 3 to 8) (size 9 to 14) (size 15 to 20)
#    0.000    1.500    5.000    0.750    0.000    4.500 
#    9.000    8.750   11.000    0.000    0.000    0.000 
#    0.000    0.000    0.000    0.000    0.000    0.000 
#
# Total GULP energy -178377.402638 kJ/mol
# GULP energy per Si atom -5574.293832 kJ/mol
# Density = 2.643204 g / cm^3
# Si number density = 26.492333 Si / 1000 Ang^3
#
#
#
# Elastic Constant Matrix: (Units=GPa)
#
#
# Indices 1 2 3 4 5 6 
#
# 1 158.7135 14.1751 95.1574 0.0000 0.0000 0.0000
# 2 14.1751 119.4189 56.4408 0.0000 0.0000 0.0000
# 3 95.1574 56.4408 234.9667 0.0000 0.0000 0.0000
# 4 0.0000 0.0000 0.0000 48.3503 0.0000 0.0000
# 5 0.0000 0.0000 0.0000 0.0000 -5.3581 0.0000
# 6 0.0000 0.0000 0.0000 0.0000 0.0000 -39.0349
#
#
#
# Elastic Compliance Matrix: (Units=1/GPa)
#
#
# Indices 1 2 3 4 5 6 
#
# 1 0.008371 0.000687 -0.003555 0.000000 0.000000 0.000000
# 2 0.000687 0.009503 -0.002561 0.000000 0.000000 0.000000
# 3 -0.003555 -0.002561 0.006311 0.000000 0.000000 0.000000
# 4 0.000000 0.000000 0.000000 0.020682 0.000000 0.000000
# 5 0.000000 0.000000 0.000000 0.000000 -0.186635 0.000000
# 6 0.000000 0.000000 0.000000 0.000000 0.000000 -0.025618
#
#
# Mechanical properties :
#
#
# Convention : Reuss Voigt Hill
#
# Bulk Modulus (GPa) = 75.04127 93.84953 84.44540
# Shear Modulus (GPa) = -32.87603 23.94652 -4.46476
#
# Velocity S-wave (km/s) = -3.52655 3.00976 -1.29960
# Velocity P-wave (km/s) = 3.43585 6.89785 5.44910
#
# Compressibility (1/GPa) = 0.01332600
#
# Stress axis : x y z
#
# Youngs Moduli (GPa) = 119.46433 105.23413 158.46159
#
# Poissons Ratio (x) = -0.07225 0.56331
# Poissons Ratio (y) = -0.08202 0.40576
# Poissons Ratio (z) = 0.42468 0.26947
#
# Static dielectric constant tensor:
#      x y z
#    x 1.938480 0.000000 0.000000 
#    y 0.000000 3.171890 0.000000 
#    z 0.000000 0.000000 1.997180 
# 
# From -- ./inp_files/10268.got.cif
#   From: 2010.05.17/outbox.cif.g08.bks.cpg/sg48_6_cif.got.tgz:10268.got - 2010.06.03 20:39:00.
