data_PCOD9390690
_publ_section_title
;
Structure prediction by ZEFSAII (Michael W. Deem and Ramdas Pophale) SiO2 
 PCOD9390690
Probable space group: P N N N
;
_chemical_formula_sum "Si O2"
_cell_formula_units_Z 40
_cell_length_a 15.355209
_cell_length_b 7.114072
_cell_length_c 12.699802
_cell_angle_alpha 90.000000
_cell_angle_beta 90.000000
_cell_angle_gamma 90.000000
_cell_volume 1387.301763
_symmetry_space_group_name_H-M "P N N N"
_symmetry_group_IT_number 48
_space_group.IT_coordinate_system_code '2'
_symmetry_cell_setting 'orthorhombic'
loop_
_space_group_symop_operation_xyz
x,y,z
1/2-x,1/2-y,z
x,1/2-y,1/2-z
1/2-x,y,1/2-z
-x,-y,-z
1/2+x,1/2+y,-z
-x,1/2+y,1/2+z
1/2+x,-y,1/2+z
loop_
_atom_site_type_symbol
_atom_site_label
_atom_site_fract_x
_atom_site_fract_y
_atom_site_fract_z
Si Si1 0.360331 0.475775 0.870425
Si Si2 0.545677 0.859185 0.639658
Si Si3 0.275530 0.027260 0.414461
Si Si4 0.091647 0.955910 0.417990
Si Si5 0.098245 0.051062 0.642287
O O1 0.459741 0.535717 0.896478
O O2 0.358839 0.533055 0.747480
O O3 0.355154 0.249735 0.869203
O O4 0.295771 0.529055 0.964327
O O5 0.532266 0.750000 0.750000
O O6 0.631094 0.989472 0.641853
O O7 0.573887 0.681696 0.569476
O O8 0.250000 0.250000 0.405330
O O9 0.188155 0.927105 0.374192
O O10 0.100611 0.912025 0.542588
O O11 0.006134 0.895750 0.353865
#
# Coordination Sequence:
#
# PCOD9390690 Si02
#       5
#     8   8   8   8   8
#     4  11  21  37  62  90 116 157 202 245 299 361
#     4  11  21  38  61  87 117 159 203 241 292 366
#     4  10  21  37  60  92 116 153 205 254 291 351
#     4  10  21  40  59  87 119 154 198 248 303 352
#     4  10  21  37  60  86 120 155 194 246 305 359
#
# _framework density 28.832947999999998
#
# number of rings (size 3 to 8) (size 9 to 14) (size 15 to 20)
#    0.000    1.600    6.000    0.600    0.000    4.400 
#    0.000    1.000    0.000    2.400    0.000    0.000 
#    0.000    0.000    0.000    0.000    0.000    0.000 
#
# Total GULP energy -223503.009094 kJ/mol
# GULP energy per Si atom -5587.575227 kJ/mol
# Density = 2.876732 g / cm^3
# Si number density = 28.832948 Si / 1000 Ang^3
#
#
#
# Elastic Constant Matrix: (Units=GPa)
#
#
# Indices 1 2 3 4 5 6 
#
# 1 218.6139 18.2707 -15.0436 0.0000 0.0000 0.0000
# 2 18.2707 91.4040 -6.6098 0.0000 0.0000 0.0000
# 3 -15.0436 -6.6098 118.8470 0.0000 0.0000 0.0000
# 4 0.0000 0.0000 0.0000 4.7725 0.0000 0.0000
# 5 0.0000 0.0000 0.0000 0.0000 36.7075 0.0000
# 6 0.0000 0.0000 0.0000 0.0000 0.0000 32.5857
#
#
#
# Elastic Compliance Matrix: (Units=1/GPa)
#
#
# Indices 1 2 3 4 5 6 
#
# 1 0.004687 -0.000898 0.000543 0.000000 0.000000 0.000000
# 2 -0.000898 0.011156 0.000507 0.000000 0.000000 0.000000
# 3 0.000543 0.000507 0.008511 0.000000 0.000000 0.000000
# 4 0.000000 0.000000 0.000000 0.209532 0.000000 0.000000
# 5 0.000000 0.000000 0.000000 0.000000 0.027242 0.000000
# 6 0.000000 0.000000 0.000000 0.000000 0.000000 0.030688
#
#
# Mechanical properties :
#
#
# Convention : Reuss Voigt Hill
#
# Bulk Modulus (GPa) = 40.55209 46.89996 43.72603
# Shear Modulus (GPa) = 16.68158 43.62965 30.15561
#
# Velocity S-wave (km/s) = 2.40794 3.89419 3.23751
# Velocity P-wave (km/s) = 4.67182 6.04326 5.40125
#
# Compressibility (1/GPa) = 0.02465964
#
# Stress axis : x y z
#
# Youngs Moduli (GPa) = 213.37092 89.63388 117.49305
#
# Poissons Ratio (x) = 0.08045 -0.06384
# Poissons Ratio (y) = 0.19151 -0.05955
# Poissons Ratio (z) = -0.11593 -0.04543
#
# Static dielectric constant tensor:
#      x y z
#    x 2.264870 0.000000 0.000000 
#    y 0.000000 2.313890 0.000000 
#    z 0.000000 0.000000 2.468550 
# 
# From -- ./inp_files/27054.got.cif
#   From: 2010.05.17/outbox.cif.g08.bks.cpg/sg48_14_cif.got.tgz:27054.got - 2010.06.03 20:39:00.
