data_PCOD9390035
_publ_section_title
;
Structure prediction by ZEFSAII (Michael W. Deem and Ramdas Pophale) SiO2 
 PCOD9390035
Probable space group: P N N N
;
_chemical_formula_sum "Si O2"
_cell_formula_units_Z 48
_cell_length_a 11.714384
_cell_length_b 16.167614
_cell_length_c 12.557960
_cell_angle_alpha 90.000000
_cell_angle_beta 90.000000
_cell_angle_gamma 90.000000
_cell_volume 2378.397740
_symmetry_space_group_name_H-M "P N N N"
_symmetry_group_IT_number 48
_space_group.IT_coordinate_system_code '2'
_symmetry_cell_setting 'orthorhombic'
loop_
_space_group_symop_operation_xyz
x,y,z
1/2-x,1/2-y,z
x,1/2-y,1/2-z
1/2-x,y,1/2-z
-x,-y,-z
1/2+x,1/2+y,-z
-x,1/2+y,1/2+z
1/2+x,-y,1/2+z
loop_
_atom_site_type_symbol
_atom_site_label
_atom_site_fract_x
_atom_site_fract_y
_atom_site_fract_z
Si Si1 0.361131 0.085473 0.690850
Si Si2 0.229356 0.030519 0.375211
Si Si3 0.851779 0.685190 0.511444
Si Si4 0.478291 0.543556 0.674930
Si Si5 0.259438 0.925739 0.565902
Si Si6 0.444052 0.685009 0.839749
O O1 0.250000 0.121252 0.750000
O O2 0.399048 0.148411 0.599674
O O3 0.448752 0.046950 0.775947
O O4 0.314417 0.003445 0.629988
O O5 0.250000 0.022746 0.250000
O O6 0.294920 0.108754 0.424353
O O7 0.094006 0.042486 0.390791
O O8 0.265577 0.950856 0.443116
O O9 0.750000 0.750000 0.494197
O O10 0.956075 0.717414 0.583315
O O11 0.369522 0.575897 0.608881
O O12 0.492360 0.605976 0.774252
O O13 0.334576 0.847322 0.596547
O O14 0.412213 0.750000 0.750000
#
# Coordination Sequence:
#
# PCOD9390035 Si02
#       6
#     8   8   8   8   8   8
#     4   8  18  36  57  80 112 153 196 238 287 352
#     4  11  21  34  58  87 120 152 195 253 302 346
#     4  11  23  35  54  86 121 155 192 244 306 356
#     4  10  19  36  59  85 117 152 196 251 295 351
#     4   9  21  36  56  85 115 154 198 239 293 359
#     4  11  22  36  57  85 119 154 196 243 302 361
#
# _framework density 20.181654000000002
#
# number of rings (size 3 to 8) (size 9 to 14) (size 15 to 20)
#    0.000    2.000    1.667    3.000    2.333    3.667 
#    0.000    0.000    0.000    0.000    0.000    1.167 
#    0.000    0.000    0.000    0.000    0.000    0.000 
#
# Total GULP energy -267991.236143 kJ/mol
# GULP energy per Si atom -5583.150753 kJ/mol
# Density = 2.013572 g / cm^3
# Si number density = 20.181654 Si / 1000 Ang^3
#
#
#
# Elastic Constant Matrix: (Units=GPa)
#
#
# Indices 1 2 3 4 5 6 
#
# 1 86.6693 30.2173 15.0806 0.0000 0.0000 0.0000
# 2 30.2173 54.0220 28.8188 0.0000 0.0000 0.0000
# 3 15.0806 28.8188 75.4052 0.0000 0.0000 0.0000
# 4 0.0000 0.0000 0.0000 29.9060 0.0000 0.0000
# 5 0.0000 0.0000 0.0000 0.0000 12.3881 0.0000
# 6 0.0000 0.0000 0.0000 0.0000 0.0000 22.8528
#
#
#
# Elastic Compliance Matrix: (Units=1/GPa)
#
#
# Indices 1 2 3 4 5 6 
#
# 1 0.014337 -0.008152 0.000248 0.000000 0.000000 0.000000
# 2 -0.008152 0.027887 -0.009028 0.000000 0.000000 0.000000
# 3 0.000248 -0.009028 0.016662 0.000000 0.000000 0.000000
# 4 0.000000 0.000000 0.000000 0.033438 0.000000 0.000000
# 5 0.000000 0.000000 0.000000 0.000000 0.080723 0.000000
# 6 0.000000 0.000000 0.000000 0.000000 0.000000 0.043758
#
#
# Mechanical properties :
#
#
# Convention : Reuss Voigt Hill
#
# Bulk Modulus (GPa) = 39.96245 40.48112 40.22179
# Shear Modulus (GPa) = 19.30436 22.49469 20.89952
#
# Velocity S-wave (km/s) = 3.09614 3.34220 3.22152
# Velocity P-wave (km/s) = 5.71190 5.91571 5.81470
#
# Compressibility (1/GPa) = 0.02502349
#
# Stress axis : x y z
#
# Youngs Moduli (GPa) = 69.74924 35.85954 60.01588
#
# Poissons Ratio (x) = 0.29232 -0.01490
# Poissons Ratio (y) = 0.56859 0.54180
# Poissons Ratio (z) = -0.01731 0.32372
#
# Static dielectric constant tensor:
#      x y z
#    x 1.731280 0.000000 0.000000 
#    y 0.000000 1.721620 0.000000 
#    z 0.000000 0.000000 1.737170 
# 
# From -- ./inp_files/20088.got.cif
#   From: 2010.05.17/outbox.cif.g08.bks.cpg/sg48_11_cif.got.tgz:20088.got - 2010.06.03 20:39:00.
