data_PCOD9390034
_publ_section_title
;
Structure prediction by ZEFSAII (Michael W. Deem and Ramdas Pophale) SiO2 
 PCOD9390034
Probable space group: P N N N
;
_chemical_formula_sum "Si O2"
_cell_formula_units_Z 64
_cell_length_a 17.770529
_cell_length_b 16.620627
_cell_length_c 11.696518
_cell_angle_alpha 90.000000
_cell_angle_beta 90.000000
_cell_angle_gamma 90.000000
_cell_volume 3454.652375
_symmetry_space_group_name_H-M "P N N N"
_symmetry_group_IT_number 48
_space_group.IT_coordinate_system_code '2'
_symmetry_cell_setting 'orthorhombic'
loop_
_space_group_symop_operation_xyz
x,y,z
1/2-x,1/2-y,z
x,1/2-y,1/2-z
1/2-x,y,1/2-z
-x,-y,-z
1/2+x,1/2+y,-z
-x,1/2+y,1/2+z
1/2+x,-y,1/2+z
loop_
_atom_site_type_symbol
_atom_site_label
_atom_site_fract_x
_atom_site_fract_y
_atom_site_fract_z
Si Si1 0.542766 0.195442 0.852850
Si Si2 0.554593 0.568819 0.441143
Si Si3 0.453532 0.968227 0.726100
Si Si4 0.358068 0.538452 0.989932
Si Si5 0.825127 0.133734 0.328672
Si Si6 0.198528 0.499798 0.022402
Si Si7 0.387971 0.970574 0.243220
Si Si8 0.169764 0.774252 0.995387
O O1 0.511921 0.250000 0.750000
O O2 0.483911 0.155161 0.939540
O O3 0.580844 0.115571 0.799475
O O4 0.603415 0.246747 0.922074
O O5 0.500000 0.500000 0.500000
O O6 0.568590 0.541446 0.310108
O O7 0.635854 0.566257 0.496503
O O8 0.425501 0.983350 0.596432
O O9 0.401216 0.894627 0.766397
O O10 0.542496 0.964797 0.754461
O O11 0.282962 0.484265 0.980653
O O12 0.372781 0.535841 0.123916
O O13 0.335783 0.631754 0.970547
O O14 0.750000 0.121572 0.250000
O O15 0.823198 0.077069 0.443219
O O16 0.831628 0.222843 0.378884
O O17 0.181434 0.514886 0.156629
O O18 0.250000 0.750000 0.049876
#
# Coordination Sequence:
#
# PCOD9390034 Si02
#       8
#     8   8   8   8   8   8   8   8
#     4  11  20  35  53  82 113 153 199 239 288 348
#     4  10  19  36  59  77 104 156 204 243 274 347
#     4  10  21  35  54  75 110 151 192 241 285 342
#     4  12  23  35  50  86 121 149 185 243 305 357
#     4  11  20  35  52  77 114 148 192 226 278 348
#     4  11  20  36  56  79 107 152 202 237 287 350
#     4  11  21  37  55  77 112 156 198 243 288 355
#     4  12  22  31  51  79 120 158 180 220 288 365
#
# _framework density 18.525742000000001
#
# number of rings (size 3 to 8) (size 9 to 14) (size 15 to 20)
#    0.000    1.000    7.500    1.500    0.000    2.000 
#    0.000    0.000    0.000    0.000    0.000    7.000 
#    0.000    0.000    0.750    0.000    0.000    0.000 
#
# Total GULP energy -356314.964435 kJ/mol
# GULP energy per Si atom -5567.421319 kJ/mol
# Density = 1.848358 g / cm^3
# Si number density = 18.525742 Si / 1000 Ang^3
#
#
#
# Elastic Constant Matrix: (Units=GPa)
#
#
# Indices 1 2 3 4 5 6 
#
# 1 77.2496 34.2248 26.5728 0.0000 0.0000 0.0000
# 2 34.2248 44.9276 11.0428 0.0000 0.0000 0.0000
# 3 26.5728 11.0428 116.8521 0.0000 0.0000 0.0000
# 4 0.0000 0.0000 0.0000 24.2215 0.0000 0.0000
# 5 0.0000 0.0000 0.0000 0.0000 33.9270 0.0000
# 6 0.0000 0.0000 0.0000 0.0000 0.0000 27.1525
#
#
#
# Elastic Compliance Matrix: (Units=1/GPa)
#
#
# Indices 1 2 3 4 5 6 
#
# 1 0.020709 -0.014966 -0.003295 0.000000 0.000000 0.000000
# 2 -0.014966 0.033603 0.000228 0.000000 0.000000 0.000000
# 3 -0.003295 0.000228 0.009286 0.000000 0.000000 0.000000
# 4 0.000000 0.000000 0.000000 0.041286 0.000000 0.000000
# 5 0.000000 0.000000 0.000000 0.000000 0.029475 0.000000
# 6 0.000000 0.000000 0.000000 0.000000 0.000000 0.036829
#
#
# Mechanical properties :
#
#
# Convention : Reuss Voigt Hill
#
# Bulk Modulus (GPa) = 36.32246 42.52334 39.42290
# Shear Modulus (GPa) = 23.10217 28.20612 25.65414
#
# Velocity S-wave (km/s) = 3.53516 3.90620 3.72531
# Velocity P-wave (km/s) = 6.02596 6.58392 6.31111
#
# Compressibility (1/GPa) = 0.02753118
#
# Stress axis : x y z
#
# Youngs Moduli (GPa) = 48.28834 29.75966 107.69352
#
# Poissons Ratio (x) = 0.44537 0.35485
# Poissons Ratio (y) = 0.72267 -0.02453
# Poissons Ratio (z) = 0.15911 -0.00678
#
# Static dielectric constant tensor:
#      x y z
#    x 1.736020 0.000000 0.000000 
#    y 0.000000 1.634310 0.000000 
#    z 0.000000 0.000000 1.738590 
# 
# From -- ./inp_files/22414.got.cif
#   From: 2010.05.17/outbox.cif.g08.bks.cpg/sg48_12_cif.got.tgz:22414.got - 2010.06.03 20:39:00.
