data_PCOD9390105
_publ_section_title
;
Structure prediction by ZEFSAII (Michael W. Deem and Ramdas Pophale) SiO2 
 PCOD9390105
Probable space group: P N N N
;
_chemical_formula_sum "Si O2"
_cell_formula_units_Z 58
_cell_length_a 10.668155
_cell_length_b 18.440737
_cell_length_c 13.385106
_cell_angle_alpha 90.000000
_cell_angle_beta 90.000000
_cell_angle_gamma 90.000000
_cell_volume 2633.233708
_symmetry_space_group_name_H-M "P N N N"
_symmetry_group_IT_number 48
_space_group.IT_coordinate_system_code '2'
_symmetry_cell_setting 'orthorhombic'
loop_
_space_group_symop_operation_xyz
x,y,z
1/2-x,1/2-y,z
x,1/2-y,1/2-z
1/2-x,y,1/2-z
-x,-y,-z
1/2+x,1/2+y,-z
-x,1/2+y,1/2+z
1/2+x,-y,1/2+z
loop_
_atom_site_type_symbol
_atom_site_label
_atom_site_fract_x
_atom_site_fract_y
_atom_site_fract_z
Si Si1 0.916178 0.186254 0.913854
Si Si2 0.613673 0.048309 0.457977
Si Si3 0.857108 0.548076 0.076301
Si Si4 0.804662 0.671141 0.461230
Si Si5 0.560361 0.639051 0.835262
Si Si6 0.750000 0.250000 0.750000
Si Si7 0.985894 0.923700 0.638234
Si Si8 0.109975 0.727735 0.891235
O O1 0.840048 0.201477 0.816383
O O2 0.064105 0.174740 0.903408
O O3 0.863064 0.115059 0.967906
O O4 0.900320 0.252985 0.991246
O O5 0.556207 0.086098 0.360632
O O6 0.500000 0.000000 0.500000
O O7 0.737519 0.003365 0.441297
O O8 0.794808 0.624759 0.101491
O O9 0.947066 0.502269 0.149398
O O10 0.921454 0.565617 0.969526
O O11 0.750000 0.750000 0.481146
O O12 0.843582 0.637889 0.570910
O O13 0.600655 0.607467 0.728150
O O14 0.495641 0.718621 0.843814
O O15 0.082339 0.856147 0.627995
O O16 0.250000 0.750000 0.860283
#
# Coordination Sequence:
#
# PCOD9390105 Si02
#       8
#     8   8   8   8   8   2   8   8
#     4  10  22  40  66  97 125 171 220 270 327 391
#     4  10  19  43  64  85 125 174 214 260 338 391
#     4  11  22  40  64  88 139 175 206 270 341 400
#     4  10  21  44  71  90 132 184 216 271 341 406
#     4  10  22  38  64  98 125 165 225 265 319 404
#     4  12  24  44  70 104 126 168 238 282 308 400
#     4  11  24  38  61 104 130 166 217 276 335 393
#     4  10  19  38  65  88 134 166 204 269 341 399
#
# _framework density 22.026149
#
# number of rings (size 3 to 8) (size 9 to 14) (size 15 to 20)
#    0.000    1.931    3.448    3.724    0.000    3.310 
#    2.483    2.414    6.069    0.000    0.000    0.000 
#    0.000    0.000    0.000    0.000    0.000    0.000 
#
# Total GULP energy -323583.284697 kJ/mol
# GULP energy per Si atom -5579.022150 kJ/mol
# Density = 2.197602 g / cm^3
# Si number density = 22.026149 Si / 1000 Ang^3
#
#
#
# Elastic Constant Matrix: (Units=GPa)
#
#
# Indices 1 2 3 4 5 6 
#
# 1 53.2092 15.1932 9.2521 0.0000 0.0000 0.0000
# 2 15.1932 94.9114 23.3600 0.0000 0.0000 0.0000
# 3 9.2521 23.3600 76.2831 0.0000 0.0000 0.0000
# 4 0.0000 0.0000 0.0000 17.4410 0.0000 0.0000
# 5 0.0000 0.0000 0.0000 0.0000 2.0757 0.0000
# 6 0.0000 0.0000 0.0000 0.0000 0.0000 41.6766
#
#
#
# Elastic Compliance Matrix: (Units=1/GPa)
#
#
# Indices 1 2 3 4 5 6 
#
# 1 0.019862 -0.002797 -0.001552 0.000000 0.000000 0.000000
# 2 -0.002797 0.011789 -0.003271 0.000000 0.000000 0.000000
# 3 -0.001552 -0.003271 0.014299 0.000000 0.000000 0.000000
# 4 0.000000 0.000000 0.000000 0.057336 0.000000 0.000000
# 5 0.000000 0.000000 0.000000 0.000000 0.481768 0.000000
# 6 0.000000 0.000000 0.000000 0.000000 0.000000 0.023994
#
#
# Mechanical properties :
#
#
# Convention : Reuss Voigt Hill
#
# Bulk Modulus (GPa) = 32.56367 35.55715 34.06041
# Shear Modulus (GPa) = 7.87989 24.01189 15.94589
#
# Velocity S-wave (km/s) = 1.89348 3.30533 2.69356
# Velocity P-wave (km/s) = 4.42680 5.54483 5.01706
#
# Compressibility (1/GPa) = 0.03070907
#
# Stress axis : x y z
#
# Youngs Moduli (GPa) = 50.34626 84.82498 69.93516
#
# Poissons Ratio (x) = 0.23729 0.10857
# Poissons Ratio (y) = 0.14084 0.22875
# Poissons Ratio (z) = 0.07816 0.27745
#
# Static dielectric constant tensor:
#      x y z
#    x 1.868650 0.000000 0.000000 
#    y 0.000000 1.818950 0.000000 
#    z 0.000000 0.000000 1.895230 
# 
# From -- ./inp_files/26685.got.cif
#   From: 2010.05.17/outbox.cif.g08.bks.cpg/sg48_14_cif.got.tgz:26685.got - 2010.06.03 20:39:00.
