data_PCOD9390686
_publ_section_title
;
Structure prediction by ZEFSAII (Michael W. Deem and Ramdas Pophale) SiO2 
 PCOD9390686
Probable space group: P N N N
;
_chemical_formula_sum "Si O2"
_cell_formula_units_Z 32
_cell_length_a 17.287367
_cell_length_b 7.063751
_cell_length_c 11.719420
_cell_angle_alpha 90.000000
_cell_angle_beta 90.000000
_cell_angle_gamma 90.000000
_cell_volume 1431.101222
_symmetry_space_group_name_H-M "P N N N"
_symmetry_group_IT_number 48
_space_group.IT_coordinate_system_code '2'
_symmetry_cell_setting 'orthorhombic'
loop_
_space_group_symop_operation_xyz
x,y,z
1/2-x,1/2-y,z
x,1/2-y,1/2-z
1/2-x,y,1/2-z
-x,-y,-z
1/2+x,1/2+y,-z
-x,1/2+y,1/2+z
1/2+x,-y,1/2+z
loop_
_atom_site_type_symbol
_atom_site_label
_atom_site_fract_x
_atom_site_fract_y
_atom_site_fract_z
Si Si1 0.564170 0.414855 0.582883
Si Si2 0.263668 0.522537 0.380862
Si Si3 0.014973 0.560627 0.694093
Si Si4 0.106202 0.479285 0.484469
O O1 0.500000 0.500000 0.500000
O O2 0.648691 0.511675 0.581815
O O3 0.527096 0.442199 0.707760
O O4 0.584361 0.198518 0.547982
O O5 0.250000 0.750000 0.381152
O O6 0.250000 0.462636 0.250000
O O7 0.195603 0.444524 0.460358
O O8 0.049939 0.750000 0.750000
O O9 0.076533 0.454403 0.613418
O O10 0.947378 0.626887 0.607077
#
# Coordination Sequence:
#
# PCOD9390686 Si02
#       4
#     8   8   8   8
#     4  11  20  36  60  84 117 151 195 243 293 350
#     4   9  17  33  57  83 109 146 197 238 281 340
#     4  11  21  35  57  88 117 151 197 238 296 353
#     4  10  21  37  59  84 119 153 193 245 294 345
#
# _framework density 22.360403999999999
#
# number of rings (size 3 to 8) (size 9 to 14) (size 15 to 20)
#    0.000    1.750    5.000    0.750    0.000    0.000 
#    0.000    3.750    0.000    0.000    0.000    3.500 
#    0.000    0.000    0.000    0.000    0.000    0.000 
#
# Total GULP energy -178861.124931 kJ/mol
# GULP energy per Si atom -5589.410154 kJ/mol
# Density = 2.230951 g / cm^3
# Si number density = 22.360404 Si / 1000 Ang^3
#
#
#
# Elastic Constant Matrix: (Units=GPa)
#
#
# Indices 1 2 3 4 5 6 
#
# 1 222.3481 19.5768 94.6022 0.0000 0.0000 0.0000
# 2 19.5768 71.8004 13.4727 0.0000 0.0000 0.0000
# 3 94.6022 13.4727 135.7526 0.0000 0.0000 0.0000
# 4 0.0000 0.0000 0.0000 20.6213 0.0000 0.0000
# 5 0.0000 0.0000 0.0000 0.0000 38.3896 0.0000
# 6 0.0000 0.0000 0.0000 0.0000 0.0000 24.8010
#
#
#
# Elastic Compliance Matrix: (Units=1/GPa)
#
#
# Indices 1 2 3 4 5 6 
#
# 1 0.006454 -0.000933 -0.004405 0.000000 0.000000 0.000000
# 2 -0.000933 0.014327 -0.000772 0.000000 0.000000 0.000000
# 3 -0.004405 -0.000772 0.010513 0.000000 0.000000 0.000000
# 4 0.000000 0.000000 0.000000 0.048494 0.000000 0.000000
# 5 0.000000 0.000000 0.000000 0.000000 0.026049 0.000000
# 6 0.000000 0.000000 0.000000 0.000000 0.000000 0.040321
#
#
# Mechanical properties :
#
#
# Convention : Reuss Voigt Hill
#
# Bulk Modulus (GPa) = 52.42763 76.13382 64.28072
# Shear Modulus (GPa) = 30.35210 36.91233 33.63222
#
# Velocity S-wave (km/s) = 3.68829 4.06740 3.88248
# Velocity P-wave (km/s) = 6.45256 7.49538 6.99344
#
# Compressibility (1/GPa) = 0.01907391
#
# Stress axis : x y z
#
# Youngs Moduli (GPa) = 154.94946 69.79972 95.12481
#
# Poissons Ratio (x) = 0.06513 0.41901
# Poissons Ratio (y) = 0.14459 0.07340
# Poissons Ratio (z) = 0.68252 0.05386
#
# Static dielectric constant tensor:
#      x y z
#    x 1.801510 0.000000 0.000000 
#    y 0.000000 2.019620 0.000000 
#    z 0.000000 0.000000 1.881440 
# 
# From -- ./inp_files/10535.got.cif
#   From: 2010.05.17/outbox.cif.g08.bks.cpg/sg48_6_cif.got.tgz:10535.got - 2010.06.03 20:39:00.
