data_PCOD9390216
_publ_section_title
;
Structure prediction by ZEFSAII (Michael W. Deem and Ramdas Pophale) SiO2 
 PCOD9390216
Probable space group: P N N N
;
_chemical_formula_sum "Si O2"
_cell_formula_units_Z 48
_cell_length_a 12.176249
_cell_length_b 25.171829
_cell_length_c 8.625452
_cell_angle_alpha 90.000000
_cell_angle_beta 90.000000
_cell_angle_gamma 90.000000
_cell_volume 2643.687735
_symmetry_space_group_name_H-M "P N N N"
_symmetry_group_IT_number 48
_space_group.IT_coordinate_system_code '2'
_symmetry_cell_setting 'orthorhombic'
loop_
_space_group_symop_operation_xyz
x,y,z
1/2-x,1/2-y,z
x,1/2-y,1/2-z
1/2-x,y,1/2-z
-x,-y,-z
1/2+x,1/2+y,-z
-x,1/2+y,1/2+z
1/2+x,-y,1/2+z
loop_
_atom_site_type_symbol
_atom_site_label
_atom_site_fract_x
_atom_site_fract_y
_atom_site_fract_z
Si Si1 0.050505 0.884704 0.521549
Si Si2 0.251847 0.810009 0.066123
Si Si3 0.340383 0.507193 0.380685
Si Si4 0.136742 0.877963 0.837032
Si Si5 0.662730 0.578736 0.362577
Si Si6 0.546144 0.489226 0.167723
O O1 0.134443 0.840032 0.466128
O O2 0.112303 0.941243 0.475480
O O3 0.043335 0.872387 0.705994
O O4 0.933621 0.886395 0.438074
O O5 0.250000 0.750000 0.002463
O O6 0.250000 0.807827 0.250000
O O7 0.150859 0.843748 0.991596
O O8 0.250000 0.522120 0.250000
O O9 0.298804 0.461551 0.499163
O O10 0.443911 0.482170 0.286846
O O11 0.250000 0.865148 0.750000
O O12 0.128804 0.940660 0.861131
O O13 0.750000 0.607251 0.250000
O O14 0.607445 0.538676 0.240623
O O15 0.500000 0.500000 0.000000
#
# Coordination Sequence:
#
# PCOD9390216 Si02
#       6
#     8   8   8   8   8   8
#     4  10  20  36  54  78 113 150 192 232 282 342
#     4  10  23  39  59  85 112 139 187 244 303 352
#     4  11  21  33  50  77 114 158 192 227 272 336
#     4  10  20  34  55  74 111 149 182 229 285 334
#     4  11  21  35  50  78 118 157 195 227 274 333
#     4  11  21  31  49  78 112 152 194 221 273 338
#
# _framework density 18.156455000000001
#
# number of rings (size 3 to 8) (size 9 to 14) (size 15 to 20)
#    0.000    1.500    3.333    3.000   11.667    3.000 
#    0.000    0.000    0.000    0.000    0.000    2.333 
#    0.000    1.333    0.000    0.000    0.000    0.000 
#
# Total GULP energy -267203.045355 kJ/mol
# GULP energy per Si atom -5566.730112 kJ/mol
# Density = 1.811513 g / cm^3
# Si number density = 18.156455 Si / 1000 Ang^3
#
#
#
# Elastic Constant Matrix: (Units=GPa)
#
#
# Indices 1 2 3 4 5 6 
#
# 1 71.9664 25.9764 33.6774 0.0000 0.0000 0.0000
# 2 25.9764 68.7934 23.8091 0.0000 0.0000 0.0000
# 3 33.6774 23.8091 108.7291 0.0000 0.0000 0.0000
# 4 0.0000 0.0000 0.0000 21.8671 0.0000 0.0000
# 5 0.0000 0.0000 0.0000 0.0000 35.0480 0.0000
# 6 0.0000 0.0000 0.0000 0.0000 0.0000 14.3704
#
#
#
# Elastic Compliance Matrix: (Units=1/GPa)
#
#
# Indices 1 2 3 4 5 6 
#
# 1 0.017828 -0.005216 -0.004380 0.000000 0.000000 0.000000
# 2 -0.005216 0.017254 -0.002163 0.000000 0.000000 0.000000
# 3 -0.004380 -0.002163 0.011027 0.000000 0.000000 0.000000
# 4 0.000000 0.000000 0.000000 0.045731 0.000000 0.000000
# 5 0.000000 0.000000 0.000000 0.000000 0.028532 0.000000
# 6 0.000000 0.000000 0.000000 0.000000 0.000000 0.069587
#
#
# Mechanical properties :
#
#
# Convention : Reuss Voigt Hill
#
# Bulk Modulus (GPa) = 44.26238 46.26829 45.26534
# Shear Modulus (GPa) = 22.62370 25.32551 23.97460
#
# Velocity S-wave (km/s) = 3.53376 3.73882 3.63774
# Velocity P-wave (km/s) = 6.40946 6.64656 6.52909
#
# Compressibility (1/GPa) = 0.02259255
#
# Stress axis : x y z
#
# Youngs Moduli (GPa) = 56.09287 57.95650 90.68398
#
# Poissons Ratio (x) = 0.30230 0.39717
# Poissons Ratio (y) = 0.29257 0.19613
# Poissons Ratio (z) = 0.24567 0.12534
#
# Static dielectric constant tensor:
#      x y z
#    x 1.684180 0.000000 0.000000 
#    y 0.000000 1.626510 0.000000 
#    z 0.000000 0.000000 1.723550 
# 
# From -- ./inp_files/11217.got.cif
#   From: 2010.05.17/outbox.cif.g08.bks.cpg/sg48_6_cif.got.tgz:11217.got - 2010.06.03 20:39:00.
