data_PCOD9390501
_publ_section_title
;
Structure prediction by ZEFSAII (Michael W. Deem and Ramdas Pophale) SiO2 
 PCOD9390501
Probable space group: P N N N
;
_chemical_formula_sum "Si O2"
_cell_formula_units_Z 36
_cell_length_a 11.314412
_cell_length_b 13.798592
_cell_length_c 12.229858
_cell_angle_alpha 90.000000
_cell_angle_beta 90.000000
_cell_angle_gamma 90.000000
_cell_volume 1909.361569
_symmetry_space_group_name_H-M "P N N N"
_symmetry_group_IT_number 48
_space_group.IT_coordinate_system_code '2'
_symmetry_cell_setting 'orthorhombic'
loop_
_space_group_symop_operation_xyz
x,y,z
1/2-x,1/2-y,z
x,1/2-y,1/2-z
1/2-x,y,1/2-z
-x,-y,-z
1/2+x,1/2+y,-z
-x,1/2+y,1/2+z
1/2+x,-y,1/2+z
loop_
_atom_site_type_symbol
_atom_site_label
_atom_site_fract_x
_atom_site_fract_y
_atom_site_fract_z
Si Si1 0.750000 0.250000 0.028363
Si Si2 0.426729 0.827372 0.152868
Si Si3 0.119977 0.206311 0.490825
Si Si4 0.549385 0.169438 0.344087
Si Si5 0.119958 0.049674 0.297954
O O1 0.678309 0.328762 0.100537
O O2 0.656551 0.199315 0.949359
O O3 0.409332 0.750000 0.250000
O O4 0.393192 0.935637 0.185657
O O5 0.559047 0.821026 0.104904
O O6 0.250000 0.250000 0.501093
O O7 0.112223 0.114304 0.408294
O O8 0.041680 0.290205 0.433982
O O9 0.557639 0.250000 0.250000
O O10 0.485149 0.080873 0.284652
O O11 0.250000 0.072322 0.250000
#
# Coordination Sequence:
#
# PCOD9390501 Si02
#       5
#     4   8   8   8   8
#     4  10  20  40  58  86 126 166 202 256 310 370
#     4  11  24  41  59  86 132 173 206 250 313 377
#     4  10  20  39  63  91 120 161 209 263 309 363
#     4   9  19  34  63  91 120 151 205 261 313 360
#     4  11  20  37  66  96 122 162 214 260 314 376
#
# _framework density 18.854469999999999
#
# number of rings (size 3 to 8) (size 9 to 14) (size 15 to 20)
#    0.000    1.778    2.222    2.667    0.000    0.444 
#    4.000    3.333    9.778    0.000    0.000    0.000 
#    0.000    0.000    0.000    0.000    0.000    0.000 
#
# Total GULP energy -200761.252596 kJ/mol
# GULP energy per Si atom -5576.701461 kJ/mol
# Density = 1.881156 g / cm^3
# Si number density = 18.854470 Si / 1000 Ang^3
#
#
#
# Elastic Constant Matrix: (Units=GPa)
#
#
# Indices 1 2 3 4 5 6 
#
# 1 122.0058 21.8339 41.8156 0.0000 0.0000 0.0000
# 2 21.8339 79.3003 7.4852 0.0000 0.0000 0.0000
# 3 41.8156 7.4852 45.9329 0.0000 0.0000 0.0000
# 4 0.0000 0.0000 0.0000 9.9488 0.0000 0.0000
# 5 0.0000 0.0000 0.0000 0.0000 2.6575 0.0000
# 6 0.0000 0.0000 0.0000 0.0000 0.0000 22.6832
#
#
#
# Elastic Compliance Matrix: (Units=1/GPa)
#
#
# Indices 1 2 3 4 5 6 
#
# 1 0.012338 -0.002373 -0.010845 0.000000 0.000000 0.000000
# 2 -0.002373 0.013264 -0.000001 0.000000 0.000000 0.000000
# 3 -0.010845 -0.000001 0.031644 0.000000 0.000000 0.000000
# 4 0.000000 0.000000 0.000000 0.100515 0.000000 0.000000
# 5 0.000000 0.000000 0.000000 0.000000 0.376290 0.000000
# 6 0.000000 0.000000 0.000000 0.000000 0.000000 0.044085
#
#
# Mechanical properties :
#
#
# Convention : Reuss Voigt Hill
#
# Bulk Modulus (GPa) = 32.46017 43.27872 37.86944
# Shear Modulus (GPa) = 8.13213 18.79819 13.46516
#
# Velocity S-wave (km/s) = 2.07906 3.16098 2.67528
# Velocity P-wave (km/s) = 4.79759 6.02713 5.44716
#
# Compressibility (1/GPa) = 0.03080699
#
# Stress axis : x y z
#
# Youngs Moduli (GPa) = 81.04939 75.39292 31.60132
#
# Poissons Ratio (x) = 0.17894 0.34273
# Poissons Ratio (y) = 0.19236 0.00003
# Poissons Ratio (z) = 0.87901 0.00006
#
# Static dielectric constant tensor:
#      x y z
#    x 1.721100 0.000000 0.000000 
#    y 0.000000 1.627280 0.000000 
#    z 0.000000 0.000000 1.668910 
# 
# From -- ./inp_files/19511.got.cif
#   From: 2010.05.17/outbox.cif.g08.bks.cpg/sg48_10_cif.got.tgz:19511.got - 2010.06.03 20:39:00.
