data_PCOD9390163
_publ_section_title
;
Structure prediction by ZEFSAII (Michael W. Deem and Ramdas Pophale) SiO2 
 PCOD9390163
Probable space group: P N N N
;
_chemical_formula_sum "Si O2"
_cell_formula_units_Z 48
_cell_length_a 15.143359
_cell_length_b 8.154866
_cell_length_c 20.958126
_cell_angle_alpha 90.000000
_cell_angle_beta 90.000000
_cell_angle_gamma 90.000000
_cell_volume 2588.162225
_symmetry_space_group_name_H-M "P N N N"
_symmetry_group_IT_number 48
_space_group.IT_coordinate_system_code '2'
_symmetry_cell_setting 'orthorhombic'
loop_
_space_group_symop_operation_xyz
x,y,z
1/2-x,1/2-y,z
x,1/2-y,1/2-z
1/2-x,y,1/2-z
-x,-y,-z
1/2+x,1/2+y,-z
-x,1/2+y,1/2+z
1/2+x,-y,1/2+z
loop_
_atom_site_type_symbol
_atom_site_label
_atom_site_fract_x
_atom_site_fract_y
_atom_site_fract_z
Si Si1 0.712837 0.065867 0.455814
Si Si2 0.223542 0.567878 0.175917
Si Si3 0.962547 0.931334 0.067337
Si Si4 0.427592 0.063711 0.092022
Si Si5 0.135445 0.063677 0.090414
Si Si6 0.396752 0.059199 0.946862
O O1 0.750000 0.250000 0.459745
O O2 0.622683 0.040830 0.415941
O O3 0.682801 0.997537 0.525297
O O4 0.794675 0.960141 0.430039
O O5 0.250000 0.750000 0.152649
O O6 0.250000 0.562831 0.250000
O O7 0.126895 0.523010 0.148547
O O8 0.289194 0.443090 0.142250
O O9 0.929611 0.746258 0.058985
O O10 0.051281 0.950135 0.108403
O O11 0.000000 0.000000 0.000000
O O12 0.400627 0.252801 0.087109
O O13 0.532894 0.042145 0.094525
O O14 0.403122 0.996675 0.020789
#
# Coordination Sequence:
#
# PCOD9390163 Si02
#       6
#     8   8   8   8   8   8
#     4  11  21  31  48  74 107 143 175 214 268 327
#     4  11  24  40  57  78 107 148 191 232 276 322
#     4  10  20  32  47  73 104 142 178 213 271 330
#     4  11  22  33  53  75 105 143 182 223 273 327
#     4  11  21  35  51  76 109 144 181 228 269 325
#     4  11  21  33  51  76 108 145 179 219 279 332
#
# _framework density 18.545978000000002
#
# number of rings (size 3 to 8) (size 9 to 14) (size 15 to 20)
#    0.000    1.167    5.000    3.500    7.000    1.333 
#    0.000    0.000    0.000    0.000    0.000    1.167 
#    0.000    9.333    0.000    0.000    0.000    0.000 
#
# Total GULP energy -267601.017070 kJ/mol
# GULP energy per Si atom -5575.021189 kJ/mol
# Density = 1.850377 g / cm^3
# Si number density = 18.545978 Si / 1000 Ang^3
#
#
#
# Elastic Constant Matrix: (Units=GPa)
#
#
# Indices 1 2 3 4 5 6 
#
# 1 169.8458 43.2933 20.4864 0.0000 0.0000 0.0000
# 2 43.2933 107.4518 10.1736 0.0000 0.0000 0.0000
# 3 20.4864 10.1736 34.3488 0.0000 0.0000 0.0000
# 4 0.0000 0.0000 0.0000 11.4929 0.0000 0.0000
# 5 0.0000 0.0000 0.0000 0.0000 16.6822 0.0000
# 6 0.0000 0.0000 0.0000 0.0000 0.0000 39.3109
#
#
#
# Elastic Compliance Matrix: (Units=1/GPa)
#
#
# Indices 1 2 3 4 5 6 
#
# 1 0.006927 -0.002469 -0.003400 0.000000 0.000000 0.000000
# 2 -0.002469 0.010455 -0.001624 0.000000 0.000000 0.000000
# 3 -0.003400 -0.001624 0.031622 0.000000 0.000000 0.000000
# 4 0.000000 0.000000 0.000000 0.087010 0.000000 0.000000
# 5 0.000000 0.000000 0.000000 0.000000 0.059944 0.000000
# 6 0.000000 0.000000 0.000000 0.000000 0.000000 0.025438
#
#
# Mechanical properties :
#
#
# Convention : Reuss Voigt Hill
#
# Bulk Modulus (GPa) = 29.39648 51.06143 40.22896
# Shear Modulus (GPa) = 20.18384 29.34340 24.76362
#
# Velocity S-wave (km/s) = 3.30254 3.98200 3.65808
# Velocity P-wave (km/s) = 5.51610 6.98097 6.29131
#
# Compressibility (1/GPa) = 0.03401768
#
# Stress axis : x y z
#
# Youngs Moduli (GPa) = 144.35880 95.64729 31.62350
#
# Poissons Ratio (x) = 0.23616 0.10753
# Poissons Ratio (y) = 0.35643 0.05136
# Poissons Ratio (z) = 0.49085 0.15533
#
# Static dielectric constant tensor:
#      x y z
#    x 1.726370 0.000000 0.000000 
#    y 0.000000 1.716300 0.000000 
#    z 0.000000 0.000000 1.667780 
# 
# From -- ./inp_files/34394.got.cif
#   From: 2010.05.17/outbox.cif.g08.bks.cpg/sg48_18_cif.got.tgz:34394.got - 2010.06.03 20:39:00.
