data_PCOD9390739
_publ_section_title
;
Structure prediction by ZEFSAII (Michael W. Deem and Ramdas Pophale) SiO2 
 PCOD9390739
Probable space group: P N N N
;
_chemical_formula_sum "Si O2"
_cell_formula_units_Z 48
_cell_length_a 7.299058
_cell_length_b 16.975973
_cell_length_c 17.488977
_cell_angle_alpha 90.000000
_cell_angle_beta 90.000000
_cell_angle_gamma 90.000000
_cell_volume 2167.034857
_symmetry_space_group_name_H-M "P N N N"
_symmetry_group_IT_number 48
_space_group.IT_coordinate_system_code '2'
_symmetry_cell_setting 'orthorhombic'
loop_
_space_group_symop_operation_xyz
x,y,z
1/2-x,1/2-y,z
x,1/2-y,1/2-z
1/2-x,y,1/2-z
-x,-y,-z
1/2+x,1/2+y,-z
-x,1/2+y,1/2+z
1/2+x,-y,1/2+z
loop_
_atom_site_type_symbol
_atom_site_label
_atom_site_fract_x
_atom_site_fract_y
_atom_site_fract_z
Si Si1 0.943515 0.826547 0.791714
Si Si2 0.091589 0.446989 0.566097
Si Si3 0.954684 0.502901 0.272410
Si Si4 0.985812 0.487900 0.894204
Si Si5 0.906400 0.132371 0.479364
Si Si6 0.997095 0.806537 0.965473
O O1 0.029271 0.750000 0.750000
O O2 0.296906 0.842326 0.546817
O O3 0.914624 0.810522 0.881086
O O4 0.048299 0.908785 0.784135
O O5 0.990723 0.458604 0.647270
O O6 0.298827 0.472500 0.586021
O O7 0.091451 0.360826 0.529940
O O8 0.000000 0.500000 0.500000
O O9 0.750000 0.529819 0.250000
O O10 0.062707 0.519320 0.194295
O O11 0.973984 0.578820 0.921336
O O12 0.886942 0.423973 0.946950
O O13 0.997747 0.216589 0.492612
O O14 0.750000 0.837986 0.750000
#
# Coordination Sequence:
#
# PCOD9390739 Si02
#       6
#     8   8   8   8   8   8
#     4  11  24  37  56  89 126 155 197 255 314 370
#     4  11  20  38  64  89 121 162 198 254 309 369
#     4  10  21  39  61  89 119 160 205 253 307 369
#     4  10  21  38  62  92 121 157 213 251 305 373
#     4  10  22  39  65  87 120 167 205 253 307 371
#     4  11  22  41  61  89 121 162 207 251 311 368
#
# _framework density 22.150082999999999
#
# number of rings (size 3 to 8) (size 9 to 14) (size 15 to 20)
#    0.000    1.500    3.333    2.000    0.000    9.000 
#    0.000    0.833    0.000    5.000    0.000    0.000 
#    0.000    0.000    0.000    0.000    0.000    0.000 
#
# Total GULP energy -268340.031303 kJ/mol
# GULP energy per Si atom -5590.417319 kJ/mol
# Density = 2.209967 g / cm^3
# Si number density = 22.150083 Si / 1000 Ang^3
#
#
#
# Elastic Constant Matrix: (Units=GPa)
#
#
# Indices 1 2 3 4 5 6 
#
# 1 52.8634 26.6931 29.8746 0.0000 0.0000 0.0000
# 2 26.6931 153.5293 81.4068 0.0000 0.0000 0.0000
# 3 29.8746 81.4068 219.6964 0.0000 0.0000 0.0000
# 4 0.0000 0.0000 0.0000 22.0775 0.0000 0.0000
# 5 0.0000 0.0000 0.0000 0.0000 28.8990 0.0000
# 6 0.0000 0.0000 0.0000 0.0000 0.0000 31.7284
#
#
#
# Elastic Compliance Matrix: (Units=1/GPa)
#
#
# Indices 1 2 3 4 5 6 
#
# 1 0.021357 -0.002705 -0.001902 0.000000 0.000000 0.000000
# 2 -0.002705 0.008449 -0.002763 0.000000 0.000000 0.000000
# 3 -0.001902 -0.002763 0.005834 0.000000 0.000000 0.000000
# 4 0.000000 0.000000 0.000000 0.045295 0.000000 0.000000
# 5 0.000000 0.000000 0.000000 0.000000 0.034603 0.000000
# 6 0.000000 0.000000 0.000000 0.000000 0.000000 0.031518
#
#
# Mechanical properties :
#
#
# Convention : Reuss Voigt Hill
#
# Bulk Modulus (GPa) = 47.84464 78.00425 62.92445
# Shear Modulus (GPa) = 29.62756 35.74860 32.68808
#
# Velocity S-wave (km/s) = 3.66127 4.02173 3.84572
# Velocity P-wave (km/s) = 6.28651 7.54045 6.94185
#
# Compressibility (1/GPa) = 0.02090098
#
# Stress axis : x y z
#
# Youngs Moduli (GPa) = 46.82245 118.36287 171.40631
#
# Poissons Ratio (x) = 0.32014 0.32601
# Poissons Ratio (y) = 0.12664 0.47356
# Poissons Ratio (z) = 0.08905 0.32701
#
# Static dielectric constant tensor:
#      x y z
#    x 1.955290 0.000000 0.000000 
#    y 0.000000 1.833330 0.000000 
#    z 0.000000 0.000000 1.889270 
# 
# From -- ./inp_files/22826.got.cif
#   From: 2010.05.17/outbox.cif.g08.bks.cpg/sg48_12_cif.got.tgz:22826.got - 2010.06.03 20:39:00.
