data_PCOD9390340
_publ_section_title
;
Structure prediction by ZEFSAII (Michael W. Deem and Ramdas Pophale) SiO2 
 PCOD9390340
Probable space group: P N N N
;
_chemical_formula_sum "Si O2"
_cell_formula_units_Z 36
_cell_length_a 14.238308
_cell_length_b 21.343930
_cell_length_c 5.241184
_cell_angle_alpha 90.000000
_cell_angle_beta 90.000000
_cell_angle_gamma 90.000000
_cell_volume 1592.803413
_symmetry_space_group_name_H-M "P N N N"
_symmetry_group_IT_number 48
_space_group.IT_coordinate_system_code '2'
_symmetry_cell_setting 'orthorhombic'
loop_
_space_group_symop_operation_xyz
x,y,z
1/2-x,1/2-y,z
x,1/2-y,1/2-z
1/2-x,y,1/2-z
-x,-y,-z
1/2+x,1/2+y,-z
-x,1/2+y,1/2+z
1/2+x,-y,1/2+z
loop_
_atom_site_type_symbol
_atom_site_label
_atom_site_fract_x
_atom_site_fract_y
_atom_site_fract_z
Si Si1 0.364104 0.949691 0.208922
Si Si2 0.360227 0.614685 0.786111
Si Si3 0.574880 0.250000 0.250000
Si Si4 0.814231 0.921994 0.502223
Si Si5 0.392155 0.285134 0.502672
O O1 0.250000 0.945238 0.250000
O O2 0.400984 0.927806 0.484853
O O3 0.376488 0.018617 0.088980
O O4 0.399574 0.903374 0.989937
O O5 0.250000 0.600862 0.750000
O O6 0.370576 0.688457 0.839390
O O7 0.503330 0.273398 0.467786
O O8 0.750000 0.911066 0.750000
O O9 0.869454 0.857714 0.468876
O O10 0.750000 0.935544 0.250000
O O11 0.354176 0.250000 0.250000
O O12 0.357262 0.250000 0.750000
#
# Coordination Sequence:
#
# PCOD9390340 Si02
#       5
#     8   8   4   8   8
#     4   9  19  35  57  90 115 140 192 251 295 346
#     4  10  20  36  62  88 114 153 197 239 297 351
#     4  10  25  40  59  80 130 158 196 248 291 350
#     4  11  21  38  65  88 117 153 197 253 302 353
#     4  10  24  40  57  83 125 155 200 241 301 351
#
# _framework density 22.601659999999999
#
# number of rings (size 3 to 8) (size 9 to 14) (size 15 to 20)
#    0.667    1.333    0.000    5.000    3.111    2.667 
#    0.000    5.556    0.000    0.000    0.000    0.000 
#    0.000    0.000    0.000    0.000    0.000    0.000 
#
# Total GULP energy -200725.061844 kJ/mol
# GULP energy per Si atom -5575.696162 kJ/mol
# Density = 2.255022 g / cm^3
# Si number density = 22.601660 Si / 1000 Ang^3
#
#
#
# Elastic Constant Matrix: (Units=GPa)
#
#
# Indices 1 2 3 4 5 6 
#
# 1 20.8392 11.7741 26.6498 0.0000 0.0000 0.0000
# 2 11.7741 194.2816 79.2969 0.0000 0.0000 0.0000
# 3 26.6498 79.2969 181.7357 0.0000 0.0000 0.0000
# 4 0.0000 0.0000 0.0000 27.1254 0.0000 0.0000
# 5 0.0000 0.0000 0.0000 0.0000 17.3822 0.0000
# 6 0.0000 0.0000 0.0000 0.0000 0.0000 4.9782
#
#
#
# Elastic Compliance Matrix: (Units=1/GPa)
#
#
# Indices 1 2 3 4 5 6 
#
# 1 0.059063 -0.000054 -0.008637 0.000000 0.000000 0.000000
# 2 -0.000054 0.006262 -0.002725 0.000000 0.000000 0.000000
# 3 -0.008637 -0.002725 0.007958 0.000000 0.000000 0.000000
# 4 0.000000 0.000000 0.000000 0.036866 0.000000 0.000000
# 5 0.000000 0.000000 0.000000 0.000000 0.057530 0.000000
# 6 0.000000 0.000000 0.000000 0.000000 0.000000 0.200874
#
#
# Mechanical properties :
#
#
# Convention : Reuss Voigt Hill
#
# Bulk Modulus (GPa) = 19.82110 70.25535 45.03823
# Shear Modulus (GPa) = 12.24882 28.50621 20.37752
#
# Velocity S-wave (km/s) = 2.33049 3.55525 3.00591
# Velocity P-wave (km/s) = 4.00380 6.92854 5.65841
#
# Compressibility (1/GPa) = 0.05045127
#
# Stress axis : x y z
#
# Youngs Moduli (GPa) = 16.93107 159.68072 125.66086
#
# Poissons Ratio (x) = 0.00862 1.08539
# Poissons Ratio (y) = 0.00091 0.34238
# Poissons Ratio (z) = 0.14624 0.43507
#
# Static dielectric constant tensor:
#      x y z
#    x 1.894930 0.000000 0.000000 
#    y 0.000000 1.845820 0.000000 
#    z 0.000000 0.000000 1.844680 
# 
# From -- ./inp_files/5053.got.cif
#   From: 2010.05.17/outbox.cif.g08.bks.cpg/sg48_3_cif.got.tgz:5053.got - 2010.06.03 20:39:00.
