data_PCOD9390856
_publ_section_title
;
Structure prediction by ZEFSAII (Michael W. Deem and Ramdas Pophale) SiO2 
 PCOD9390856
Probable space group: P N N N
;
_chemical_formula_sum "Si O2"
_cell_formula_units_Z 40
_cell_length_a 19.162958
_cell_length_b 7.830461
_cell_length_c 11.998706
_cell_angle_alpha 90.000000
_cell_angle_beta 90.000000
_cell_angle_gamma 90.000000
_cell_volume 1800.463372
_symmetry_space_group_name_H-M "P N N N"
_symmetry_group_IT_number 48
_space_group.IT_coordinate_system_code '2'
_symmetry_cell_setting 'orthorhombic'
loop_
_space_group_symop_operation_xyz
x,y,z
1/2-x,1/2-y,z
x,1/2-y,1/2-z
1/2-x,y,1/2-z
-x,-y,-z
1/2+x,1/2+y,-z
-x,1/2+y,1/2+z
1/2+x,-y,1/2+z
loop_
_atom_site_type_symbol
_atom_site_label
_atom_site_fract_x
_atom_site_fract_y
_atom_site_fract_z
Si Si1 0.704398 0.418408 0.972837
Si Si2 0.841789 0.909685 0.506363
Si Si3 0.901743 0.215493 0.380169
Si Si4 0.458113 0.354468 0.065105
Si Si5 0.641439 0.554323 0.754653
O O1 0.750000 0.250000 0.982475
O O2 0.757737 0.571533 0.003797
O O3 0.683860 0.447399 0.844374
O O4 0.638964 0.365290 0.050492
O O5 0.888116 0.735436 0.514026
O O6 0.858340 0.999098 0.627082
O O7 0.871029 0.032281 0.411646
O O8 0.893938 0.250000 0.250000
O O9 0.982716 0.214830 0.414267
O O10 0.432940 0.428805 0.184077
O O11 0.500000 0.500000 0.000000
O O12 0.669285 0.750000 0.750000
#
# Coordination Sequence:
#
# PCOD9390856 Si02
#       5
#     8   8   8   8   8
#     4  10  22  39  64  99 133 172 224 279 344 412
#     4  10  23  38  65  98 128 173 221 276 340 406
#     4  11  23  43  65  94 138 186 227 276 336 416
#     4  11  22  42  65  97 134 173 225 283 346 415
#     4  10  21  40  66  96 131 166 212 281 347 402
#
# _framework density 22.216501999999998
#
# number of rings (size 3 to 8) (size 9 to 14) (size 15 to 20)
#    0.000    1.600    2.000    3.000    0.000   14.800 
#    0.000    3.000    0.000    0.000   20.800    0.000 
#    0.000    0.000    0.000    0.000    0.000    0.000 
#
# Total GULP energy -223016.392570 kJ/mol
# GULP energy per Si atom -5575.409814 kJ/mol
# Density = 2.216594 g / cm^3
# Si number density = 22.216502 Si / 1000 Ang^3
#
#
#
# Elastic Constant Matrix: (Units=GPa)
#
#
# Indices 1 2 3 4 5 6 
#
# 1 143.1555 21.3401 12.7602 0.0000 0.0000 0.0000
# 2 21.3401 74.3245 19.3603 0.0000 0.0000 0.0000
# 3 12.7602 19.3603 72.2419 0.0000 0.0000 0.0000
# 4 0.0000 0.0000 0.0000 34.4902 0.0000 0.0000
# 5 0.0000 0.0000 0.0000 0.0000 27.0389 0.0000
# 6 0.0000 0.0000 0.0000 0.0000 0.0000 36.5592
#
#
#
# Elastic Compliance Matrix: (Units=1/GPa)
#
#
# Indices 1 2 3 4 5 6 
#
# 1 0.007339 -0.001902 -0.000787 0.000000 0.000000 0.000000
# 2 -0.001902 0.014957 -0.003672 0.000000 0.000000 0.000000
# 3 -0.000787 -0.003672 0.014965 0.000000 0.000000 0.000000
# 4 0.000000 0.000000 0.000000 0.028994 0.000000 0.000000
# 5 0.000000 0.000000 0.000000 0.000000 0.036984 0.000000
# 6 0.000000 0.000000 0.000000 0.000000 0.000000 0.027353
#
#
# Mechanical properties :
#
#
# Convention : Reuss Voigt Hill
#
# Bulk Modulus (GPa) = 40.75087 44.07145 42.41116
# Shear Modulus (GPa) = 33.00447 35.36842 34.18645
#
# Velocity S-wave (km/s) = 3.85851 3.99430 3.92699
# Velocity P-wave (km/s) = 6.18330 6.41505 6.30024
#
# Compressibility (1/GPa) = 0.02453936
#
# Stress axis : x y z
#
# Youngs Moduli (GPa) = 136.25657 66.85693 66.82044
#
# Poissons Ratio (x) = 0.12718 0.05255
# Poissons Ratio (y) = 0.25921 0.24539
# Poissons Ratio (z) = 0.10717 0.24553
#
# Static dielectric constant tensor:
#      x y z
#    x 1.887650 0.000000 0.000000 
#    y 0.000000 1.870500 0.000000 
#    z 0.000000 0.000000 1.777910 
# 
# From -- ./inp_files/21918.got.cif
#   From: 2010.05.17/outbox.cif.g08.bks.cpg/sg48_11_cif.got.tgz:21918.got - 2010.06.03 20:39:00.
