data_PCOD9390624
_publ_section_title
;
Structure prediction by ZEFSAII (Michael W. Deem and Ramdas Pophale) SiO2 
 PCOD9390624
Probable space group: P N N N
;
_chemical_formula_sum "Si O2"
_cell_formula_units_Z 48
_cell_length_a 11.158990
_cell_length_b 12.162620
_cell_length_c 19.518644
_cell_angle_alpha 90.000000
_cell_angle_beta 90.000000
_cell_angle_gamma 90.000000
_cell_volume 2649.120233
_symmetry_space_group_name_H-M "P N N N"
_symmetry_group_IT_number 48
_space_group.IT_coordinate_system_code '2'
_symmetry_cell_setting 'orthorhombic'
loop_
_space_group_symop_operation_xyz
x,y,z
1/2-x,1/2-y,z
x,1/2-y,1/2-z
1/2-x,y,1/2-z
-x,-y,-z
1/2+x,1/2+y,-z
-x,1/2+y,1/2+z
1/2+x,-y,1/2+z
loop_
_atom_site_type_symbol
_atom_site_label
_atom_site_fract_x
_atom_site_fract_y
_atom_site_fract_z
Si Si1 0.890231 0.572823 0.468826
Si Si2 0.657752 0.061266 0.033061
Si Si3 0.250000 0.750000 0.051379
Si Si4 0.949119 0.171136 0.855825
Si Si5 0.250000 0.250000 0.063627
Si Si6 0.882655 0.395666 0.780248
Si Si7 0.420586 0.430860 0.396428
O O1 0.786810 0.486963 0.446919
O O2 0.826841 0.661245 0.519308
O O3 0.000000 0.500000 0.500000
O O4 0.944179 0.643935 0.406653
O O5 0.563812 0.069380 0.094531
O O6 0.665238 0.179651 0.996968
O O7 0.616674 0.984124 0.969730
O O8 0.172448 0.832005 0.098495
O O9 0.937453 0.292665 0.822520
O O10 0.953642 0.090830 0.790812
O O11 0.348812 0.182561 0.106022
O O12 0.750000 0.371760 0.750000
O O13 0.883315 0.495277 0.832466
#
# Coordination Sequence:
#
# PCOD9390624 Si02
#       7
#     8   8   4   8   4   8   8
#     4  11  23  37  61  93 129 164 203 258 314 380
#     4  10  21  34  60  87 121 161 195 255 315 368
#     4  12  16  33  60  92 119 148 204 258 308 362
#     4  11  20  34  58  93 120 154 205 256 309 361
#     4  10  24  40  61  95 126 154 214 264 308 376
#     4  11  21  36  61  88 119 160 207 257 308 367
#     4  10  21  39  58  85 123 159 201 257 316 363
#
# _framework density 18.119223000000002
#
# number of rings (size 3 to 8) (size 9 to 14) (size 15 to 20)
#    0.000    1.333    5.000    1.500    7.000    0.000 
#    0.000    1.250    0.000    0.000    0.000    1.167 
#    0.000    0.000    0.000    0.000    0.000    0.000 
#
# Total GULP energy -267384.817426 kJ/mol
# GULP energy per Si atom -5570.517030 kJ/mol
# Density = 1.807798 g / cm^3
# Si number density = 18.119223 Si / 1000 Ang^3
#
#
#
# Elastic Constant Matrix: (Units=GPa)
#
#
# Indices 1 2 3 4 5 6 
#
# 1 117.4584 44.2038 46.7679 0.0000 0.0000 0.0000
# 2 44.2038 84.4977 42.2770 0.0000 0.0000 0.0000
# 3 46.7679 42.2770 79.6697 0.0000 0.0000 0.0000
# 4 0.0000 0.0000 0.0000 -23.1723 0.0000 0.0000
# 5 0.0000 0.0000 0.0000 0.0000 22.2048 0.0000
# 6 0.0000 0.0000 0.0000 0.0000 0.0000 23.0510
#
#
#
# Elastic Compliance Matrix: (Units=1/GPa)
#
#
# Indices 1 2 3 4 5 6 
#
# 1 0.011912 -0.003721 -0.005018 0.000000 0.000000 0.000000
# 2 -0.003721 0.017275 -0.006983 0.000000 0.000000 0.000000
# 3 -0.005018 -0.006983 0.019203 0.000000 0.000000 0.000000
# 4 0.000000 0.000000 0.000000 -0.043155 0.000000 0.000000
# 5 0.000000 0.000000 0.000000 0.000000 0.045035 0.000000
# 6 0.000000 0.000000 0.000000 0.000000 0.000000 0.043382
#
#
# Mechanical properties :
#
#
# Convention : Reuss Voigt Hill
#
# Bulk Modulus (GPa) = 59.00956 60.90258 59.95607
# Shear Modulus (GPa) = 38.24257 14.30852 26.27554
#
# Velocity S-wave (km/s) = 4.59912 2.81319 3.81221
# Velocity P-wave (km/s) = 7.80004 6.65110 7.24837
#
# Compressibility (1/GPa) = 0.01694641
#
# Stress axis : x y z
#
# Youngs Moduli (GPa) = 83.94906 57.88766 52.07525
#
# Poissons Ratio (x) = 0.21539 0.26132
# Poissons Ratio (y) = 0.31236 0.36363
# Poissons Ratio (z) = 0.42127 0.40421
#
# Static dielectric constant tensor:
#      x y z
#    x 1.685240 0.000000 0.000000 
#    y 0.000000 1.650120 0.000000 
#    z 0.000000 0.000000 1.622460 
# 
# From -- ./inp_files/34131.got.cif
#   From: 2010.05.17/outbox.cif.g08.bks.cpg/sg48_18_cif.got.tgz:34131.got - 2010.06.03 20:39:00.
