data_PCOD9390585
_publ_section_title
;
Structure prediction by ZEFSAII (Michael W. Deem and Ramdas Pophale) SiO2 
 PCOD9390585
Probable space group: P N N N
;
_chemical_formula_sum "Si O2"
_cell_formula_units_Z 48
_cell_length_a 8.257496
_cell_length_b 13.018907
_cell_length_c 18.040704
_cell_angle_alpha 90.000000
_cell_angle_beta 90.000000
_cell_angle_gamma 90.000000
_cell_volume 1939.440130
_symmetry_space_group_name_H-M "P N N N"
_symmetry_group_IT_number 48
_space_group.IT_coordinate_system_code '2'
_symmetry_cell_setting 'orthorhombic'
loop_
_space_group_symop_operation_xyz
x,y,z
1/2-x,1/2-y,z
x,1/2-y,1/2-z
1/2-x,y,1/2-z
-x,-y,-z
1/2+x,1/2+y,-z
-x,1/2+y,1/2+z
1/2+x,-y,1/2+z
loop_
_atom_site_type_symbol
_atom_site_label
_atom_site_fract_x
_atom_site_fract_y
_atom_site_fract_z
Si Si1 0.733624 0.487792 0.937624
Si Si2 0.105659 0.399872 0.192219
Si Si3 0.441486 0.769229 0.595975
Si Si4 0.591866 0.507506 0.094853
Si Si5 0.428727 0.702962 0.435543
Si Si6 0.123481 0.095889 0.689286
O O1 0.807602 0.569754 0.884077
O O2 0.578778 0.434291 0.896088
O O3 0.876344 0.411948 0.958850
O O4 0.654370 0.526325 0.012107
O O5 0.250000 0.379837 0.250000
O O6 0.004918 0.301014 0.163668
O O7 0.002226 0.503828 0.213916
O O8 0.250000 0.750000 0.589047
O O9 0.455405 0.889871 0.610612
O O10 0.504609 0.748541 0.511348
O O11 0.747477 0.534979 0.140339
O O12 0.250000 0.750000 0.420089
O O13 0.534906 0.681889 0.361716
O O14 0.250000 0.137355 0.750000
#
# Coordination Sequence:
#
# PCOD9390585 Si02
#       6
#     8   8   8   8   8   8
#     4  10  21  38  65 100 132 174 228 282 339 410
#     4  11  23  41  65  96 143 191 229 273 352 431
#     4  11  20  40  70 107 135 174 230 295 349 403
#     4  11  21  39  68 103 138 172 229 290 346 406
#     4  10  20  42  72 103 133 173 236 301 350 397
#     4  11  23  41  67  99 139 189 231 280 351 431
#
# _framework density 24.749410999999998
#
# number of rings (size 3 to 8) (size 9 to 14) (size 15 to 20)
#    0.000    1.333    5.000    2.000    0.000    3.333 
#    0.000    9.167    0.000   23.000    0.000    0.000 
#    0.000    0.000    0.000    0.000    0.000    0.000 
#
# Total GULP energy -267902.128941 kJ/mol
# GULP energy per Si atom -5581.294353 kJ/mol
# Density = 2.469308 g / cm^3
# Si number density = 24.749411 Si / 1000 Ang^3
#
#
#
# Elastic Constant Matrix: (Units=GPa)
#
#
# Indices 1 2 3 4 5 6 
#
# 1 96.2688 31.5119 46.0307 0.0000 0.0000 0.0000
# 2 31.5119 86.3570 56.7291 0.0000 0.0000 0.0000
# 3 46.0307 56.7291 102.9388 0.0000 0.0000 0.0000
# 4 0.0000 0.0000 0.0000 75.7618 0.0000 0.0000
# 5 0.0000 0.0000 0.0000 0.0000 57.0915 0.0000
# 6 0.0000 0.0000 0.0000 0.0000 0.0000 29.0590
#
#
#
# Elastic Compliance Matrix: (Units=1/GPa)
#
#
# Indices 1 2 3 4 5 6 
#
# 1 0.013333 -0.001487 -0.005143 0.000000 0.000000 0.000000
# 2 -0.001487 0.018317 -0.009429 0.000000 0.000000 0.000000
# 3 -0.005143 -0.009429 0.017211 0.000000 0.000000 0.000000
# 4 0.000000 0.000000 0.000000 0.013199 0.000000 0.000000
# 5 0.000000 0.000000 0.000000 0.000000 0.017516 0.000000
# 6 0.000000 0.000000 0.000000 0.000000 0.000000 0.034413
#
#
# Mechanical properties :
#
#
# Convention : Reuss Voigt Hill
#
# Bulk Modulus (GPa) = 59.72817 61.56757 60.64787
# Shear Modulus (GPa) = 32.96259 42.46865 37.71562
#
# Velocity S-wave (km/s) = 3.65342 4.14689 3.90795
# Velocity P-wave (km/s) = 6.47936 6.91804 6.70229
#
# Compressibility (1/GPa) = 0.01674252
#
# Stress axis : x y z
#
# Youngs Moduli (GPa) = 75.00012 54.59510 58.10386
#
# Poissons Ratio (x) = 0.08119 0.29881
# Poissons Ratio (y) = 0.11153 0.54788
# Poissons Ratio (z) = 0.38570 0.51479
#
# Static dielectric constant tensor:
#      x y z
#    x 2.119240 0.000000 0.000000 
#    y 0.000000 2.259800 0.000000 
#    z 0.000000 0.000000 2.150650 
# 
# From -- ./inp_files/30261.got.cif
#   From: 2010.05.17/outbox.cif.g08.bks.cpg/sg48_16_cif.got.tgz:30261.got - 2010.06.03 20:39:00.
