data_PCOD9390818
_publ_section_title
;
Structure prediction by ZEFSAII (Michael W. Deem and Ramdas Pophale) SiO2 
 PCOD9390818
Probable space group: P N N N
;
_chemical_formula_sum "Si O2"
_cell_formula_units_Z 48
_cell_length_a 8.600256
_cell_length_b 14.204576
_cell_length_c 17.465669
_cell_angle_alpha 90.000000
_cell_angle_beta 90.000000
_cell_angle_gamma 90.000000
_cell_volume 2133.658347
_symmetry_space_group_name_H-M "P N N N"
_symmetry_group_IT_number 48
_space_group.IT_coordinate_system_code '2'
_symmetry_cell_setting 'orthorhombic'
loop_
_space_group_symop_operation_xyz
x,y,z
1/2-x,1/2-y,z
x,1/2-y,1/2-z
1/2-x,y,1/2-z
-x,-y,-z
1/2+x,1/2+y,-z
-x,1/2+y,1/2+z
1/2+x,-y,1/2+z
loop_
_atom_site_type_symbol
_atom_site_label
_atom_site_fract_x
_atom_site_fract_y
_atom_site_fract_z
Si Si1 0.442491 0.313537 0.819478
Si Si2 0.340925 0.521295 0.827764
Si Si3 0.253586 0.585041 0.505591
Si Si4 0.513918 0.242766 0.980055
Si Si5 0.250000 0.598798 0.250000
Si Si6 0.250000 0.250000 0.396337
Si Si7 0.206466 0.046158 0.135759
O O1 0.396654 0.250000 0.750000
O O2 0.345341 0.408080 0.829404
O O3 0.442710 0.254559 0.896660
O O4 0.618659 0.344264 0.794601
O O5 0.250000 0.551118 0.750000
O O6 0.262669 0.559009 0.905444
O O7 0.526027 0.545691 0.835825
O O8 0.414444 0.638800 0.489108
O O9 0.133831 0.669702 0.485935
O O10 0.216313 0.496373 0.450470
O O11 0.396257 0.260393 0.048227
O O12 0.190862 0.527078 0.184952
O O13 0.266091 0.348531 0.353728
#
# Coordination Sequence:
#
# PCOD9390818 Si02
#       7
#     8   8   8   8   4   4   8
#     4  11  23  39  67 107 143 180 232 308 367 430
#     4  11  24  43  70 100 144 191 237 294 371 429
#     4  11  22  46  74 101 141 199 240 284 368 450
#     4  11  24  42  75 106 137 189 249 294 355 446
#     4  10  21  39  68  94 136 186 232 290 372 426
#     4  12  26  43  71 104 136 190 252 304 355 424
#     4  11  23  44  70  99 142 189 239 303 358 444
#
# _framework density 22.496572
#
# number of rings (size 3 to 8) (size 9 to 14) (size 15 to 20)
#    0.000    1.000    5.000    2.750    2.333    6.667 
#    0.000    1.667    0.000    0.000    0.000    0.000 
#    0.000    0.000    0.000    0.000    0.000    0.000 
#
# Total GULP energy -268273.069087 kJ/mol
# GULP energy per Si atom -5589.022273 kJ/mol
# Density = 2.244537 g / cm^3
# Si number density = 22.496572 Si / 1000 Ang^3
#
#
#
# Elastic Constant Matrix: (Units=GPa)
#
#
# Indices 1 2 3 4 5 6 
#
# 1 24.3114 0.3947 0.4741 0.0000 0.0000 0.0000
# 2 0.3947 111.0140 24.2590 0.0000 0.0000 0.0000
# 3 0.4741 24.2590 139.4473 0.0000 0.0000 0.0000
# 4 0.0000 0.0000 0.0000 45.0092 0.0000 0.0000
# 5 0.0000 0.0000 0.0000 0.0000 39.3709 0.0000
# 6 0.0000 0.0000 0.0000 0.0000 0.0000 23.3969
#
#
#
# Elastic Compliance Matrix: (Units=1/GPa)
#
#
# Indices 1 2 3 4 5 6 
#
# 1 0.041137 -0.000120 -0.000119 0.000000 0.000000 0.000000
# 2 -0.000120 0.009364 -0.001629 0.000000 0.000000 0.000000
# 3 -0.000119 -0.001629 0.007455 0.000000 0.000000 0.000000
# 4 0.000000 0.000000 0.000000 0.022218 0.000000 0.000000
# 5 0.000000 0.000000 0.000000 0.000000 0.025399 0.000000
# 6 0.000000 0.000000 0.000000 0.000000 0.000000 0.042741
#
#
# Mechanical properties :
#
#
# Convention : Reuss Voigt Hill
#
# Bulk Modulus (GPa) = 18.44318 36.11427 27.27873
# Shear Modulus (GPa) = 29.39044 38.19841 33.79442
#
# Velocity S-wave (km/s) = 3.61839 4.12511 3.88003
# Velocity P-wave (km/s) = 5.06686 6.22710 5.67670
#
# Compressibility (1/GPa) = 0.05422057
#
# Stress axis : x y z
#
# Youngs Moduli (GPa) = 24.30891 106.78979 134.13998
#
# Poissons Ratio (x) = 0.01285 0.01595
# Poissons Ratio (y) = 0.00292 0.21847
# Poissons Ratio (z) = 0.00289 0.17392
#
# Static dielectric constant tensor:
#      x y z
#    x 1.914690 0.000000 0.000000 
#    y 0.000000 1.855240 0.000000 
#    z 0.000000 0.000000 1.829660 
# 
# From -- ./inp_files/30288.got.cif
#   From: 2010.05.17/outbox.cif.g08.bks.cpg/sg48_16_cif.got.tgz:30288.got - 2010.06.03 20:39:00.
