data_PCOD9390150
_publ_section_title
;
Structure prediction by ZEFSAII (Michael W. Deem and Ramdas Pophale) SiO2 
 PCOD9390150
Probable space group: P N N N
;
_chemical_formula_sum "Si O2"
_cell_formula_units_Z 52
_cell_length_a 5.166179
_cell_length_b 33.934722
_cell_length_c 19.404157
_cell_angle_alpha 90.000000
_cell_angle_beta 90.000000
_cell_angle_gamma 90.000000
_cell_volume 3401.798030
_symmetry_space_group_name_H-M "P N N N"
_symmetry_group_IT_number 48
_space_group.IT_coordinate_system_code '2'
_symmetry_cell_setting 'orthorhombic'
loop_
_space_group_symop_operation_xyz
x,y,z
1/2-x,1/2-y,z
x,1/2-y,1/2-z
1/2-x,y,1/2-z
-x,-y,-z
1/2+x,1/2+y,-z
-x,1/2+y,1/2+z
1/2+x,-y,1/2+z
loop_
_atom_site_type_symbol
_atom_site_label
_atom_site_fract_x
_atom_site_fract_y
_atom_site_fract_z
Si Si1 0.482645 0.399259 0.966670
Si Si2 0.213086 0.296555 0.668852
Si Si3 0.288814 0.840359 0.125949
Si Si4 0.750000 0.400686 0.750000
Si Si5 0.550690 0.495056 0.614464
Si Si6 0.056847 0.457195 0.665855
Si Si7 0.520275 0.434814 0.483887
O O1 0.639546 0.361335 0.937700
O O2 0.445826 0.427163 0.899575
O O3 0.197513 0.401564 0.000519
O O4 0.689440 0.418550 0.018347
O O5 0.250000 0.250000 0.660078
O O6 0.250000 0.306348 0.750000
O O7 0.427998 0.320319 0.624045
O O8 0.921336 0.308758 0.651483
O O9 0.316358 0.873848 0.184737
O O10 0.983975 0.428877 0.728655
O O11 0.815324 0.485813 0.652605
O O12 0.526949 0.464703 0.549548
O O13 0.542496 0.538243 0.581591
O O14 0.312006 0.483209 0.662568
#
# Coordination Sequence:
#
# PCOD9390150 Si02
#       7
#     8   8   8   4   8   8   8
#     4   9  17  26  40  57  72  87 113 140 188 225
#     4  11  21  33  45  57  72  96 125 151 187 235
#     4  11  20  32  44  59  75  96 118 157 194 236
#     4  10  20  30  41  54  78  96 124 160 200 226
#     4   9  16  26  38  51  70  91 118 138 174 218
#     4   9  18  26  36  53  69  95 118 145 178 228
#     4   9  15  26  39  54  71  90 109 144 172 222
#
# _framework density 15.286034000000001
#
# number of rings (size 3 to 8) (size 9 to 14) (size 15 to 20)
#    0.000    2.308    1.538    2.308    0.000   10.462 
#    0.000    0.000    0.000    0.000    0.000    0.000 
#    0.000    0.000    0.000    0.000    0.000    0.000 
#
# Total GULP energy -289732.248900 kJ/mol
# GULP energy per Si atom -5571.774017 kJ/mol
# Density = 1.525124 g / cm^3
# Si number density = 15.286034 Si / 1000 Ang^3
#
#
#
# Elastic Constant Matrix: (Units=GPa)
#
#
# Indices 1 2 3 4 5 6 
#
# 1 81.3301 3.9000 11.2682 0.0000 0.0000 0.0000
# 2 3.9000 35.6742 17.4673 0.0000 0.0000 0.0000
# 3 11.2682 17.4673 15.2463 0.0000 0.0000 0.0000
# 4 0.0000 0.0000 0.0000 -8.9701 0.0000 0.0000
# 5 0.0000 0.0000 0.0000 0.0000 12.1559 0.0000
# 6 0.0000 0.0000 0.0000 0.0000 0.0000 -2.7324
#
#
#
# Elastic Compliance Matrix: (Units=1/GPa)
#
#
# Indices 1 2 3 4 5 6 
#
# 1 0.014745 0.008482 -0.020616 0.000000 0.000000 0.000000
# 2 0.008482 0.068727 -0.085008 0.000000 0.000000 0.000000
# 3 -0.020616 -0.085008 0.178218 0.000000 0.000000 0.000000
# 4 0.000000 0.000000 0.000000 -0.111482 0.000000 0.000000
# 5 0.000000 0.000000 0.000000 0.000000 0.082265 0.000000
# 6 0.000000 0.000000 0.000000 0.000000 0.000000 -0.365973
#
#
# Mechanical properties :
#
#
# Convention : Reuss Voigt Hill
#
# Bulk Modulus (GPa) = 14.83520 21.94686 18.39103
# Shear Modulus (GPa) = 60.06015 6.73168 33.39592
#
# Velocity S-wave (km/s) = 6.27504 2.10080 4.67918
# Velocity P-wave (km/s) = 7.88845 4.50257 6.42265
#
# Compressibility (1/GPa) = 0.06740726
#
# Stress axis : x y z
#
# Youngs Moduli (GPa) = 67.81916 14.55036 5.61112
#
# Poissons Ratio (x) = -0.12342 0.11568
# Poissons Ratio (y) = -0.57525 0.47699
# Poissons Ratio (z) = 1.39813 1.23689
#
# Static dielectric constant tensor:
#      x y z
#    x 1.522470 0.000000 0.000000 
#    y 0.000000 1.519070 0.000000 
#    z 0.000000 0.000000 1.517370 
# 
# From -- ./inp_files/33072.got.cif
#   From: 2010.05.17/outbox.cif.g08.bks.cpg/sg48_17_cif.got.tgz:33072.got - 2010.06.03 20:39:00.
