data_PCOD9390503
_publ_section_title
;
Structure prediction by ZEFSAII (Michael W. Deem and Ramdas Pophale) SiO2 
 PCOD9390503
Probable space group: P N N N
;
_chemical_formula_sum "Si O2"
_cell_formula_units_Z 64
_cell_length_a 11.494956
_cell_length_b 17.939850
_cell_length_c 14.611054
_cell_angle_alpha 90.000000
_cell_angle_beta 90.000000
_cell_angle_gamma 90.000000
_cell_volume 3013.059213
_symmetry_space_group_name_H-M "P N N N"
_symmetry_group_IT_number 48
_space_group.IT_coordinate_system_code '2'
_symmetry_cell_setting 'orthorhombic'
loop_
_space_group_symop_operation_xyz
x,y,z
1/2-x,1/2-y,z
x,1/2-y,1/2-z
1/2-x,y,1/2-z
-x,-y,-z
1/2+x,1/2+y,-z
-x,1/2+y,1/2+z
1/2+x,-y,1/2+z
loop_
_atom_site_type_symbol
_atom_site_label
_atom_site_fract_x
_atom_site_fract_y
_atom_site_fract_z
Si Si1 0.721711 0.829779 0.104363
Si Si2 0.637088 0.794316 0.904092
Si Si3 0.487129 0.089291 0.179375
Si Si4 0.546510 0.918781 0.392696
Si Si5 0.406658 0.931375 0.005251
Si Si6 0.422436 0.696941 0.830118
Si Si7 0.487569 0.086981 0.810539
Si Si8 0.648889 0.071103 0.452991
O O1 0.750000 0.750000 0.148179
O O2 0.844087 0.867584 0.081387
O O3 0.641315 0.884469 0.163451
O O4 0.652288 0.811256 0.011229
O O5 0.750000 0.750000 0.873560
O O6 0.632495 0.873897 0.853371
O O7 0.524772 0.744000 0.879489
O O8 0.566754 0.109506 0.090639
O O9 0.519959 0.131227 0.270696
O O10 0.496665 0.001980 0.191507
O O11 0.496042 0.891577 0.295078
O O12 0.446871 0.917706 0.468380
O O13 0.601446 0.002385 0.391574
O O14 0.272209 0.952807 0.996402
O O15 0.432920 0.890769 0.101741
O O16 0.500000 0.000000 0.000000
O O17 0.372971 0.750000 0.750000
O O18 0.342223 0.650007 0.899185
#
# Coordination Sequence:
#
# PCOD9390503 Si02
#       8
#     8   8   8   8   8   8   8   8
#     4  11  23  42  73 103 138 179 235 302 355 421
#     4  10  21  39  66 102 147 188 232 286 361 426
#     4  10  20  39  63  97 136 184 236 282 346 432
#     4  11  24  40  67 103 141 187 234 296 360 413
#     4  10  22  40  65  92 132 184 233 288 351 417
#     4  10  22  42  67  99 144 184 230 289 366 425
#     4  11  22  41  66 102 135 187 243 286 352 432
#     4  11  23  43  65  99 143 182 236 299 351 428
#
# _framework density 21.240870000000001
#
# number of rings (size 3 to 8) (size 9 to 14) (size 15 to 20)
#    0.000    1.500    2.500    3.375    1.750    4.250 
#    0.000    6.875    0.000    0.000    0.000    1.750 
#    0.000    0.000    0.000    0.000    0.000    0.000 
#
# Total GULP energy -356757.033663 kJ/mol
# GULP energy per Si atom -5574.328651 kJ/mol
# Density = 2.119253 g / cm^3
# Si number density = 21.240870 Si / 1000 Ang^3
#
#
#
# Elastic Constant Matrix: (Units=GPa)
#
#
# Indices 1 2 3 4 5 6 
#
# 1 89.5844 42.8795 26.9625 0.0000 0.0000 0.0000
# 2 42.8795 108.7543 9.4176 0.0000 0.0000 0.0000
# 3 26.9625 9.4176 99.8736 0.0000 0.0000 0.0000
# 4 0.0000 0.0000 0.0000 31.0660 0.0000 0.0000
# 5 0.0000 0.0000 0.0000 0.0000 0.5659 0.0000
# 6 0.0000 0.0000 0.0000 0.0000 0.0000 38.8977
#
#
#
# Elastic Compliance Matrix: (Units=1/GPa)
#
#
# Indices 1 2 3 4 5 6 
#
# 1 0.014876 -0.005563 -0.003492 0.000000 0.000000 0.000000
# 2 -0.005563 0.011351 0.000431 0.000000 0.000000 0.000000
# 3 -0.003492 0.000431 0.010915 0.000000 0.000000 0.000000
# 4 0.000000 0.000000 0.000000 0.032190 0.000000 0.000000
# 5 0.000000 0.000000 0.000000 0.000000 1.767245 0.000000
# 6 0.000000 0.000000 0.000000 0.000000 0.000000 0.025708
#
#
# Mechanical properties :
#
#
# Convention : Reuss Voigt Hill
#
# Bulk Modulus (GPa) = 50.26206 50.74795 50.50501
# Shear Modulus (GPa) = 2.65088 28.70275 15.67682
#
# Velocity S-wave (km/s) = 1.11836 3.67999 2.71965
# Velocity P-wave (km/s) = 5.03805 6.48074 5.80439
#
# Compressibility (1/GPa) = 0.01989572
#
# Stress axis : x y z
#
# Youngs Moduli (GPa) = 67.22127 88.09749 91.62074
#
# Poissons Ratio (x) = 0.49009 0.31990
# Poissons Ratio (y) = 0.37395 -0.03953
# Poissons Ratio (z) = 0.23470 -0.03801
#
# Static dielectric constant tensor:
#      x y z
#    x 1.773000 0.000000 0.000000 
#    y 0.000000 1.846780 0.000000 
#    z 0.000000 0.000000 1.884100 
# 
# From -- ./inp_files/26726.got.cif
#   From: 2010.05.17/outbox.cif.g08.bks.cpg/sg48_14_cif.got.tgz:26726.got - 2010.06.03 20:39:00.
