data_PCOD9390515
_publ_section_title
;
Structure prediction by ZEFSAII (Michael W. Deem and Ramdas Pophale) SiO2 
 PCOD9390515
Probable space group: P N N N
;
_chemical_formula_sum "Si O2"
_cell_formula_units_Z 64
_cell_length_a 19.867561
_cell_length_b 9.614592
_cell_length_c 16.177348
_cell_angle_alpha 90.000000
_cell_angle_beta 90.000000
_cell_angle_gamma 90.000000
_cell_volume 3090.172637
_symmetry_space_group_name_H-M "P N N N"
_symmetry_group_IT_number 48
_space_group.IT_coordinate_system_code '2'
_symmetry_cell_setting 'orthorhombic'
loop_
_space_group_symop_operation_xyz
x,y,z
1/2-x,1/2-y,z
x,1/2-y,1/2-z
1/2-x,y,1/2-z
-x,-y,-z
1/2+x,1/2+y,-z
-x,1/2+y,1/2+z
1/2+x,-y,1/2+z
loop_
_atom_site_type_symbol
_atom_site_label
_atom_site_fract_x
_atom_site_fract_y
_atom_site_fract_z
Si Si1 0.149658 0.084974 0.962295
Si Si2 0.744281 0.562837 0.607162
Si Si3 0.923210 0.160509 0.960336
Si Si4 0.143127 0.575078 0.978301
Si Si5 0.251278 0.581413 0.846063
Si Si6 0.059325 0.324398 0.995713
Si Si7 0.114059 0.146032 0.322415
Si Si8 0.146593 0.604294 0.289091
O O1 0.187842 0.001328 0.890374
O O2 0.203928 0.105510 0.035628
O O3 0.118200 0.236094 0.950042
O O4 0.088927 0.987021 0.995575
O O5 0.689268 0.472584 0.555498
O O6 0.692761 0.665472 0.653339
O O7 0.790144 0.476025 0.670381
O O8 0.903599 0.136199 0.865134
O O9 0.870233 0.264005 0.004565
O O10 0.992132 0.244110 0.971091
O O11 0.184566 0.543001 0.896458
O O12 0.074837 0.484880 0.974799
O O13 0.250000 0.750000 0.853189
O O14 0.250000 0.546140 0.750000
O O15 0.071972 0.322668 0.095049
O O16 0.094609 0.250000 0.250000
O O17 0.112719 0.993420 0.280632
O O18 0.166916 0.750000 0.250000
#
# Coordination Sequence:
#
# PCOD9390515 Si02
#       8
#     8   8   8   8   8   8   8   8
#     4  10  21  38  63  90 114 159 203 240 302 373
#     4   9  21  34  58  85 120 146 180 234 298 366
#     4  11  22  41  61  80 119 168 208 245 288 362
#     4  10  21  38  62  91 115 160 204 242 309 376
#     4  10  20  39  66  93 122 146 199 274 320 356
#     4  11  24  41  59  84 123 165 206 243 294 365
#     4  11  23  38  56  88 122 155 190 243 304 357
#     4  11  23  36  57  89 118 151 197 249 302 352
#
# _framework density 20.710816999999999
#
# number of rings (size 3 to 8) (size 9 to 14) (size 15 to 20)
#    0.000    1.625    1.250    4.125    0.000   12.500 
#    0.000    5.000    0.000    0.000    0.000    0.000 
#    0.000    0.000    0.000    0.000    0.000    0.000 
#
# Total GULP energy -357225.338289 kJ/mol
# GULP energy per Si atom -5581.645911 kJ/mol
# Density = 2.066368 g / cm^3
# Si number density = 20.710817 Si / 1000 Ang^3
#
#
#
# Elastic Constant Matrix: (Units=GPa)
#
#
# Indices 1 2 3 4 5 6 
#
# 1 75.3377 -0.1975 39.6635 0.0000 0.0000 0.0000
# 2 -0.1975 67.9518 21.8280 0.0000 0.0000 0.0000
# 3 39.6635 21.8280 138.5929 0.0000 0.0000 0.0000
# 4 0.0000 0.0000 0.0000 28.9147 0.0000 0.0000
# 5 0.0000 0.0000 0.0000 0.0000 11.8222 0.0000
# 6 0.0000 0.0000 0.0000 0.0000 0.0000 20.2867
#
#
#
# Elastic Compliance Matrix: (Units=1/GPa)
#
#
# Indices 1 2 3 4 5 6 
#
# 1 0.015787 0.001577 -0.004766 0.000000 0.000000 0.000000
# 2 0.001577 0.015658 -0.002917 0.000000 0.000000 0.000000
# 3 -0.004766 -0.002917 0.009039 0.000000 0.000000 0.000000
# 4 0.000000 0.000000 0.000000 0.034584 0.000000 0.000000
# 5 0.000000 0.000000 0.000000 0.000000 0.084587 0.000000
# 6 0.000000 0.000000 0.000000 0.000000 0.000000 0.049293
#
#
# Mechanical properties :
#
#
# Convention : Reuss Voigt Hill
#
# Bulk Modulus (GPa) = 35.37271 44.94118 40.15695
# Shear Modulus (GPa) = 21.68391 26.91062 24.29726
#
# Velocity S-wave (km/s) = 3.23922 3.60856 3.42887
# Velocity P-wave (km/s) = 5.57732 6.25370 5.92517
#
# Compressibility (1/GPa) = 0.02827038
#
# Stress axis : x y z
#
# Youngs Moduli (GPa) = 63.34281 63.86494 110.63223
#
# Poissons Ratio (x) = -0.10071 0.52732
# Poissons Ratio (y) = -0.09989 0.32276
# Poissons Ratio (z) = 0.30192 0.18632
#
# Static dielectric constant tensor:
#      x y z
#    x 1.758420 0.000000 0.000000 
#    y 0.000000 1.802680 0.000000 
#    z 0.000000 0.000000 1.715310 
# 
# From -- ./inp_files/32244.got.cif
#   From: 2010.05.17/outbox.cif.g08.bks.cpg/sg48_17_cif.got.tgz:32244.got - 2010.06.03 20:39:00.
