data_PCOD9390865
_publ_section_title
;
Structure prediction by ZEFSAII (Michael W. Deem and Ramdas Pophale) SiO2 
 PCOD9390865
Probable space group: P N N N
;
_chemical_formula_sum "Si O2"
_cell_formula_units_Z 40
_cell_length_a 12.059975
_cell_length_b 7.152385
_cell_length_c 21.163022
_cell_angle_alpha 90.000000
_cell_angle_beta 90.000000
_cell_angle_gamma 90.000000
_cell_volume 1825.471154
_symmetry_space_group_name_H-M "P N N N"
_symmetry_group_IT_number 48
_space_group.IT_coordinate_system_code '2'
_symmetry_cell_setting 'orthorhombic'
loop_
_space_group_symop_operation_xyz
x,y,z
1/2-x,1/2-y,z
x,1/2-y,1/2-z
1/2-x,y,1/2-z
-x,-y,-z
1/2+x,1/2+y,-z
-x,1/2+y,1/2+z
1/2+x,-y,1/2+z
loop_
_atom_site_type_symbol
_atom_site_label
_atom_site_fract_x
_atom_site_fract_y
_atom_site_fract_z
Si Si1 0.008376 0.794097 0.819033
Si Si2 0.870970 0.842584 0.188761
Si Si3 0.046844 0.059364 0.598498
Si Si4 0.906553 0.928077 0.950420
Si Si5 0.665024 0.999888 0.977861
O O1 0.956014 0.750000 0.750000
O O2 0.037781 0.592181 0.846444
O O3 0.941101 0.895615 0.876672
O O4 0.111349 0.936366 0.808093
O O5 0.750000 0.750000 0.188804
O O6 0.929277 0.750000 0.250000
O O7 0.918490 0.758085 0.124809
O O8 0.928843 0.090562 0.565416
O O9 0.134434 0.966778 0.550417
O O10 0.869235 0.719078 0.971038
O O11 0.790728 0.037954 0.959113
O O12 0.000000 0.000000 0.000000
#
# Coordination Sequence:
#
# PCOD9390865 Si02
#       5
#     8   8   8   8   8
#     4  11  23  43  66  99 131 174 227 274 342 411
#     4  11  24  41  62  91 131 172 212 276 336 397
#     4  10  21  42  67  94 134 173 217 283 324 402
#     4  10  21  40  68  99 132 179 224 276 340 404
#     4   9  21  41  63  98 134 171 226 278 333 393
#
# _framework density 21.912153
#
# number of rings (size 3 to 8) (size 9 to 14) (size 15 to 20)
#    0.000    1.800    2.000    1.200    5.600    0.800 
#    3.600   18.000    0.000    1.200    0.000    0.000 
#    0.000    0.000    0.000    0.000    0.000    0.000 
#
# Total GULP energy -223015.241870 kJ/mol
# GULP energy per Si atom -5575.381047 kJ/mol
# Density = 2.186228 g / cm^3
# Si number density = 21.912153 Si / 1000 Ang^3
#
#
#
# Elastic Constant Matrix: (Units=GPa)
#
#
# Indices 1 2 3 4 5 6 
#
# 1 115.8905 26.6385 50.1109 0.0000 0.0000 0.0000
# 2 26.6385 61.2254 24.9176 0.0000 0.0000 0.0000
# 3 50.1109 24.9176 167.2799 0.0000 0.0000 0.0000
# 4 0.0000 0.0000 0.0000 -1.5113 0.0000 0.0000
# 5 0.0000 0.0000 0.0000 0.0000 -0.7658 0.0000
# 6 0.0000 0.0000 0.0000 0.0000 0.0000 25.8185
#
#
#
# Elastic Compliance Matrix: (Units=1/GPa)
#
#
# Indices 1 2 3 4 5 6 
#
# 1 0.010583 -0.003528 -0.002645 0.000000 0.000000 0.000000
# 2 -0.003528 0.018563 -0.001708 0.000000 0.000000 0.000000
# 3 -0.002645 -0.001708 0.007025 0.000000 0.000000 0.000000
# 4 0.000000 0.000000 0.000000 -0.661683 0.000000 0.000000
# 5 0.000000 0.000000 0.000000 0.000000 -1.305837 0.000000
# 6 0.000000 0.000000 0.000000 0.000000 0.000000 0.038732
#
#
# Mechanical properties :
#
#
# Convention : Reuss Voigt Hill
#
# Bulk Modulus (GPa) = 48.99828 60.85887 54.92858
# Shear Modulus (GPa) = -2.67372 20.89020 9.10824
#
# Velocity S-wave (km/s) = -1.10583 3.09100 2.04101
# Velocity P-wave (km/s) = 4.55843 6.36973 5.53862
#
# Compressibility (1/GPa) = 0.02040888
#
# Stress axis : x y z
#
# Youngs Moduli (GPa) = 94.48681 53.86931 142.35378
#
# Poissons Ratio (x) = 0.19007 0.37650
# Poissons Ratio (y) = 0.33338 0.24317
# Poissons Ratio (z) = 0.24990 0.09202
#
# Static dielectric constant tensor:
#      x y z
#    x 1.434290 0.000000 0.000000 
#    y 0.000000 1.886500 0.000000 
#    z 0.000000 0.000000 1.900950 
# 
# From -- ./inp_files/3439.got.cif
#   From: 2010.05.17/outbox.cif.g08.bks.cpg/sg48_2_cif.got.tgz:3439.got - 2010.06.03 20:39:00.
