data_PCOD9390619
_publ_section_title
;
Structure prediction by ZEFSAII (Michael W. Deem and Ramdas Pophale) SiO2 
 PCOD9390619
Probable space group: P N N N
;
_chemical_formula_sum "Si O2"
_cell_formula_units_Z 64
_cell_length_a 15.037740
_cell_length_b 8.657668
_cell_length_c 22.824700
_cell_angle_alpha 90.000000
_cell_angle_beta 90.000000
_cell_angle_gamma 90.000000
_cell_volume 2971.587873
_symmetry_space_group_name_H-M "P N N N"
_symmetry_group_IT_number 48
_space_group.IT_coordinate_system_code '2'
_symmetry_cell_setting 'orthorhombic'
loop_
_space_group_symop_operation_xyz
x,y,z
1/2-x,1/2-y,z
x,1/2-y,1/2-z
1/2-x,y,1/2-z
-x,-y,-z
1/2+x,1/2+y,-z
-x,1/2+y,1/2+z
1/2+x,-y,1/2+z
loop_
_atom_site_type_symbol
_atom_site_label
_atom_site_fract_x
_atom_site_fract_y
_atom_site_fract_z
Si Si1 0.128983 0.113642 0.975528
Si Si2 0.498394 0.135832 0.421878
Si Si3 0.852271 0.729906 0.151553
Si Si4 0.708761 0.410297 0.501451
Si Si5 0.034467 0.890396 0.177955
Si Si6 0.568809 0.042487 0.097557
Si Si7 0.885758 0.403075 0.880074
Si Si8 0.350258 0.428189 0.267740
O O1 0.140843 0.211206 0.916326
O O2 0.073279 0.960807 0.956662
O O3 0.073924 0.186111 0.029329
O O4 0.222787 0.050294 0.996811
O O5 0.539713 0.283062 0.389850
O O6 0.461903 0.015959 0.374249
O O7 0.750000 0.750000 0.171389
O O8 0.876312 0.548669 0.147270
O O9 0.933039 0.823967 0.182649
O O10 0.750000 0.250000 0.478307
O O11 0.625216 0.449063 0.461302
O O12 0.682380 0.383426 0.568075
O O13 0.097240 0.750004 0.157666
O O14 0.075348 0.970267 0.234852
O O15 0.480136 0.942712 0.090876
O O16 0.860291 0.540368 0.836418
O O17 0.361345 0.250000 0.250000
O O18 0.250000 0.475499 0.250000
#
# Coordination Sequence:
#
# PCOD9390619 Si02
#       8
#     8   8   8   8   8   8   8   8
#     4  10  21  34  54  86 132 173 217 267 318 390
#     4  10  21  36  58  89 128 178 217 266 330 394
#     4  10  21  38  61  99 132 178 222 277 334 401
#     4  12  23  37  61  98 133 175 225 265 325 402
#     4  10  23  43  68  94 132 175 222 281 341 396
#     4  11  23  39  60  91 135 173 219 268 332 397
#     4  11  26  41  66  95 130 177 217 274 332 408
#     4  11  26  49  71  99 129 169 228 288 345 406
#
# _framework density 21.537306999999998
#
# number of rings (size 3 to 8) (size 9 to 14) (size 15 to 20)
#    0.000    1.375    2.500    2.250   10.500    0.500 
#    0.000    0.000    0.000    6.000    0.000    3.500 
#    0.000    0.000    0.000    0.000    0.000    0.000 
#
# Total GULP energy -357884.239999 kJ/mol
# GULP energy per Si atom -5591.941250 kJ/mol
# Density = 2.148829 g / cm^3
# Si number density = 21.537307 Si / 1000 Ang^3
#
#
#
# Elastic Constant Matrix: (Units=GPa)
#
#
# Indices 1 2 3 4 5 6 
#
# 1 86.4448 21.4463 40.7654 0.0000 0.0000 0.0000
# 2 21.4463 92.5805 7.5794 0.0000 0.0000 0.0000
# 3 40.7654 7.5794 53.6714 0.0000 0.0000 0.0000
# 4 0.0000 0.0000 0.0000 22.8043 0.0000 0.0000
# 5 0.0000 0.0000 0.0000 0.0000 12.6723 0.0000
# 6 0.0000 0.0000 0.0000 0.0000 0.0000 26.8569
#
#
#
# Elastic Compliance Matrix: (Units=1/GPa)
#
#
# Indices 1 2 3 4 5 6 
#
# 1 0.018942 -0.003248 -0.013929 0.000000 0.000000 0.000000
# 2 -0.003248 0.011485 0.000845 0.000000 0.000000 0.000000
# 3 -0.013929 0.000845 0.029092 0.000000 0.000000 0.000000
# 4 0.000000 0.000000 0.000000 0.043851 0.000000 0.000000
# 5 0.000000 0.000000 0.000000 0.000000 0.078912 0.000000
# 6 0.000000 0.000000 0.000000 0.000000 0.000000 0.037234
#
#
# Mechanical properties :
#
#
# Convention : Reuss Voigt Hill
#
# Bulk Modulus (GPa) = 37.23594 41.36435 39.30014
# Shear Modulus (GPa) = 19.14741 23.32707 21.23724
#
# Velocity S-wave (km/s) = 2.98490 3.29462 3.14358
# Velocity P-wave (km/s) = 5.40427 5.80692 5.60921
#
# Compressibility (1/GPa) = 0.02685578
#
# Stress axis : x y z
#
# Youngs Moduli (GPa) = 52.79196 87.07343 34.37376
#
# Poissons Ratio (x) = 0.28279 0.47878
# Poissons Ratio (y) = 0.17145 -0.02904
# Poissons Ratio (z) = 0.73533 -0.07357
#
# Static dielectric constant tensor:
#      x y z
#    x 1.808420 0.000000 0.000000 
#    y 0.000000 1.801660 0.000000 
#    z 0.000000 0.000000 1.757270 
# 
# From -- ./inp_files/36575.got.cif
#   From: 2010.05.17/outbox.cif.g08.bks.cpg/sg48_19_cif.got.tgz:36575.got - 2010.06.03 20:39:00.
