data_PCOD9390374
_publ_section_title
;
Structure prediction by ZEFSAII (Michael W. Deem and Ramdas Pophale) SiO2 
 PCOD9390374
Probable space group: P N N N
;
_chemical_formula_sum "Si O2"
_cell_formula_units_Z 64
_cell_length_a 8.351144
_cell_length_b 15.116683
_cell_length_c 25.681776
_cell_angle_alpha 90.000000
_cell_angle_beta 90.000000
_cell_angle_gamma 90.000000
_cell_volume 3242.108404
_symmetry_space_group_name_H-M "P N N N"
_symmetry_group_IT_number 48
_space_group.IT_coordinate_system_code '2'
_symmetry_cell_setting 'orthorhombic'
loop_
_space_group_symop_operation_xyz
x,y,z
1/2-x,1/2-y,z
x,1/2-y,1/2-z
1/2-x,y,1/2-z
-x,-y,-z
1/2+x,1/2+y,-z
-x,1/2+y,1/2+z
1/2+x,-y,1/2+z
loop_
_atom_site_type_symbol
_atom_site_label
_atom_site_fract_x
_atom_site_fract_y
_atom_site_fract_z
Si Si1 0.060981 0.250000 0.556692
Si Si2 0.438154 0.612990 0.250000
Si Si3 0.056868 0.750000 0.939130
Si Si4 0.442746 0.904637 0.864464
Si Si5 0.057720 0.585607 0.750000
Si Si6 0.557993 0.105999 0.863556
Si Si7 0.557994 0.394001 0.863556
Si Si8 0.057254 0.904637 0.864464
O O1 0.250000 0.250000 0.551904
O O2 0.988667 0.250000 0.499154
O O3 0.006878 0.165285 0.590064
O O4 0.006878 0.334715 0.590064
O O5 0.250000 0.635268 0.250000
O O6 0.463143 0.506958 0.250000
O O7 0.503458 0.639714 0.306640
O O8 0.503458 0.639714 0.193360
O O9 0.250000 0.750000 0.935383
O O10 0.998838 0.663333 0.907974
O O11 0.998838 0.836667 0.907974
O O12 0.478106 0.870692 0.805577
O O13 0.250000 0.911139 0.868560
O O14 0.510525 0.003441 0.869620
O O15 0.250000 0.566778 0.750000
O O16 0.021894 0.629308 0.694423
O O17 0.750000 0.112599 0.862800
O O18 0.510525 0.496559 0.869620
#
# Coordination Sequence:
#
# PCOD9390374 Si02
#       8
#     8   8   8   8   8   8   8   8
#     4  12  26  41  56  77 106 142 189 236 275 322
#     4   8  16  31  54  83 111 140 173 211 263 329
#     4  10  22  39  57  79 110 148 190 230 267 316
#     4   9  18  34  57  85 115 146 180 220 269 322
#     4   8  14  27  51  83 115 142 172 215 265 319
#     4  10  20  37  60  84 112 144 178 220 272 327
#     4  10  20  37  60  84 112 144 178 220 272 327
#     4   9  18  34  57  85 115 146 180 220 269 322
#
# _framework density 19.740238999999999
#
# number of rings (size 3 to 8) (size 9 to 14) (size 15 to 20)
#    0.000    2.500    0.000    1.875    0.000    4.000 
#    0.000    5.000    0.000    0.000    0.000    9.625 
#    0.000    0.000    0.000    0.000    0.000    0.000 
#
# Total GULP energy -356897.288435 kJ/mol
# GULP energy per Si atom -5576.520132 kJ/mol
# Density = 1.969531 g / cm^3
# Si number density = 19.740239 Si / 1000 Ang^3
#
#
#
# Elastic Constant Matrix: (Units=GPa)
#
#
# Indices 1 2 3 4 5 6 
#
# 1 22.2417 11.5172 10.6479 0.0000 0.0000 0.0000
# 2 11.5172 94.2157 72.0124 0.0000 0.0000 0.0000
# 3 10.6479 72.0124 169.7349 0.0000 0.0000 0.0000
# 4 0.0000 0.0000 0.0000 36.1074 0.0000 0.0000
# 5 0.0000 0.0000 0.0000 0.0000 19.7947 0.0000
# 6 0.0000 0.0000 0.0000 0.0000 0.0000 3.6936
#
#
#
# Elastic Compliance Matrix: (Units=1/GPa)
#
#
# Indices 1 2 3 4 5 6 
#
# 1 0.048067 -0.005285 -0.000773 0.000000 0.000000 0.000000
# 2 -0.005285 0.016289 -0.006579 0.000000 0.000000 0.000000
# 3 -0.000773 -0.006579 0.008731 0.000000 0.000000 0.000000
# 4 0.000000 0.000000 0.000000 0.027695 0.000000 0.000000
# 5 0.000000 0.000000 0.000000 0.000000 0.050519 0.000000
# 6 0.000000 0.000000 0.000000 0.000000 0.000000 0.270740
#
#
# Mechanical properties :
#
#
# Convention : Reuss Voigt Hill
#
# Bulk Modulus (GPa) = 20.91486 52.72748 36.82117
# Shear Modulus (GPa) = 10.79324 24.72012 17.75668
#
# Velocity S-wave (km/s) = 2.34083 3.54258 3.00245
# Velocity P-wave (km/s) = 4.23368 6.59559 5.54193
#
# Compressibility (1/GPa) = 0.04781289
#
# Stress axis : x y z
#
# Youngs Moduli (GPa) = 20.80410 61.39234 114.52990
#
# Poissons Ratio (x) = 0.32446 0.08855
# Poissons Ratio (y) = 0.10995 0.75351
# Poissons Ratio (z) = 0.01609 0.40391
#
# Static dielectric constant tensor:
#      x y z
#    x 1.677340 0.000000 0.000000 
#    y 0.000000 1.688930 0.000000 
#    z 0.000000 0.000000 1.724600 
# 
# From -- ./inp_files/36003.got.cif
#   From: 2010.05.17/outbox.cif.g08.bks.cpg/sg48_19_cif.got.tgz:36003.got - 2010.06.03 20:39:00.
