data_PCOD9390316
_publ_section_title
;
Structure prediction by ZEFSAII (Michael W. Deem and Ramdas Pophale) SiO2 
 PCOD9390316
Probable space group: P N N N
;
_chemical_formula_sum "Si O2"
_cell_formula_units_Z 64
_cell_length_a 32.022478
_cell_length_b 11.381861
_cell_length_c 8.200537
_cell_angle_alpha 90.000000
_cell_angle_beta 90.000000
_cell_angle_gamma 90.000000
_cell_volume 2988.893950
_symmetry_space_group_name_H-M "P N N N"
_symmetry_group_IT_number 48
_space_group.IT_coordinate_system_code '2'
_symmetry_cell_setting 'orthorhombic'
loop_
_space_group_symop_operation_xyz
x,y,z
1/2-x,1/2-y,z
x,1/2-y,1/2-z
1/2-x,y,1/2-z
-x,-y,-z
1/2+x,1/2+y,-z
-x,1/2+y,1/2+z
1/2+x,-y,1/2+z
loop_
_atom_site_type_symbol
_atom_site_label
_atom_site_fract_x
_atom_site_fract_y
_atom_site_fract_z
Si Si1 0.853485 0.743340 0.556576
Si Si2 0.817610 0.503222 0.546320
Si Si3 0.071748 0.973344 0.553203
Si Si4 0.889403 0.132265 0.141383
Si Si5 0.944493 0.758821 0.444187
Si Si6 0.761469 0.379333 0.059825
Si Si7 0.535233 0.262029 0.945283
Si Si8 0.841233 0.006977 0.574219
O O1 0.846843 0.750000 0.750000
O O2 0.826925 0.635850 0.489092
O O3 0.902126 0.714596 0.526065
O O4 0.842678 0.874829 0.499198
O O5 0.848143 0.415748 0.446654
O O6 0.769696 0.470311 0.524006
O O7 0.828341 0.494934 0.737434
O O8 0.091471 0.962888 0.733591
O O9 0.040722 0.866558 0.524958
O O10 0.054091 0.101589 0.519235
O O11 0.111444 0.949460 0.437216
O O12 0.881398 0.250000 0.250000
O O13 0.926498 0.162869 0.015160
O O14 0.939506 0.750000 0.250000
O O15 0.988190 0.697908 0.489738
O O16 0.750000 0.250000 0.996823
O O17 0.750000 0.381848 0.250000
O O18 0.808889 0.413578 0.024378
O O19 0.537214 0.250000 0.750000
#
# Coordination Sequence:
#
# PCOD9390316 Si02
#       8
#     8   8   8   8   8   8   8   8
#     4   9  21  40  63  89 120 156 198 245 294 354
#     4  11  22  40  64  89 120 158 196 242 300 351
#     4  10  20  37  59  81 117 154 195 242 298 347
#     4  10  22  36  57  85 117 158 194 242 300 353
#     4  10  20  36  58  85 114 153 200 247 289 349
#     4  11  26  42  62  90 124 155 195 244 291 350
#     4  10  21  36  54  83 117 154 199 245 293 349
#     4  10  22  41  63  90 119 156 200 243 295 354
#
# _framework density 21.412602
#
# number of rings (size 3 to 8) (size 9 to 14) (size 15 to 20)
#    0.000    1.875    0.000    3.000    5.250    4.000 
#    0.000    9.375    0.000    0.000    0.000    0.000 
#    0.000    0.000    0.000    0.000    0.000    0.000 
#
# Total GULP energy -357628.862516 kJ/mol
# GULP energy per Si atom -5587.950977 kJ/mol
# Density = 2.136387 g / cm^3
# Si number density = 21.412602 Si / 1000 Ang^3
#
#
#
# Elastic Constant Matrix: (Units=GPa)
#
#
# Indices 1 2 3 4 5 6 
#
# 1 72.9289 20.4607 0.0007 0.0000 0.0000 0.0000
# 2 20.4607 53.6831 -4.8163 0.0000 0.0000 0.0000
# 3 0.0007 -4.8163 42.3072 0.0000 0.0000 0.0000
# 4 0.0000 0.0000 0.0000 21.9367 0.0000 0.0000
# 5 0.0000 0.0000 0.0000 0.0000 -9.9511 0.0000
# 6 0.0000 0.0000 0.0000 0.0000 0.0000 25.4884
#
#
#
# Elastic Compliance Matrix: (Units=1/GPa)
#
#
# Indices 1 2 3 4 5 6 
#
# 1 0.015373 -0.005920 -0.000674 0.000000 0.000000 0.000000
# 2 -0.005920 0.021100 0.002402 0.000000 0.000000 0.000000
# 3 -0.000674 0.002402 0.023910 0.000000 0.000000 0.000000
# 4 0.000000 0.000000 0.000000 0.045586 0.000000 0.000000
# 5 0.000000 0.000000 0.000000 0.000000 -0.100492 0.000000
# 6 0.000000 0.000000 0.000000 0.000000 0.000000 0.039233
#
#
# Mechanical properties :
#
#
# Convention : Reuss Voigt Hill
#
# Bulk Modulus (GPa) = 19.23113 22.24549 20.73831
# Shear Modulus (GPa) = 70.99617 17.71308 44.35462
#
# Velocity S-wave (km/s) = 5.76439 2.87928 4.55623
# Velocity P-wave (km/s) = 7.30103 4.63305 6.11434
#
# Compressibility (1/GPa) = 0.05199902
#
# Stress axis : x y z
#
# Youngs Moduli (GPa) = 65.04997 47.39442 41.82331
#
# Poissons Ratio (x) = 0.28056 0.02819
# Poissons Ratio (y) = 0.38507 -0.10046
# Poissons Ratio (z) = 0.04385 -0.11384
#
# Static dielectric constant tensor:
#      x y z
#    x 1.746100 0.000000 0.000000 
#    y 0.000000 1.807610 0.000000 
#    z 0.000000 0.000000 1.779270 
# 
# From -- ./inp_files/16931.got.cif
#   From: 2010.05.17/outbox.cif.g08.bks.cpg/sg48_9_cif.got.tgz:16931.got - 2010.06.03 20:39:00.
