data_PCOD9390042
_publ_section_title
;
Structure prediction by ZEFSAII (Michael W. Deem and Ramdas Pophale) SiO2 
 PCOD9390042
Probable space group: P N N N
;
_chemical_formula_sum "Si O2"
_cell_formula_units_Z 44
_cell_length_a 7.209372
_cell_length_b 17.261407
_cell_length_c 15.270541
_cell_angle_alpha 90.000000
_cell_angle_beta 90.000000
_cell_angle_gamma 90.000000
_cell_volume 1900.325743
_symmetry_space_group_name_H-M "P N N N"
_symmetry_group_IT_number 48
_space_group.IT_coordinate_system_code '2'
_symmetry_cell_setting 'orthorhombic'
loop_
_space_group_symop_operation_xyz
x,y,z
1/2-x,1/2-y,z
x,1/2-y,1/2-z
1/2-x,y,1/2-z
-x,-y,-z
1/2+x,1/2+y,-z
-x,1/2+y,1/2+z
1/2+x,-y,1/2+z
loop_
_atom_site_type_symbol
_atom_site_label
_atom_site_fract_x
_atom_site_fract_y
_atom_site_fract_z
Si Si1 0.250000 0.014779 0.750000
Si Si2 0.748129 0.915692 0.650365
Si Si3 0.148819 0.671009 0.431457
Si Si4 0.253190 0.374298 0.534383
Si Si5 0.842706 0.451876 0.419362
Si Si6 0.072652 0.914245 0.329850
O O1 0.432721 0.069031 0.748098
O O2 0.216884 0.961244 0.666322
O O3 0.750000 0.884986 0.750000
O O4 0.814766 0.864942 0.566832
O O5 0.534946 0.929613 0.625263
O O6 0.844196 0.000278 0.650550
O O7 0.250000 0.750000 0.452931
O O8 0.202245 0.608939 0.506449
O O9 0.246935 0.639801 0.342797
O O10 0.923985 0.676759 0.435981
O O11 0.168788 0.462029 0.541040
O O12 0.426234 0.378964 0.599679
#
# Coordination Sequence:
#
# PCOD9390042 Si02
#       6
#     4   8   8   8   8   8
#     4  10  22  32  63  99 114 150 206 270 306 356
#     4  11  18  31  58  91 122 148 189 262 322 347
#     4  11  23  39  61  86 123 173 204 248 316 387
#     4  10  21  37  60  91 114 154 214 257 293 375
#     4  10  19  36  60  94 120 148 216 254 304 372
#     4  11  21  37  61  88 124 155 204 258 324 357
#
# _framework density 23.153924
#
# number of rings (size 3 to 8) (size 9 to 14) (size 15 to 20)
#    0.000    1.455    5.455    1.636    2.545    0.727 
#    0.000    0.455    0.000   20.182    0.000    1.273 
#    0.000    0.000    0.000    0.000    0.000    0.000 
#
# Total GULP energy -245270.703376 kJ/mol
# GULP energy per Si atom -5574.334168 kJ/mol
# Density = 2.310122 g / cm^3
# Si number density = 23.153924 Si / 1000 Ang^3
#
#
#
# Elastic Constant Matrix: (Units=GPa)
#
#
# Indices 1 2 3 4 5 6 
#
# 1 113.7584 26.6863 16.8629 0.0000 0.0000 0.0000
# 2 26.6863 54.8294 6.7298 0.0000 0.0000 0.0000
# 3 16.8629 6.7298 136.9432 0.0000 0.0000 0.0000
# 4 0.0000 0.0000 0.0000 7.8126 0.0000 0.0000
# 5 0.0000 0.0000 0.0000 0.0000 48.1789 0.0000
# 6 0.0000 0.0000 0.0000 0.0000 0.0000 24.3321
#
#
#
# Elastic Compliance Matrix: (Units=1/GPa)
#
#
# Indices 1 2 3 4 5 6 
#
# 1 0.010059 -0.004773 -0.001004 0.000000 0.000000 0.000000
# 2 -0.004773 0.020613 -0.000425 0.000000 0.000000 0.000000
# 3 -0.001004 -0.000425 0.007447 0.000000 0.000000 0.000000
# 4 0.000000 0.000000 0.000000 0.127999 0.000000 0.000000
# 5 0.000000 0.000000 0.000000 0.000000 0.020756 0.000000
# 6 0.000000 0.000000 0.000000 0.000000 0.000000 0.041098
#
#
# Mechanical properties :
#
#
# Convention : Reuss Voigt Hill
#
# Bulk Modulus (GPa) = 38.88744 45.12101 42.00423
# Shear Modulus (GPa) = 20.08452 33.08151 26.58302
#
# Velocity S-wave (km/s) = 2.94842 3.78400 3.39204
# Velocity P-wave (km/s) = 5.33128 6.21460 5.78981
#
# Compressibility (1/GPa) = 0.02571524
#
# Stress axis : x y z
#
# Youngs Moduli (GPa) = 99.41348 48.51191 134.28510
#
# Poissons Ratio (x) = 0.23153 0.13484
# Poissons Ratio (y) = 0.47446 0.05711
# Poissons Ratio (z) = 0.09982 0.02063
#
# Static dielectric constant tensor:
#      x y z
#    x 1.972740 0.000000 0.000000 
#    y 0.000000 1.861290 0.000000 
#    z 0.000000 0.000000 2.037410 
# 
# From -- ./inp_files/25319.got.cif
#   From: 2010.05.17/outbox.cif.g08.bks.cpg/sg48_13_cif.got.tgz:25319.got - 2010.06.03 20:39:00.
