data_PCOD9390651
_publ_section_title
;
Structure prediction by ZEFSAII (Michael W. Deem and Ramdas Pophale) SiO2 
 PCOD9390651
Probable space group: P N N N
;
_chemical_formula_sum "Si O2"
_cell_formula_units_Z 58
_cell_length_a 14.730254
_cell_length_b 17.853501
_cell_length_c 9.683716
_cell_angle_alpha 90.000000
_cell_angle_beta 90.000000
_cell_angle_gamma 90.000000
_cell_volume 2546.687590
_symmetry_space_group_name_H-M "P N N N"
_symmetry_group_IT_number 48
_space_group.IT_coordinate_system_code '2'
_symmetry_cell_setting 'orthorhombic'
loop_
_space_group_symop_operation_xyz
x,y,z
1/2-x,1/2-y,z
x,1/2-y,1/2-z
1/2-x,y,1/2-z
-x,-y,-z
1/2+x,1/2+y,-z
-x,1/2+y,1/2+z
1/2+x,-y,1/2+z
loop_
_atom_site_type_symbol
_atom_site_label
_atom_site_fract_x
_atom_site_fract_y
_atom_site_fract_z
Si Si1 0.915292 0.835110 0.063857
Si Si2 0.001596 0.427661 0.329630
Si Si3 0.357296 0.182489 0.004847
Si Si4 0.554548 0.310214 0.374225
Si Si5 0.618836 0.209916 0.612330
Si Si6 0.364103 0.544281 0.081966
Si Si7 0.250000 0.250000 0.250000
Si Si8 0.263245 0.447865 0.895194
O O1 0.857209 0.901943 0.124164
O O2 0.012502 0.815984 0.126634
O O3 0.938351 0.862576 0.906888
O O4 0.852940 0.762317 0.071058
O O5 0.072600 0.496737 0.311158
O O6 0.944184 0.390108 0.206095
O O7 0.929671 0.449835 0.447250
O O8 0.463579 0.177581 0.036863
O O9 0.308160 0.197055 0.150359
O O10 0.313602 0.113189 0.927817
O O11 0.546003 0.250000 0.250000
O O12 0.621853 0.267394 0.482051
O O13 0.646659 0.250000 0.750000
O O14 0.665484 0.129124 0.605904
O O15 0.278525 0.497184 0.030386
O O16 0.250000 0.488933 0.750000
#
# Coordination Sequence:
#
# PCOD9390651 Si02
#       8
#     8   8   8   8   8   8   2   8
#     4   9  17  31  47  76 111 155 190 228 273 337
#     4   9  16  34  57  79 110 153 192 239 284 341
#     4  11  20  28  47  79 116 154 193 221 267 347
#     4  11  18  33  57  89 112 147 199 241 280 349
#     4  10  21  35  60  87 115 148 193 256 300 342
#     4   9  19  36  55  77 117 158 191 232 306 350
#     4  12  16  28  42  64 108 160 190 206 254 328
#     4  11  23  33  48  75 119 166 190 226 281 361
#
# _framework density 22.774681999999999
#
# number of rings (size 3 to 8) (size 9 to 14) (size 15 to 20)
#    0.000    1.931    6.207    0.828    5.793    0.552 
#    0.000    0.690    0.000    0.000    0.000    1.931 
#    4.138    0.000    0.000    0.000    0.000    0.000 
#
# Total GULP energy -323154.106724 kJ/mol
# GULP energy per Si atom -5571.622530 kJ/mol
# Density = 2.272285 g / cm^3
# Si number density = 22.774682 Si / 1000 Ang^3
#
#
#
# Elastic Constant Matrix: (Units=GPa)
#
#
# Indices 1 2 3 4 5 6 
#
# 1 24.3618 11.9441 0.0498 0.0000 0.0000 0.0000
# 2 11.9441 130.0175 44.2169 0.0000 0.0000 0.0000
# 3 0.0498 44.2169 75.5238 0.0000 0.0000 0.0000
# 4 0.0000 0.0000 0.0000 21.5137 0.0000 0.0000
# 5 0.0000 0.0000 0.0000 0.0000 0.1321 0.0000
# 6 0.0000 0.0000 0.0000 0.0000 0.0000 22.0728
#
#
#
# Elastic Compliance Matrix: (Units=1/GPa)
#
#
# Indices 1 2 3 4 5 6 
#
# 1 0.043481 -0.004975 0.002884 0.000000 0.000000 0.000000
# 2 -0.004975 0.010173 -0.005953 0.000000 0.000000 0.000000
# 3 0.002884 -0.005953 0.016724 0.000000 0.000000 0.000000
# 4 0.000000 0.000000 0.000000 0.046482 0.000000 0.000000
# 5 0.000000 0.000000 0.000000 0.000000 7.571275 0.000000
# 6 0.000000 0.000000 0.000000 0.000000 0.000000 0.045305
#
#
# Mechanical properties :
#
#
# Convention : Reuss Voigt Hill
#
# Bulk Modulus (GPa) = 18.41936 38.03606 28.22771
# Shear Modulus (GPa) = 0.64370 20.32320 10.48345
#
# Velocity S-wave (km/s) = 0.53221 2.99048 2.14781
# Velocity P-wave (km/s) = 2.91254 5.35362 4.30953
#
# Compressibility (1/GPa) = 0.05429069
#
# Stress axis : x y z
#
# Youngs Moduli (GPa) = 22.99845 98.30249 59.79441
#
# Poissons Ratio (x) = 0.48908 -0.17246
# Poissons Ratio (y) = 0.11442 0.35593
# Poissons Ratio (z) = -0.06633 0.58515
#
# Static dielectric constant tensor:
#      x y z
#    x 1.915740 0.000000 0.000000 
#    y 0.000000 1.944720 0.000000 
#    z 0.000000 0.000000 1.879330 
# 
# From -- ./inp_files/14447.got.cif
#   From: 2010.05.17/outbox.cif.g08.bks.cpg/sg48_8_cif.got.tgz:14447.got - 2010.06.03 20:39:00.
