data_PCOD9390580
_publ_section_title
;
Structure prediction by ZEFSAII (Michael W. Deem and Ramdas Pophale) SiO2 
 PCOD9390580
Probable space group: P N N N
;
_chemical_formula_sum "Si O2"
_cell_formula_units_Z 58
_cell_length_a 17.877501
_cell_length_b 8.789862
_cell_length_c 19.150029
_cell_angle_alpha 90.000000
_cell_angle_beta 90.000000
_cell_angle_gamma 90.000000
_cell_volume 3009.250239
_symmetry_space_group_name_H-M "P N N N"
_symmetry_group_IT_number 48
_space_group.IT_coordinate_system_code '2'
_symmetry_cell_setting 'orthorhombic'
loop_
_space_group_symop_operation_xyz
x,y,z
1/2-x,1/2-y,z
x,1/2-y,1/2-z
1/2-x,y,1/2-z
-x,-y,-z
1/2+x,1/2+y,-z
-x,1/2+y,1/2+z
1/2+x,-y,1/2+z
loop_
_atom_site_type_symbol
_atom_site_label
_atom_site_fract_x
_atom_site_fract_y
_atom_site_fract_z
Si Si1 0.816157 0.525418 0.405157
Si Si2 0.115944 0.397818 0.328281
Si Si3 0.250000 0.250000 0.250000
Si Si4 0.662565 0.616359 0.377262
Si Si5 0.423379 0.929877 0.470181
Si Si6 0.036446 0.075485 0.301631
Si Si7 0.634100 0.422404 0.246234
Si Si8 0.992851 0.105085 0.567103
O O1 0.726126 0.510192 0.412987
O O2 0.822644 0.706797 0.392750
O O3 0.861203 0.456329 0.470022
O O4 0.852891 0.462551 0.334161
O O5 0.197659 0.348745 0.301514
O O6 0.104714 0.481004 0.401164
O O7 0.067166 0.241592 0.324205
O O8 0.081532 0.491066 0.263869
O O9 0.667371 0.552911 0.297463
O O10 0.578146 0.608926 0.404871
O O11 0.449487 0.759338 0.451659
O O12 0.500000 0.000000 0.500000
O O13 0.951230 0.085411 0.274615
O O14 0.048387 0.973927 0.368862
O O15 0.664254 0.250000 0.250000
O O16 0.000000 0.000000 0.500000
#
# Coordination Sequence:
#
# PCOD9390580 Si02
#       8
#     8   8   2   8   8   8   8   8
#     4  11  24  42  60  95 127 165 213 256 325 382
#     4  10  20  42  66  96 123 166 224 260 328 378
#     4   8  20  40  72  94 128 176 212 274 320 412
#     4  10  24  42  62  87 128 172 202 261 315 394
#     4  12  24  39  66  95 125 165 218 277 315 397
#     4   9  20  37  64  90 124 160 207 269 306 385
#     4  11  21  37  65  92 127 167 208 255 317 385
#     4  11  24  41  62  91 125 166 209 264 329 375
#
# _framework density 19.273904000000002
#
# number of rings (size 3 to 8) (size 9 to 14) (size 15 to 20)
#    0.000    1.655    2.759    2.483    3.862    3.862 
#    2.483    0.000    0.000    3.310    0.000    0.000 
#    0.000    0.000    0.000    0.000    0.000    0.000 
#
# Total GULP energy -322948.390174 kJ/mol
# GULP energy per Si atom -5568.075693 kJ/mol
# Density = 1.923004 g / cm^3
# Si number density = 19.273904 Si / 1000 Ang^3
#
#
#
# Elastic Constant Matrix: (Units=GPa)
#
#
# Indices 1 2 3 4 5 6 
#
# 1 95.0823 40.8457 58.5851 0.0000 0.0000 0.0000
# 2 40.8457 95.0955 81.8844 0.0000 0.0000 0.0000
# 3 58.5851 81.8844 189.7353 0.0000 0.0000 0.0000
# 4 0.0000 0.0000 0.0000 32.0770 0.0000 0.0000
# 5 0.0000 0.0000 0.0000 0.0000 5.0268 0.0000
# 6 0.0000 0.0000 0.0000 0.0000 0.0000 8.5385
#
#
#
# Elastic Compliance Matrix: (Units=1/GPa)
#
#
# Indices 1 2 3 4 5 6 
#
# 1 0.013710 -0.003570 -0.002692 0.000000 0.000000 0.000000
# 2 -0.003570 0.017664 -0.006521 0.000000 0.000000 0.000000
# 3 -0.002692 -0.006521 0.008916 0.000000 0.000000 0.000000
# 4 0.000000 0.000000 0.000000 0.031175 0.000000 0.000000
# 5 0.000000 0.000000 0.000000 0.000000 0.198933 0.000000
# 6 0.000000 0.000000 0.000000 0.000000 0.000000 0.117117
#
#
# Mechanical properties :
#
#
# Convention : Reuss Voigt Hill
#
# Bulk Modulus (GPa) = 67.92152 82.50481 75.21317
# Shear Modulus (GPa) = 11.96200 22.36833 17.16517
#
# Velocity S-wave (km/s) = 2.49395 3.41038 2.98751
# Velocity P-wave (km/s) = 6.60376 7.64245 7.14201
#
# Compressibility (1/GPa) = 0.01472287
#
# Stress axis : x y z
#
# Youngs Moduli (GPa) = 72.94009 56.61106 112.15648
#
# Poissons Ratio (x) = 0.20212 0.30197
# Poissons Ratio (y) = 0.26042 0.73137
# Poissons Ratio (z) = 0.19638 0.36916
#
# Static dielectric constant tensor:
#      x y z
#    x 1.503950 0.000000 0.000000 
#    y 0.000000 1.752900 0.000000 
#    z 0.000000 0.000000 1.723180 
# 
# From -- ./inp_files/32026.got.cif
#   From: 2010.05.17/outbox.cif.g08.bks.cpg/sg48_17_cif.got.tgz:32026.got - 2010.06.03 20:39:00.
