data_PCOD9390049
_publ_section_title
;
Structure prediction by ZEFSAII (Michael W. Deem and Ramdas Pophale) SiO2 
 PCOD9390049
Probable space group: P N N N
;
_chemical_formula_sum "Si O2"
_cell_formula_units_Z 34
_cell_length_a 9.912924
_cell_length_b 17.060157
_cell_length_c 8.380136
_cell_angle_alpha 90.000000
_cell_angle_beta 90.000000
_cell_angle_gamma 90.000000
_cell_volume 1417.215413
_symmetry_space_group_name_H-M "P N N N"
_symmetry_group_IT_number 48
_space_group.IT_coordinate_system_code '2'
_symmetry_cell_setting 'orthorhombic'
loop_
_space_group_symop_operation_xyz
x,y,z
1/2-x,1/2-y,z
x,1/2-y,1/2-z
1/2-x,y,1/2-z
-x,-y,-z
1/2+x,1/2+y,-z
-x,1/2+y,1/2+z
1/2+x,-y,1/2+z
loop_
_atom_site_type_symbol
_atom_site_label
_atom_site_fract_x
_atom_site_fract_y
_atom_site_fract_z
Si Si1 0.022170 0.853289 0.084274
Si Si2 0.750000 0.250000 0.750000
Si Si3 0.019246 0.587152 0.068130
Si Si4 0.216080 0.956623 0.931481
Si Si5 0.246637 0.130290 0.063144
O O1 0.138494 0.792971 0.136866
O O2 0.011589 0.907293 0.242268
O O3 0.079301 0.908224 0.944387
O O4 0.873825 0.826281 0.030719
O O5 0.169513 0.600825 0.005440
O O6 0.000000 0.500000 0.000000
O O7 0.897742 0.639686 0.003673
O O8 0.250000 0.975971 0.750000
O O9 0.215356 0.037364 0.030677
O O10 0.250000 0.147170 0.250000
#
# Coordination Sequence:
#
# PCOD9390049 Si02
#       5
#     8   2   8   8   8
#     4  12  23  44  66  96 136 187 242 272 346 429
#     4  12  28  48  72  92 136 212 248 282 332 448
#     4  10  19  36  62  99 136 167 219 291 356 412
#     4  11  20  36  65 105 142 176 217 288 358 423
#     4  11  22  37  66 108 140 168 218 298 368 409
#
# _framework density 23.990708000000001
#
# number of rings (size 3 to 8) (size 9 to 14) (size 15 to 20)
#    0.000    0.941    2.353    8.471    0.000    0.000 
#    0.000    2.941    0.000    1.412    0.000    0.000 
#    0.000    0.000    0.000    0.000    0.000    0.000 
#
# Total GULP energy -189970.857642 kJ/mol
# GULP energy per Si atom -5587.378166 kJ/mol
# Density = 2.393610 g / cm^3
# Si number density = 23.990708 Si / 1000 Ang^3
#
#
#
# Elastic Constant Matrix: (Units=GPa)
#
#
# Indices 1 2 3 4 5 6 
#
# 1 183.1953 37.0648 28.0220 0.0000 0.0000 0.0000
# 2 37.0648 72.7543 16.3163 0.0000 0.0000 0.0000
# 3 28.0220 16.3163 119.9958 0.0000 0.0000 0.0000
# 4 0.0000 0.0000 0.0000 11.3875 0.0000 0.0000
# 5 0.0000 0.0000 0.0000 0.0000 49.9701 0.0000
# 6 0.0000 0.0000 0.0000 0.0000 0.0000 21.7927
#
#
#
# Elastic Compliance Matrix: (Units=1/GPa)
#
#
# Indices 1 2 3 4 5 6 
#
# 1 0.006212 -0.002929 -0.001052 0.000000 0.000000 0.000000
# 2 -0.002929 0.015558 -0.001432 0.000000 0.000000 0.000000
# 3 -0.001052 -0.001432 0.008774 0.000000 0.000000 0.000000
# 4 0.000000 0.000000 0.000000 0.087816 0.000000 0.000000
# 5 0.000000 0.000000 0.000000 0.000000 0.020012 0.000000
# 6 0.000000 0.000000 0.000000 0.000000 0.000000 0.045887
#
#
# Mechanical properties :
#
#
# Convention : Reuss Voigt Hill
#
# Bulk Modulus (GPa) = 50.71331 59.86129 55.28730
# Shear Modulus (GPa) = 24.79452 36.26620 30.53036
#
# Velocity S-wave (km/s) = 3.21831 3.89225 3.57121
# Velocity P-wave (km/s) = 5.91562 6.72350 6.33246
#
# Compressibility (1/GPa) = 0.01971869
#
# Stress axis : x y z
#
# Youngs Moduli (GPa) = 160.97336 64.27556 113.97243
#
# Poissons Ratio (x) = 0.18825 0.11995
# Poissons Ratio (y) = 0.47146 0.16316
# Poissons Ratio (z) = 0.16942 0.09201
#
# Static dielectric constant tensor:
#      x y z
#    x 3.806350 0.000000 0.000000 
#    y 0.000000 1.998640 0.000000 
#    z 0.000000 0.000000 1.757940 
# 
# From -- ./inp_files/8738.got.cif
#   From: 2010.05.17/outbox.cif.g08.bks.cpg/sg48_5_cif.got.tgz:8738.got - 2010.06.03 20:39:00.
