data_PCOD9390926
_publ_section_title
;
Structure prediction by ZEFSAII (Michael W. Deem and Ramdas Pophale) SiO2 
 PCOD9390926
Probable space group: P N N N
;
_chemical_formula_sum "Si O2"
_cell_formula_units_Z 56
_cell_length_a 14.062460
_cell_length_b 12.139932
_cell_length_c 14.153031
_cell_angle_alpha 90.000000
_cell_angle_beta 90.000000
_cell_angle_gamma 90.000000
_cell_volume 2416.167355
_symmetry_space_group_name_H-M "P N N N"
_symmetry_group_IT_number 48
_space_group.IT_coordinate_system_code '2'
_symmetry_cell_setting 'orthorhombic'
loop_
_space_group_symop_operation_xyz
x,y,z
1/2-x,1/2-y,z
x,1/2-y,1/2-z
1/2-x,y,1/2-z
-x,-y,-z
1/2+x,1/2+y,-z
-x,1/2+y,1/2+z
1/2+x,-y,1/2+z
loop_
_atom_site_type_symbol
_atom_site_label
_atom_site_fract_x
_atom_site_fract_y
_atom_site_fract_z
Si Si1 0.541975 0.665407 0.528358
Si Si2 0.561132 0.893908 0.624360
Si Si3 0.406192 0.991453 0.181172
Si Si4 0.670323 0.155737 0.966446
Si Si5 0.390879 0.022534 0.569802
Si Si6 0.432586 0.367629 0.768065
Si Si7 0.178296 0.465841 0.888998
O O1 0.577060 0.769692 0.589565
O O2 0.536633 0.563562 0.603210
O O3 0.440582 0.689401 0.479399
O O4 0.617989 0.620104 0.452636
O O5 0.601514 0.930186 0.726192
O O6 0.604497 0.970657 0.541750
O O7 0.446761 0.917764 0.613103
O O8 0.323506 0.932710 0.120459
O O9 0.466923 0.889065 0.219433
O O10 0.750000 0.250000 0.958847
O O11 0.681746 0.085165 0.062211
O O12 0.451315 0.117468 0.621444
O O13 0.288761 0.059992 0.605327
O O14 0.389941 0.250000 0.750000
O O15 0.367039 0.456907 0.714169
#
# Coordination Sequence:
#
# PCOD9390926 Si02
#       7
#     8   8   8   8   8   8   8
#     4  11  20  39  69  95 128 180 226 281 354 412
#     4  10  22  40  63  92 138 179 223 284 343 419
#     4  10  21  42  64  95 134 178 228 283 347 425
#     4  11  22  40  70  98 132 175 231 284 346 418
#     4  10  23  38  60  93 132 175 227 280 347 412
#     4  11  21  37  64  94 130 173 221 285 347 411
#     4  11  21  40  63  96 136 168 228 295 344 415
#
# _framework density 23.177202999999999
#
# number of rings (size 3 to 8) (size 9 to 14) (size 15 to 20)
#    0.000    1.429    2.857    3.429    0.000    2.857 
#    2.571    2.857    0.000    3.429    0.000    0.000 
#    0.000    0.000    0.000    0.000    0.000    0.000 
#
# Total GULP energy -311971.733556 kJ/mol
# GULP energy per Si atom -5570.923814 kJ/mol
# Density = 2.312445 g / cm^3
# Si number density = 23.177203 Si / 1000 Ang^3
#
#
#
# Elastic Constant Matrix: (Units=GPa)
#
#
# Indices 1 2 3 4 5 6 
#
# 1 69.6839 39.8445 38.5300 0.0000 0.0000 0.0000
# 2 39.8445 105.6665 40.2015 0.0000 0.0000 0.0000
# 3 38.5300 40.2015 151.6506 0.0000 0.0000 0.0000
# 4 0.0000 0.0000 0.0000 34.3004 0.0000 0.0000
# 5 0.0000 0.0000 0.0000 0.0000 13.8865 0.0000
# 6 0.0000 0.0000 0.0000 0.0000 0.0000 33.2086
#
#
#
# Elastic Compliance Matrix: (Units=1/GPa)
#
#
# Indices 1 2 3 4 5 6 
#
# 1 0.019742 -0.006157 -0.003384 0.000000 0.000000 0.000000
# 2 -0.006157 0.012445 -0.001735 0.000000 0.000000 0.000000
# 3 -0.003384 -0.001735 0.007914 0.000000 0.000000 0.000000
# 4 0.000000 0.000000 0.000000 0.029154 0.000000 0.000000
# 5 0.000000 0.000000 0.000000 0.000000 0.072012 0.000000
# 6 0.000000 0.000000 0.000000 0.000000 0.000000 0.030113
#
#
# Mechanical properties :
#
#
# Convention : Reuss Voigt Hill
#
# Bulk Modulus (GPa) = 56.97988 62.68367 59.83177
# Shear Modulus (GPa) = 25.02740 30.17411 27.60075
#
# Velocity S-wave (km/s) = 3.28964 3.61208 3.45462
# Velocity P-wave (km/s) = 6.25034 6.67085 6.46402
#
# Compressibility (1/GPa) = 0.01755006
#
# Stress axis : x y z
#
# Youngs Moduli (GPa) = 50.65371 80.35087 126.36284
#
# Poissons Ratio (x) = 0.49471 0.42757
# Poissons Ratio (y) = 0.31187 0.21923
# Poissons Ratio (z) = 0.17140 0.13940
#
# Static dielectric constant tensor:
#      x y z
#    x 2.032590 0.000000 0.000000 
#    y 0.000000 1.952160 0.000000 
#    z 0.000000 0.000000 1.905080 
# 
# From -- ./inp_files/27326.got.cif
#   From: 2010.05.17/outbox.cif.g08.bks.cpg/sg48_14_cif.got.tgz:27326.got - 2010.06.03 20:39:00.
