data_PCOD9390597
_publ_section_title
;
Structure prediction by ZEFSAII (Michael W. Deem and Ramdas Pophale) SiO2 
 PCOD9390597
Probable space group: P N N N
;
_chemical_formula_sum "Si O2"
_cell_formula_units_Z 64
_cell_length_a 12.147667
_cell_length_b 8.094423
_cell_length_c 30.078370
_cell_angle_alpha 90.000000
_cell_angle_beta 90.000000
_cell_angle_gamma 90.000000
_cell_volume 2957.556648
_symmetry_space_group_name_H-M "P N N N"
_symmetry_group_IT_number 48
_space_group.IT_coordinate_system_code '2'
_symmetry_cell_setting 'orthorhombic'
loop_
_space_group_symop_operation_xyz
x,y,z
1/2-x,1/2-y,z
x,1/2-y,1/2-z
1/2-x,y,1/2-z
-x,-y,-z
1/2+x,1/2+y,-z
-x,1/2+y,1/2+z
1/2+x,-y,1/2+z
loop_
_atom_site_type_symbol
_atom_site_label
_atom_site_fract_x
_atom_site_fract_y
_atom_site_fract_z
Si Si1 0.039610 0.147546 0.426714
Si Si2 0.430087 0.417606 0.862751
Si Si3 0.343628 0.430582 0.116043
Si Si4 0.245787 0.558465 0.802524
Si Si5 0.516607 0.548982 0.341508
Si Si6 0.162041 0.618855 0.560218
Si Si7 0.263955 0.447670 0.474863
Si Si8 0.210498 0.056725 0.298587
O O1 0.138350 0.238604 0.398703
O O2 0.106735 0.040554 0.462545
O O3 0.952967 0.280034 0.446171
O O4 0.982253 0.043267 0.388754
O O5 0.533709 0.536701 0.866737
O O6 0.348014 0.463197 0.823480
O O7 0.483287 0.240576 0.854448
O O8 0.362437 0.463801 0.907468
O O9 0.304747 0.503764 0.068930
O O10 0.271349 0.499396 0.156393
O O11 0.250000 0.750000 0.816124
O O12 0.250000 0.550371 0.750000
O O13 0.131437 0.484811 0.818171
O O14 0.416844 0.483715 0.309929
O O15 0.250000 0.750000 0.579745
O O16 0.217983 0.550351 0.515764
O O17 0.250000 0.250000 0.483918
O O18 0.250000 0.250000 0.297968
O O19 0.250000 0.991536 0.250000
#
# Coordination Sequence:
#
# PCOD9390597 Si02
#       8
#     8   8   8   8   8   8   8   8
#     4  10  21  42  70  95 138 186 232 287 354 429
#     4  11  26  43  69  99 141 183 227 297 351 421
#     4  10  20  44  68  97 142 182 227 283 353 416
#     4  11  26  46  72  99 133 187 243 287 350 430
#     4  12  24  44  71 104 142 191 229 290 368 420
#     4  11  25  44  67 100 136 181 242 297 346 429
#     4  10  22  41  69  99 137 182 233 296 358 421
#     4  11  23  40  74 111 140 181 241 287 342 434
#
# _framework density 21.639483999999999
#
# number of rings (size 3 to 8) (size 9 to 14) (size 15 to 20)
#    0.000    1.250    2.500    3.375    1.750   10.500 
#    0.000    0.625    0.000    0.000    0.000    0.000 
#    0.000    0.000    0.000    0.000    0.000    0.000 
#
# Total GULP energy -356967.902925 kJ/mol
# GULP energy per Si atom -5577.623483 kJ/mol
# Density = 2.159023 g / cm^3
# Si number density = 21.639484 Si / 1000 Ang^3
#
#
#
# Elastic Constant Matrix: (Units=GPa)
#
#
# Indices 1 2 3 4 5 6 
#
# 1 100.3160 23.3487 30.4984 0.0000 0.0000 0.0000
# 2 23.3487 49.4067 34.5663 0.0000 0.0000 0.0000
# 3 30.4984 34.5663 129.0351 0.0000 0.0000 0.0000
# 4 0.0000 0.0000 0.0000 22.9193 0.0000 0.0000
# 5 0.0000 0.0000 0.0000 0.0000 36.9819 0.0000
# 6 0.0000 0.0000 0.0000 0.0000 0.0000 -2.6707
#
#
#
# Elastic Compliance Matrix: (Units=1/GPa)
#
#
# Indices 1 2 3 4 5 6 
#
# 1 0.011446 -0.004327 -0.001546 0.000000 0.000000 0.000000
# 2 -0.004327 0.026545 -0.006088 0.000000 0.000000 0.000000
# 3 -0.001546 -0.006088 0.009746 0.000000 0.000000 0.000000
# 4 0.000000 0.000000 0.000000 0.043631 0.000000 0.000000
# 5 0.000000 0.000000 0.000000 0.000000 0.027040 0.000000
# 6 0.000000 0.000000 0.000000 0.000000 0.000000 -0.374432
#
#
# Mechanical properties :
#
#
# Convention : Reuss Voigt Hill
#
# Bulk Modulus (GPa) = 41.99295 50.62050 46.30672
# Shear Modulus (GPa) = -22.30513 24.13573 0.91530
#
# Velocity S-wave (km/s) = -3.21403 3.34332 0.65107
# Velocity P-wave (km/s) = 2.38213 6.19251 4.69157
#
# Compressibility (1/GPa) = 0.02381352
#
# Stress axis : x y z
#
# Youngs Moduli (GPa) = 87.36872 37.67246 102.60486
#
# Poissons Ratio (x) = 0.16302 0.15863
# Poissons Ratio (y) = 0.37808 0.62466
# Poissons Ratio (z) = 0.13508 0.22935
#
# Static dielectric constant tensor:
#      x y z
#    x 1.811300 0.000000 0.000000 
#    y 0.000000 1.850720 0.000000 
#    z 0.000000 0.000000 1.796890 
# 
# From -- ./inp_files/38978.got.cif
#   From: 2010.05.17/outbox.cif.g08.bks.cpg/sg48_20_cif.got.tgz:38978.got - 2010.06.03 20:39:00.
