data_PCOD9390733
_publ_section_title
;
Structure prediction by ZEFSAII (Michael W. Deem and Ramdas Pophale) SiO2 
 PCOD9390733
Probable space group: P N N N
;
_chemical_formula_sum "Si O2"
_cell_formula_units_Z 64
_cell_length_a 20.223545
_cell_length_b 9.473465
_cell_length_c 15.930326
_cell_angle_alpha 90.000000
_cell_angle_beta 90.000000
_cell_angle_gamma 90.000000
_cell_volume 3052.044096
_symmetry_space_group_name_H-M "P N N N"
_symmetry_group_IT_number 48
_space_group.IT_coordinate_system_code '2'
_symmetry_cell_setting 'orthorhombic'
loop_
_space_group_symop_operation_xyz
x,y,z
1/2-x,1/2-y,z
x,1/2-y,1/2-z
1/2-x,y,1/2-z
-x,-y,-z
1/2+x,1/2+y,-z
-x,1/2+y,1/2+z
1/2+x,-y,1/2+z
loop_
_atom_site_type_symbol
_atom_site_label
_atom_site_fract_x
_atom_site_fract_y
_atom_site_fract_z
Si Si1 0.048981 0.946942 0.677533
Si Si2 0.091541 0.525850 0.122223
Si Si3 0.874219 0.730760 0.578033
Si Si4 0.823667 0.955437 0.785661
Si Si5 0.174825 0.700686 0.420866
Si Si6 0.367389 0.493733 0.941763
Si Si7 0.673448 0.919033 0.254999
Si Si8 0.019303 0.638761 0.632357
O O1 0.054569 0.792153 0.636446
O O2 0.023520 0.921503 0.773262
O O3 0.120182 0.019461 0.688680
O O4 0.988151 0.026817 0.631461
O O5 0.115741 0.396232 0.064024
O O6 0.123768 0.477739 0.211228
O O7 0.124279 0.670982 0.093302
O O8 0.829457 0.685767 0.657618
O O9 0.853605 0.645655 0.495893
O O10 0.945075 0.670035 0.606385
O O11 0.750000 0.969548 0.750000
O O12 0.837526 0.082129 0.850640
O O13 0.250000 0.750000 0.410834
O O14 0.166185 0.622592 0.509360
O O15 0.346370 0.471738 0.846927
O O16 0.444019 0.536161 0.931667
O O17 0.669016 0.750000 0.250000
O O18 0.750000 0.960797 0.250000
#
# Coordination Sequence:
#
# PCOD9390733 Si02
#       8
#     8   8   8   8   8   8   8   8
#     4   9  19  37  66  97 123 163 216 272 311 381
#     4  11  21  38  62  96 132 170 220 260 305 386
#     4  10  21  38  61  96 129 174 210 264 326 374
#     4  11  21  37  59  88 132 179 222 254 302 382
#     4  11  24  41  57  93 135 175 213 263 326 383
#     4  10  23  43  64  91 127 171 209 268 338 395
#     4  10  23  47  70  97 120 160 221 279 334 383
#     4   9  17  38  64  91 129 163 214 262 319 386
#
# _framework density 20.969552
#
# number of rings (size 3 to 8) (size 9 to 14) (size 15 to 20)
#    0.000    1.875    2.500    1.125    0.000    3.000 
#   11.250    5.625    0.000    0.000    0.000    0.000 
#    0.000    0.000    0.000    0.000    0.000    0.000 
#
# Total GULP energy -357422.939120 kJ/mol
# GULP energy per Si atom -5584.733424 kJ/mol
# Density = 2.092182 g / cm^3
# Si number density = 20.969552 Si / 1000 Ang^3
#
#
#
# Elastic Constant Matrix: (Units=GPa)
#
#
# Indices 1 2 3 4 5 6 
#
# 1 106.9724 50.4282 12.4498 0.0000 0.0000 0.0000
# 2 50.4282 97.6594 27.8006 0.0000 0.0000 0.0000
# 3 12.4498 27.8006 47.3929 0.0000 0.0000 0.0000
# 4 0.0000 0.0000 0.0000 12.1256 0.0000 0.0000
# 5 0.0000 0.0000 0.0000 0.0000 21.0864 0.0000
# 6 0.0000 0.0000 0.0000 0.0000 0.0000 30.4646
#
#
#
# Elastic Compliance Matrix: (Units=1/GPa)
#
#
# Indices 1 2 3 4 5 6 
#
# 1 0.012370 -0.006557 0.000597 0.000000 0.000000 0.000000
# 2 -0.006557 0.015768 -0.007527 0.000000 0.000000 0.000000
# 3 0.000597 -0.007527 0.025359 0.000000 0.000000 0.000000
# 4 0.000000 0.000000 0.000000 0.082470 0.000000 0.000000
# 5 0.000000 0.000000 0.000000 0.000000 0.047424 0.000000
# 6 0.000000 0.000000 0.000000 0.000000 0.000000 0.032825
#
#
# Mechanical properties :
#
#
# Convention : Reuss Voigt Hill
#
# Bulk Modulus (GPa) = 37.70430 48.15353 42.92892
# Shear Modulus (GPa) = 19.83872 23.49172 21.66522
#
# Velocity S-wave (km/s) = 3.07917 3.35069 3.21779
# Velocity P-wave (km/s) = 5.53726 6.16302 5.85850
#
# Compressibility (1/GPa) = 0.02652217
#
# Stress axis : x y z
#
# Youngs Moduli (GPa) = 80.84094 63.41771 39.43407
#
# Poissons Ratio (x) = 0.41586 -0.02354
# Poissons Ratio (y) = 0.53011 0.29683
# Poissons Ratio (z) = -0.04827 0.47736
#
# Static dielectric constant tensor:
#      x y z
#    x 1.769790 0.000000 0.000000 
#    y 0.000000 1.764700 0.000000 
#    z 0.000000 0.000000 1.752760 
# 
# From -- ./inp_files/32221.got.cif
#   From: 2010.05.17/outbox.cif.g08.bks.cpg/sg48_17_cif.got.tgz:32221.got - 2010.06.03 20:39:00.
