data_PCOD9390278
_publ_section_title
;
Structure prediction by ZEFSAII (Michael W. Deem and Ramdas Pophale) SiO2 
 PCOD9390278
Probable space group: P N N N
;
_chemical_formula_sum "Si O2"
_cell_formula_units_Z 28
_cell_length_a 7.466785
_cell_length_b 10.823783
_cell_length_c 16.126157
_cell_angle_alpha 90.000000
_cell_angle_beta 90.000000
_cell_angle_gamma 90.000000
_cell_volume 1303.297634
_symmetry_space_group_name_H-M "P N N N"
_symmetry_group_IT_number 48
_space_group.IT_coordinate_system_code '2'
_symmetry_cell_setting 'orthorhombic'
loop_
_space_group_symop_operation_xyz
x,y,z
1/2-x,1/2-y,z
x,1/2-y,1/2-z
1/2-x,y,1/2-z
-x,-y,-z
1/2+x,1/2+y,-z
-x,1/2+y,1/2+z
1/2+x,-y,1/2+z
loop_
_atom_site_type_symbol
_atom_site_label
_atom_site_fract_x
_atom_site_fract_y
_atom_site_fract_z
Si Si1 0.103826 0.495853 0.085704
Si Si2 0.465538 0.396577 0.249224
Si Si3 0.250000 0.750000 0.467200
Si Si4 0.527125 0.604879 0.932234
O O1 0.983585 0.464294 0.165709
O O2 0.198555 0.631005 0.088286
O O3 0.258387 0.391213 0.078143
O O4 0.000000 0.500000 0.000000
O O5 0.499581 0.250000 0.250000
O O6 0.250000 0.416414 0.250000
O O7 0.537981 0.435133 0.159408
O O8 0.414812 0.783478 0.528846
O O9 0.500000 0.500000 0.000000
#
# Coordination Sequence:
#
# PCOD9390278 Si02
#       4
#     8   8   4   8
#     4  10  20  35  57  87 118 155 201 250 304 359
#     4   9  17  32  55  79 105 145 194 238 287 354
#     4  10  20  36  58  84 120 158 194 252 306 362
#     4   9  19  36  54  82 116 149 193 240 294 360
#
# _framework density 21.483962999999999
#
# number of rings (size 3 to 8) (size 9 to 14) (size 15 to 20)
#    0.000    2.571    0.000    1.714    0.000    3.429 
#    0.000   31.429    0.000    0.000    0.000   44.000 
#    0.000    0.000    0.000    0.000    0.000    0.000 
#
# Total GULP energy -155994.687261 kJ/mol
# GULP energy per Si atom -5571.238831 kJ/mol
# Density = 2.143506 g / cm^3
# Si number density = 21.483963 Si / 1000 Ang^3
#
#
#
# Elastic Constant Matrix: (Units=GPa)
#
#
# Indices 1 2 3 4 5 6 
#
# 1 65.8062 21.3474 18.2328 0.0000 0.0000 0.0000
# 2 21.3474 111.2499 57.0845 0.0000 0.0000 0.0000
# 3 18.2328 57.0845 216.6578 0.0000 0.0000 0.0000
# 4 0.0000 0.0000 0.0000 35.1532 0.0000 0.0000
# 5 0.0000 0.0000 0.0000 0.0000 23.1770 0.0000
# 6 0.0000 0.0000 0.0000 0.0000 0.0000 27.6797
#
#
#
# Elastic Compliance Matrix: (Units=1/GPa)
#
#
# Indices 1 2 3 4 5 6 
#
# 1 0.016279 -0.002799 -0.000632 0.000000 0.000000 0.000000
# 2 -0.002799 0.010875 -0.002630 0.000000 0.000000 0.000000
# 3 -0.000632 -0.002630 0.005362 0.000000 0.000000 0.000000
# 4 0.000000 0.000000 0.000000 0.028447 0.000000 0.000000
# 5 0.000000 0.000000 0.000000 0.000000 0.043146 0.000000
# 6 0.000000 0.000000 0.000000 0.000000 0.000000 0.036128
#
#
# Mechanical properties :
#
#
# Convention : Reuss Voigt Hill
#
# Bulk Modulus (GPa) = 49.03561 65.22706 57.13133
# Shear Modulus (GPa) = 31.41531 37.00526 34.21028
#
# Velocity S-wave (km/s) = 3.82811 4.15476 3.99477
# Velocity P-wave (km/s) = 6.51253 7.31045 6.92300
#
# Compressibility (1/GPa) = 0.02039334
#
# Stress axis : x y z
#
# Youngs Moduli (GPa) = 61.42708 91.95114 186.50803
#
# Poissons Ratio (x) = 0.25740 0.11796
# Poissons Ratio (y) = 0.17195 0.49049
# Poissons Ratio (z) = 0.03885 0.24182
#
# Static dielectric constant tensor:
#      x y z
#    x 1.922720 0.000000 0.000000 
#    y 0.000000 1.806000 0.000000 
#    z 0.000000 0.000000 1.856160 
# 
# From -- ./inp_files/9991.got.cif
#   From: 2010.05.17/outbox.cif.g08.bks.cpg/sg48_5_cif.got.tgz:9991.got - 2010.06.03 20:39:00.
