data_PCOD9390450
_publ_section_title
;
Structure prediction by ZEFSAII (Michael W. Deem and Ramdas Pophale) SiO2 
 PCOD9390450
Probable space group: P N N N
;
_chemical_formula_sum "Si O2"
_cell_formula_units_Z 36
_cell_length_a 14.139575
_cell_length_b 15.207497
_cell_length_c 8.935319
_cell_angle_alpha 90.000000
_cell_angle_beta 90.000000
_cell_angle_gamma 90.000000
_cell_volume 1921.339703
_symmetry_space_group_name_H-M "P N N N"
_symmetry_group_IT_number 48
_space_group.IT_coordinate_system_code '2'
_symmetry_cell_setting 'orthorhombic'
loop_
_space_group_symop_operation_xyz
x,y,z
1/2-x,1/2-y,z
x,1/2-y,1/2-z
1/2-x,y,1/2-z
-x,-y,-z
1/2+x,1/2+y,-z
-x,1/2+y,1/2+z
1/2+x,-y,1/2+z
loop_
_atom_site_type_symbol
_atom_site_label
_atom_site_fract_x
_atom_site_fract_y
_atom_site_fract_z
Si Si1 0.750000 0.250000 0.750000
Si Si2 0.273599 0.456477 0.923337
Si Si3 0.423727 0.167964 0.449135
Si Si4 0.750000 0.250000 0.250000
Si Si5 0.153667 0.357196 0.151182
Si Si6 0.641530 0.357307 0.998242
O O1 0.686754 0.189019 0.644857
O O2 0.250000 0.469973 0.750000
O O3 0.323181 0.542762 0.990303
O O4 0.348845 0.377925 0.942440
O O5 0.183782 0.426625 0.024835
O O6 0.418048 0.120403 0.285417
O O7 0.388038 0.268111 0.421578
O O8 0.529565 0.156883 0.504611
O O9 0.684262 0.308712 0.143808
O O10 0.250000 0.343709 0.250000
#
# Coordination Sequence:
#
# PCOD9390450 Si02
#       6
#     2   8   8   2   8   8
#     4  10  28  42  64  78 112 170 196 258 316 370
#     4  11  22  37  59  93 126 157 191 251 307 359
#     4  10  20  38  63  89 118 157 204 250 292 364
#     4  10  20  42  64  74 124 162 196 246 308 370
#     4   9  19  37  63  90 122 163 198 243 310 360
#     4  11  23  42  61  88 117 158 210 248 305 363
#
# _framework density 18.736924999999999
#
# number of rings (size 3 to 8) (size 9 to 14) (size 15 to 20)
#    0.000    1.778    1.111    6.667    4.667    3.556 
#    0.000    1.111    0.000    0.000    0.000    0.000 
#    0.000    0.000    0.000    0.000    0.000    0.000 
#
# Total GULP energy -200762.823666 kJ/mol
# GULP energy per Si atom -5576.745102 kJ/mol
# Density = 1.869428 g / cm^3
# Si number density = 18.736925 Si / 1000 Ang^3
#
#
#
# Elastic Constant Matrix: (Units=GPa)
#
#
# Indices 1 2 3 4 5 6 
#
# 1 101.3300 28.8380 42.5603 0.0000 0.0000 0.0000
# 2 28.8380 77.4364 33.8087 0.0000 0.0000 0.0000
# 3 42.5603 33.8087 99.6197 0.0000 0.0000 0.0000
# 4 0.0000 0.0000 0.0000 -14.0925 0.0000 0.0000
# 5 0.0000 0.0000 0.0000 0.0000 -9.9545 0.0000
# 6 0.0000 0.0000 0.0000 0.0000 0.0000 12.5164
#
#
#
# Elastic Compliance Matrix: (Units=1/GPa)
#
#
# Indices 1 2 3 4 5 6 
#
# 1 0.012499 -0.002727 -0.004414 0.000000 0.000000 0.000000
# 2 -0.002727 0.015755 -0.004182 0.000000 0.000000 0.000000
# 3 -0.004414 -0.004182 0.013343 0.000000 0.000000 0.000000
# 4 0.000000 0.000000 0.000000 -0.070960 0.000000 0.000000
# 5 0.000000 0.000000 0.000000 0.000000 -0.100457 0.000000
# 6 0.000000 0.000000 0.000000 0.000000 0.000000 0.079895
#
#
# Mechanical properties :
#
#
# Convention : Reuss Voigt Hill
#
# Bulk Modulus (GPa) = 52.76877 54.31112 53.53994
# Shear Modulus (GPa) = -238.55103 9.23914 -114.65595
#
# Velocity S-wave (km/s) = -11.29568 2.22299 -7.83105
# Velocity P-wave (km/s) = 11.91214 5.96976 7.28907
#
# Compressibility (1/GPa) = 0.01895060
#
# Stress axis : x y z
#
# Youngs Moduli (GPa) = 80.00603 63.47062 74.94403
#
# Poissons Ratio (x) = 0.17311 0.33083
# Poissons Ratio (y) = 0.21821 0.31340
# Poissons Ratio (z) = 0.35317 0.26542
#
# Static dielectric constant tensor:
#      x y z
#    x 1.657590 0.000000 0.000000 
#    y 0.000000 1.669270 0.000000 
#    z 0.000000 0.000000 1.661500 
# 
# From -- ./inp_files/12261.got.cif
#   From: 2010.05.17/outbox.cif.g08.bks.cpg/sg48_7_cif.got.tgz:12261.got - 2010.06.03 20:39:00.
