data_PCOD9390804
_publ_section_title
;
Structure prediction by ZEFSAII (Michael W. Deem and Ramdas Pophale) SiO2 
 PCOD9390804
Probable space group: P N N N
;
_chemical_formula_sum "Si O2"
_cell_formula_units_Z 46
_cell_length_a 23.639767
_cell_length_b 16.410646
_cell_length_c 5.091156
_cell_angle_alpha 90.000000
_cell_angle_beta 90.000000
_cell_angle_gamma 90.000000
_cell_volume 1975.082648
_symmetry_space_group_name_H-M "P N N N"
_symmetry_group_IT_number 48
_space_group.IT_coordinate_system_code '2'
_symmetry_cell_setting 'orthorhombic'
loop_
_space_group_symop_operation_xyz
x,y,z
1/2-x,1/2-y,z
x,1/2-y,1/2-z
1/2-x,y,1/2-z
-x,-y,-z
1/2+x,1/2+y,-z
-x,1/2+y,1/2+z
1/2+x,-y,1/2+z
loop_
_atom_site_type_symbol
_atom_site_label
_atom_site_fract_x
_atom_site_fract_y
_atom_site_fract_z
Si Si1 0.847406 0.625449 0.141372
Si Si2 0.583992 0.842316 0.648655
Si Si3 0.345589 0.553722 0.854033
Si Si4 0.901431 0.250000 0.750000
Si Si5 0.543682 0.154974 0.360088
Si Si6 0.250000 0.250000 0.750000
Si Si7 0.308821 0.642198 0.377022
O O1 0.892487 0.660047 0.353396
O O2 0.835339 0.540007 0.284513
O O3 0.794051 0.687048 0.111286
O O4 0.875325 0.612919 0.856583
O O5 0.582805 0.750000 0.750000
O O6 0.520055 0.874591 0.666640
O O7 0.408928 0.588555 0.784687
O O8 0.304872 0.598069 0.650406
O O9 0.333869 0.582118 0.151117
O O10 0.940901 0.322999 0.660729
O O11 0.853989 0.213256 0.558177
O O12 0.547419 0.250000 0.250000
O O13 0.250000 0.667323 0.250000
#
# Coordination Sequence:
#
# PCOD9390804 Si02
#       7
#     8   8   8   4   8   2   8
#     4  12  27  47  68  99 132 172 234 276 346 394
#     4  11  24  44  70 100 130 173 221 282 337 423
#     4  11  25  44  66 101 133 177 224 281 334 407
#     4  10  21  39  64  98 135 179 220 258 320 408
#     4  10  22  40  71  97 140 174 216 271 346 403
#     4  12  28  48  72  94 132 186 220 294 330 394
#     4  11  23  40  63  95 137 178 222 264 323 384
#
# _framework density 23.290165999999999
#
# number of rings (size 3 to 8) (size 9 to 14) (size 15 to 20)
#    0.000    1.043    3.478    1.826    7.304    2.783 
#    0.000    1.739    0.000    0.000    0.000    0.000 
#    0.000    0.000    0.000    0.000    0.000    0.000 
#
# Total GULP energy -256303.790909 kJ/mol
# GULP energy per Si atom -5571.821542 kJ/mol
# Density = 2.323716 g / cm^3
# Si number density = 23.290166 Si / 1000 Ang^3
#
#
#
# Elastic Constant Matrix: (Units=GPa)
#
#
# Indices 1 2 3 4 5 6 
#
# 1 154.4468 25.6528 29.2103 0.0000 0.0000 0.0000
# 2 25.6528 77.2391 -1.0441 0.0000 0.0000 0.0000
# 3 29.2103 -1.0441 79.8840 0.0000 0.0000 0.0000
# 4 0.0000 0.0000 0.0000 27.0380 0.0000 0.0000
# 5 0.0000 0.0000 0.0000 0.0000 20.7460 0.0000
# 6 0.0000 0.0000 0.0000 0.0000 0.0000 10.4363
#
#
#
# Elastic Compliance Matrix: (Units=1/GPa)
#
#
# Indices 1 2 3 4 5 6 
#
# 1 0.007408 -0.002497 -0.002741 0.000000 0.000000 0.000000
# 2 -0.002497 0.013791 0.001093 0.000000 0.000000 0.000000
# 3 -0.002741 0.001093 0.013535 0.000000 0.000000 0.000000
# 4 0.000000 0.000000 0.000000 0.036985 0.000000 0.000000
# 5 0.000000 0.000000 0.000000 0.000000 0.048202 0.000000
# 6 0.000000 0.000000 0.000000 0.000000 0.000000 0.095819
#
#
# Mechanical properties :
#
#
# Convention : Reuss Voigt Hill
#
# Bulk Modulus (GPa) = 37.81704 46.57867 42.19785
# Shear Modulus (GPa) = 21.47344 28.82744 25.15044
#
# Velocity S-wave (km/s) = 3.03973 3.52199 3.28971
# Velocity P-wave (km/s) = 5.34720 6.04830 5.70852
#
# Compressibility (1/GPa) = 0.02644311
#
# Stress axis : x y z
#
# Youngs Moduli (GPa) = 134.98891 72.51082 73.88314
#
# Poissons Ratio (x) = 0.18109 0.20255
# Poissons Ratio (y) = 0.33712 -0.08079
# Poissons Ratio (z) = 0.37007 -0.07929
#
# Static dielectric constant tensor:
#      x y z
#    x 1.886830 0.000000 0.000000 
#    y 0.000000 1.973770 0.000000 
#    z 0.000000 0.000000 2.050470 
# 
# From -- ./inp_files/5896.got.cif
#   From: 2010.05.17/outbox.cif.g08.bks.cpg/sg48_3_cif.got.tgz:5896.got - 2010.06.03 20:39:00.
