data_PCOD9390514
_publ_section_title
;
Structure prediction by ZEFSAII (Michael W. Deem and Ramdas Pophale) SiO2 
 PCOD9390514
Probable space group: P N N N
;
_chemical_formula_sum "Si O2"
_cell_formula_units_Z 56
_cell_length_a 14.719463
_cell_length_b 12.215981
_cell_length_c 12.472893
_cell_angle_alpha 90.000000
_cell_angle_beta 90.000000
_cell_angle_gamma 90.000000
_cell_volume 2242.784322
_symmetry_space_group_name_H-M "P N N N"
_symmetry_group_IT_number 48
_space_group.IT_coordinate_system_code '2'
_symmetry_cell_setting 'orthorhombic'
loop_
_space_group_symop_operation_xyz
x,y,z
1/2-x,1/2-y,z
x,1/2-y,1/2-z
1/2-x,y,1/2-z
-x,-y,-z
1/2+x,1/2+y,-z
-x,1/2+y,1/2+z
1/2+x,-y,1/2+z
loop_
_atom_site_type_symbol
_atom_site_label
_atom_site_fract_x
_atom_site_fract_y
_atom_site_fract_z
Si Si1 0.639787 0.639704 0.182144
Si Si2 0.092600 0.562082 0.129660
Si Si3 0.509060 0.660134 0.563027
Si Si4 0.829689 0.674392 0.553291
Si Si5 0.062400 0.847346 0.163050
Si Si6 0.174391 0.579025 0.826253
Si Si7 0.719858 0.433759 0.948129
O O1 0.647439 0.750000 0.250000
O O2 0.540336 0.639426 0.129426
O O3 0.652508 0.535255 0.261180
O O4 0.695227 0.655378 0.073539
O O5 0.067981 0.552966 0.252309
O O6 0.196275 0.598095 0.125653
O O7 0.075876 0.444022 0.077124
O O8 0.030447 0.643435 0.057799
O O9 0.574081 0.765071 0.575795
O O10 0.420182 0.639114 0.639534
O O11 0.750000 0.750000 0.599471
O O12 0.818677 0.550242 0.589231
O O13 0.075292 0.750000 0.250000
O O14 0.135547 0.853228 0.069344
O O15 0.250000 0.633701 0.750000
O O16 0.231519 0.563725 0.936214
#
# Coordination Sequence:
#
# PCOD9390514 Si02
#       7
#     8   8   8   8   8   8   8
#     4  11  23  37  69 109 142 186 247 319 372 436
#     4  10  20  39  65  96 139 189 243 302 380 449
#     4  10  21  38  68  99 144 197 236 301 391 462
#     4  12  23  40  67 108 147 185 245 314 385 457
#     4  11  24  44  68 103 141 187 253 312 373 453
#     4  11  22  43  69 110 151 192 241 312 391 463
#     4  11  24  39  69 107 143 189 245 315 380 454
#
# _framework density 24.968962999999999
#
# number of rings (size 3 to 8) (size 9 to 14) (size 15 to 20)
#    0.000    1.143    4.286    3.000    2.000    1.714 
#    0.000    0.714    0.000    1.714   11.143    0.000 
#    0.000    0.000    0.000    0.000    0.000    0.000 
#
# Total GULP energy -312493.083092 kJ/mol
# GULP energy per Si atom -5580.233627 kJ/mol
# Density = 2.491213 g / cm^3
# Si number density = 24.968963 Si / 1000 Ang^3
#
#
#
# Elastic Constant Matrix: (Units=GPa)
#
#
# Indices 1 2 3 4 5 6 
#
# 1 161.9675 45.8495 39.5189 0.0000 0.0000 0.0000
# 2 45.8495 101.2162 11.1419 0.0000 0.0000 0.0000
# 3 39.5189 11.1419 34.7278 0.0000 0.0000 0.0000
# 4 0.0000 0.0000 0.0000 23.0110 0.0000 0.0000
# 5 0.0000 0.0000 0.0000 0.0000 24.5159 0.0000
# 6 0.0000 0.0000 0.0000 0.0000 0.0000 35.6062
#
#
#
# Elastic Compliance Matrix: (Units=1/GPa)
#
#
# Indices 1 2 3 4 5 6 
#
# 1 0.009458 -0.003213 -0.009732 0.000000 0.000000 0.000000
# 2 -0.003213 0.011333 0.000020 0.000000 0.000000 0.000000
# 3 -0.009732 0.000020 0.039864 0.000000 0.000000 0.000000
# 4 0.000000 0.000000 0.000000 0.043457 0.000000 0.000000
# 5 0.000000 0.000000 0.000000 0.000000 0.040790 0.000000
# 6 0.000000 0.000000 0.000000 0.000000 0.000000 0.028085
#
#
# Mechanical properties :
#
#
# Convention : Reuss Voigt Hill
#
# Bulk Modulus (GPa) = 28.73142 54.54799 41.63971
# Shear Modulus (GPa) = 23.75987 30.05339 26.90663
#
# Velocity S-wave (km/s) = 3.08811 3.47310 3.28625
# Velocity P-wave (km/s) = 4.92413 6.16255 5.57782
#
# Compressibility (1/GPa) = 0.03480510
#
# Stress axis : x y z
#
# Youngs Moduli (GPa) = 105.72799 88.23715 25.08547
#
# Poissons Ratio (x) = 0.28352 0.24414
# Poissons Ratio (y) = 0.33972 -0.00051
# Poissons Ratio (z) = 1.02897 -0.00180
#
# Static dielectric constant tensor:
#      x y z
#    x 1.923470 0.000000 0.000000 
#    y 0.000000 2.064710 0.000000 
#    z 0.000000 0.000000 2.046440 
# 
# From -- ./inp_files/27319.got.cif
#   From: 2010.05.17/outbox.cif.g08.bks.cpg/sg48_14_cif.got.tgz:27319.got - 2010.06.03 20:39:00.
