data_PCOD9390069
_publ_section_title
;
Structure prediction by ZEFSAII (Michael W. Deem and Ramdas Pophale) SiO2 
 PCOD9390069
Probable space group: P N N N
;
_chemical_formula_sum "Si O2"
_cell_formula_units_Z 56
_cell_length_a 6.336482
_cell_length_b 13.681004
_cell_length_c 33.355222
_cell_angle_alpha 90.000000
_cell_angle_beta 90.000000
_cell_angle_gamma 90.000000
_cell_volume 2891.545369
_symmetry_space_group_name_H-M "P N N N"
_symmetry_group_IT_number 48
_space_group.IT_coordinate_system_code '2'
_symmetry_cell_setting 'orthorhombic'
loop_
_space_group_symop_operation_xyz
x,y,z
1/2-x,1/2-y,z
x,1/2-y,1/2-z
1/2-x,y,1/2-z
-x,-y,-z
1/2+x,1/2+y,-z
-x,1/2+y,1/2+z
1/2+x,-y,1/2+z
loop_
_atom_site_type_symbol
_atom_site_label
_atom_site_fract_x
_atom_site_fract_y
_atom_site_fract_z
Si Si1 0.813734 0.863139 0.206371
Si Si2 0.137986 0.649302 0.655743
Si Si3 0.808433 0.429703 0.486226
Si Si4 0.342442 0.011331 0.294601
Si Si5 0.890150 0.657408 0.573735
Si Si6 0.462874 0.017222 0.854487
Si Si7 0.581131 0.028017 0.940057
O O1 0.750000 0.750000 0.206533
O O2 0.750000 0.903841 0.250000
O O3 0.678080 0.911131 0.171719
O O4 0.051017 0.903342 0.202149
O O5 0.250000 0.750000 0.668286
O O6 0.318570 0.577773 0.638293
O O7 0.017051 0.591080 0.691306
O O8 0.977974 0.666059 0.618861
O O9 0.691565 0.401542 0.527540
O O10 0.632183 0.487824 0.460679
O O11 0.000000 0.500000 0.500000
O O12 0.915976 0.351814 0.457177
O O13 0.250000 0.026606 0.250000
O O14 0.158684 0.014552 0.327333
O O15 0.750000 0.750000 0.563779
O O16 0.741816 0.562102 0.568543
O O17 0.528596 0.066150 0.896099
#
# Coordination Sequence:
#
# PCOD9390069 Si02
#       7
#     8   8   8   8   8   8   8
#     4  10  22  40  64  96 122 152 208 271 317 377
#     4  11  24  38  61  94 130 166 222 264 310 373
#     4   9  20  35  57  87 115 155 204 253 310 369
#     4  11  23  42  66  90 128 169 212 257 325 383
#     4  11  21  34  60  91 120 157 214 266 306 364
#     4  11  21  39  65  90 125 166 210 262 314 383
#     4  10  19  37  60  87 117 165 204 247 313 381
#
# _framework density 19.366807000000001
#
# number of rings (size 3 to 8) (size 9 to 14) (size 15 to 20)
#    0.000    1.571    4.286    0.857    0.000    0.571 
#    0.000    2.143    0.000   20.571    0.000    0.000 
#    0.000    0.000    0.000    0.000    0.000    0.000 
#
# Total GULP energy -312346.647254 kJ/mol
# GULP energy per Si atom -5577.618701 kJ/mol
# Density = 1.932273 g / cm^3
# Si number density = 19.366807 Si / 1000 Ang^3
#
#
#
# Elastic Constant Matrix: (Units=GPa)
#
#
# Indices 1 2 3 4 5 6 
#
# 1 99.5885 19.0986 46.8665 0.0000 0.0000 0.0000
# 2 19.0986 55.8015 24.5981 0.0000 0.0000 0.0000
# 3 46.8665 24.5981 152.1961 0.0000 0.0000 0.0000
# 4 0.0000 0.0000 0.0000 1.2933 0.0000 0.0000
# 5 0.0000 0.0000 0.0000 0.0000 40.2923 0.0000
# 6 0.0000 0.0000 0.0000 0.0000 0.0000 21.2906
#
#
#
# Elastic Compliance Matrix: (Units=1/GPa)
#
#
# Indices 1 2 3 4 5 6 
#
# 1 0.012107 -0.002692 -0.003293 0.000000 0.000000 0.000000
# 2 -0.002692 0.019894 -0.002386 0.000000 0.000000 0.000000
# 3 -0.003293 -0.002386 0.007970 0.000000 0.000000 0.000000
# 4 0.000000 0.000000 0.000000 0.773216 0.000000 0.000000
# 5 0.000000 0.000000 0.000000 0.000000 0.024819 0.000000
# 6 0.000000 0.000000 0.000000 0.000000 0.000000 0.046969
#
#
# Mechanical properties :
#
#
# Convention : Reuss Voigt Hill
#
# Bulk Modulus (GPa) = 43.05086 54.30137 48.67612
# Shear Modulus (GPa) = 5.49776 27.04344 16.27060
#
# Velocity S-wave (km/s) = 1.68669 3.74087 2.90164
# Velocity P-wave (km/s) = 5.10595 6.83799 6.03443
#
# Compressibility (1/GPa) = 0.02322834
#
# Stress axis : x y z
#
# Youngs Moduli (GPa) = 82.59421 50.26643 125.46700
#
# Poissons Ratio (x) = 0.13533 0.41318
# Poissons Ratio (y) = 0.22236 0.29940
# Poissons Ratio (z) = 0.27200 0.11995
#
# Static dielectric constant tensor:
#      x y z
#    x 1.710670 0.000000 0.000000 
#    y 0.000000 1.678920 0.000000 
#    z 0.000000 0.000000 1.682950 
# 
# From -- ./inp_files/24551.got.cif
#   From: 2010.05.17/outbox.cif.g08.bks.cpg/sg48_13_cif.got.tgz:24551.got - 2010.06.03 20:39:00.
