data_PCOD9390171
_publ_section_title
;
Structure prediction by ZEFSAII (Michael W. Deem and Ramdas Pophale) SiO2 
 PCOD9390171
Probable space group: P N N N
;
_chemical_formula_sum "Si O2"
_cell_formula_units_Z 56
_cell_length_a 12.047379
_cell_length_b 13.084680
_cell_length_c 20.448482
_cell_angle_alpha 90.000000
_cell_angle_beta 90.000000
_cell_angle_gamma 90.000000
_cell_volume 3223.418934
_symmetry_space_group_name_H-M "P N N N"
_symmetry_group_IT_number 48
_space_group.IT_coordinate_system_code '2'
_symmetry_cell_setting 'orthorhombic'
loop_
_space_group_symop_operation_xyz
x,y,z
1/2-x,1/2-y,z
x,1/2-y,1/2-z
1/2-x,y,1/2-z
-x,-y,-z
1/2+x,1/2+y,-z
-x,1/2+y,1/2+z
1/2+x,-y,1/2+z
loop_
_atom_site_type_symbol
_atom_site_label
_atom_site_fract_x
_atom_site_fract_y
_atom_site_fract_z
Si Si1 0.660327 0.660838 0.355132
Si Si2 0.877116 0.203759 0.316067
Si Si3 0.628734 0.296222 0.049457
Si Si4 0.872881 0.140189 0.779239
Si Si5 0.659636 0.517337 0.107036
Si Si6 0.479639 0.693102 0.089579
Si Si7 0.081501 0.010891 0.746744
O O1 0.750000 0.750000 0.348432
O O2 0.721930 0.573614 0.397744
O O3 0.549337 0.709831 0.384358
O O4 0.634154 0.610208 0.286157
O O5 0.750000 0.250000 0.317283
O O6 0.929685 0.250000 0.250000
O O7 0.922017 0.240560 0.386085
O O8 0.892866 0.083707 0.301581
O O9 0.750000 0.250000 0.039191
O O10 0.645683 0.414850 0.066833
O O11 0.563040 0.285721 0.982565
O O12 0.910775 0.250000 0.750000
O O13 0.750000 0.123283 0.750000
O O14 0.886422 0.159593 0.857258
O O15 0.954854 0.047247 0.759611
O O16 0.566552 0.599551 0.088218
O O17 0.637143 0.489959 0.183292
#
# Coordination Sequence:
#
# PCOD9390171 Si02
#       7
#     8   8   8   8   8   8   8
#     4  10  20  32  52  85 116 140 179 230 295 342
#     4  10  20  35  55  85 115 142 182 230 285 337
#     4  11  22  36  55  82 110 150 187 227 277 333
#     4  10  21  37  58  81 114 153 197 232 271 328
#     4  10  21  35  56  81 114 147 182 228 287 352
#     4  10  22  37  54  81 116 151 183 234 286 338
#     4  11  20  33  59  87 113 144 186 236 285 339
#
# _framework density 17.372858000000001
#
# number of rings (size 3 to 8) (size 9 to 14) (size 15 to 20)
#    0.000    1.714    2.857    2.571    4.000    2.857 
#    0.000    4.286    0.000    2.143    0.000    0.000 
#    0.000    0.000    0.000    0.000    0.000    0.000 
#
# Total GULP energy -312129.640006 kJ/mol
# GULP energy per Si atom -5573.743572 kJ/mol
# Density = 1.733332 g / cm^3
# Si number density = 17.372858 Si / 1000 Ang^3
#
#
#
# Elastic Constant Matrix: (Units=GPa)
#
#
# Indices 1 2 3 4 5 6 
#
# 1 80.3047 31.1837 49.6418 0.0000 0.0000 0.0000
# 2 31.1837 86.8624 33.1530 0.0000 0.0000 0.0000
# 3 49.6418 33.1530 133.4035 0.0000 0.0000 0.0000
# 4 0.0000 0.0000 0.0000 -13.1016 0.0000 0.0000
# 5 0.0000 0.0000 0.0000 0.0000 7.7553 0.0000
# 6 0.0000 0.0000 0.0000 0.0000 0.0000 14.7014
#
#
#
# Elastic Compliance Matrix: (Units=1/GPa)
#
#
# Indices 1 2 3 4 5 6 
#
# 1 0.017448 -0.004182 -0.005453 0.000000 0.000000 0.000000
# 2 -0.004182 0.013721 -0.001854 0.000000 0.000000 0.000000
# 3 -0.005453 -0.001854 0.009986 0.000000 0.000000 0.000000
# 4 0.000000 0.000000 0.000000 -0.076326 0.000000 0.000000
# 5 0.000000 0.000000 0.000000 0.000000 0.128944 0.000000
# 6 0.000000 0.000000 0.000000 0.000000 0.000000 0.068021
#
#
# Mechanical properties :
#
#
# Convention : Reuss Voigt Hill
#
# Bulk Modulus (GPa) = 55.01595 58.72529 56.87062
# Shear Modulus (GPa) = 26.20129 14.31050 20.25589
#
# Velocity S-wave (km/s) = 3.88773 2.87318 3.41831
# Velocity P-wave (km/s) = 7.20341 6.69949 6.95602
#
# Compressibility (1/GPa) = 0.01817655
#
# Stress axis : x y z
#
# Youngs Moduli (GPa) = 57.31434 72.87866 100.14072
#
# Poissons Ratio (x) = 0.30481 0.54609
# Poissons Ratio (y) = 0.23971 0.18563
# Poissons Ratio (z) = 0.31255 0.13509
#
# Static dielectric constant tensor:
#      x y z
#    x 1.608030 0.000000 0.000000 
#    y 0.000000 1.622170 0.000000 
#    z 0.000000 0.000000 1.605360 
# 
# From -- ./inp_files/34158.got.cif
#   From: 2010.05.17/outbox.cif.g08.bks.cpg/sg48_18_cif.got.tgz:34158.got - 2010.06.03 20:39:00.
