data_PCOD9390641
_publ_section_title
;
Structure prediction by ZEFSAII (Michael W. Deem and Ramdas Pophale) SiO2 
 PCOD9390641
Probable space group: P N N N
;
_chemical_formula_sum "Si O2"
_cell_formula_units_Z 58
_cell_length_a 14.310669
_cell_length_b 20.330514
_cell_length_c 10.529807
_cell_angle_alpha 90.000000
_cell_angle_beta 90.000000
_cell_angle_gamma 90.000000
_cell_volume 3063.576338
_symmetry_space_group_name_H-M "P N N N"
_symmetry_group_IT_number 48
_space_group.IT_coordinate_system_code '2'
_symmetry_cell_setting 'orthorhombic'
loop_
_space_group_symop_operation_xyz
x,y,z
1/2-x,1/2-y,z
x,1/2-y,1/2-z
1/2-x,y,1/2-z
-x,-y,-z
1/2+x,1/2+y,-z
-x,1/2+y,1/2+z
1/2+x,-y,1/2+z
loop_
_atom_site_type_symbol
_atom_site_label
_atom_site_fract_x
_atom_site_fract_y
_atom_site_fract_z
Si Si1 0.818186 0.574163 0.635486
Si Si2 0.362899 0.741393 0.598959
Si Si3 0.490544 0.635566 0.931767
Si Si4 0.945520 0.054699 0.815540
Si Si5 0.105212 0.959341 0.759171
Si Si6 0.250000 0.750000 0.250000
Si Si7 0.732251 0.027052 0.037063
Si Si8 0.645599 0.138939 0.901740
O O1 0.750000 0.596385 0.750000
O O2 0.875577 0.508051 0.677962
O O3 0.753461 0.542909 0.525221
O O4 0.896848 0.625418 0.584161
O O5 0.250000 0.750000 0.575470
O O6 0.371319 0.750000 0.750000
O O7 0.436339 0.795860 0.547745
O O8 0.388482 0.671978 0.533345
O O9 0.452562 0.604508 0.800108
O O10 0.455068 0.590614 0.049110
O O11 0.919874 0.101700 0.698411
O O12 0.045368 0.022540 0.793091
O O13 0.191165 0.957821 0.856902
O O14 0.136430 0.967619 0.614977
O O15 0.313759 0.798173 0.169326
O O16 0.725759 0.085743 0.935432
#
# Coordination Sequence:
#
# PCOD9390641 Si02
#       8
#     8   8   8   8   8   2   8   8
#     4  11  20  37  60  89 120 165 208 258 319 381
#     4  11  24  41  59  85 121 165 206 247 310 375
#     4  11  21  39  58  84 127 167 207 252 314 385
#     4  11  21  36  57  87 125 157 197 256 319 376
#     4  10  21  35  57  85 118 161 191 254 318 371
#     4  12  24  36  50  80 124 162 204 242 290 360
#     4  11  20  36  58  86 120 153 204 249 312 382
#     4  12  23  35  57  85 122 163 202 255 304 378
#
# _framework density 18.932123000000001
#
# number of rings (size 3 to 8) (size 9 to 14) (size 15 to 20)
#    0.000    0.966    4.828    4.138    0.000    2.759 
#    2.483    0.000    0.000    0.414    0.000    0.000 
#    0.000    0.000    0.000    0.000    0.000    0.000 
#
# Total GULP energy -323167.823237 kJ/mol
# GULP energy per Si atom -5571.859021 kJ/mol
# Density = 1.888903 g / cm^3
# Si number density = 18.932123 Si / 1000 Ang^3
#
#
#
# Elastic Constant Matrix: (Units=GPa)
#
#
# Indices 1 2 3 4 5 6 
#
# 1 75.6950 42.4093 32.6151 0.0000 0.0000 0.0000
# 2 42.4093 77.6522 20.3909 0.0000 0.0000 0.0000
# 3 32.6151 20.3909 75.9120 0.0000 0.0000 0.0000
# 4 0.0000 0.0000 0.0000 25.9950 0.0000 0.0000
# 5 0.0000 0.0000 0.0000 0.0000 29.6036 0.0000
# 6 0.0000 0.0000 0.0000 0.0000 0.0000 30.3624
#
#
#
# Elastic Compliance Matrix: (Units=1/GPa)
#
#
# Indices 1 2 3 4 5 6 
#
# 1 0.021742 -0.010136 -0.006618 0.000000 0.000000 0.000000
# 2 -0.010136 0.018581 -0.000636 0.000000 0.000000 0.000000
# 3 -0.006618 -0.000636 0.016188 0.000000 0.000000 0.000000
# 4 0.000000 0.000000 0.000000 0.038469 0.000000 0.000000
# 5 0.000000 0.000000 0.000000 0.000000 0.033780 0.000000
# 6 0.000000 0.000000 0.000000 0.000000 0.000000 0.032935
#
#
# Mechanical properties :
#
#
# Convention : Reuss Voigt Hill
#
# Bulk Modulus (GPa) = 46.02229 46.67666 46.34948
# Shear Modulus (GPa) = 24.54375 26.11514 25.32944
#
# Velocity S-wave (km/s) = 3.60447 3.71807 3.66171
# Velocity P-wave (km/s) = 6.45638 6.56813 6.51249
#
# Compressibility (1/GPa) = 0.02172860
#
# Stress axis : x y z
#
# Youngs Moduli (GPa) = 45.99497 53.81922 61.77573
#
# Poissons Ratio (x) = 0.54551 0.40886
# Poissons Ratio (y) = 0.46621 0.03930
# Poissons Ratio (z) = 0.30441 0.03424
#
# Static dielectric constant tensor:
#      x y z
#    x 1.696920 0.000000 0.000000 
#    y 0.000000 1.658100 0.000000 
#    z 0.000000 0.000000 1.755160 
# 
# From -- ./inp_files/21521.got.cif
#   From: 2010.05.17/outbox.cif.g08.bks.cpg/sg48_11_cif.got.tgz:21521.got - 2010.06.03 20:39:00.
