data_PCOD9390677
_publ_section_title
;
Structure prediction by ZEFSAII (Michael W. Deem and Ramdas Pophale) SiO2 
 PCOD9390677
Probable space group: P N N N
;
_chemical_formula_sum "Si O2"
_cell_formula_units_Z 52
_cell_length_a 14.094918
_cell_length_b 31.291038
_cell_length_c 6.691635
_cell_angle_alpha 90.000000
_cell_angle_beta 90.000000
_cell_angle_gamma 90.000000
_cell_volume 2951.309581
_symmetry_space_group_name_H-M "P N N N"
_symmetry_group_IT_number 48
_space_group.IT_coordinate_system_code '2'
_symmetry_cell_setting 'orthorhombic'
loop_
_space_group_symop_operation_xyz
x,y,z
1/2-x,1/2-y,z
x,1/2-y,1/2-z
1/2-x,y,1/2-z
-x,-y,-z
1/2+x,1/2+y,-z
-x,1/2+y,1/2+z
1/2+x,-y,1/2+z
loop_
_atom_site_type_symbol
_atom_site_label
_atom_site_fract_x
_atom_site_fract_y
_atom_site_fract_z
Si Si1 0.643216 0.076808 0.300338
Si Si2 0.360993 0.799773 0.703366
Si Si3 0.250000 0.458247 0.250000
Si Si4 0.479903 0.864582 0.964534
Si Si5 0.646181 0.140615 0.652949
Si Si6 0.603234 0.514399 0.076212
Si Si7 0.658832 0.908951 0.124397
O O1 0.750000 0.091116 0.250000
O O2 0.564494 0.094503 0.149491
O O3 0.626108 0.099773 0.512186
O O4 0.640406 0.026148 0.301120
O O5 0.372338 0.750000 0.750000
O O6 0.250000 0.810617 0.750000
O O7 0.440749 0.825979 0.826293
O O8 0.367852 0.816817 0.478237
O O9 0.169763 0.481973 0.380022
O O10 0.302427 0.432288 0.425840
O O11 0.425884 0.858990 0.169303
O O12 0.586761 0.874147 0.033276
O O13 0.750000 0.138278 0.750000
O O14 0.610766 0.556391 0.219911
O O15 0.500000 0.500000 0.000000
O O16 0.750000 0.892366 0.250000
#
# Coordination Sequence:
#
# PCOD9390677 Si02
#       7
#     8   8   4   8   8   8   8
#     4  11  21  31  50  79 113 148 190 232 274 337
#     4  10  21  37  55  87 124 148 180 220 280 373
#     4  10  22  40  56  74 113 154 198 251 298 334
#     4  11  21  37  57  81 114 150 188 237 283 343
#     4  11  19  34  55  83 117 156 185 215 282 347
#     4  11  23  36  52  81 110 152 199 245 298 342
#     4  10  23  40  57  80 110 152 210 253 289 340
#
# _framework density 17.619298000000001
#
# number of rings (size 3 to 8) (size 9 to 14) (size 15 to 20)
#    0.000    1.385    3.077    4.154    1.077    9.231 
#    0.000    0.000    0.000    0.000    0.000    8.077 
#    0.000    0.000    0.000    0.000    0.000    0.000 
#
# Total GULP energy -289679.512215 kJ/mol
# GULP energy per Si atom -5570.759850 kJ/mol
# Density = 1.757920 g / cm^3
# Si number density = 17.619298 Si / 1000 Ang^3
#
#
#
# Elastic Constant Matrix: (Units=GPa)
#
#
# Indices 1 2 3 4 5 6 
#
# 1 124.7590 37.0406 39.0235 0.0000 0.0000 0.0000
# 2 37.0406 70.5614 19.2492 0.0000 0.0000 0.0000
# 3 39.0235 19.2492 102.5506 0.0000 0.0000 0.0000
# 4 0.0000 0.0000 0.0000 7.9519 0.0000 0.0000
# 5 0.0000 0.0000 0.0000 0.0000 26.8455 0.0000
# 6 0.0000 0.0000 0.0000 0.0000 0.0000 -55.3624
#
#
#
# Elastic Compliance Matrix: (Units=1/GPa)
#
#
# Indices 1 2 3 4 5 6 
#
# 1 0.010339 -0.004589 -0.003073 0.000000 0.000000 0.000000
# 2 -0.004589 0.016974 -0.001440 0.000000 0.000000 0.000000
# 3 -0.003073 -0.001440 0.011191 0.000000 0.000000 0.000000
# 4 0.000000 0.000000 0.000000 0.125756 0.000000 0.000000
# 5 0.000000 0.000000 0.000000 0.000000 0.037250 0.000000
# 6 0.000000 0.000000 0.000000 0.000000 0.000000 -0.018063
#
#
# Mechanical properties :
#
#
# Convention : Reuss Voigt Hill
#
# Bulk Modulus (GPa) = 49.26067 54.27752 51.76910
# Shear Modulus (GPa) = 23.99029 9.39085 16.69057
#
# Velocity S-wave (km/s) = 3.69398 2.31116 3.08115
# Velocity P-wave (km/s) = 6.79802 6.16397 6.48874
#
# Compressibility (1/GPa) = 0.02030017
#
# Stress axis : x y z
#
# Youngs Moduli (GPa) = 96.71973 58.91414 89.35845
#
# Poissons Ratio (x) = 0.27037 0.27459
# Poissons Ratio (y) = 0.44386 0.12865
# Poissons Ratio (z) = 0.29721 0.08482
#
# Static dielectric constant tensor:
#      x y z
#    x 1.660300 0.000000 0.000000 
#    y 0.000000 1.616740 0.000000 
#    z 0.000000 0.000000 2.042440 
# 
# From -- ./inp_files/3718.got.cif
#   From: 2010.05.17/outbox.cif.g08.bks.cpg/sg48_2_cif.got.tgz:3718.got - 2010.06.03 20:39:00.
