data_PCOD9390339
_publ_section_title
;
Structure prediction by ZEFSAII (Michael W. Deem and Ramdas Pophale) SiO2 
 PCOD9390339
Probable space group: P N N N
;
_chemical_formula_sum "Si O2"
_cell_formula_units_Z 54
_cell_length_a 28.352835
_cell_length_b 13.784878
_cell_length_c 6.534982
_cell_angle_alpha 90.000000
_cell_angle_beta 90.000000
_cell_angle_gamma 90.000000
_cell_volume 2554.134792
_symmetry_space_group_name_H-M "P N N N"
_symmetry_group_IT_number 48
_space_group.IT_coordinate_system_code '2'
_symmetry_cell_setting 'orthorhombic'
loop_
_space_group_symop_operation_xyz
x,y,z
1/2-x,1/2-y,z
x,1/2-y,1/2-z
1/2-x,y,1/2-z
-x,-y,-z
1/2+x,1/2+y,-z
-x,1/2+y,1/2+z
1/2+x,-y,1/2+z
loop_
_atom_site_type_symbol
_atom_site_label
_atom_site_fract_x
_atom_site_fract_y
_atom_site_fract_z
Si Si1 0.304794 0.635703 0.778358
Si Si2 0.551295 0.513069 0.192646
Si Si3 0.205717 0.348252 0.870093
Si Si4 0.371593 0.929929 0.379601
Si Si5 0.994113 0.673637 0.575955
Si Si6 0.250000 0.250000 0.250000
Si Si7 0.567408 0.250000 0.750000
Si Si8 0.131410 0.004921 0.529239
O O1 0.308145 0.750000 0.750000
O O2 0.250000 0.609156 0.750000
O O3 0.340374 0.587999 0.614992
O O4 0.326194 0.606667 0.998205
O O5 0.513450 0.425354 0.185357
O O6 0.576903 0.513029 0.411026
O O7 0.591904 0.473949 0.040740
O O8 0.535316 0.618002 0.105462
O O9 0.197370 0.250000 0.750000
O O10 0.250000 0.395103 0.750000
O O11 0.159306 0.409901 0.861596
O O12 0.220409 0.318357 0.098190
O O13 0.398839 0.843946 0.258565
O O14 0.360426 0.009158 0.210752
O O15 0.975774 0.750000 0.750000
O O16 0.034538 0.733432 0.450517
#
# Coordination Sequence:
#
# PCOD9390339 Si02
#       8
#     8   8   8   8   8   2   4   8
#     4  10  22  38  57  87 126 159 198 251 300 361
#     4   9  22  39  55  87 122 149 201 255 308 371
#     4   9  20  38  58  81 110 152 199 244 297 357
#     4  10  21  36  58  87 117 159 200 241 307 367
#     4  10  20  39  63  83 115 160 201 254 314 376
#     4   8  18  36  60  78 104 146 206 244 288 350
#     4  10  20  36  62  87 112 156 209 244 300 378
#     4  11  21  37  60  84 121 157 196 252 302 369
#
# _framework density 21.142188000000001
#
# number of rings (size 3 to 8) (size 9 to 14) (size 15 to 20)
#    0.000    2.370    0.000    2.222    0.000   11.852 
#    4.000    5.926    0.000    0.000    0.000    0.000 
#    0.000    0.000    0.000    0.000    0.000    0.000 
#
# Total GULP energy -300961.010986 kJ/mol
# GULP energy per Si atom -5573.352055 kJ/mol
# Density = 2.109407 g / cm^3
# Si number density = 21.142188 Si / 1000 Ang^3
#
#
#
# Elastic Constant Matrix: (Units=GPa)
#
#
# Indices 1 2 3 4 5 6 
#
# 1 64.6315 18.2848 17.2284 0.0000 0.0000 0.0000
# 2 18.2848 88.1121 17.4979 0.0000 0.0000 0.0000
# 3 17.2284 17.4979 83.9149 0.0000 0.0000 0.0000
# 4 0.0000 0.0000 0.0000 16.7629 0.0000 0.0000
# 5 0.0000 0.0000 0.0000 0.0000 3.3081 0.0000
# 6 0.0000 0.0000 0.0000 0.0000 0.0000 10.6894
#
#
#
# Elastic Compliance Matrix: (Units=1/GPa)
#
#
# Indices 1 2 3 4 5 6 
#
# 1 0.017083 -0.002972 -0.002888 0.000000 0.000000 0.000000
# 2 -0.002972 0.012356 -0.001966 0.000000 0.000000 0.000000
# 3 -0.002888 -0.001966 0.012920 0.000000 0.000000 0.000000
# 4 0.000000 0.000000 0.000000 0.059655 0.000000 0.000000
# 5 0.000000 0.000000 0.000000 0.000000 0.302287 0.000000
# 6 0.000000 0.000000 0.000000 0.000000 0.000000 0.093550
#
#
# Mechanical properties :
#
#
# Convention : Reuss Voigt Hill
#
# Bulk Modulus (GPa) = 37.44249 38.07563 37.75906
# Shear Modulus (GPa) = 9.57110 18.39525 13.98318
#
# Velocity S-wave (km/s) = 2.12999 2.95290 2.57454
# Velocity P-wave (km/s) = 4.87826 5.44744 5.17069
#
# Compressibility (1/GPa) = 0.02670763
#
# Stress axis : x y z
#
# Youngs Moduli (GPa) = 58.53861 80.93019 77.40105
#
# Poissons Ratio (x) = 0.24049 0.22350
# Poissons Ratio (y) = 0.17395 0.15221
# Poissons Ratio (z) = 0.16904 0.15915
#
# Static dielectric constant tensor:
#      x y z
#    x 1.807590 0.000000 0.000000 
#    y 0.000000 1.771670 0.000000 
#    z 0.000000 0.000000 1.738390 
# 
# From -- ./inp_files/7070.got.cif
#   From: 2010.05.17/outbox.cif.g08.bks.cpg/sg48_4_cif.got.tgz:7070.got - 2010.06.03 20:39:00.
