data_PCOD9390952
_publ_section_title
;
Structure prediction by ZEFSAII (Michael W. Deem and Ramdas Pophale) SiO2 
 PCOD9390952
Probable space group: P N N N
;
_chemical_formula_sum "Si O2"
_cell_formula_units_Z 32
_cell_length_a 9.092968
_cell_length_b 14.335566
_cell_length_c 12.101095
_cell_angle_alpha 90.000000
_cell_angle_beta 90.000000
_cell_angle_gamma 90.000000
_cell_volume 1577.412135
_symmetry_space_group_name_H-M "P N N N"
_symmetry_group_IT_number 48
_space_group.IT_coordinate_system_code '2'
_symmetry_cell_setting 'orthorhombic'
loop_
_space_group_symop_operation_xyz
x,y,z
1/2-x,1/2-y,z
x,1/2-y,1/2-z
1/2-x,y,1/2-z
-x,-y,-z
1/2+x,1/2+y,-z
-x,1/2+y,1/2+z
1/2+x,-y,1/2+z
loop_
_atom_site_type_symbol
_atom_site_label
_atom_site_fract_x
_atom_site_fract_y
_atom_site_fract_z
Si Si1 0.250000 0.457944 0.250000
Si Si2 0.076764 0.778647 0.087060
Si Si3 0.989510 0.094797 0.705013
Si Si4 0.991695 0.332574 0.340908
Si Si5 0.250000 0.965286 0.750000
O O1 0.353019 0.526834 0.321303
O O2 0.362448 0.393332 0.182256
O O3 0.250000 0.750000 0.090472
O O4 0.041358 0.864071 0.170912
O O5 0.999352 0.686408 0.132709
O O6 0.020572 0.796851 0.964753
O O7 0.133632 0.032929 0.692704
O O8 0.986611 0.250000 0.250000
O O9 0.850155 0.398765 0.324444
#
# Coordination Sequence:
#
# PCOD9390952 Si02
#       5
#     4   8   8   8   4
#     4  10  21  43  68  94 130 168 228 263 315 396
#     4  11  21  41  73  95 135 173 220 269 343 387
#     4  10  21  44  67 102 128 173 220 281 324 393
#     4  11  24  45  62  95 135 178 214 269 339 394
#     4  10  23  41  66  94 138 166 226 273 323 388
#
# _framework density 20.286390999999998
#
# number of rings (size 3 to 8) (size 9 to 14) (size 15 to 20)
#    0.000    1.500    2.500    3.000    0.000    6.000 
#   18.000    3.750    0.000    0.000    0.000    0.000 
#    0.000    0.000    0.000    0.000    0.000    0.000 
#
# Total GULP energy -178707.888249 kJ/mol
# GULP energy per Si atom -5584.621508 kJ/mol
# Density = 2.024022 g / cm^3
# Si number density = 20.286391 Si / 1000 Ang^3
#
#
#
# Elastic Constant Matrix: (Units=GPa)
#
#
# Indices 1 2 3 4 5 6 
#
# 1 127.3369 60.4790 36.4818 0.0000 0.0000 0.0000
# 2 60.4790 137.3853 67.8697 0.0000 0.0000 0.0000
# 3 36.4818 67.8697 144.7090 0.0000 0.0000 0.0000
# 4 0.0000 0.0000 0.0000 5.1851 0.0000 0.0000
# 5 0.0000 0.0000 0.0000 0.0000 2.5573 0.0000
# 6 0.0000 0.0000 0.0000 0.0000 0.0000 57.4963
#
#
#
# Elastic Compliance Matrix: (Units=1/GPa)
#
#
# Indices 1 2 3 4 5 6 
#
# 1 0.009968 -0.004096 -0.000592 0.000000 0.000000 0.000000
# 2 -0.004096 0.011157 -0.004200 0.000000 0.000000 0.000000
# 3 -0.000592 -0.004200 0.009030 0.000000 0.000000 0.000000
# 4 0.000000 0.000000 0.000000 0.192862 0.000000 0.000000
# 5 0.000000 0.000000 0.000000 0.000000 0.391033 0.000000
# 6 0.000000 0.000000 0.000000 0.000000 0.000000 0.017392
#
#
# Mechanical properties :
#
#
# Convention : Reuss Voigt Hill
#
# Bulk Modulus (GPa) = 80.78373 82.12136 81.45254
# Shear Modulus (GPa) = 7.65295 29.35445 18.50370
#
# Velocity S-wave (km/s) = 1.94439 3.80807 3.02342
# Velocity P-wave (km/s) = 6.70440 7.73978 7.24062
#
# Compressibility (1/GPa) = 0.01237873
#
# Stress axis : x y z
#
# Youngs Moduli (GPa) = 100.32078 89.63330 110.74762
#
# Poissons Ratio (x) = 0.36710 0.06558
# Poissons Ratio (y) = 0.41087 0.46514
# Poissons Ratio (z) = 0.05940 0.37646
#
# Static dielectric constant tensor:
#      x y z
#    x 1.755530 0.000000 0.000000 
#    y 0.000000 1.749890 0.000000 
#    z 0.000000 0.000000 1.693290 
# 
# From -- ./inp_files/10195.got.cif
#   From: 2010.05.17/outbox.cif.g08.bks.cpg/sg48_6_cif.got.tgz:10195.got - 2010.06.03 20:39:00.
