data_PCOD9390863
_publ_section_title
;
Structure prediction by ZEFSAII (Michael W. Deem and Ramdas Pophale) SiO2 
 PCOD9390863
Probable space group: P N N N
;
_chemical_formula_sum "Si O2"
_cell_formula_units_Z 58
_cell_length_a 6.169046
_cell_length_b 17.653556
_cell_length_c 28.991712
_cell_angle_alpha 90.000000
_cell_angle_beta 90.000000
_cell_angle_gamma 90.000000
_cell_volume 3157.359762
_symmetry_space_group_name_H-M "P N N N"
_symmetry_group_IT_number 48
_space_group.IT_coordinate_system_code '2'
_symmetry_cell_setting 'orthorhombic'
loop_
_space_group_symop_operation_xyz
x,y,z
1/2-x,1/2-y,z
x,1/2-y,1/2-z
1/2-x,y,1/2-z
-x,-y,-z
1/2+x,1/2+y,-z
-x,1/2+y,1/2+z
1/2+x,-y,1/2+z
loop_
_atom_site_type_symbol
_atom_site_label
_atom_site_fract_x
_atom_site_fract_y
_atom_site_fract_z
Si Si1 0.454001 0.954534 0.587302
Si Si2 0.500277 0.163178 0.234307
Si Si3 0.289631 0.339391 0.455296
Si Si4 0.865676 0.171740 0.702740
Si Si5 0.341068 0.544690 0.373225
Si Si6 0.567568 0.387891 0.366513
Si Si7 0.250000 0.250000 0.750000
Si Si8 0.104095 0.441980 0.963934
O O1 0.591162 0.896089 0.556547
O O2 0.317194 0.901140 0.621461
O O3 0.608260 0.009495 0.616141
O O4 0.305362 0.010680 0.557035
O O5 0.500346 0.250000 0.250000
O O6 0.750000 0.133092 0.250000
O O7 0.511491 0.158773 0.178747
O O8 0.250000 0.134002 0.250000
O O9 0.250000 0.250000 0.454298
O O10 0.458041 0.358309 0.413852
O O11 0.356914 0.367054 0.506180
O O12 0.750000 0.250000 0.688400
O O13 0.750000 0.145886 0.750000
O O14 0.848222 0.109716 0.664022
O O15 0.104106 0.196874 0.717920
O O16 0.479931 0.472443 0.357383
O O17 0.444073 0.571746 0.421393
O O18 0.000000 0.500000 0.000000
#
# Coordination Sequence:
#
# PCOD9390863 Si02
#       8
#     8   8   8   8   8   8   2   8
#     4  10  21  40  68  81 122 169 205 264 322 374
#     4  10  24  41  62  89 127 173 215 271 333 384
#     4  11  24  38  62  93 123 159 215 269 317 393
#     4   9  20  39  62  94 121 160 204 253 326 390
#     4  10  22  39  63  91 125 160 216 262 314 396
#     4  10  23  40  62  90 119 168 219 259 324 392
#     4   8  18  40  68  82 132 160 188 256 332 386
#     4  11  20  42  60  90 122 169 212 248 325 392
#
# _framework density 18.369778
#
# number of rings (size 3 to 8) (size 9 to 14) (size 15 to 20)
#    0.000    2.069    4.138    0.414    5.793    6.621 
#    4.966    0.000    0.000    0.000    0.000    0.000 
#    0.000    0.000    0.000    0.000    0.000    0.000 
#
# Total GULP energy -322895.643199 kJ/mol
# GULP energy per Si atom -5567.166262 kJ/mol
# Density = 1.832797 g / cm^3
# Si number density = 18.369778 Si / 1000 Ang^3
#
#
#
# Elastic Constant Matrix: (Units=GPa)
#
#
# Indices 1 2 3 4 5 6 
#
# 1 98.2926 23.6416 35.8929 0.0000 0.0000 0.0000
# 2 23.6416 108.7660 67.2686 0.0000 0.0000 0.0000
# 3 35.8929 67.2686 123.8270 0.0000 0.0000 0.0000
# 4 0.0000 0.0000 0.0000 46.3673 0.0000 0.0000
# 5 0.0000 0.0000 0.0000 0.0000 -1.9768 0.0000
# 6 0.0000 0.0000 0.0000 0.0000 0.0000 8.5247
#
#
#
# Elastic Compliance Matrix: (Units=1/GPa)
#
#
# Indices 1 2 3 4 5 6 
#
# 1 0.011409 -0.000654 -0.002951 0.000000 0.000000 0.000000
# 2 -0.000654 0.013884 -0.007353 0.000000 0.000000 0.000000
# 3 -0.002951 -0.007353 0.012926 0.000000 0.000000 0.000000
# 4 0.000000 0.000000 0.000000 0.021567 0.000000 0.000000
# 5 0.000000 0.000000 0.000000 0.000000 -0.505881 0.000000
# 6 0.000000 0.000000 0.000000 0.000000 0.000000 0.117306
#
#
# Mechanical properties :
#
#
# Convention : Reuss Voigt Hill
#
# Bulk Modulus (GPa) = 61.34544 64.94351 63.14448
# Shear Modulus (GPa) = -16.58710 24.18856 3.80073
#
# Velocity S-wave (km/s) = -3.00818 3.63265 1.43997
# Velocity P-wave (km/s) = 4.62620 7.28183 6.10028
#
# Compressibility (1/GPa) = 0.01630113
#
# Stress axis : x y z
#
# Youngs Moduli (GPa) = 87.65094 72.02729 77.36623
#
# Poissons Ratio (x) = 0.04714 0.22835
# Poissons Ratio (y) = 0.05736 0.56884
# Poissons Ratio (z) = 0.25870 0.52958
#
# Static dielectric constant tensor:
#      x y z
#    x 0.036010 0.000000 0.000000 
#    y 0.000000 1.606630 0.000000 
#    z 0.000000 0.000000 1.612540 
# 
# From -- ./inp_files/32425.got.cif
#   From: 2010.05.17/outbox.cif.g08.bks.cpg/sg48_17_cif.got.tgz:32425.got - 2010.06.03 20:39:00.
