data_PCOD9390746
_publ_section_title
;
Structure prediction by ZEFSAII (Michael W. Deem and Ramdas Pophale) SiO2 
 PCOD9390746
Probable space group: P N N N
;
_chemical_formula_sum "Si O2"
_cell_formula_units_Z 58
_cell_length_a 7.513835
_cell_length_b 18.589936
_cell_length_c 16.805457
_cell_angle_alpha 90.000000
_cell_angle_beta 90.000000
_cell_angle_gamma 90.000000
_cell_volume 2347.415001
_symmetry_space_group_name_H-M "P N N N"
_symmetry_group_IT_number 48
_space_group.IT_coordinate_system_code '2'
_symmetry_cell_setting 'orthorhombic'
loop_
_space_group_symop_operation_xyz
x,y,z
1/2-x,1/2-y,z
x,1/2-y,1/2-z
1/2-x,y,1/2-z
-x,-y,-z
1/2+x,1/2+y,-z
-x,1/2+y,1/2+z
1/2+x,-y,1/2+z
loop_
_atom_site_type_symbol
_atom_site_label
_atom_site_fract_x
_atom_site_fract_y
_atom_site_fract_z
Si Si1 0.750000 0.250000 0.750000
Si Si2 0.267578 0.332882 0.928169
Si Si3 0.253683 0.669089 0.928271
Si Si4 0.850986 0.677918 0.618635
Si Si5 0.929246 0.922864 0.611687
Si Si6 0.909576 0.938332 0.315705
Si Si7 0.808662 0.473274 0.531764
Si Si8 0.101261 0.615878 0.329237
O O1 0.843831 0.303175 0.688504
O O2 0.250000 0.250000 0.901567
O O3 0.112036 0.380187 0.886973
O O4 0.431938 0.372108 0.886685
O O5 0.306541 0.328001 0.022709
O O6 0.250000 0.750000 0.964282
O O7 0.434460 0.672859 0.874532
O O8 0.058442 0.647401 0.895765
O O9 0.275288 0.600194 0.984614
O O10 0.750000 0.750000 0.646365
O O11 0.747241 0.609173 0.653100
O O12 0.840890 0.964238 0.534618
O O13 0.053132 0.982548 0.652050
O O14 0.750000 0.939586 0.250000
O O15 0.062823 0.911253 0.258627
O O16 0.803517 0.446369 0.622023
O O17 0.000000 0.500000 0.500000
#
# Coordination Sequence:
#
# PCOD9390746 Si02
#       8
#     2   8   8   8   8   8   8   8
#     4  12  24  36  62  92 140 200 242 288 352 460
#     4  10  21  38  63  92 144 186 230 281 340 419
#     4  12  26  43  72 108 144 183 235 294 366 437
#     4  11  23  43  68 110 145 179 229 297 369 437
#     4  12  26  43  72 102 143 185 236 298 363 435
#     4  10  25  42  66  99 131 192 247 291 358 432
#     4  12  26  43  71 109 149 190 238 305 366 435
#     4  11  23  42  60  94 142 185 246 290 353 433
#
# _framework density 24.708030000000001
#
# number of rings (size 3 to 8) (size 9 to 14) (size 15 to 20)
#    0.000    0.828    4.138    2.069    8.690    1.931 
#    0.000    0.000    0.000    0.414    3.586    0.000 
#    0.000    0.000    0.000    0.000    0.000    0.000 
#
# Total GULP energy -323348.050678 kJ/mol
# GULP energy per Si atom -5574.966391 kJ/mol
# Density = 2.465179 g / cm^3
# Si number density = 24.708030 Si / 1000 Ang^3
#
#
#
# Elastic Constant Matrix: (Units=GPa)
#
#
# Indices 1 2 3 4 5 6 
#
# 1 117.5579 25.6331 7.9363 0.0000 0.0000 0.0000
# 2 25.6331 157.5617 8.2308 0.0000 0.0000 0.0000
# 3 7.9363 8.2308 62.7414 0.0000 0.0000 0.0000
# 4 0.0000 0.0000 0.0000 21.0412 0.0000 0.0000
# 5 0.0000 0.0000 0.0000 0.0000 9.4483 0.0000
# 6 0.0000 0.0000 0.0000 0.0000 0.0000 57.4888
#
#
#
# Elastic Compliance Matrix: (Units=1/GPa)
#
#
# Indices 1 2 3 4 5 6 
#
# 1 0.008874 -0.001395 -0.000940 0.000000 0.000000 0.000000
# 2 -0.001395 0.006610 -0.000691 0.000000 0.000000 0.000000
# 3 -0.000940 -0.000691 0.016148 0.000000 0.000000 0.000000
# 4 0.000000 0.000000 0.000000 0.047526 0.000000 0.000000
# 5 0.000000 0.000000 0.000000 0.000000 0.105839 0.000000
# 6 0.000000 0.000000 0.000000 0.000000 0.000000 0.017395
#
#
# Mechanical properties :
#
#
# Convention : Reuss Voigt Hill
#
# Bulk Modulus (GPa) = 39.09012 46.82903 42.95957
# Shear Modulus (GPa) = 23.04492 37.33306 30.18899
#
# Velocity S-wave (km/s) = 3.05731 3.89134 3.49926
# Velocity P-wave (km/s) = 5.32147 6.25972 5.80957
#
# Compressibility (1/GPa) = 0.02558191
#
# Stress axis : x y z
#
# Youngs Moduli (GPa) = 112.68930 151.29326 61.92755
#
# Poissons Ratio (x) = 0.21099 0.05818
# Poissons Ratio (y) = 0.15716 0.04277
# Poissons Ratio (z) = 0.10588 0.10450
#
# Static dielectric constant tensor:
#      x y z
#    x 1.788100 0.000000 0.000000 
#    y 0.000000 2.088360 0.000000 
#    z 0.000000 0.000000 1.993350 
# 
# From -- ./inp_files/30468.got.cif
#   From: 2010.05.17/outbox.cif.g08.bks.cpg/sg48_16_cif.got.tgz:30468.got - 2010.06.03 20:39:00.
