data_PCOD9390000
_publ_section_title
;
Structure prediction by ZEFSAII (Michael W. Deem and Ramdas Pophale) SiO2 
 PCOD9390000
Probable space group: P N N N
;
_chemical_formula_sum "Si O2"
_cell_formula_units_Z 64
_cell_length_a 17.029059
_cell_length_b 17.225975
_cell_length_c 11.866617
_cell_angle_alpha 90.000000
_cell_angle_beta 90.000000
_cell_angle_gamma 90.000000
_cell_volume 3480.978880
_symmetry_space_group_name_H-M "P N N N"
_symmetry_group_IT_number 48
_space_group.IT_coordinate_system_code '2'
_symmetry_cell_setting 'orthorhombic'
loop_
_space_group_symop_operation_xyz
x,y,z
1/2-x,1/2-y,z
x,1/2-y,1/2-z
1/2-x,y,1/2-z
-x,-y,-z
1/2+x,1/2+y,-z
-x,1/2+y,1/2+z
1/2+x,-y,1/2+z
loop_
_atom_site_type_symbol
_atom_site_label
_atom_site_fract_x
_atom_site_fract_y
_atom_site_fract_z
Si Si1 0.783488 0.830088 0.123067
Si Si2 0.831159 0.545644 0.048741
Si Si3 0.043565 0.575872 0.272113
Si Si4 0.960789 0.662138 0.711281
Si Si5 0.433793 0.560834 0.671809
Si Si6 0.009270 0.358170 0.952079
Si Si7 0.959188 0.822943 0.047157
Si Si8 0.336412 0.039197 0.209988
O O1 0.750000 0.750000 0.070769
O O2 0.750000 0.832785 0.250000
O O3 0.748198 0.906520 0.065887
O O4 0.876831 0.825748 0.114435
O O5 0.851345 0.477151 0.136665
O O6 0.902910 0.607337 0.063677
O O7 0.835595 0.516581 0.921120
O O8 0.125811 0.531371 0.280119
O O9 0.982256 0.507863 0.234504
O O10 0.039297 0.629992 0.162301
O O11 0.017693 0.623683 0.380831
O O12 0.951260 0.750000 0.750000
O O13 0.947570 0.647659 0.579680
O O14 0.895365 0.611516 0.775989
O O15 0.047678 0.632753 0.746965
O O16 0.471692 0.590884 0.553255
O O17 0.014697 0.266288 0.970112
O O18 0.250000 0.059515 0.250000
#
# Coordination Sequence:
#
# PCOD9390000 Si02
#       8
#     8   8   8   8   8   8   8   8
#     4  11  23  34  51  87 130 159 190 240 301 370
#     4  11  18  37  58  80 115 162 202 229 285 366
#     4  10  21  35  58  84 113 154 206 249 292 353
#     4  11  22  37  55  89 123 157 200 246 307 371
#     4  10  19  35  60  80 113 160 204 239 280 371
#     4  11  17  35  59  83 112 155 201 241 286 366
#     4  12  23  36  57  89 126 154 192 256 313 351
#     4  11  22  37  56  83 119 157 195 244 301 369
#
# _framework density 18.385632000000001
#
# number of rings (size 3 to 8) (size 9 to 14) (size 15 to 20)
#    0.000    1.125    6.250    3.375    1.750    2.250 
#    0.000    1.250    0.000    1.500    0.000    0.000 
#    0.000    0.000    0.000    0.000    0.000    0.000 
#
# Total GULP energy -356786.893081 kJ/mol
# GULP energy per Si atom -5574.795204 kJ/mol
# Density = 1.834379 g / cm^3
# Si number density = 18.385632 Si / 1000 Ang^3
#
#
#
# Elastic Constant Matrix: (Units=GPa)
#
#
# Indices 1 2 3 4 5 6 
#
# 1 36.4308 33.9089 1.1596 0.0000 0.0000 0.0000
# 2 33.9089 53.0196 1.7858 0.0000 0.0000 0.0000
# 3 1.1596 1.7858 70.8890 0.0000 0.0000 0.0000
# 4 0.0000 0.0000 0.0000 28.5726 0.0000 0.0000
# 5 0.0000 0.0000 0.0000 0.0000 14.9599 0.0000
# 6 0.0000 0.0000 0.0000 0.0000 0.0000 23.5415
#
#
#
# Elastic Compliance Matrix: (Units=1/GPa)
#
#
# Indices 1 2 3 4 5 6 
#
# 1 0.067823 -0.043376 -0.000017 0.000000 0.000000 0.000000
# 2 -0.043376 0.046618 -0.000465 0.000000 0.000000 0.000000
# 3 -0.000017 -0.000465 0.014119 0.000000 0.000000 0.000000
# 4 0.000000 0.000000 0.000000 0.034999 0.000000 0.000000
# 5 0.000000 0.000000 0.000000 0.000000 0.066845 0.000000
# 6 0.000000 0.000000 0.000000 0.000000 0.000000 0.042478
#
#
# Mechanical properties :
#
#
# Convention : Reuss Voigt Hill
#
# Bulk Modulus (GPa) = 24.48316 26.00535 25.24426
# Shear Modulus (GPa) = 13.36142 21.64715 17.50429
#
# Velocity S-wave (km/s) = 2.69872 3.43504 3.08890
# Velocity P-wave (km/s) = 4.80168 5.46880 5.14606
#
# Compressibility (1/GPa) = 0.04084440
#
# Stress axis : x y z
#
# Youngs Moduli (GPa) = 14.74422 21.45096 70.82886
#
# Poissons Ratio (x) = 0.93046 0.00119
# Poissons Ratio (y) = 0.63955 0.03292
# Poissons Ratio (z) = 0.00025 0.00997
#
# Static dielectric constant tensor:
#      x y z
#    x 1.630070 0.000000 0.000000 
#    y 0.000000 1.671720 0.000000 
#    z 0.000000 0.000000 1.667300 
# 
# From -- ./inp_files/22350.got.cif
#   From: 2010.05.17/outbox.cif.g08.bks.cpg/sg48_12_cif.got.tgz:22350.got - 2010.06.03 20:39:00.
