data_PCOD9390959
_publ_section_title
;
Structure prediction by ZEFSAII (Michael W. Deem and Ramdas Pophale) SiO2 
 PCOD9390959
Probable space group: P N N N
;
_chemical_formula_sum "Si O2"
_cell_formula_units_Z 64
_cell_length_a 12.261097
_cell_length_b 8.536349
_cell_length_c 29.434619
_cell_angle_alpha 90.000000
_cell_angle_beta 90.000000
_cell_angle_gamma 90.000000
_cell_volume 3080.774489
_symmetry_space_group_name_H-M "P N N N"
_symmetry_group_IT_number 48
_space_group.IT_coordinate_system_code '2'
_symmetry_cell_setting 'orthorhombic'
loop_
_space_group_symop_operation_xyz
x,y,z
1/2-x,1/2-y,z
x,1/2-y,1/2-z
1/2-x,y,1/2-z
-x,-y,-z
1/2+x,1/2+y,-z
-x,1/2+y,1/2+z
1/2+x,-y,1/2+z
loop_
_atom_site_type_symbol
_atom_site_label
_atom_site_fract_x
_atom_site_fract_y
_atom_site_fract_z
Si Si1 0.035276 0.144914 0.427942
Si Si2 0.422399 0.425080 0.864953
Si Si3 0.346800 0.414445 0.121739
Si Si4 0.243204 0.570847 0.803734
Si Si5 0.527575 0.568329 0.345775
Si Si6 0.159459 0.626645 0.554323
Si Si7 0.262584 0.437936 0.471723
Si Si8 0.211175 0.928394 0.302274
O O1 0.121782 0.242152 0.396512
O O2 0.107677 0.049253 0.463863
O O3 0.951965 0.270890 0.449454
O O4 0.980089 0.032566 0.391756
O O5 0.537973 0.511582 0.864647
O O6 0.343879 0.476749 0.824461
O O7 0.446841 0.243584 0.861251
O O8 0.363400 0.488482 0.910102
O O9 0.294230 0.485810 0.075958
O O10 0.270785 0.449230 0.164477
O O11 0.250000 0.750000 0.820123
O O12 0.250000 0.570434 0.750000
O O13 0.129316 0.497465 0.818272
O O14 0.417146 0.562571 0.315260
O O15 0.250000 0.750000 0.570906
O O16 0.208052 0.545031 0.509669
O O17 0.250000 0.250000 0.481381
O O18 0.250000 0.750000 0.313367
O O19 0.250000 0.955338 0.250000
#
# Coordination Sequence:
#
# PCOD9390959 Si02
#       8
#     8   8   8   8   8   8   8   8
#     4  10  23  43  69  97 138 180 231 287 348 425
#     4  11  24  42  70  96 134 180 226 285 343 418
#     4  10  21  44  69  95 140 182 218 283 351 406
#     4  11  26  46  67  97 135 181 234 286 349 419
#     4  12  24  43  72 101 138 190 228 283 357 424
#     4  11  25  44  67  98 137 178 232 296 346 413
#     4  10  23  42  69  99 135 179 234 287 351 425
#     4  11  24  41  69 111 144 173 233 291 349 422
#
# _framework density 20.773996
#
# number of rings (size 3 to 8) (size 9 to 14) (size 15 to 20)
#    0.000    1.250    2.500    3.000    1.750    9.500 
#    0.000    0.625    0.000    0.000    0.000    0.000 
#    0.000    0.000    0.000    0.000    0.000    0.000 
#
# Total GULP energy -357532.533617 kJ/mol
# GULP energy per Si atom -5586.445838 kJ/mol
# Density = 2.072671 g / cm^3
# Si number density = 20.773996 Si / 1000 Ang^3
#
#
#
# Elastic Constant Matrix: (Units=GPa)
#
#
# Indices 1 2 3 4 5 6 
#
# 1 147.0357 58.1800 72.7731 0.0000 0.0000 0.0000
# 2 58.1800 80.6983 56.8061 0.0000 0.0000 0.0000
# 3 72.7731 56.8061 130.2142 0.0000 0.0000 0.0000
# 4 0.0000 0.0000 0.0000 28.5976 0.0000 0.0000
# 5 0.0000 0.0000 0.0000 0.0000 42.0691 0.0000
# 6 0.0000 0.0000 0.0000 0.0000 0.0000 35.0695
#
#
#
# Elastic Compliance Matrix: (Units=1/GPa)
#
#
# Indices 1 2 3 4 5 6 
#
# 1 0.010653 -0.005036 -0.003757 0.000000 0.000000 0.000000
# 2 -0.005036 0.020264 -0.006026 0.000000 0.000000 0.000000
# 3 -0.003757 -0.006026 0.012408 0.000000 0.000000 0.000000
# 4 0.000000 0.000000 0.000000 0.034968 0.000000 0.000000
# 5 0.000000 0.000000 0.000000 0.000000 0.023770 0.000000
# 6 0.000000 0.000000 0.000000 0.000000 0.000000 0.028515
#
#
# Mechanical properties :
#
#
# Convention : Reuss Voigt Hill
#
# Bulk Modulus (GPa) = 73.05543 81.49632 77.27587
# Shear Modulus (GPa) = 30.34374 32.49316 31.41845
#
# Velocity S-wave (km/s) = 3.82600 3.95919 3.89317
# Velocity P-wave (km/s) = 7.40006 7.75986 7.58209
#
# Compressibility (1/GPa) = 0.01368824
#
# Stress axis : x y z
#
# Youngs Moduli (GPa) = 93.86968 49.34779 80.59290
#
# Poissons Ratio (x) = 0.24851 0.30277
# Poissons Ratio (y) = 0.47272 0.48565
# Poissons Ratio (z) = 0.35265 0.29737
#
# Static dielectric constant tensor:
#      x y z
#    x 1.763660 0.000000 0.000000 
#    y 0.000000 1.759070 0.000000 
#    z 0.000000 0.000000 1.727360 
# 
# From -- ./inp_files/38979.got.cif
#   From: 2010.05.17/outbox.cif.g08.bks.cpg/sg48_20_cif.got.tgz:38979.got - 2010.06.03 20:39:00.
