data_PCOD9390509
_publ_section_title
;
Structure prediction by ZEFSAII (Michael W. Deem and Ramdas Pophale) SiO2 
 PCOD9390509
Probable space group: P N N N
;
_chemical_formula_sum "Si O2"
_cell_formula_units_Z 48
_cell_length_a 18.380396
_cell_length_b 14.898713
_cell_length_c 8.908166
_cell_angle_alpha 90.000000
_cell_angle_beta 90.000000
_cell_angle_gamma 90.000000
_cell_volume 2439.449991
_symmetry_space_group_name_H-M "P N N N"
_symmetry_group_IT_number 48
_space_group.IT_coordinate_system_code '2'
_symmetry_cell_setting 'orthorhombic'
loop_
_space_group_symop_operation_xyz
x,y,z
1/2-x,1/2-y,z
x,1/2-y,1/2-z
1/2-x,y,1/2-z
-x,-y,-z
1/2+x,1/2+y,-z
-x,1/2+y,1/2+z
1/2+x,-y,1/2+z
loop_
_atom_site_type_symbol
_atom_site_label
_atom_site_fract_x
_atom_site_fract_y
_atom_site_fract_z
Si Si1 0.975240 0.236735 0.928807
Si Si2 0.174794 0.705394 0.587140
Si Si3 0.535963 0.582095 0.856258
Si Si4 0.163033 0.145782 0.729682
Si Si5 0.115758 0.979235 0.909645
Si Si6 0.947731 0.913047 0.526100
O O1 0.981945 0.250000 0.750000
O O2 0.891941 0.220621 0.975475
O O3 0.021929 0.160899 0.020588
O O4 0.999997 0.330201 0.994887
O O5 0.250000 0.750000 0.537027
O O6 0.158535 0.750000 0.750000
O O7 0.176516 0.597121 0.600190
O O8 0.453338 0.554456 0.813981
O O9 0.575169 0.599155 0.699721
O O10 0.577755 0.498176 0.930487
O O11 0.139809 0.250000 0.750000
O O12 0.250000 0.146897 0.750000
O O13 0.122143 0.103536 0.583366
O O14 0.140267 0.075769 0.856715
O O15 0.000000 0.000000 0.500000
#
# Coordination Sequence:
#
# PCOD9390509 Si02
#       6
#     8   8   8   8   8   8
#     4  11  23  39  64  94 132 170 217 284 341 402
#     4  10  23  39  62  92 128 179 215 265 341 408
#     4  10  21  39  66  97 122 167 213 284 342 379
#     4  11  25  43  65  96 135 182 222 278 352 415
#     4  10  20  39  65  88 133 161 214 279 330 400
#     4  12  23  37  67  98 126 168 232 279 335 410
#
# _framework density 19.676565
#
# number of rings (size 3 to 8) (size 9 to 14) (size 15 to 20)
#    0.000    1.333    1.667    5.000    7.000    0.333 
#    0.000    0.833    7.333    2.000    0.000    0.000 
#    0.000    0.000    0.000    0.000    0.000    0.000 
#
# Total GULP energy -267244.277012 kJ/mol
# GULP energy per Si atom -5567.589104 kJ/mol
# Density = 1.963178 g / cm^3
# Si number density = 19.676565 Si / 1000 Ang^3
#
#
#
# Elastic Constant Matrix: (Units=GPa)
#
#
# Indices 1 2 3 4 5 6 
#
# 1 108.7096 54.4944 39.4318 0.0000 0.0000 0.0000
# 2 54.4944 157.4565 37.1038 0.0000 0.0000 0.0000
# 3 39.4318 37.1038 108.6940 0.0000 0.0000 0.0000
# 4 0.0000 0.0000 0.0000 25.0843 0.0000 0.0000
# 5 0.0000 0.0000 0.0000 0.0000 30.8215 0.0000
# 6 0.0000 0.0000 0.0000 0.0000 0.0000 39.8797
#
#
#
# Elastic Compliance Matrix: (Units=1/GPa)
#
#
# Indices 1 2 3 4 5 6 
#
# 1 0.012081 -0.003424 -0.003214 0.000000 0.000000 0.000000
# 2 -0.003424 0.007877 -0.001447 0.000000 0.000000 0.000000
# 3 -0.003214 -0.001447 0.010860 0.000000 0.000000 0.000000
# 4 0.000000 0.000000 0.000000 0.039866 0.000000 0.000000
# 5 0.000000 0.000000 0.000000 0.000000 0.032445 0.000000
# 6 0.000000 0.000000 0.000000 0.000000 0.000000 0.025075
#
#
# Mechanical properties :
#
#
# Convention : Reuss Voigt Hill
#
# Bulk Modulus (GPa) = 68.26533 70.76890 69.51712
# Shear Modulus (GPa) = 33.49963 35.41243 34.45603
#
# Velocity S-wave (km/s) = 4.13063 4.24692 4.18918
# Velocity P-wave (km/s) = 7.58410 7.75194 7.66848
#
# Compressibility (1/GPa) = 0.01464872
#
# Stress axis : x y z
#
# Youngs Moduli (GPa) = 82.77549 126.95489 92.08138
#
# Poissons Ratio (x) = 0.43466 0.29594
# Poissons Ratio (y) = 0.28340 0.13322
# Poissons Ratio (z) = 0.26604 0.18367
#
# Static dielectric constant tensor:
#      x y z
#    x 1.726440 0.000000 0.000000 
#    y 0.000000 1.723740 0.000000 
#    z 0.000000 0.000000 1.640820 
# 
# From -- ./inp_files/12759.got.cif
#   From: 2010.05.17/outbox.cif.g08.bks.cpg/sg48_7_cif.got.tgz:12759.got - 2010.06.03 20:39:00.
