data_PCOD9390736
_publ_section_title
;
Structure prediction by ZEFSAII (Michael W. Deem and Ramdas Pophale) SiO2 
 PCOD9390736
Probable space group: P N N N
;
_chemical_formula_sum "Si O2"
_cell_formula_units_Z 58
_cell_length_a 11.091524
_cell_length_b 9.212141
_cell_length_c 27.854763
_cell_angle_alpha 90.000000
_cell_angle_beta 90.000000
_cell_angle_gamma 90.000000
_cell_volume 2846.107289
_symmetry_space_group_name_H-M "P N N N"
_symmetry_group_IT_number 48
_space_group.IT_coordinate_system_code '2'
_symmetry_cell_setting 'orthorhombic'
loop_
_space_group_symop_operation_xyz
x,y,z
1/2-x,1/2-y,z
x,1/2-y,1/2-z
1/2-x,y,1/2-z
-x,-y,-z
1/2+x,1/2+y,-z
-x,1/2+y,1/2+z
1/2+x,-y,1/2+z
loop_
_atom_site_type_symbol
_atom_site_label
_atom_site_fract_x
_atom_site_fract_y
_atom_site_fract_z
Si Si1 0.638091 0.946147 0.134701
Si Si2 0.260746 0.082879 0.101280
Si Si3 0.610097 0.283444 0.307019
Si Si4 0.082325 0.119266 0.861817
Si Si5 0.487934 0.917695 0.948940
Si Si6 0.090006 0.439843 0.318528
Si Si7 0.978050 0.574064 0.550047
Si Si8 0.250000 0.250000 0.250000
O O1 0.778229 0.918795 0.145344
O O2 0.574615 0.790666 0.130457
O O3 0.588314 0.052318 0.176064
O O4 0.621549 0.024993 0.083461
O O5 0.250000 0.250000 0.118165
O O6 0.392444 0.047871 0.082992
O O7 0.194246 0.005020 0.145075
O O8 0.165838 0.073802 0.058289
O O9 0.750000 0.250000 0.320686
O O10 0.600810 0.250000 0.250000
O O11 0.508451 0.186151 0.333298
O O12 0.002563 0.072530 0.815889
O O13 0.035540 0.024618 0.907472
O O14 0.482024 0.742682 0.952169
O O15 0.500000 0.000000 0.000000
O O16 0.162177 0.359359 0.277649
O O17 0.000000 0.500000 0.500000
#
# Coordination Sequence:
#
# PCOD9390736 Si02
#       8
#     8   8   8   8   8   8   8   2
#     4  11  23  41  68  94 136 178 218 286 348 409
#     4   9  19  37  60  84 127 168 210 268 331 391
#     4  11  22  39  70 103 130 167 231 292 340 415
#     4  10  23  42  64  94 134 178 220 274 360 407
#     4  11  24  39  63  98 130 173 233 280 334 408
#     4  11  21  41  66  99 128 173 225 272 340 406
#     4  10  21  38  62  89 129 172 220 276 335 410
#     4  12  24  36  82  98 136 180 242 282 332 432
#
# _framework density 20.378712
#
# number of rings (size 3 to 8) (size 9 to 14) (size 15 to 20)
#    0.000    1.517    2.759    3.310    1.931    0.000 
#    0.000    6.207    0.000    0.828    0.000    0.000 
#    0.000    0.000    0.000    0.000    0.000    0.000 
#
# Total GULP energy -323105.772664 kJ/mol
# GULP energy per Si atom -5570.789184 kJ/mol
# Density = 2.033233 g / cm^3
# Si number density = 20.378712 Si / 1000 Ang^3
#
#
#
# Elastic Constant Matrix: (Units=GPa)
#
#
# Indices 1 2 3 4 5 6 
#
# 1 84.1509 29.6406 17.3021 0.0000 0.0000 0.0000
# 2 29.6406 135.0233 52.6008 0.0000 0.0000 0.0000
# 3 17.3021 52.6008 88.1230 0.0000 0.0000 0.0000
# 4 0.0000 0.0000 0.0000 31.9445 0.0000 0.0000
# 5 0.0000 0.0000 0.0000 0.0000 19.7516 0.0000
# 6 0.0000 0.0000 0.0000 0.0000 0.0000 27.4143
#
#
#
# Elastic Compliance Matrix: (Units=1/GPa)
#
#
# Indices 1 2 3 4 5 6 
#
# 1 0.012961 -0.002416 -0.001103 0.000000 0.000000 0.000000
# 2 -0.002416 0.010100 -0.005555 0.000000 0.000000 0.000000
# 3 -0.001103 -0.005555 0.014880 0.000000 0.000000 0.000000
# 4 0.000000 0.000000 0.000000 0.031304 0.000000 0.000000
# 5 0.000000 0.000000 0.000000 0.000000 0.050629 0.000000
# 6 0.000000 0.000000 0.000000 0.000000 0.000000 0.036477
#
#
# Mechanical properties :
#
#
# Convention : Reuss Voigt Hill
#
# Bulk Modulus (GPa) = 50.51777 56.26490 53.39133
# Shear Modulus (GPa) = 27.60962 29.67231 28.64097
#
# Velocity S-wave (km/s) = 3.68479 3.81995 3.75298
# Velocity P-wave (km/s) = 6.55339 6.86481 6.71091
#
# Compressibility (1/GPa) = 0.01979502
#
# Stress axis : x y z
#
# Youngs Moduli (GPa) = 77.15441 99.00689 67.20481
#
# Poissons Ratio (x) = 0.23916 0.07412
# Poissons Ratio (y) = 0.18637 0.37330
# Poissons Ratio (z) = 0.08509 0.54995
#
# Static dielectric constant tensor:
#      x y z
#    x 1.778500 0.000000 0.000000 
#    y 0.000000 1.788770 0.000000 
#    z 0.000000 0.000000 1.812890 
# 
# From -- ./inp_files/38939.got.cif
#   From: 2010.05.17/outbox.cif.g08.bks.cpg/sg48_20_cif.got.tgz:38939.got - 2010.06.03 20:39:00.
