data_PCOD9390173
_publ_section_title
;
Structure prediction by ZEFSAII (Michael W. Deem and Ramdas Pophale) SiO2 
 PCOD9390173
Probable space group: P N N N
;
_chemical_formula_sum "Si O2"
_cell_formula_units_Z 64
_cell_length_a 30.001421
_cell_length_b 17.830531
_cell_length_c 5.585525
_cell_angle_alpha 90.000000
_cell_angle_beta 90.000000
_cell_angle_gamma 90.000000
_cell_volume 2987.927821
_symmetry_space_group_name_H-M "P N N N"
_symmetry_group_IT_number 48
_space_group.IT_coordinate_system_code '2'
_symmetry_cell_setting 'orthorhombic'
loop_
_space_group_symop_operation_xyz
x,y,z
1/2-x,1/2-y,z
x,1/2-y,1/2-z
1/2-x,y,1/2-z
-x,-y,-z
1/2+x,1/2+y,-z
-x,1/2+y,1/2+z
1/2+x,-y,1/2+z
loop_
_atom_site_type_symbol
_atom_site_label
_atom_site_fract_x
_atom_site_fract_y
_atom_site_fract_z
Si Si1 0.275420 0.538515 0.497540
Si Si2 0.625570 0.976168 0.025888
Si Si3 0.594364 0.355930 0.354177
Si Si4 0.495350 0.827027 0.100718
Si Si5 0.689171 0.206998 0.005315
Si Si6 0.538179 0.421190 0.026124
Si Si7 0.444985 0.081067 0.346249
Si Si8 0.590083 0.832939 0.243471
O O1 0.250000 0.519924 0.250000
O O2 0.322947 0.496557 0.493761
O O3 0.285521 0.627790 0.491933
O O4 0.250000 0.522896 0.750000
O O5 0.596921 0.943786 0.808091
O O6 0.620992 0.905383 0.205744
O O7 0.601971 0.056578 0.075019
O O8 0.549574 0.318037 0.448566
O O9 0.637345 0.312823 0.442404
O O10 0.581219 0.369536 0.076351
O O11 0.496964 0.750000 0.250000
O O12 0.482407 0.895455 0.276611
O O13 0.548816 0.836547 0.050948
O O14 0.694049 0.250000 0.750000
O O15 0.702582 0.250000 0.250000
O O16 0.550655 0.507498 0.018393
O O17 0.497826 0.411827 0.220972
O O18 0.432904 0.153123 0.500859
O O19 0.610339 0.750000 0.250000
#
# Coordination Sequence:
#
# PCOD9390173 Si02
#       8
#     8   8   8   8   8   8   8   8
#     4  11  27  48  76 107 133 168 221 280 349 423
#     4  11  23  39  66  90 123 161 214 277 338 404
#     4  11  22  33  55  85 130 176 231 269 316 367
#     4  10  21  34  51  82 131 177 224 269 315 366
#     4  11  26  43  67 100 141 185 226 274 332 396
#     4  10  20  32  54  86 126 178 230 276 316 373
#     4  10  20  35  59  89 124 170 226 274 328 387
#     4  10  22  39  59  91 127 166 213 269 329 396
#
# _framework density 21.419526000000001
#
# number of rings (size 3 to 8) (size 9 to 14) (size 15 to 20)
#    0.000    1.500    2.500    1.875    5.250    3.000 
#    0.000    3.750    0.000    0.375    0.000    0.000 
#    0.000    0.000    0.000    0.000    0.000    0.000 
#
# Total GULP energy -356485.043543 kJ/mol
# GULP energy per Si atom -5570.078805 kJ/mol
# Density = 2.137077 g / cm^3
# Si number density = 21.419526 Si / 1000 Ang^3
#
#
#
# Elastic Constant Matrix: (Units=GPa)
#
#
# Indices 1 2 3 4 5 6 
#
# 1 132.9296 43.1053 46.7038 0.0000 0.0000 0.0000
# 2 43.1053 112.3044 14.8234 0.0000 0.0000 0.0000
# 3 46.7038 14.8234 72.3150 0.0000 0.0000 0.0000
# 4 0.0000 0.0000 0.0000 14.5633 0.0000 0.0000
# 5 0.0000 0.0000 0.0000 0.0000 -423.0119 0.0000
# 6 0.0000 0.0000 0.0000 0.0000 0.0000 21.9454
#
#
#
# Elastic Compliance Matrix: (Units=1/GPa)
#
#
# Indices 1 2 3 4 5 6 
#
# 1 0.010814 -0.003319 -0.006304 0.000000 0.000000 0.000000
# 2 -0.003319 0.010170 0.000058 0.000000 0.000000 0.000000
# 3 -0.006304 0.000058 0.017888 0.000000 0.000000 0.000000
# 4 0.000000 0.000000 0.000000 0.068666 0.000000 0.000000
# 5 0.000000 0.000000 0.000000 0.000000 -0.002364 0.000000
# 6 0.000000 0.000000 0.000000 0.000000 0.000000 0.045568
#
#
# Mechanical properties :
#
#
# Convention : Reuss Voigt Hill
#
# Bulk Modulus (GPa) = 50.64778 58.53490 54.59134
# Shear Modulus (GPa) = 28.33668 -63.10622 -17.38477
#
# Velocity S-wave (km/s) = 3.64117 -5.43378 -2.85201
# Velocity P-wave (km/s) = 6.43229 3.46133 3.83364
#
# Compressibility (1/GPa) = 0.01974420
#
# Stress axis : x y z
#
# Youngs Moduli (GPa) = 92.47616 98.32471 55.90490
#
# Poissons Ratio (x) = 0.32629 0.35240
# Poissons Ratio (y) = 0.30688 -0.00327
# Poissons Ratio (z) = 0.58293 -0.00575
#
# Static dielectric constant tensor:
#      x y z
#    x 1.780810 0.000000 0.000000 
#    y 0.000000 1.804730 0.000000 
#    z 0.000000 0.000000 1.993680 
# 
# From -- ./inp_files/7142.got.cif
#   From: 2010.05.17/outbox.cif.g08.bks.cpg/sg48_4_cif.got.tgz:7142.got - 2010.06.03 20:39:00.
