data_PCOD9390966
_publ_section_title
;
Structure prediction by ZEFSAII (Michael W. Deem and Ramdas Pophale) SiO2 
 PCOD9390966
Probable space group: P N N N
;
_chemical_formula_sum "Si O2"
_cell_formula_units_Z 40
_cell_length_a 15.948014
_cell_length_b 8.833625
_cell_length_c 12.313574
_cell_angle_alpha 90.000000
_cell_angle_beta 90.000000
_cell_angle_gamma 90.000000
_cell_volume 1734.721223
_symmetry_space_group_name_H-M "P N N N"
_symmetry_group_IT_number 48
_space_group.IT_coordinate_system_code '2'
_symmetry_cell_setting 'orthorhombic'
loop_
_space_group_symop_operation_xyz
x,y,z
1/2-x,1/2-y,z
x,1/2-y,1/2-z
1/2-x,y,1/2-z
-x,-y,-z
1/2+x,1/2+y,-z
-x,1/2+y,1/2+z
1/2+x,-y,1/2+z
loop_
_atom_site_type_symbol
_atom_site_label
_atom_site_fract_x
_atom_site_fract_y
_atom_site_fract_z
Si Si1 0.256963 0.077012 0.953995
Si Si2 0.698645 0.392754 0.637542
Si Si3 0.498478 0.852673 0.145060
Si Si4 0.921289 0.582034 0.448141
Si Si5 0.876843 0.425353 0.218680
O O1 0.250000 0.250000 0.915756
O O2 0.165018 0.049191 0.007445
O O3 0.298780 0.979854 0.856403
O O4 0.308954 0.037361 0.060245
O O5 0.750000 0.250000 0.585654
O O6 0.750000 0.418880 0.750000
O O7 0.601357 0.347171 0.644734
O O8 0.519663 0.750000 0.250000
O O9 0.549227 0.755654 0.056544
O O10 0.540227 0.017610 0.153848
O O11 0.890411 0.514573 0.331771
O O12 0.000000 0.500000 0.500000
O O13 0.872270 0.250000 0.250000
#
# Coordination Sequence:
#
# PCOD9390966 Si02
#       5
#     8   8   8   8   8
#     4  12  27  47  71 109 151 200 247 324 390 461
#     4  11  24  45  74 106 148 199 258 315 385 465
#     4  10  21  45  71 100 145 196 245 314 381 458
#     4  11  25  44  76 103 144 195 252 306 393 460
#     4  11  27  46  73 111 149 196 255 318 384 470
#
# _framework density 23.058458000000002
#
# number of rings (size 3 to 8) (size 9 to 14) (size 15 to 20)
#    0.000    1.000    4.000    1.800    8.400    4.400 
#    0.000    0.000    0.000    0.000    0.000    0.000 
#    0.000    0.000    0.000    0.000    0.000    0.000 
#
# Total GULP energy -222688.881935 kJ/mol
# GULP energy per Si atom -5567.222048 kJ/mol
# Density = 2.300598 g / cm^3
# Si number density = 23.058458 Si / 1000 Ang^3
#
#
#
# Elastic Constant Matrix: (Units=GPa)
#
#
# Indices 1 2 3 4 5 6 
#
# 1 175.8135 64.6536 26.1747 0.0000 0.0000 0.0000
# 2 64.6536 160.9617 36.4003 0.0000 0.0000 0.0000
# 3 26.1747 36.4003 57.4577 0.0000 0.0000 0.0000
# 4 0.0000 0.0000 0.0000 28.2362 0.0000 0.0000
# 5 0.0000 0.0000 0.0000 0.0000 29.7524 0.0000
# 6 0.0000 0.0000 0.0000 0.0000 0.0000 16.0998
#
#
#
# Elastic Compliance Matrix: (Units=1/GPa)
#
#
# Indices 1 2 3 4 5 6 
#
# 1 0.006797 -0.002369 -0.001595 0.000000 0.000000 0.000000
# 2 -0.002369 0.008077 -0.004038 0.000000 0.000000 0.000000
# 3 -0.001595 -0.004038 0.020689 0.000000 0.000000 0.000000
# 4 0.000000 0.000000 0.000000 0.035415 0.000000 0.000000
# 5 0.000000 0.000000 0.000000 0.000000 0.033611 0.000000
# 6 0.000000 0.000000 0.000000 0.000000 0.000000 0.062112
#
#
# Mechanical properties :
#
#
# Convention : Reuss Voigt Hill
#
# Bulk Modulus (GPa) = 51.12940 72.07669 61.60305
# Shear Modulus (GPa) = 26.42347 32.61798 29.52073
#
# Velocity S-wave (km/s) = 3.38884 3.76517 3.58195
# Velocity P-wave (km/s) = 6.12652 7.08718 6.62429
#
# Compressibility (1/GPa) = 0.01955822
#
# Stress axis : x y z
#
# Youngs Moduli (GPa) = 147.13231 123.80142 48.33516
#
# Poissons Ratio (x) = 0.29332 0.07711
# Poissons Ratio (y) = 0.34859 0.19517
# Poissons Ratio (z) = 0.23471 0.49990
#
# Static dielectric constant tensor:
#      x y z
#    x 1.816750 0.000000 0.000000 
#    y 0.000000 1.918390 0.000000 
#    z 0.000000 0.000000 2.521890 
# 
# From -- ./inp_files/27064.got.cif
#   From: 2010.05.17/outbox.cif.g08.bks.cpg/sg48_14_cif.got.tgz:27064.got - 2010.06.03 20:39:00.
