data_PCOD9390482
_publ_section_title
;
Structure prediction by ZEFSAII (Michael W. Deem and Ramdas Pophale) SiO2 
 PCOD9390482
Probable space group: P N N N
;
_chemical_formula_sum "Si O2"
_cell_formula_units_Z 36
_cell_length_a 8.877980
_cell_length_b 25.172984
_cell_length_c 8.370685
_cell_angle_alpha 90.000000
_cell_angle_beta 90.000000
_cell_angle_gamma 90.000000
_cell_volume 1870.724617
_symmetry_space_group_name_H-M "P N N N"
_symmetry_group_IT_number 48
_space_group.IT_coordinate_system_code '2'
_symmetry_cell_setting 'orthorhombic'
loop_
_space_group_symop_operation_xyz
x,y,z
1/2-x,1/2-y,z
x,1/2-y,1/2-z
1/2-x,y,1/2-z
-x,-y,-z
1/2+x,1/2+y,-z
-x,1/2+y,1/2+z
1/2+x,-y,1/2+z
loop_
_atom_site_type_symbol
_atom_site_label
_atom_site_fract_x
_atom_site_fract_y
_atom_site_fract_z
Si Si1 0.499666 0.173243 0.633290
Si Si2 0.250000 0.250000 0.750000
Si Si3 0.148381 0.604617 0.601089
Si Si4 0.077641 0.038722 0.288509
Si Si5 0.435170 0.581951 0.391540
Si Si6 0.250000 0.750000 0.250000
O O1 0.355843 0.210679 0.649457
O O2 0.523304 0.144081 0.466550
O O3 0.507987 0.129144 0.776196
O O4 0.642429 0.211990 0.650246
O O5 0.250000 0.623727 0.750000
O O6 0.267355 0.593742 0.459217
O O7 0.051999 0.554887 0.663028
O O8 0.250000 0.051793 0.250000
O O9 0.034879 0.070557 0.450540
O O10 0.066838 0.975386 0.308634
#
# Coordination Sequence:
#
# PCOD9390482 Si02
#       6
#     8   2   8   8   8   2
#     4  11  21  42  64  89 118 155 209 259 302 366
#     4  10  28  38  64  96 116 150 216 268 320 336
#     4  10  21  39  64  90 121 162 202 242 304 372
#     4  10  22  36  58  95 131 157 196 245 309 372
#     4  10  21  39  62  90 124 166 199 243 303 375
#     4  10  20  38  70  78 108 158 214 258 284 352
#
# _framework density 19.243879
#
# number of rings (size 3 to 8) (size 9 to 14) (size 15 to 20)
#    0.000    1.778    2.222    1.333    3.111    3.556 
#    6.000    0.556    0.000    5.333    0.000    0.000 
#    0.000    0.000    0.000    0.000    0.000    0.000 
#
# Total GULP energy -200814.854496 kJ/mol
# GULP energy per Si atom -5578.190403 kJ/mol
# Density = 1.920008 g / cm^3
# Si number density = 19.243879 Si / 1000 Ang^3
#
#
#
# Elastic Constant Matrix: (Units=GPa)
#
#
# Indices 1 2 3 4 5 6 
#
# 1 122.1075 48.2885 38.3606 0.0000 0.0000 0.0000
# 2 48.2885 113.5446 54.1260 0.0000 0.0000 0.0000
# 3 38.3606 54.1260 60.4751 0.0000 0.0000 0.0000
# 4 0.0000 0.0000 0.0000 -0.0584 0.0000 0.0000
# 5 0.0000 0.0000 0.0000 0.0000 1.5206 0.0000
# 6 0.0000 0.0000 0.0000 0.0000 0.0000 26.9150
#
#
#
# Elastic Compliance Matrix: (Units=1/GPa)
#
#
# Indices 1 2 3 4 5 6 
#
# 1 0.010550 -0.002262 -0.004668 0.000000 0.000000 0.000000
# 2 -0.002262 0.015845 -0.012747 0.000000 0.000000 0.000000
# 3 -0.004668 -0.012747 0.030906 0.000000 0.000000 0.000000
# 4 0.000000 0.000000 0.000000-17.121958 0.000000 0.000000
# 5 0.000000 0.000000 0.000000 0.000000 0.657625 0.000000
# 6 0.000000 0.000000 0.000000 0.000000 0.000000 0.037154
#
#
# Mechanical properties :
#
#
# Convention : Reuss Voigt Hill
#
# Bulk Modulus (GPa) = 55.71793 64.18637 59.95215
# Shear Modulus (GPa) = -0.30629 16.03226 7.86299
#
# Velocity S-wave (km/s) = -0.39938 2.88950 2.02357
# Velocity P-wave (km/s) = 5.36691 6.67524 6.05651
#
# Compressibility (1/GPa) = 0.01794754
#
# Stress axis : x y z
#
# Youngs Moduli (GPa) = 94.78313 63.10940 32.35632
#
# Poissons Ratio (x) = 0.14273 0.15104
# Poissons Ratio (y) = 0.21436 0.41246
# Poissons Ratio (z) = 0.44246 0.80448
#
# Static dielectric constant tensor:
#      x y z
#    x 1.814570 0.000000 0.000000 
#    y 0.000000 1.669170 0.000000 
#    z 0.000000 0.000000 1.724760 
# 
# From -- ./inp_files/8780.got.cif
#   From: 2010.05.17/outbox.cif.g08.bks.cpg/sg48_5_cif.got.tgz:8780.got - 2010.06.03 20:39:00.
