data_PCOD9390434
_publ_section_title
;
Structure prediction by ZEFSAII (Michael W. Deem and Ramdas Pophale) SiO2 
 PCOD9390434
Probable space group: P N N N
;
_chemical_formula_sum "Si O2"
_cell_formula_units_Z 64
_cell_length_a 24.780391
_cell_length_b 8.345922
_cell_length_c 15.089511
_cell_angle_alpha 90.000000
_cell_angle_beta 90.000000
_cell_angle_gamma 90.000000
_cell_volume 3120.740393
_symmetry_space_group_name_H-M "P N N N"
_symmetry_group_IT_number 48
_space_group.IT_coordinate_system_code '2'
_symmetry_cell_setting 'orthorhombic'
loop_
_space_group_symop_operation_xyz
x,y,z
1/2-x,1/2-y,z
x,1/2-y,1/2-z
1/2-x,y,1/2-z
-x,-y,-z
1/2+x,1/2+y,-z
-x,1/2+y,1/2+z
1/2+x,-y,1/2+z
loop_
_atom_site_type_symbol
_atom_site_label
_atom_site_fract_x
_atom_site_fract_y
_atom_site_fract_z
Si Si1 0.077667 0.320812 0.157407
Si Si2 0.460973 0.391025 0.940163
Si Si3 0.953106 0.180918 0.650167
Si Si4 0.157052 0.450476 0.485938
Si Si5 0.124231 0.710805 0.984088
Si Si6 0.035765 0.813203 0.847460
Si Si7 0.823613 0.612373 0.973477
Si Si8 0.763439 0.059491 0.852250
O O1 0.096875 0.250000 0.250000
O O2 0.049551 0.492634 0.165083
O O3 0.127888 0.345297 0.094123
O O4 0.026992 0.213357 0.129033
O O5 0.493780 0.237991 0.904721
O O6 0.452029 0.499121 0.852805
O O7 0.500000 0.500000 0.000000
O O8 0.404031 0.398754 0.989901
O O9 0.948977 0.250000 0.750000
O O10 0.902855 0.220603 0.583202
O O11 0.160762 0.629363 0.528655
O O12 0.187682 0.287295 0.515650
O O13 0.178090 0.497104 0.386554
O O14 0.154385 0.541616 0.972606
O O15 0.074530 0.725585 0.916751
O O16 0.044353 0.750000 0.750000
O O17 0.775825 0.540985 0.915110
O O18 0.750000 0.250000 0.865471
O O19 0.750000 0.026231 0.750000
#
# Coordination Sequence:
#
# PCOD9390434 Si02
#       8
#     8   8   8   8   8   8   8   8
#     4  10  23  35  55  90 125 173 219 268 314 392
#     4  11  21  40  61  93 131 177 219 270 335 403
#     4  11  22  35  57  88 134 171 219 263 329 391
#     4  11  23  39  65  84 126 166 216 271 333 379
#     4  10  23  39  60  95 128 173 216 272 328 403
#     4  10  20  38  60  87 135 173 218 267 324 397
#     4  11  24  38  61  89 120 169 223 263 335 383
#     4  11  25  45  65  92 129 170 224 281 332 400
#
# _framework density 20.507954000000002
#
# number of rings (size 3 to 8) (size 9 to 14) (size 15 to 20)
#    0.000    1.375    3.750    2.625    5.250    2.500 
#    0.000    0.000    0.000    0.000    0.000    7.000 
#    0.000    0.000    0.000    0.000    0.000    0.000 
#
# Total GULP energy -356400.040086 kJ/mol
# GULP energy per Si atom -5568.750626 kJ/mol
# Density = 2.046128 g / cm^3
# Si number density = 20.507954 Si / 1000 Ang^3
#
#
#
# Elastic Constant Matrix: (Units=GPa)
#
#
# Indices 1 2 3 4 5 6 
#
# 1 56.3299 20.5440 20.6398 0.0000 0.0000 0.0000
# 2 20.5440 121.0010 21.7009 0.0000 0.0000 0.0000
# 3 20.6398 21.7009 56.1718 0.0000 0.0000 0.0000
# 4 0.0000 0.0000 0.0000 21.1526 0.0000 0.0000
# 5 0.0000 0.0000 0.0000 0.0000 25.0647 0.0000
# 6 0.0000 0.0000 0.0000 0.0000 0.0000 19.3985
#
#
#
# Elastic Compliance Matrix: (Units=1/GPa)
#
#
# Indices 1 2 3 4 5 6 
#
# 1 0.021122 -0.002358 -0.006850 0.000000 0.000000 0.000000
# 2 -0.002358 0.009143 -0.002666 0.000000 0.000000 0.000000
# 3 -0.006850 -0.002666 0.021350 0.000000 0.000000 0.000000
# 4 0.000000 0.000000 0.000000 0.047275 0.000000 0.000000
# 5 0.000000 0.000000 0.000000 0.000000 0.039897 0.000000
# 6 0.000000 0.000000 0.000000 0.000000 0.000000 0.051550
#
#
# Mechanical properties :
#
#
# Convention : Reuss Voigt Hill
#
# Bulk Modulus (GPa) = 35.88478 39.91913 37.90195
# Shear Modulus (GPa) = 22.38396 24.49770 23.44083
#
# Velocity S-wave (km/s) = 3.30734 3.45997 3.38451
# Velocity P-wave (km/s) = 5.66750 5.95561 5.81334
#
# Compressibility (1/GPa) = 0.02786697
#
# Stress axis : x y z
#
# Youngs Moduli (GPa) = 47.34294 109.37573 46.83938
#
# Poissons Ratio (x) = 0.25787 0.32087
# Poissons Ratio (y) = 0.11162 0.12487
# Poissons Ratio (z) = 0.32432 0.29158
#
# Static dielectric constant tensor:
#      x y z
#    x 1.796930 0.000000 0.000000 
#    y 0.000000 1.704900 0.000000 
#    z 0.000000 0.000000 1.740070 
# 
# From -- ./inp_files/28640.got.cif
#   From: 2010.05.17/outbox.cif.g08.bks.cpg/sg48_15_cif.got.tgz:28640.got - 2010.06.03 20:39:00.
