data_PCOD9390094
_publ_section_title
;
Structure prediction by ZEFSAII (Michael W. Deem and Ramdas Pophale) SiO2 
 PCOD9390094
Probable space group: P N N N
;
_chemical_formula_sum "Si O2"
_cell_formula_units_Z 64
_cell_length_a 17.600086
_cell_length_b 8.346067
_cell_length_c 23.034043
_cell_angle_alpha 90.000000
_cell_angle_beta 90.000000
_cell_angle_gamma 90.000000
_cell_volume 3383.505057
_symmetry_space_group_name_H-M "P N N N"
_symmetry_group_IT_number 48
_space_group.IT_coordinate_system_code '2'
_symmetry_cell_setting 'orthorhombic'
loop_
_space_group_symop_operation_xyz
x,y,z
1/2-x,1/2-y,z
x,1/2-y,1/2-z
1/2-x,y,1/2-z
-x,-y,-z
1/2+x,1/2+y,-z
-x,1/2+y,1/2+z
1/2+x,-y,1/2+z
loop_
_atom_site_type_symbol
_atom_site_label
_atom_site_fract_x
_atom_site_fract_y
_atom_site_fract_z
Si Si1 0.452213 0.600460 0.824655
Si Si2 0.393776 0.188943 0.190360
Si Si3 0.915661 0.546432 0.020680
Si Si4 0.499620 0.584167 0.283744
Si Si5 0.417227 0.943346 0.477231
Si Si6 0.165081 0.258377 0.068348
Si Si7 0.019347 0.223770 0.896160
Si Si8 0.841541 0.244207 0.082799
O O1 0.528014 0.710574 0.823826
O O2 0.448423 0.528858 0.758520
O O3 0.464321 0.443730 0.864681
O O4 0.383619 0.693207 0.856904
O O5 0.359682 0.250000 0.250000
O O6 0.340465 0.210283 0.136301
O O7 0.422996 0.012021 0.204360
O O8 0.921998 0.713111 0.056032
O O9 0.876197 0.412026 0.059710
O O10 0.872145 0.590251 0.962739
O O11 0.000000 0.500000 0.000000
O O12 0.487555 0.750000 0.250000
O O13 0.525247 0.639019 0.347308
O O14 0.439818 0.806117 0.430095
O O15 0.368549 0.876354 0.531071
O O16 0.500000 0.000000 0.500000
O O17 0.377713 0.093333 0.446579
O O18 0.250000 0.250000 0.046697
O O19 0.750000 0.250000 0.088053
#
# Coordination Sequence:
#
# PCOD9390094 Si02
#       8
#     8   8   8   8   8   8   8   8
#     4  10  19  38  60  86 119 159 209 260 308 366
#     4  10  20  37  62  85 113 158 214 261 300 374
#     4  12  22  36  60  89 119 162 212 251 297 379
#     4   9  20  34  60  94 110 142 208 275 297 347
#     4  12  20  39  62  84 124 167 208 254 312 381
#     4  12  24  38  57  90 127 163 200 254 327 385
#     4  11  19  34  63  88 114 151 210 263 301 352
#     4  12  24  37  57  94 134 167 201 260 336 388
#
# _framework density 18.915296999999999
#
# number of rings (size 3 to 8) (size 9 to 14) (size 15 to 20)
#    0.000    1.000    5.000    3.000    0.000    0.250 
#    0.000    0.000    0.000    9.375    3.250   10.500 
#    0.000    0.000    0.000    0.000    0.000    0.000 
#
# Total GULP energy -356802.404772 kJ/mol
# GULP energy per Si atom -5575.037575 kJ/mol
# Density = 1.887225 g / cm^3
# Si number density = 18.915297 Si / 1000 Ang^3
#
#
#
# Elastic Constant Matrix: (Units=GPa)
#
#
# Indices 1 2 3 4 5 6 
#
# 1 93.2161 22.3153 22.6564 0.0000 0.0000 0.0000
# 2 22.3153 68.5201 22.7833 0.0000 0.0000 0.0000
# 3 22.6564 22.7833 96.4869 0.0000 0.0000 0.0000
# 4 0.0000 0.0000 0.0000 29.2404 0.0000 0.0000
# 5 0.0000 0.0000 0.0000 0.0000 2.2058 0.0000
# 6 0.0000 0.0000 0.0000 0.0000 0.0000 20.5455
#
#
#
# Elastic Compliance Matrix: (Units=1/GPa)
#
#
# Indices 1 2 3 4 5 6 
#
# 1 0.011999 -0.003224 -0.002056 0.000000 0.000000 0.000000
# 2 -0.003224 0.016704 -0.003187 0.000000 0.000000 0.000000
# 3 -0.002056 -0.003187 0.011600 0.000000 0.000000 0.000000
# 4 0.000000 0.000000 0.000000 0.034199 0.000000 0.000000
# 5 0.000000 0.000000 0.000000 0.000000 0.453358 0.000000
# 6 0.000000 0.000000 0.000000 0.000000 0.000000 0.048673
#
#
# Mechanical properties :
#
#
# Convention : Reuss Voigt Hill
#
# Bulk Modulus (GPa) = 42.79428 43.74811 43.27120
# Shear Modulus (GPa) = 8.31590 23.09619 15.70605
#
# Velocity S-wave (km/s) = 2.09903 3.49812 2.88468
# Velocity P-wave (km/s) = 5.34302 6.28446 5.83276
#
# Compressibility (1/GPa) = 0.02336761
#
# Stress axis : x y z
#
# Youngs Moduli (GPa) = 83.33753 59.86561 86.21028
#
# Poissons Ratio (x) = 0.19302 0.17727
# Poissons Ratio (y) = 0.26870 0.27477
# Poissons Ratio (z) = 0.17137 0.19081
#
# Static dielectric constant tensor:
#      x y z
#    x 1.605510 0.000000 0.000000 
#    y 0.000000 1.700330 0.000000 
#    z 0.000000 0.000000 1.717560 
# 
# From -- ./inp_files/13268.got.cif
#   From: 2010.05.17/outbox.cif.g08.bks.cpg/sg48_7_cif.got.tgz:13268.got - 2010.06.03 20:39:00.
