data_PCOD9390520
_publ_section_title
;
Structure prediction by ZEFSAII (Michael W. Deem and Ramdas Pophale) SiO2 
 PCOD9390520
Probable space group: P N N N
;
_chemical_formula_sum "Si O2"
_cell_formula_units_Z 38
_cell_length_a 14.167561
_cell_length_b 9.484178
_cell_length_c 13.437815
_cell_angle_alpha 90.000000
_cell_angle_beta 90.000000
_cell_angle_gamma 90.000000
_cell_volume 1805.607896
_symmetry_space_group_name_H-M "P N N N"
_symmetry_group_IT_number 48
_space_group.IT_coordinate_system_code '2'
_symmetry_cell_setting 'orthorhombic'
loop_
_space_group_symop_operation_xyz
x,y,z
1/2-x,1/2-y,z
x,1/2-y,1/2-z
1/2-x,y,1/2-z
-x,-y,-z
1/2+x,1/2+y,-z
-x,1/2+y,1/2+z
1/2+x,-y,1/2+z
loop_
_atom_site_type_symbol
_atom_site_label
_atom_site_fract_x
_atom_site_fract_y
_atom_site_fract_z
Si Si1 0.742004 0.089904 0.015678
Si Si2 0.250000 0.250000 0.250000
Si Si3 0.750000 0.467712 0.250000
Si Si4 0.892268 0.610248 0.909019
Si Si5 0.421645 0.421903 0.061557
Si Si6 0.046976 0.584347 0.756336
O O1 0.750000 0.250000 0.981673
O O2 0.746661 0.090425 0.135931
O O3 0.649667 0.011196 0.976640
O O4 0.825921 0.001605 0.964689
O O5 0.183374 0.343318 0.177702
O O6 0.861422 0.515027 0.254371
O O7 0.908545 0.758065 0.964845
O O8 0.989496 0.566770 0.857308
O O9 0.466604 0.428258 0.171770
O O10 0.500000 0.500000 0.000000
O O11 0.080827 0.750000 0.750000
#
# Coordination Sequence:
#
# PCOD9390520 Si02
#       6
#     8   2   4   8   8   8
#     4  12  25  42  69 101 135 173 225 286 337 395
#     4  12  16  40  74  92 120 176 234 260 336 412
#     4  12  25  42  63  96 137 180 223 274 337 408
#     4  11  22  41  72  99 126 178 230 272 334 417
#     4  11  21  41  69  95 130 178 220 272 338 409
#     4  10  20  39  68  94 125 174 226 263 331 410
#
# _framework density 21.045544
#
# number of rings (size 3 to 8) (size 9 to 14) (size 15 to 20)
#    0.000    0.842    7.368    1.895    2.947    0.842 
#    0.000    6.842    0.000    0.000    0.000    0.000 
#    0.000    0.000    0.000    0.000    0.000    0.000 
#
# Total GULP energy -211651.470057 kJ/mol
# GULP energy per Si atom -5569.775528 kJ/mol
# Density = 2.099764 g / cm^3
# Si number density = 21.045544 Si / 1000 Ang^3
#
#
#
# Elastic Constant Matrix: (Units=GPa)
#
#
# Indices 1 2 3 4 5 6 
#
# 1 127.9512 41.8287 51.4776 0.0000 0.0000 0.0000
# 2 41.8287 112.6143 55.3228 0.0000 0.0000 0.0000
# 3 51.4776 55.3228 87.6254 0.0000 0.0000 0.0000
# 4 0.0000 0.0000 0.0000 9.8259 0.0000 0.0000
# 5 0.0000 0.0000 0.0000 0.0000 35.6839 0.0000
# 6 0.0000 0.0000 0.0000 0.0000 0.0000 8.5826
#
#
#
# Elastic Compliance Matrix: (Units=1/GPa)
#
#
# Indices 1 2 3 4 5 6 
#
# 1 0.010353 -0.001243 -0.005297 0.000000 0.000000 0.000000
# 2 -0.001243 0.013022 -0.007491 0.000000 0.000000 0.000000
# 3 -0.005297 -0.007491 0.019254 0.000000 0.000000 0.000000
# 4 0.000000 0.000000 0.000000 0.101772 0.000000 0.000000
# 5 0.000000 0.000000 0.000000 0.000000 0.028024 0.000000
# 6 0.000000 0.000000 0.000000 0.000000 0.000000 0.116515
#
#
# Mechanical properties :
#
#
# Convention : Reuss Voigt Hill
#
# Bulk Modulus (GPa) = 68.65488 69.49434 69.07461
# Shear Modulus (GPa) = 15.53486 22.78928 19.16207
#
# Velocity S-wave (km/s) = 2.71985 3.29425 3.02073
# Velocity P-wave (km/s) = 6.52352 6.89652 6.71261
#
# Compressibility (1/GPa) = 0.01456561
#
# Stress axis : x y z
#
# Youngs Moduli (GPa) = 96.58951 76.79538 51.93803
#
# Poissons Ratio (x) = 0.09547 0.27513
# Poissons Ratio (y) = 0.12007 0.38907
# Poissons Ratio (z) = 0.51166 0.57527
#
# Static dielectric constant tensor:
#      x y z
#    x 1.908460 0.000000 0.000000 
#    y 0.000000 1.740590 0.000000 
#    z 0.000000 0.000000 1.784260 
# 
# From -- ./inp_files/27021.got.cif
#   From: 2010.05.17/outbox.cif.g08.bks.cpg/sg48_14_cif.got.tgz:27021.got - 2010.06.03 20:39:00.
