data_PCOD9390231
_publ_section_title
;
Structure prediction by ZEFSAII (Michael W. Deem and Ramdas Pophale) SiO2 
 PCOD9390231
Probable space group: P N N N
;
_chemical_formula_sum "Si O2"
_cell_formula_units_Z 48
_cell_length_a 11.868405
_cell_length_b 21.129561
_cell_length_c 9.125062
_cell_angle_alpha 90.000000
_cell_angle_beta 90.000000
_cell_angle_gamma 90.000000
_cell_volume 2288.330008
_symmetry_space_group_name_H-M "P N N N"
_symmetry_group_IT_number 48
_space_group.IT_coordinate_system_code '2'
_symmetry_cell_setting 'orthorhombic'
loop_
_space_group_symop_operation_xyz
x,y,z
1/2-x,1/2-y,z
x,1/2-y,1/2-z
1/2-x,y,1/2-z
-x,-y,-z
1/2+x,1/2+y,-z
-x,1/2+y,1/2+z
1/2+x,-y,1/2+z
loop_
_atom_site_type_symbol
_atom_site_label
_atom_site_fract_x
_atom_site_fract_y
_atom_site_fract_z
Si Si1 0.934691 0.667808 0.890444
Si Si2 0.681939 0.999143 0.113266
Si Si3 0.507583 0.687037 0.934105
Si Si4 0.274401 0.359484 0.917318
Si Si5 0.047746 0.570391 0.109980
Si Si6 0.376228 0.682348 0.192213
O O1 0.980806 0.737840 0.917142
O O2 0.958963 0.656069 0.719877
O O3 0.808552 0.667951 0.957240
O O4 0.997137 0.614255 0.981690
O O5 0.750000 0.029687 0.250000
O O6 0.751295 0.934809 0.080684
O O7 0.553781 0.976928 0.154654
O O8 0.656359 0.037264 0.963712
O O9 0.601147 0.661717 0.045574
O O10 0.390084 0.676996 0.017290
O O11 0.250000 0.338705 0.750000
O O12 0.072550 0.619577 0.237018
O O13 0.427007 0.750000 0.250000
O O14 0.250000 0.683449 0.250000
#
# Coordination Sequence:
#
# PCOD9390231 Si02
#       6
#     8   8   8   8   8   8
#     4  10  21  35  56  90 124 158 196 248 325 386
#     4   9  19  36  61  89 117 162 208 249 304 377
#     4  11  21  36  58  87 126 155 195 262 319 375
#     4  10  20  34  60  91 122 159 200 246 312 385
#     4  10  20  39  61  83 120 161 205 257 308 369
#     4  11  23  39  60  84 115 160 214 263 309 371
#
# _framework density 20.975995999999999
#
# number of rings (size 3 to 8) (size 9 to 14) (size 15 to 20)
#    0.000    1.833    1.667    4.000    0.000    3.333 
#    0.000    5.000    0.000   15.000    0.000    0.000 
#    0.000    0.000    0.000    0.000    0.000    0.000 
#
# Total GULP energy -267602.482594 kJ/mol
# GULP energy per Si atom -5575.051721 kJ/mol
# Density = 2.092825 g / cm^3
# Si number density = 20.975996 Si / 1000 Ang^3
#
#
#
# Elastic Constant Matrix: (Units=GPa)
#
#
# Indices 1 2 3 4 5 6 
#
# 1 56.2488 5.7737 48.4106 0.0000 0.0000 0.0000
# 2 5.7737 45.7373 7.6645 0.0000 0.0000 0.0000
# 3 48.4106 7.6645 110.1948 0.0000 0.0000 0.0000
# 4 0.0000 0.0000 0.0000 5.7860 0.0000 0.0000
# 5 0.0000 0.0000 0.0000 0.0000 35.8452 0.0000
# 6 0.0000 0.0000 0.0000 0.0000 0.0000 18.8917
#
#
#
# Elastic Compliance Matrix: (Units=1/GPa)
#
#
# Indices 1 2 3 4 5 6 
#
# 1 0.028692 -0.001527 -0.012499 0.000000 0.000000 0.000000
# 2 -0.001527 0.022203 -0.000873 0.000000 0.000000 0.000000
# 3 -0.012499 -0.000873 0.014626 0.000000 0.000000 0.000000
# 4 0.000000 0.000000 0.000000 0.172830 0.000000 0.000000
# 5 0.000000 0.000000 0.000000 0.000000 0.027898 0.000000
# 6 0.000000 0.000000 0.000000 0.000000 0.000000 0.052933
#
#
# Mechanical properties :
#
#
# Convention : Reuss Voigt Hill
#
# Bulk Modulus (GPa) = 27.99336 37.31985 32.65661
# Shear Modulus (GPa) = 13.85467 22.12672 17.99069
#
# Velocity S-wave (km/s) = 2.57281 3.25138 2.93179
# Velocity P-wave (km/s) = 4.71171 5.65028 5.20220
#
# Compressibility (1/GPa) = 0.03572275
#
# Stress axis : x y z
#
# Youngs Moduli (GPa) = 34.85301 45.03859 68.36922
#
# Poissons Ratio (x) = 0.06880 0.85452
# Poissons Ratio (y) = 0.05324 0.05971
# Poissons Ratio (z) = 0.43562 0.03933
#
# Static dielectric constant tensor:
#      x y z
#    x 1.845300 0.000000 0.000000 
#    y 0.000000 1.768100 0.000000 
#    z 0.000000 0.000000 1.833080 
# 
# From -- ./inp_files/11254.got.cif
#   From: 2010.05.17/outbox.cif.g08.bks.cpg/sg48_6_cif.got.tgz:11254.got - 2010.06.03 20:39:00.
