data_PCOD9390463
_publ_section_title
;
Structure prediction by ZEFSAII (Michael W. Deem and Ramdas Pophale) SiO2 
 PCOD9390463
Probable space group: P N N N
;
_chemical_formula_sum "Si O2"
_cell_formula_units_Z 40
_cell_length_a 16.748562
_cell_length_b 7.813066
_cell_length_c 15.552872
_cell_angle_alpha 90.000000
_cell_angle_beta 90.000000
_cell_angle_gamma 90.000000
_cell_volume 2035.211819
_symmetry_space_group_name_H-M "P N N N"
_symmetry_group_IT_number 48
_space_group.IT_coordinate_system_code '2'
_symmetry_cell_setting 'orthorhombic'
loop_
_space_group_symop_operation_xyz
x,y,z
1/2-x,1/2-y,z
x,1/2-y,1/2-z
1/2-x,y,1/2-z
-x,-y,-z
1/2+x,1/2+y,-z
-x,1/2+y,1/2+z
1/2+x,-y,1/2+z
loop_
_atom_site_type_symbol
_atom_site_label
_atom_site_fract_x
_atom_site_fract_y
_atom_site_fract_z
Si Si1 0.745942 0.944464 0.477251
Si Si2 0.377752 0.750000 0.250000
Si Si3 0.874968 0.868423 0.336731
Si Si4 0.503736 0.936199 0.748483
Si Si5 0.250000 0.750000 0.397173
Si Si6 0.064703 0.049127 0.929580
O O1 0.750000 0.750000 0.513844
O O2 0.797048 0.927790 0.389009
O O3 0.654683 0.993904 0.456910
O O4 0.773740 0.089042 0.543294
O O5 0.433753 0.586688 0.264481
O O6 0.323122 0.788178 0.332757
O O7 0.860359 0.750000 0.250000
O O8 0.926004 0.747627 0.401039
O O9 0.929490 0.028356 0.311520
O O10 0.541115 0.750000 0.750000
O O11 0.464560 0.956465 0.655486
O O12 0.000000 0.000000 0.000000
#
# Coordination Sequence:
#
# PCOD9390463 Si02
#       6
#     8   4   8   8   4   8
#     4  10  23  40  65  98 132 169 217 273 333 393
#     4  11  24  48  62  93 134 178 218 285 324 390
#     4   9  20  41  64  91 137 172 212 269 338 392
#     4  11  23  40  65  94 127 172 220 266 334 397
#     4  11  26  42  70  91 132 176 228 267 330 397
#     4  10  20  38  64  91 129 166 213 270 325 390
#
# _framework density 19.653973000000001
#
# number of rings (size 3 to 8) (size 9 to 14) (size 15 to 20)
#    0.000    1.800    3.000    1.200    2.800   14.000 
#    0.000    5.000    0.000    0.000    0.000    0.000 
#    0.000    0.000    0.000    0.000    0.000    0.000 
#
# Total GULP energy -223077.112541 kJ/mol
# GULP energy per Si atom -5576.927814 kJ/mol
# Density = 1.960924 g / cm^3
# Si number density = 19.653973 Si / 1000 Ang^3
#
#
#
# Elastic Constant Matrix: (Units=GPa)
#
#
# Indices 1 2 3 4 5 6 
#
# 1 117.6686 31.2936 46.4347 0.0000 0.0000 0.0000
# 2 31.2936 86.1193 21.9548 0.0000 0.0000 0.0000
# 3 46.4347 21.9548 85.5103 0.0000 0.0000 0.0000
# 4 0.0000 0.0000 0.0000 14.3538 0.0000 0.0000
# 5 0.0000 0.0000 0.0000 0.0000 30.1437 0.0000
# 6 0.0000 0.0000 0.0000 0.0000 0.0000 2.6833
#
#
#
# Elastic Compliance Matrix: (Units=1/GPa)
#
#
# Indices 1 2 3 4 5 6 
#
# 1 0.011391 -0.002742 -0.005482 0.000000 0.000000 0.000000
# 2 -0.002742 0.013085 -0.001871 0.000000 0.000000 0.000000
# 3 -0.005482 -0.001871 0.015151 0.000000 0.000000 0.000000
# 4 0.000000 0.000000 0.000000 0.069668 0.000000 0.000000
# 5 0.000000 0.000000 0.000000 0.000000 0.033174 0.000000
# 6 0.000000 0.000000 0.000000 0.000000 0.000000 0.372675
#
#
# Mechanical properties :
#
#
# Convention : Reuss Voigt Hill
#
# Bulk Modulus (GPa) = 51.44259 54.29607 52.86933
# Shear Modulus (GPa) = 9.22828 22.07717 15.65272
#
# Velocity S-wave (km/s) = 2.16923 3.35519 2.82514
# Velocity P-wave (km/s) = 5.70132 6.53420 6.13192
#
# Compressibility (1/GPa) = 0.01943915
#
# Stress axis : x y z
#
# Youngs Moduli (GPa) = 87.79054 76.42354 66.00007
#
# Poissons Ratio (x) = 0.20953 0.36179
# Poissons Ratio (y) = 0.24069 0.12347
# Poissons Ratio (z) = 0.48123 0.14297
#
# Static dielectric constant tensor:
#      x y z
#    x 1.817080 0.000000 0.000000 
#    y 0.000000 1.723570 0.000000 
#    z 0.000000 0.000000 1.707270 
# 
# From -- ./inp_files/27070.got.cif
#   From: 2010.05.17/outbox.cif.g08.bks.cpg/sg48_14_cif.got.tgz:27070.got - 2010.06.03 20:39:00.
