data_PCOD9390308
_publ_section_title
;
Structure prediction by ZEFSAII (Michael W. Deem and Ramdas Pophale) SiO2 
 PCOD9390308
Probable space group: P N N N
;
_chemical_formula_sum "Si O2"
_cell_formula_units_Z 56
_cell_length_a 10.905453
_cell_length_b 11.979286
_cell_length_c 22.271630
_cell_angle_alpha 90.000000
_cell_angle_beta 90.000000
_cell_angle_gamma 90.000000
_cell_volume 2909.555508
_symmetry_space_group_name_H-M "P N N N"
_symmetry_group_IT_number 48
_space_group.IT_coordinate_system_code '2'
_symmetry_cell_setting 'orthorhombic'
loop_
_space_group_symop_operation_xyz
x,y,z
1/2-x,1/2-y,z
x,1/2-y,1/2-z
1/2-x,y,1/2-z
-x,-y,-z
1/2+x,1/2+y,-z
-x,1/2+y,1/2+z
1/2+x,-y,1/2+z
loop_
_atom_site_type_symbol
_atom_site_label
_atom_site_fract_x
_atom_site_fract_y
_atom_site_fract_z
Si Si1 0.966185 0.989398 0.885431
Si Si2 0.493053 0.403630 0.367913
Si Si3 0.073288 0.427688 0.950003
Si Si4 0.392521 0.384884 0.242217
Si Si5 0.739892 0.879252 0.944698
Si Si6 0.393962 0.775913 0.432151
Si Si7 0.880468 0.305275 0.424566
O O1 0.933833 0.939369 0.820114
O O2 0.867090 0.938800 0.932456
O O3 0.093572 0.930505 0.903097
O O4 0.947696 0.121085 0.893944
O O5 0.592421 0.486179 0.396474
O O6 0.475379 0.422174 0.298026
O O7 0.361833 0.428867 0.399403
O O8 0.526432 0.278963 0.390245
O O9 0.984716 0.329531 0.927624
O O10 0.190405 0.388083 0.987502
O O11 0.000000 0.500000 0.000000
O O12 0.397682 0.250000 0.250000
O O13 0.250000 0.415352 0.250000
O O14 0.750000 0.750000 0.928761
O O15 0.250000 0.750000 0.417684
O O16 0.397264 0.802298 0.503628
O O17 0.750000 0.250000 0.411607
#
# Coordination Sequence:
#
# PCOD9390308 Si02
#       7
#     8   8   8   8   8   8   8
#     4  12  23  38  61  96 128 162 209 271 322 386
#     4  11  20  38  58  87 121 158 210 252 312 382
#     4  10  20  36  57  83 120 168 199 246 315 387
#     4  11  21  36  63  92 118 158 212 261 314 378
#     4  11  18  33  60  90 118 152 202 249 312 374
#     4  11  22  37  58  91 134 164 193 261 330 395
#     4  11  23  38  59  91 126 164 204 261 335 387
#
# _framework density 19.246926999999999
#
# number of rings (size 3 to 8) (size 9 to 14) (size 15 to 20)
#    0.000    1.000    7.143    2.143    2.000    0.000 
#    0.000    2.143    0.000    0.000    0.000    0.000 
#    0.000    0.000    0.000    0.000    0.000    0.000 
#
# Total GULP energy -312419.862054 kJ/mol
# GULP energy per Si atom -5578.926108 kJ/mol
# Density = 1.920312 g / cm^3
# Si number density = 19.246927 Si / 1000 Ang^3
#
#
#
# Elastic Constant Matrix: (Units=GPa)
#
#
# Indices 1 2 3 4 5 6 
#
# 1 61.7689 25.7439 33.3957 0.0000 0.0000 0.0000
# 2 25.7439 122.4906 41.0086 0.0000 0.0000 0.0000
# 3 33.3957 41.0086 88.9350 0.0000 0.0000 0.0000
# 4 0.0000 0.0000 0.0000 28.2792 0.0000 0.0000
# 5 0.0000 0.0000 0.0000 0.0000 18.0001 0.0000
# 6 0.0000 0.0000 0.0000 0.0000 0.0000 17.8198
#
#
#
# Elastic Compliance Matrix: (Units=1/GPa)
#
#
# Indices 1 2 3 4 5 6 
#
# 1 0.020749 -0.002072 -0.006836 0.000000 0.000000 0.000000
# 2 -0.002072 0.009861 -0.003769 0.000000 0.000000 0.000000
# 3 -0.006836 -0.003769 0.015549 0.000000 0.000000 0.000000
# 4 0.000000 0.000000 0.000000 0.035362 0.000000 0.000000
# 5 0.000000 0.000000 0.000000 0.000000 0.055555 0.000000
# 6 0.000000 0.000000 0.000000 0.000000 0.000000 0.056117
#
#
# Mechanical properties :
#
#
# Convention : Reuss Voigt Hill
#
# Bulk Modulus (GPa) = 48.06529 52.61011 50.33770
# Shear Modulus (GPa) = 22.17468 24.35624 23.26546
#
# Velocity S-wave (km/s) = 3.39797 3.56119 3.48054
# Velocity P-wave (km/s) = 6.35784 6.65606 6.50865
#
# Compressibility (1/GPa) = 0.02080503
#
# Stress axis : x y z
#
# Youngs Moduli (GPa) = 48.19545 101.40733 64.31306
#
# Poissons Ratio (x) = 0.21014 0.43963
# Poissons Ratio (y) = 0.09987 0.24239
# Poissons Ratio (z) = 0.32945 0.38220
#
# Static dielectric constant tensor:
#      x y z
#    x 1.738530 0.000000 0.000000 
#    y 0.000000 1.723710 0.000000 
#    z 0.000000 0.000000 1.673290 
# 
# From -- ./inp_files/34153.got.cif
#   From: 2010.05.17/outbox.cif.g08.bks.cpg/sg48_18_cif.got.tgz:34153.got - 2010.06.03 20:39:00.
