data_PCOD9390302
_publ_section_title
;
Structure prediction by ZEFSAII (Michael W. Deem and Ramdas Pophale) SiO2 
 PCOD9390302
Probable space group: P N N N
;
_chemical_formula_sum "Si O2"
_cell_formula_units_Z 64
_cell_length_a 8.506646
_cell_length_b 22.599031
_cell_length_c 17.382668
_cell_angle_alpha 90.000000
_cell_angle_beta 90.000000
_cell_angle_gamma 90.000000
_cell_volume 3341.678108
_symmetry_space_group_name_H-M "P N N N"
_symmetry_group_IT_number 48
_space_group.IT_coordinate_system_code '2'
_symmetry_cell_setting 'orthorhombic'
loop_
_space_group_symop_operation_xyz
x,y,z
1/2-x,1/2-y,z
x,1/2-y,1/2-z
1/2-x,y,1/2-z
-x,-y,-z
1/2+x,1/2+y,-z
-x,1/2+y,1/2+z
1/2+x,-y,1/2+z
loop_
_atom_site_type_symbol
_atom_site_label
_atom_site_fract_x
_atom_site_fract_y
_atom_site_fract_z
Si Si1 0.572056 0.237411 0.379394
Si Si2 0.468397 0.868220 0.897211
Si Si3 0.147501 0.345982 0.946519
Si Si4 0.404690 0.419012 0.707015
Si Si5 0.431897 0.039935 0.231800
Si Si6 0.357144 0.620860 0.824980
Si Si7 0.422192 0.811840 0.285188
Si Si8 0.519443 0.714882 0.050941
O O1 0.750000 0.250000 0.354698
O O2 0.491739 0.300890 0.369565
O O3 0.528138 0.176945 0.337178
O O4 0.565860 0.222467 0.469880
O O5 0.534691 0.915649 0.838318
O O6 0.277063 0.878653 0.892357
O O7 0.551025 0.870827 0.980334
O O8 0.131754 0.390884 0.875879
O O9 0.329587 0.327930 0.961203
O O10 0.074155 0.281455 0.927381
O O11 0.250000 0.441253 0.750000
O O12 0.520550 0.474274 0.706358
O O13 0.471588 0.365528 0.758061
O O14 0.250000 0.042060 0.250000
O O15 0.539438 0.063711 0.303329
O O16 0.250000 0.631167 0.750000
O O17 0.484338 0.750000 0.250000
O O18 0.250000 0.819849 0.250000
O O19 0.419273 0.807778 0.377269
#
# Coordination Sequence:
#
# PCOD9390302 Si02
#       8
#     8   8   8   8   8   8   8   8
#     4   9  19  33  62  91 125 159 193 239 309 367
#     4   9  20  39  61  92 119 159 198 241 309 367
#     4  10  21  36  63  89 124 158 201 253 302 372
#     4  12  23  41  64  85 114 166 212 249 307 360
#     4  11  25  42  61  84 121 158 206 263 306 359
#     4   9  19  39  63  90 121 161 204 248 298 372
#     4  11  23  35  59  92 125 157 200 251 307 367
#     4  10  20  36  55  95 131 155 192 252 311 365
#
# _framework density 19.152052999999999
#
# number of rings (size 3 to 8) (size 9 to 14) (size 15 to 20)
#    0.000    1.875    2.500    1.500    3.500    7.500 
#    0.000    0.625    0.000    2.250    0.000    0.000 
#    0.000    0.000    0.000    0.000    0.000    0.000 
#
# Total GULP energy -356775.747268 kJ/mol
# GULP energy per Si atom -5574.621051 kJ/mol
# Density = 1.910846 g / cm^3
# Si number density = 19.152053 Si / 1000 Ang^3
#
#
#
# Elastic Constant Matrix: (Units=GPa)
#
#
# Indices 1 2 3 4 5 6 
#
# 1 64.9747 20.7964 21.6401 0.0000 0.0000 0.0000
# 2 20.7964 85.9432 13.3288 0.0000 0.0000 0.0000
# 3 21.6401 13.3288 53.9772 0.0000 0.0000 0.0000
# 4 0.0000 0.0000 0.0000 76.9240 0.0000 0.0000
# 5 0.0000 0.0000 0.0000 0.0000 26.7059 0.0000
# 6 0.0000 0.0000 0.0000 0.0000 0.0000 33.8113
#
#
#
# Elastic Compliance Matrix: (Units=1/GPa)
#
#
# Indices 1 2 3 4 5 6 
#
# 1 0.018723 -0.003501 -0.006642 0.000000 0.000000 0.000000
# 2 -0.003501 0.012753 -0.001746 0.000000 0.000000 0.000000
# 3 -0.006642 -0.001746 0.021620 0.000000 0.000000 0.000000
# 4 0.000000 0.000000 0.000000 0.013000 0.000000 0.000000
# 5 0.000000 0.000000 0.000000 0.000000 0.037445 0.000000
# 6 0.000000 0.000000 0.000000 0.000000 0.000000 0.029576
#
#
# Mechanical properties :
#
#
# Convention : Reuss Voigt Hill
#
# Bulk Modulus (GPa) = 34.10614 35.15841 34.63228
# Shear Modulus (GPa) = 29.99985 37.43023 33.71504
#
# Velocity S-wave (km/s) = 3.96208 4.42562 4.20025
# Velocity P-wave (km/s) = 6.22716 6.67175 6.45328
#
# Compressibility (1/GPa) = 0.02932023
#
# Stress axis : x y z
#
# Youngs Moduli (GPa) = 53.40989 78.41048 46.25286
#
# Poissons Ratio (x) = 0.27448 0.30721
# Poissons Ratio (y) = 0.18696 0.08075
# Poissons Ratio (z) = 0.35475 0.13689
#
# Static dielectric constant tensor:
#      x y z
#    x 1.781890 0.000000 0.000000 
#    y 0.000000 1.667930 0.000000 
#    z 0.000000 0.000000 1.672050 
# 
# From -- ./inp_files/30612.got.cif
#   From: 2010.05.17/outbox.cif.g08.bks.cpg/sg48_16_cif.got.tgz:30612.got - 2010.06.03 20:39:00.
