data_PCOD9390853
_publ_section_title
;
Structure prediction by ZEFSAII (Michael W. Deem and Ramdas Pophale) SiO2 
 PCOD9390853
Probable space group: P N N N
;
_chemical_formula_sum "Si O2"
_cell_formula_units_Z 32
_cell_length_a 13.014485
_cell_length_b 20.979477
_cell_length_c 4.811285
_cell_angle_alpha 90.000000
_cell_angle_beta 90.000000
_cell_angle_gamma 90.000000
_cell_volume 1313.659249
_symmetry_space_group_name_H-M "P N N N"
_symmetry_group_IT_number 48
_space_group.IT_coordinate_system_code '2'
_symmetry_cell_setting 'orthorhombic'
loop_
_space_group_symop_operation_xyz
x,y,z
1/2-x,1/2-y,z
x,1/2-y,1/2-z
1/2-x,y,1/2-z
-x,-y,-z
1/2+x,1/2+y,-z
-x,1/2+y,1/2+z
1/2+x,-y,1/2+z
loop_
_atom_site_type_symbol
_atom_site_label
_atom_site_fract_x
_atom_site_fract_y
_atom_site_fract_z
Si Si1 0.126360 0.407331 0.218058
Si Si2 0.320431 0.622275 0.990890
Si Si3 0.372940 0.490663 0.790497
Si Si4 0.004269 0.206310 0.997215
O O1 0.250000 0.399981 0.250000
O O2 0.097483 0.467013 0.408416
O O3 0.079327 0.344175 0.352720
O O4 0.089792 0.435464 0.921436
O O5 0.250000 0.598063 0.250000
O O6 0.250000 0.652641 0.750000
O O7 0.380088 0.566936 0.815404
O O8 0.405522 0.668714 0.114597
O O9 0.250000 0.484623 0.750000
O O10 0.968476 0.250000 0.250000
O O11 0.049568 0.250000 0.750000
#
# Coordination Sequence:
#
# PCOD9390853 Si02
#       4
#     8   8   8   8
#     4  10  21  40  65  92 126 164 208 273 336 386
#     4  11  23  41  66  95 130 170 214 274 337 390
#     4   9  18  36  64  95 123 156 207 266 336 402
#     4  12  27  43  61  92 131 177 231 265 307 396
#
# _framework density 24.359435000000001
#
# number of rings (size 3 to 8) (size 9 to 14) (size 15 to 20)
#    0.000    1.500    0.000    6.750    0.000    5.500 
#    0.000    1.250    0.000    4.500    0.000    0.000 
#    0.000    0.000    0.000    0.000    0.000    0.000 
#
# Total GULP energy -178478.691656 kJ/mol
# GULP energy per Si atom -5577.459114 kJ/mol
# Density = 2.430399 g / cm^3
# Si number density = 24.359435 Si / 1000 Ang^3
#
#
#
# Elastic Constant Matrix: (Units=GPa)
#
#
# Indices 1 2 3 4 5 6 
#
# 1 71.4229 23.1194 4.5077 0.0000 0.0000 0.0000
# 2 23.1194 106.8315 17.8166 0.0000 0.0000 0.0000
# 3 4.5077 17.8166 84.9324 0.0000 0.0000 0.0000
# 4 0.0000 0.0000 0.0000 46.1175 0.0000 0.0000
# 5 0.0000 0.0000 0.0000 0.0000 25.5671 0.0000
# 6 0.0000 0.0000 0.0000 0.0000 0.0000 16.6435
#
#
#
# Elastic Compliance Matrix: (Units=1/GPa)
#
#
# Indices 1 2 3 4 5 6 
#
# 1 0.015057 -0.003239 -0.000120 0.000000 0.000000 0.000000
# 2 -0.003239 0.010396 -0.002009 0.000000 0.000000 0.000000
# 3 -0.000120 -0.002009 0.012202 0.000000 0.000000 0.000000
# 4 0.000000 0.000000 0.000000 0.021684 0.000000 0.000000
# 5 0.000000 0.000000 0.000000 0.000000 0.039113 0.000000
# 6 0.000000 0.000000 0.000000 0.000000 0.000000 0.060083
#
#
# Mechanical properties :
#
#
# Convention : Reuss Voigt Hill
#
# Bulk Modulus (GPa) = 37.14619 39.34158 38.24388
# Shear Modulus (GPa) = 28.05153 32.18183 30.11668
#
# Velocity S-wave (km/s) = 3.39716 3.63867 3.51999
# Velocity P-wave (km/s) = 5.53804 5.81711 5.67929
#
# Compressibility (1/GPa) = 0.02692066
#
# Stress axis : x y z
#
# Youngs Moduli (GPa) = 66.41438 96.18688 81.95466
#
# Poissons Ratio (x) = 0.31150 0.00982
# Poissons Ratio (y) = 0.21508 0.16465
# Poissons Ratio (z) = 0.00796 0.19324
#
# Static dielectric constant tensor:
#      x y z
#    x 2.061790 0.000000 0.000000 
#    y 0.000000 1.954620 0.000000 
#    z 0.000000 0.000000 1.955140 
# 
# From -- ./inp_files/3066.got.cif
#   From: 2010.05.17/outbox.cif.g08.bks.cpg/sg48_2_cif.got.tgz:3066.got - 2010.06.03 20:39:00.
