data_PCOD9390199
_publ_section_title
;
Structure prediction by ZEFSAII (Michael W. Deem and Ramdas Pophale) SiO2 
 PCOD9390199
Probable space group: P N N N
;
_chemical_formula_sum "Si O2"
_cell_formula_units_Z 54
_cell_length_a 29.587611
_cell_length_b 5.781008
_cell_length_c 15.888854
_cell_angle_alpha 90.000000
_cell_angle_beta 90.000000
_cell_angle_gamma 90.000000
_cell_volume 2717.728352
_symmetry_space_group_name_H-M "P N N N"
_symmetry_group_IT_number 48
_space_group.IT_coordinate_system_code '2'
_symmetry_cell_setting 'orthorhombic'
loop_
_space_group_symop_operation_xyz
x,y,z
1/2-x,1/2-y,z
x,1/2-y,1/2-z
1/2-x,y,1/2-z
-x,-y,-z
1/2+x,1/2+y,-z
-x,1/2+y,1/2+z
1/2+x,-y,1/2+z
loop_
_atom_site_type_symbol
_atom_site_label
_atom_site_fract_x
_atom_site_fract_y
_atom_site_fract_z
Si Si1 0.976996 0.137616 0.165130
Si Si2 0.909547 0.518527 0.088728
Si Si3 0.209329 0.419302 0.394090
Si Si4 0.414791 0.250000 0.750000
Si Si5 0.124880 0.115513 0.336071
Si Si6 0.137082 0.770013 0.049033
Si Si7 0.750000 0.250000 0.750000
Si Si8 0.941550 0.849903 0.952127
O O1 0.998440 0.250000 0.250000
O O2 0.943136 0.319542 0.121301
O O3 0.012790 0.071350 0.093109
O O4 0.947121 0.933873 0.204062
O O5 0.888823 0.629331 0.173238
O O6 0.872856 0.416969 0.023667
O O7 0.939624 0.707945 0.038714
O O8 0.250000 0.250000 0.420736
O O9 0.168696 0.246752 0.371675
O O10 0.184920 0.599292 0.457197
O O11 0.224121 0.573070 0.313100
O O12 0.118004 0.250000 0.250000
O O13 0.079691 0.164921 0.387717
O O14 0.134836 0.848646 0.358037
O O15 0.095280 0.946885 0.042535
#
# Coordination Sequence:
#
# PCOD9390199 Si02
#       8
#     8   8   8   4   8   8   2   8
#     4  10  21  36  54  78 109 148 195 243 286 334
#     4  10  21  38  55  76 107 147 193 242 292 339
#     4  11  21  34  54  79 108 149 192 226 268 325
#     4  10  22  36  55  78 102 144 195 245 298 347
#     4  10  20  34  50  75 111 153 195 230 268 321
#     4  10  22  36  53  78 111 150 189 236 282 330
#     4  12  22  36  58  82 116 160 196 224 256 308
#     4  10  21  34  53  78 109 151 193 236 286 334
#
# _framework density 19.869537000000001
#
# number of rings (size 3 to 8) (size 9 to 14) (size 15 to 20)
#    0.000    1.778    0.000    4.667    0.000   10.074 
#    0.000    0.000    0.000    0.000    0.000    0.000 
#    0.000    0.000    0.000 2114.000    0.000    8.889 
#
# Total GULP energy -300907.451264 kJ/mol
# GULP energy per Si atom -5572.360209 kJ/mol
# Density = 1.982431 g / cm^3
# Si number density = 19.869537 Si / 1000 Ang^3
#
#
#
# Elastic Constant Matrix: (Units=GPa)
#
#
# Indices 1 2 3 4 5 6 
#
# 1 54.7316 31.5059 39.4963 0.0000 0.0000 0.0000
# 2 31.5059 102.0071 45.3850 0.0000 0.0000 0.0000
# 3 39.4963 45.3850 129.6889 0.0000 0.0000 0.0000
# 4 0.0000 0.0000 0.0000 40.9891 0.0000 0.0000
# 5 0.0000 0.0000 0.0000 0.0000 18.0398 0.0000
# 6 0.0000 0.0000 0.0000 0.0000 0.0000 20.0897
#
#
#
# Elastic Compliance Matrix: (Units=1/GPa)
#
#
# Indices 1 2 3 4 5 6 
#
# 1 0.025594 -0.005255 -0.005955 0.000000 0.000000 0.000000
# 2 -0.005255 0.012690 -0.002840 0.000000 0.000000 0.000000
# 3 -0.005955 -0.002840 0.010518 0.000000 0.000000 0.000000
# 4 0.000000 0.000000 0.000000 0.024397 0.000000 0.000000
# 5 0.000000 0.000000 0.000000 0.000000 0.055433 0.000000
# 6 0.000000 0.000000 0.000000 0.000000 0.000000 0.049777
#
#
# Mechanical properties :
#
#
# Convention : Reuss Voigt Hill
#
# Bulk Modulus (GPa) = 48.30876 57.68910 52.99893
# Shear Modulus (GPa) = 23.42896 27.15975 25.29436
#
# Velocity S-wave (km/s) = 3.43759 3.70118 3.57181
# Velocity P-wave (km/s) = 6.33417 6.88200 6.61376
#
# Compressibility (1/GPa) = 0.02070018
#
# Stress axis : x y z
#
# Youngs Moduli (GPa) = 39.07201 78.80124 95.07060
#
# Poissons Ratio (x) = 0.41412 0.56619
# Poissons Ratio (y) = 0.20533 0.27005
# Poissons Ratio (z) = 0.23269 0.22383
#
# Static dielectric constant tensor:
#      x y z
#    x 1.686990 0.000000 0.000000 
#    y 0.000000 1.829100 0.000000 
#    z 0.000000 0.000000 1.770010 
# 
# From -- ./inp_files/28920.got.cif
#   From: 2010.05.17/outbox.cif.g08.bks.cpg/sg48_15_cif.got.tgz:28920.got - 2010.06.03 20:39:00.
