data_PCOD9390075
_publ_section_title
;
Structure prediction by ZEFSAII (Michael W. Deem and Ramdas Pophale) SiO2 
 PCOD9390075
Probable space group: P N N N
;
_chemical_formula_sum "Si O2"
_cell_formula_units_Z 58
_cell_length_a 9.555590
_cell_length_b 27.138158
_cell_length_c 11.110625
_cell_angle_alpha 90.000000
_cell_angle_beta 90.000000
_cell_angle_gamma 90.000000
_cell_volume 2881.219621
_symmetry_space_group_name_H-M "P N N N"
_symmetry_group_IT_number 48
_space_group.IT_coordinate_system_code '2'
_symmetry_cell_setting 'orthorhombic'
loop_
_space_group_symop_operation_xyz
x,y,z
1/2-x,1/2-y,z
x,1/2-y,1/2-z
1/2-x,y,1/2-z
-x,-y,-z
1/2+x,1/2+y,-z
-x,1/2+y,1/2+z
1/2+x,-y,1/2+z
loop_
_atom_site_type_symbol
_atom_site_label
_atom_site_fract_x
_atom_site_fract_y
_atom_site_fract_z
Si Si1 0.403420 0.960704 0.306774
Si Si2 0.250000 0.750000 0.250000
Si Si3 0.485213 0.697908 0.099875
Si Si4 0.583982 0.264523 0.385764
Si Si5 0.403422 0.371961 0.713578
Si Si6 0.629999 0.396773 0.015151
Si Si7 0.408036 0.947266 0.756127
Si Si8 0.443898 0.874020 0.968905
O O1 0.250000 0.962863 0.250000
O O2 0.484978 0.913077 0.255501
O O3 0.395759 0.948200 0.447978
O O4 0.485158 0.010173 0.277107
O O5 0.345861 0.716203 0.166853
O O6 0.578685 0.679895 0.213567
O O7 0.503228 0.738224 0.993873
O O8 0.466815 0.647081 0.028636
O O9 0.750000 0.250000 0.400427
O O10 0.543866 0.250000 0.250000
O O11 0.565286 0.322743 0.398727
O O12 0.250000 0.389938 0.750000
O O13 0.439617 0.368398 0.572224
O O14 0.606343 0.404931 0.155354
O O15 0.787133 0.381128 0.979342
O O16 0.250000 0.968747 0.750000
O O17 0.454429 0.920716 0.879481
#
# Coordination Sequence:
#
# PCOD9390075 Si02
#       8
#     8   2   8   8   8   8   8   8
#     4  11  22  41  65  95 124 169 225 275 328 398
#     4  12  20  32  60 100 128 160 218 270 320 380
#     4  11  20  35  61  93 127 164 209 265 324 381
#     4  11  21  34  64 101 133 164 217 270 328 395
#     4  11  25  43  65  93 133 172 217 275 337 392
#     4  10  19  37  62  91 128 162 213 271 327 392
#     4  10  23  39  61  91 131 171 210 267 339 400
#     4  11  21  40  62  94 132 172 214 272 331 397
#
# _framework density 20.130365000000001
#
# number of rings (size 3 to 8) (size 9 to 14) (size 15 to 20)
#    0.000    1.241    3.448    3.310    5.793    0.552 
#    7.448    3.103    0.000    0.828    0.000    0.000 
#    0.000    0.000    0.000    0.000    0.000    0.000 
#
# Total GULP energy -323326.735414 kJ/mol
# GULP energy per Si atom -5574.598886 kJ/mol
# Density = 2.008455 g / cm^3
# Si number density = 20.130365 Si / 1000 Ang^3
#
#
#
# Elastic Constant Matrix: (Units=GPa)
#
#
# Indices 1 2 3 4 5 6 
#
# 1 77.4549 35.2212 31.7680 0.0000 0.0000 0.0000
# 2 35.2212 79.6256 17.4083 0.0000 0.0000 0.0000
# 3 31.7680 17.4083 100.5925 0.0000 0.0000 0.0000
# 4 0.0000 0.0000 0.0000 -14.7937 0.0000 0.0000
# 5 0.0000 0.0000 0.0000 0.0000 1.4223 0.0000
# 6 0.0000 0.0000 0.0000 0.0000 0.0000 24.7291
#
#
#
# Elastic Compliance Matrix: (Units=1/GPa)
#
#
# Indices 1 2 3 4 5 6 
#
# 1 0.017892 -0.006942 -0.004449 0.000000 0.000000 0.000000
# 2 -0.006942 0.015746 -0.000533 0.000000 0.000000 0.000000
# 3 -0.004449 -0.000533 0.011438 0.000000 0.000000 0.000000
# 4 0.000000 0.000000 0.000000 -0.067596 0.000000 0.000000
# 5 0.000000 0.000000 0.000000 0.000000 0.703104 0.000000
# 6 0.000000 0.000000 0.000000 0.000000 0.000000 0.040438
#
#
# Mechanical properties :
#
#
# Convention : Reuss Voigt Hill
#
# Bulk Modulus (GPa) = 47.10479 47.38533 47.24506
# Shear Modulus (GPa) = 6.64942 13.82322 10.23632
#
# Velocity S-wave (km/s) = 1.81944 2.62331 2.25744
# Velocity P-wave (km/s) = 5.27868 5.72416 5.50593
#
# Compressibility (1/GPa) = 0.02122926
#
# Stress axis : x y z
#
# Youngs Moduli (GPa) = 55.89044 63.50910 87.42498
#
# Poissons Ratio (x) = 0.44086 0.38897
# Poissons Ratio (y) = 0.38797 0.04657
# Poissons Ratio (z) = 0.24867 0.03383
#
# Static dielectric constant tensor:
#      x y z
#    x 1.725490 0.000000 0.000000 
#    y 0.000000 1.702700 0.000000 
#    z 0.000000 0.000000 1.792600 
# 
# From -- ./inp_files/18960.got.cif
#   From: 2010.05.17/outbox.cif.g08.bks.cpg/sg48_10_cif.got.tgz:18960.got - 2010.06.03 20:39:00.
