data_PCOD9390479
_publ_section_title
;
Structure prediction by ZEFSAII (Michael W. Deem and Ramdas Pophale) SiO2 
 PCOD9390479
Probable space group: P N N N
;
_chemical_formula_sum "Si O2"
_cell_formula_units_Z 52
_cell_length_a 28.645692
_cell_length_b 15.503165
_cell_length_c 5.191551
_cell_angle_alpha 90.000000
_cell_angle_beta 90.000000
_cell_angle_gamma 90.000000
_cell_volume 2305.562034
_symmetry_space_group_name_H-M "P N N N"
_symmetry_group_IT_number 48
_space_group.IT_coordinate_system_code '2'
_symmetry_cell_setting 'orthorhombic'
loop_
_space_group_symop_operation_xyz
x,y,z
1/2-x,1/2-y,z
x,1/2-y,1/2-z
1/2-x,y,1/2-z
-x,-y,-z
1/2+x,1/2+y,-z
-x,1/2+y,1/2+z
1/2+x,-y,1/2+z
loop_
_atom_site_type_symbol
_atom_site_label
_atom_site_fract_x
_atom_site_fract_y
_atom_site_fract_z
Si Si1 0.195876 0.990551 0.206782
Si Si2 0.912242 0.750000 0.750000
Si Si3 0.137036 0.843027 0.381651
Si Si4 0.544528 0.390812 0.884779
Si Si5 0.555850 0.588130 0.070053
Si Si6 0.841494 0.571583 0.207305
Si Si7 0.346895 0.250000 0.750000
Si Si8 0.413137 0.750000 0.750000
O O1 0.250000 0.007176 0.250000
O O2 0.167053 0.047871 0.412356
O O3 0.181370 0.895778 0.300402
O O4 0.179635 0.005397 0.914722
O O5 0.938601 0.839207 0.840532
O O6 0.879054 0.763232 0.502340
O O7 0.137724 0.750000 0.250000
O O8 0.088623 0.888289 0.301978
O O9 0.124505 0.823914 0.673888
O O10 0.548374 0.487318 0.999585
O O11 0.491579 0.384138 0.782626
O O12 0.553811 0.305661 0.061438
O O13 0.604140 0.584737 0.224711
O O14 0.818176 0.662944 0.275170
#
# Coordination Sequence:
#
# PCOD9390479 Si02
#       8
#     8   4   8   8   8   8   4   4
#     4  12  26  46  74  99 132 177 234 296 359 415
#     4  10  21  40  58 100 136 185 226 281 322 407
#     4  10  23  42  67  95 138 180 226 290 348 419
#     4  10  20  39  60  99 133 187 232 280 346 421
#     4  10  20  38  66  96 141 186 233 278 346 422
#     4  11  23  46  67 101 139 178 226 289 343 415
#     4  10  22  40  71  96 136 182 224 274 351 408
#     4  10  21  42  64  97 143 187 239 292 356 415
#
# _framework density 22.554152999999999
#
# number of rings (size 3 to 8) (size 9 to 14) (size 15 to 20)
#    0.000    1.538    1.538    3.692    2.154    0.308 
#   24.923    4.615    0.000    0.000    0.000    0.000 
#    0.000    0.000    0.000    0.000    0.000    0.000 
#
# Total GULP energy -289607.988533 kJ/mol
# GULP energy per Si atom -5569.384395 kJ/mol
# Density = 2.250282 g / cm^3
# Si number density = 22.554153 Si / 1000 Ang^3
#
#
#
# Elastic Constant Matrix: (Units=GPa)
#
#
# Indices 1 2 3 4 5 6 
#
# 1 58.7339 11.8232 8.5246 0.0000 0.0000 0.0000
# 2 11.8232 101.2787 -0.7986 0.0000 0.0000 0.0000
# 3 8.5246 -0.7986 48.7743 0.0000 0.0000 0.0000
# 4 0.0000 0.0000 0.0000 31.3619 0.0000 0.0000
# 5 0.0000 0.0000 0.0000 0.0000 7.0986 0.0000
# 6 0.0000 0.0000 0.0000 0.0000 0.0000 -14.9843
#
#
#
# Elastic Compliance Matrix: (Units=1/GPa)
#
#
# Indices 1 2 3 4 5 6 
#
# 1 0.017911 -0.002116 -0.003165 0.000000 0.000000 0.000000
# 2 -0.002116 0.010125 0.000536 0.000000 0.000000 0.000000
# 3 -0.003165 0.000536 0.021065 0.000000 0.000000 0.000000
# 4 0.000000 0.000000 0.000000 0.031886 0.000000 0.000000
# 5 0.000000 0.000000 0.000000 0.000000 0.140874 0.000000
# 6 0.000000 0.000000 0.000000 0.000000 0.000000 -0.066737
#
#
# Mechanical properties :
#
#
# Convention : Reuss Voigt Hill
#
# Bulk Modulus (GPa) = 25.24618 27.54280 26.39449
# Shear Modulus (GPa) = 28.11862 17.31107 22.71484
#
# Velocity S-wave (km/s) = 3.53472 2.77345 3.17697
# Velocity P-wave (km/s) = 5.27985 4.74282 5.01853
#
# Compressibility (1/GPa) = 0.03960995
#
# Stress axis : x y z
#
# Youngs Moduli (GPa) = 55.83081 98.76562 47.47307
#
# Poissons Ratio (x) = 0.20898 0.15026
# Poissons Ratio (y) = 0.11813 -0.02543
# Poissons Ratio (z) = 0.17671 -0.05290
#
# Static dielectric constant tensor:
#      x y z
#    x 1.813410 0.000000 0.000000 
#    y 0.000000 2.028330 0.000000 
#    z 0.000000 0.000000 1.996740 
# 
# From -- ./inp_files/6596.got.cif
#   From: 2010.05.17/outbox.cif.g08.bks.cpg/sg48_4_cif.got.tgz:6596.got - 2010.06.03 20:39:00.
