data_PCOD9390881
_publ_section_title
;
Structure prediction by ZEFSAII (Michael W. Deem and Ramdas Pophale) SiO2 
 PCOD9390881
Probable space group: P N N N
;
_chemical_formula_sum "Si O2"
_cell_formula_units_Z 48
_cell_length_a 15.134586
_cell_length_b 8.019507
_cell_length_c 18.754064
_cell_angle_alpha 90.000000
_cell_angle_beta 90.000000
_cell_angle_gamma 90.000000
_cell_volume 2276.216725
_symmetry_space_group_name_H-M "P N N N"
_symmetry_group_IT_number 48
_space_group.IT_coordinate_system_code '2'
_symmetry_cell_setting 'orthorhombic'
loop_
_space_group_symop_operation_xyz
x,y,z
1/2-x,1/2-y,z
x,1/2-y,1/2-z
1/2-x,y,1/2-z
-x,-y,-z
1/2+x,1/2+y,-z
-x,1/2+y,1/2+z
1/2+x,-y,1/2+z
loop_
_atom_site_type_symbol
_atom_site_label
_atom_site_fract_x
_atom_site_fract_y
_atom_site_fract_z
Si Si1 0.608866 0.250000 0.250000
Si Si2 0.191871 0.491036 0.973667
Si Si3 0.341920 0.672657 0.379900
Si Si4 0.484038 0.557534 0.264307
Si Si5 0.750000 0.250000 0.137771
Si Si6 0.386823 0.338690 0.973251
Si Si7 0.046973 0.509911 0.396018
O O1 0.552293 0.406887 0.280560
O O2 0.674934 0.323721 0.189902
O O3 0.196034 0.632211 0.914953
O O4 0.288910 0.410524 0.970600
O O5 0.118813 0.354441 0.954418
O O6 0.178727 0.553866 0.053882
O O7 0.250000 0.750000 0.350226
O O8 0.406035 0.588002 0.321661
O O9 0.393712 0.829289 0.413756
O O10 0.519140 0.750000 0.250000
O O11 0.446208 0.493900 0.188295
O O12 0.449260 0.440805 0.920819
O O13 0.421940 0.361346 0.053763
#
# Coordination Sequence:
#
# PCOD9390881 Si02
#       7
#     4   8   8   8   4   8   8
#     4  11  26  48  68 103 138 182 240 289 360 419
#     4  11  22  41  65  96 132 178 219 288 347 409
#     4  11  22  42  64  96 134 181 223 276 344 411
#     4  10  25  42  67  96 138 184 228 283 345 421
#     4  11  24  44  70  98 139 178 232 304 345 424
#     4  10  22  38  66  98 131 169 234 279 346 408
#     4  10  21  41  63  96 131 174 224 290 328 417
#
# _framework density 21.087623000000001
#
# number of rings (size 3 to 8) (size 9 to 14) (size 15 to 20)
#    0.000    1.500    2.500    1.000    7.000    5.000 
#    0.000    0.833    0.000    6.000    0.000    0.000 
#    0.000    0.000    0.000    0.000    0.000    0.000 
#
# Total GULP energy -267800.190379 kJ/mol
# GULP energy per Si atom -5579.170633 kJ/mol
# Density = 2.103963 g / cm^3
# Si number density = 21.087623 Si / 1000 Ang^3
#
#
#
# Elastic Constant Matrix: (Units=GPa)
#
#
# Indices 1 2 3 4 5 6 
#
# 1 81.9967 23.1223 22.2083 0.0000 0.0000 0.0000
# 2 23.1223 55.4243 21.6479 0.0000 0.0000 0.0000
# 3 22.2083 21.6479 98.3301 0.0000 0.0000 0.0000
# 4 0.0000 0.0000 0.0000 25.1351 0.0000 0.0000
# 5 0.0000 0.0000 0.0000 0.0000 59.3049 0.0000
# 6 0.0000 0.0000 0.0000 0.0000 0.0000 34.2994
#
#
#
# Elastic Compliance Matrix: (Units=1/GPa)
#
#
# Indices 1 2 3 4 5 6 
#
# 1 0.014201 -0.005111 -0.002082 0.000000 0.000000 0.000000
# 2 -0.005111 0.021580 -0.003597 0.000000 0.000000 0.000000
# 3 -0.002082 -0.003597 0.011432 0.000000 0.000000 0.000000
# 4 0.000000 0.000000 0.000000 0.039785 0.000000 0.000000
# 5 0.000000 0.000000 0.000000 0.000000 0.016862 0.000000
# 6 0.000000 0.000000 0.000000 0.000000 0.000000 0.029155
#
#
# Mechanical properties :
#
#
# Convention : Reuss Voigt Hill
#
# Bulk Modulus (GPa) = 39.01240 41.07869 40.04555
# Shear Modulus (GPa) = 30.64885 34.99938 32.82412
#
# Velocity S-wave (km/s) = 3.81649 4.07838 3.94960
# Velocity P-wave (km/s) = 6.16126 6.45754 6.31114
#
# Compressibility (1/GPa) = 0.02563287
#
# Stress axis : x y z
#
# Youngs Moduli (GPa) = 70.41843 46.33989 87.47483
#
# Poissons Ratio (x) = 0.23685 0.18213
# Poissons Ratio (y) = 0.35992 0.31460
# Poissons Ratio (z) = 0.14662 0.16666
#
# Static dielectric constant tensor:
#      x y z
#    x 1.784290 0.000000 0.000000 
#    y 0.000000 1.835540 0.000000 
#    z 0.000000 0.000000 1.753330 
# 
# From -- ./inp_files/31573.got.cif
#   From: 2010.05.17/outbox.cif.g08.bks.cpg/sg48_16_cif.got.tgz:31573.got - 2010.06.03 20:39:00.
