data_PCOD9390816
_publ_section_title
;
Structure prediction by ZEFSAII (Michael W. Deem and Ramdas Pophale) SiO2 
 PCOD9390816
Probable space group: P N N N
;
_chemical_formula_sum "Si O2"
_cell_formula_units_Z 34
_cell_length_a 17.534905
_cell_length_b 5.867570
_cell_length_c 15.759448
_cell_angle_alpha 90.000000
_cell_angle_beta 90.000000
_cell_angle_gamma 90.000000
_cell_volume 1621.446779
_symmetry_space_group_name_H-M "P N N N"
_symmetry_group_IT_number 48
_space_group.IT_coordinate_system_code '2'
_symmetry_cell_setting 'orthorhombic'
loop_
_space_group_symop_operation_xyz
x,y,z
1/2-x,1/2-y,z
x,1/2-y,1/2-z
1/2-x,y,1/2-z
-x,-y,-z
1/2+x,1/2+y,-z
-x,1/2+y,1/2+z
1/2+x,-y,1/2+z
loop_
_atom_site_type_symbol
_atom_site_label
_atom_site_fract_x
_atom_site_fract_y
_atom_site_fract_z
Si Si1 0.015161 0.750000 0.750000
Si Si2 0.250000 0.750000 0.599538
Si Si3 0.750000 0.250000 0.750000
Si Si4 0.832949 0.632753 0.487866
Si Si5 0.131642 0.083462 0.669716
Si Si6 0.630008 0.576649 0.822677
O O1 0.067498 0.605945 0.813099
O O2 0.958419 0.932895 0.794693
O O3 0.186257 0.623749 0.542610
O O4 0.290521 0.557262 0.655120
O O5 0.689833 0.374666 0.811867
O O6 0.750000 0.750000 0.494460
O O7 0.878422 0.764489 0.414473
O O8 0.868729 0.651845 0.580353
O O9 0.135993 0.250000 0.750000
O O10 0.659786 0.750000 0.750000
#
# Coordination Sequence:
#
# PCOD9390816 Si02
#       6
#     4   4   2   8   8   8
#     4  10  26  42  62  96 138 170 216 258 326 386
#     4  10  23  41  67 101 126 168 223 271 313 383
#     4  12  20  40  74  90 128 168 216 268 322 382
#     4  10  21  39  67  96 127 166 218 268 321 377
#     4  11  24  43  65  92 132 174 216 265 322 384
#     4  10  24  42  66  98 128 166 213 266 322 386
#
# _framework density 20.968927999999998
#
# number of rings (size 3 to 8) (size 9 to 14) (size 15 to 20)
#    0.706    0.941    0.000    3.882    1.647   14.118 
#    0.000    4.706    0.000    0.000    0.000    0.000 
#    0.000    0.000    0.000    0.000    0.000    0.000 
#
# Total GULP energy -189583.893281 kJ/mol
# GULP energy per Si atom -5575.996861 kJ/mol
# Density = 2.092120 g / cm^3
# Si number density = 20.968928 Si / 1000 Ang^3
#
#
#
# Elastic Constant Matrix: (Units=GPa)
#
#
# Indices 1 2 3 4 5 6 
#
# 1 73.8668 14.6236 46.2089 0.0000 0.0000 0.0000
# 2 14.6236 63.2240 39.4892 0.0000 0.0000 0.0000
# 3 46.2089 39.4892 174.5302 0.0000 0.0000 0.0000
# 4 0.0000 0.0000 0.0000 22.4634 0.0000 0.0000
# 5 0.0000 0.0000 0.0000 0.0000 25.1853 0.0000
# 6 0.0000 0.0000 0.0000 0.0000 0.0000 103.1737
#
#
#
# Elastic Compliance Matrix: (Units=1/GPa)
#
#
# Indices 1 2 3 4 5 6 
#
# 1 0.016310 -0.001252 -0.004035 0.000000 0.000000 0.000000
# 2 -0.001252 0.018516 -0.003858 0.000000 0.000000 0.000000
# 3 -0.004035 -0.003858 0.007671 0.000000 0.000000 0.000000
# 4 0.000000 0.000000 0.000000 0.044517 0.000000 0.000000
# 5 0.000000 0.000000 0.000000 0.000000 0.039706 0.000000
# 6 0.000000 0.000000 0.000000 0.000000 0.000000 0.009692
#
#
# Mechanical properties :
#
#
# Convention : Reuss Voigt Hill
#
# Bulk Modulus (GPa) = 41.31098 56.91828 49.11463
# Shear Modulus (GPa) = 30.71806 44.25111 37.48458
#
# Velocity S-wave (km/s) = 3.83160 4.59880 4.23262
# Velocity P-wave (km/s) = 6.27046 7.44323 6.88187
#
# Compressibility (1/GPa) = 0.02420664
#
# Stress axis : x y z
#
# Youngs Moduli (GPa) = 61.31239 54.00726 130.36394
#
# Poissons Ratio (x) = 0.06763 0.52600
# Poissons Ratio (y) = 0.07678 0.50293
# Poissons Ratio (z) = 0.24739 0.20835
#
# Static dielectric constant tensor:
#      x y z
#    x 1.744620 0.000000 0.000000 
#    y 0.000000 1.838180 0.000000 
#    z 0.000000 0.000000 1.782850 
# 
# From -- ./inp_files/28193.got.cif
#   From: 2010.05.17/outbox.cif.g08.bks.cpg/sg48_15_cif.got.tgz:28193.got - 2010.06.03 20:39:00.
