data_PCOD9390461
_publ_section_title
;
Structure prediction by ZEFSAII (Michael W. Deem and Ramdas Pophale) SiO2 
 PCOD9390461
Probable space group: P N N N
;
_chemical_formula_sum "Si O2"
_cell_formula_units_Z 64
_cell_length_a 11.847719
_cell_length_b 15.002468
_cell_length_c 17.820494
_cell_angle_alpha 90.000000
_cell_angle_beta 90.000000
_cell_angle_gamma 90.000000
_cell_volume 3167.504155
_symmetry_space_group_name_H-M "P N N N"
_symmetry_group_IT_number 48
_space_group.IT_coordinate_system_code '2'
_symmetry_cell_setting 'orthorhombic'
loop_
_space_group_symop_operation_xyz
x,y,z
1/2-x,1/2-y,z
x,1/2-y,1/2-z
1/2-x,y,1/2-z
-x,-y,-z
1/2+x,1/2+y,-z
-x,1/2+y,1/2+z
1/2+x,-y,1/2+z
loop_
_atom_site_type_symbol
_atom_site_label
_atom_site_fract_x
_atom_site_fract_y
_atom_site_fract_z
Si Si1 0.134870 0.467302 0.795892
Si Si2 0.391981 0.901890 0.054013
Si Si3 0.789104 0.843208 0.664651
Si Si4 0.012034 0.913303 0.604022
Si Si5 0.383490 0.755732 0.332063
Si Si6 0.237684 0.356506 0.583228
Si Si7 0.005003 0.068717 0.853330
Si Si8 0.682434 0.981928 0.560191
O O1 0.250000 0.473374 0.750000
O O2 0.112054 0.557002 0.841963
O O3 0.163629 0.392507 0.860253
O O4 0.034324 0.459165 0.733220
O O5 0.414092 0.823463 0.112384
O O6 0.452507 0.992383 0.082175
O O7 0.260797 0.931085 0.046214
O O8 0.443238 0.875042 0.973881
O O9 0.750000 0.750000 0.628602
O O10 0.750000 0.840160 0.750000
O O11 0.729326 0.930008 0.632076
O O12 0.920832 0.854628 0.647188
O O13 0.250000 0.750000 0.325186
O O14 0.438723 0.750000 0.250000
O O15 0.413846 0.853849 0.356433
O O16 0.250000 0.250000 0.572036
O O17 0.120250 0.383296 0.622320
O O18 0.222338 0.414618 0.506989
O O19 0.948406 0.000564 0.914427
#
# Coordination Sequence:
#
# PCOD9390461 Si02
#       8
#     8   8   8   8   8   8   8   8
#     4  10  22  40  61  96 131 178 220 270 328 407
#     4  10  21  36  62  86 123 166 213 261 321 398
#     4  10  22  38  62  93 126 159 215 279 326 383
#     4  10  20  38  64  89 121 167 213 261 327 387
#     4  11  23  37  56  89 128 163 208 263 334 404
#     4  11  25  40  63  92 136 174 224 273 324 410
#     4  11  24  38  64  93 132 173 213 274 338 389
#     4  11  21  42  62  93 124 169 222 274 324 397
#
# _framework density 20.205183999999999
#
# number of rings (size 3 to 8) (size 9 to 14) (size 15 to 20)
#    0.000    1.500    2.500    2.250    3.500    3.750 
#    0.000    0.000    0.000    1.500    0.000    2.625 
#    0.000    0.000    0.000    0.000    0.000    0.000 
#
# Total GULP energy -356326.942110 kJ/mol
# GULP energy per Si atom -5567.608470 kJ/mol
# Density = 2.015920 g / cm^3
# Si number density = 20.205184 Si / 1000 Ang^3
#
#
#
# Elastic Constant Matrix: (Units=GPa)
#
#
# Indices 1 2 3 4 5 6 
#
# 1 85.6545 24.9639 40.4010 0.0000 0.0000 0.0000
# 2 24.9639 63.1469 56.0500 0.0000 0.0000 0.0000
# 3 40.4010 56.0500 149.1627 0.0000 0.0000 0.0000
# 4 0.0000 0.0000 0.0000 35.3470 0.0000 0.0000
# 5 0.0000 0.0000 0.0000 0.0000 33.4873 0.0000
# 6 0.0000 0.0000 0.0000 0.0000 0.0000 28.6413
#
#
#
# Elastic Compliance Matrix: (Units=1/GPa)
#
#
# Indices 1 2 3 4 5 6 
#
# 1 0.013805 -0.003209 -0.002533 0.000000 0.000000 0.000000
# 2 -0.003209 0.024507 -0.008340 0.000000 0.000000 0.000000
# 3 -0.002533 -0.008340 0.010524 0.000000 0.000000 0.000000
# 4 0.000000 0.000000 0.000000 0.028291 0.000000 0.000000
# 5 0.000000 0.000000 0.000000 0.000000 0.029862 0.000000
# 6 0.000000 0.000000 0.000000 0.000000 0.000000 0.034915
#
#
# Mechanical properties :
#
#
# Convention : Reuss Voigt Hill
#
# Bulk Modulus (GPa) = 48.37426 60.08820 54.23123
# Shear Modulus (GPa) = 28.25522 31.26507 29.76014
#
# Velocity S-wave (km/s) = 3.74359 3.93794 3.84200
# Velocity P-wave (km/s) = 6.53295 7.10493 6.82494
#
# Compressibility (1/GPa) = 0.02067215
#
# Stress axis : x y z
#
# Youngs Moduli (GPa) = 72.43792 40.80435 95.02061
#
# Poissons Ratio (x) = 0.13094 0.24071
# Poissons Ratio (y) = 0.23245 0.79245
# Poissons Ratio (z) = 0.18351 0.34030
#
# Static dielectric constant tensor:
#      x y z
#    x 1.699360 0.000000 0.000000 
#    y 0.000000 1.710490 0.000000 
#    z 0.000000 0.000000 1.822960 
# 
# From -- ./inp_files/31181.got.cif
#   From: 2010.05.17/outbox.cif.g08.bks.cpg/sg48_16_cif.got.tgz:31181.got - 2010.06.03 20:39:00.
