data_PCOD9390973
_publ_section_title
;
Structure prediction by ZEFSAII (Michael W. Deem and Ramdas Pophale) SiO2 
 PCOD9390973
Probable space group: P N N N
;
_chemical_formula_sum "Si O2"
_cell_formula_units_Z 64
_cell_length_a 11.140691
_cell_length_b 27.881789
_cell_length_c 10.924815
_cell_angle_alpha 90.000000
_cell_angle_beta 90.000000
_cell_angle_gamma 90.000000
_cell_volume 3393.492209
_symmetry_space_group_name_H-M "P N N N"
_symmetry_group_IT_number 48
_space_group.IT_coordinate_system_code '2'
_symmetry_cell_setting 'orthorhombic'
loop_
_space_group_symop_operation_xyz
x,y,z
1/2-x,1/2-y,z
x,1/2-y,1/2-z
1/2-x,y,1/2-z
-x,-y,-z
1/2+x,1/2+y,-z
-x,1/2+y,1/2+z
1/2+x,-y,1/2+z
loop_
_atom_site_type_symbol
_atom_site_label
_atom_site_fract_x
_atom_site_fract_y
_atom_site_fract_z
Si Si1 0.452541 0.695723 0.250159
Si Si2 0.756922 0.302871 0.953734
Si Si3 0.606283 0.498971 0.239177
Si Si4 0.691808 0.388153 0.382615
Si Si5 0.038592 0.095918 0.839362
Si Si6 0.308723 0.428845 0.075505
Si Si7 0.161192 0.537774 0.478729
Si Si8 0.944098 0.584056 0.824858
O O1 0.506237 0.750000 0.250000
O O2 0.349628 0.695801 0.145411
O O3 0.379654 0.689494 0.376910
O O4 0.529532 0.648723 0.216935
O O5 0.750000 0.250000 0.008654
O O6 0.746949 0.342985 0.054925
O O7 0.750000 0.496531 0.250000
O O8 0.573232 0.554246 0.255351
O O9 0.587107 0.479178 0.099868
O O10 0.519604 0.465766 0.318731
O O11 0.750000 0.396672 0.250000
O O12 0.725297 0.432800 0.470436
O O13 0.550669 0.380531 0.362619
O O14 0.132835 0.090084 0.950671
O O15 0.914441 0.074863 0.897009
O O16 0.169750 0.415181 0.087488
O O17 0.386011 0.409367 0.190136
O O18 0.309418 0.487195 0.083712
#
# Coordination Sequence:
#
# PCOD9390973 Si02
#       8
#     8   8   8   8   8   8   8   8
#     4   9  19  38  63  86 110 147 187 251 304 351
#     4   9  20  38  58  89 118 137 186 247 308 359
#     4  11  19  34  51  76 118 156 192 240 282 338
#     4  12  21  34  60  86 120 155 185 243 307 355
#     4  11  19  35  58  81 111 156 201 232 296 353
#     4  10  22  34  53  81 121 165 201 237 275 349
#     4  11  18  34  54  80 111 160 201 227 289 343
#     4  11  20  36  51  82 125 154 197 240 285 343
#
# _framework density 18.859629000000002
#
# number of rings (size 3 to 8) (size 9 to 14) (size 15 to 20)
#    0.000    1.500    6.250    1.500    0.000    1.750 
#    4.500    0.000    0.000    0.375    0.000    0.000 
#    0.000    0.000    0.000    0.000    0.000    0.000 
#
# Total GULP energy -356766.501837 kJ/mol
# GULP energy per Si atom -5574.476591 kJ/mol
# Density = 1.881670 g / cm^3
# Si number density = 18.859629 Si / 1000 Ang^3
#
#
#
# Elastic Constant Matrix: (Units=GPa)
#
#
# Indices 1 2 3 4 5 6 
#
# 1 89.9427 7.1541 7.4834 0.0000 0.0000 0.0000
# 2 7.1541 112.3582 18.6786 0.0000 0.0000 0.0000
# 3 7.4834 18.6786 28.5950 0.0000 0.0000 0.0000
# 4 0.0000 0.0000 0.0000 21.1721 0.0000 0.0000
# 5 0.0000 0.0000 0.0000 0.0000 18.9728 0.0000
# 6 0.0000 0.0000 0.0000 0.0000 0.0000 22.2681
#
#
#
# Elastic Compliance Matrix: (Units=1/GPa)
#
#
# Indices 1 2 3 4 5 6 
#
# 1 0.011372 -0.000257 -0.002808 0.000000 0.000000 0.000000
# 2 -0.000257 0.009990 -0.006458 0.000000 0.000000 0.000000
# 3 -0.002808 -0.006458 0.039925 0.000000 0.000000 0.000000
# 4 0.000000 0.000000 0.000000 0.047232 0.000000 0.000000
# 5 0.000000 0.000000 0.000000 0.000000 0.052707 0.000000
# 6 0.000000 0.000000 0.000000 0.000000 0.000000 0.044907
#
#
# Mechanical properties :
#
#
# Convention : Reuss Voigt Hill
#
# Bulk Modulus (GPa) = 23.67443 33.05868 28.36655
# Shear Modulus (GPa) = 20.89771 25.65459 23.27615
#
# Velocity S-wave (km/s) = 3.33237 3.69221 3.51690
# Velocity P-wave (km/s) = 5.23321 5.97858 5.61827
#
# Compressibility (1/GPa) = 0.04223967
#
# Stress axis : x y z
#
# Youngs Moduli (GPa) = 87.93296 100.09877 25.04714
#
# Poissons Ratio (x) = 0.02575 0.07034
# Poissons Ratio (y) = 0.02262 0.16176
# Poissons Ratio (z) = 0.24693 0.64647
#
# Static dielectric constant tensor:
#      x y z
#    x 1.693810 0.000000 0.000000 
#    y 0.000000 1.674080 0.000000 
#    z 0.000000 0.000000 1.694110 
# 
# From -- ./inp_files/20486.got.cif
#   From: 2010.05.17/outbox.cif.g08.bks.cpg/sg48_11_cif.got.tgz:20486.got - 2010.06.03 20:39:00.
