data_PCOD9390329
_publ_section_title
;
Structure prediction by ZEFSAII (Michael W. Deem and Ramdas Pophale) SiO2 
 PCOD9390329
Probable space group: P N N N
;
_chemical_formula_sum "Si O2"
_cell_formula_units_Z 38
_cell_length_a 10.242001
_cell_length_b 11.995427
_cell_length_c 15.330711
_cell_angle_alpha 90.000000
_cell_angle_beta 90.000000
_cell_angle_gamma 90.000000
_cell_volume 1883.487849
_symmetry_space_group_name_H-M "P N N N"
_symmetry_group_IT_number 48
_space_group.IT_coordinate_system_code '2'
_symmetry_cell_setting 'orthorhombic'
loop_
_space_group_symop_operation_xyz
x,y,z
1/2-x,1/2-y,z
x,1/2-y,1/2-z
1/2-x,y,1/2-z
-x,-y,-z
1/2+x,1/2+y,-z
-x,1/2+y,1/2+z
1/2+x,-y,1/2+z
loop_
_atom_site_type_symbol
_atom_site_label
_atom_site_fract_x
_atom_site_fract_y
_atom_site_fract_z
Si Si1 0.312738 0.868181 0.422479
Si Si2 0.357381 0.658435 0.873273
Si Si3 0.750000 0.750000 0.250000
Si Si4 0.422801 0.250000 0.250000
Si Si5 0.142103 0.012051 0.318479
Si Si6 0.564191 0.567338 0.191577
O O1 0.250000 0.750000 0.390759
O O2 0.353097 0.849362 0.522578
O O3 0.443276 0.909408 0.373418
O O4 0.199424 0.961817 0.407588
O O5 0.250000 0.750000 0.848134
O O6 0.490697 0.695198 0.826360
O O7 0.344150 0.534109 0.837735
O O8 0.654152 0.673761 0.194952
O O9 0.358865 0.354651 0.302004
O O10 0.250000 0.967590 0.250000
O O11 0.004522 0.964197 0.284227
#
# Coordination Sequence:
#
# PCOD9390329 Si02
#       6
#     8   8   2   4   8   8
#     4  10  20  40  61  90 121 159 203 260 317 359
#     4  10  22  38  61  86 125 164 200 248 316 371
#     4  12  24  36  56  88 116 158 204 236 308 372
#     4  10  20  36  60  92 120 161 211 252 304 378
#     4   9  19  36  62  86 115 156 209 253 302 363
#     4  10  22  38  59  86 122 158 202 251 305 374
#
# _framework density 20.175336000000001
#
# number of rings (size 3 to 8) (size 9 to 14) (size 15 to 20)
#    0.000    2.105    0.000    2.526    5.895    2.947 
#    3.789    2.105    0.000    0.000    0.000    0.000 
#    0.000    0.000    0.000    0.000    0.000    0.000 
#
# Total GULP energy -211608.107181 kJ/mol
# GULP energy per Si atom -5568.634399 kJ/mol
# Density = 2.012942 g / cm^3
# Si number density = 20.175336 Si / 1000 Ang^3
#
#
#
# Elastic Constant Matrix: (Units=GPa)
#
#
# Indices 1 2 3 4 5 6 
#
# 1 65.7370 55.1763 25.0533 0.0000 0.0000 0.0000
# 2 55.1763 159.2209 34.9848 0.0000 0.0000 0.0000
# 3 25.0533 34.9848 82.2825 0.0000 0.0000 0.0000
# 4 0.0000 0.0000 0.0000 -20.9276 0.0000 0.0000
# 5 0.0000 0.0000 0.0000 0.0000 8.7456 0.0000
# 6 0.0000 0.0000 0.0000 0.0000 0.0000 35.6982
#
#
#
# Elastic Compliance Matrix: (Units=1/GPa)
#
#
# Indices 1 2 3 4 5 6 
#
# 1 0.022535 -0.006951 -0.003906 0.000000 0.000000 0.000000
# 2 -0.006951 0.009072 -0.001741 0.000000 0.000000 0.000000
# 3 -0.003906 -0.001741 0.014083 0.000000 0.000000 0.000000
# 4 0.000000 0.000000 0.000000 -0.047784 0.000000 0.000000
# 5 0.000000 0.000000 0.000000 0.000000 0.114343 0.000000
# 6 0.000000 0.000000 0.000000 0.000000 0.000000 0.028013
#
#
# Mechanical properties :
#
#
# Convention : Reuss Voigt Hill
#
# Bulk Modulus (GPa) = 48.79458 59.74101 54.26780
# Shear Modulus (GPa) = 29.02112 17.50497 23.26305
#
# Velocity S-wave (km/s) = 3.79680 2.94877 3.39933
# Velocity P-wave (km/s) = 6.59232 6.42409 6.50875
#
# Compressibility (1/GPa) = 0.02049408
#
# Stress axis : x y z
#
# Youngs Moduli (GPa) = 44.37512 110.23068 71.00920
#
# Poissons Ratio (x) = 0.76622 0.27736
# Poissons Ratio (y) = 0.30845 0.12361
# Poissons Ratio (z) = 0.17333 0.19188
#
# Static dielectric constant tensor:
#      x y z
#    x 1.769080 0.000000 0.000000 
#    y 0.000000 1.692260 0.000000 
#    z 0.000000 0.000000 1.736240 
# 
# From -- ./inp_files/10766.got.cif
#   From: 2010.05.17/outbox.cif.g08.bks.cpg/sg48_6_cif.got.tgz:10766.got - 2010.06.03 20:39:00.
