data_PCOD9390682
_publ_section_title
;
Structure prediction by ZEFSAII (Michael W. Deem and Ramdas Pophale) SiO2 
 PCOD9390682
Probable space group: P N N N
;
_chemical_formula_sum "Si O2"
_cell_formula_units_Z 44
_cell_length_a 27.892763
_cell_length_b 14.194842
_cell_length_c 5.176305
_cell_angle_alpha 90.000000
_cell_angle_beta 90.000000
_cell_angle_gamma 90.000000
_cell_volume 2049.471850
_symmetry_space_group_name_H-M "P N N N"
_symmetry_group_IT_number 48
_space_group.IT_coordinate_system_code '2'
_symmetry_cell_setting 'orthorhombic'
loop_
_space_group_symop_operation_xyz
x,y,z
1/2-x,1/2-y,z
x,1/2-y,1/2-z
1/2-x,y,1/2-z
-x,-y,-z
1/2+x,1/2+y,-z
-x,1/2+y,1/2+z
1/2+x,-y,1/2+z
loop_
_atom_site_type_symbol
_atom_site_label
_atom_site_fract_x
_atom_site_fract_y
_atom_site_fract_z
Si Si1 0.303087 0.470921 0.230624
Si Si2 0.434051 0.648922 0.346834
Si Si3 0.046767 0.141801 0.712914
Si Si4 0.906208 0.556996 0.712250
Si Si5 0.613686 0.250000 0.250000
Si Si6 0.803352 0.400452 0.236569
O O1 0.250000 0.426842 0.250000
O O2 0.351378 0.410544 0.250083
O O3 0.307043 0.551400 0.453969
O O4 0.305043 0.517756 0.949201
O O5 0.412213 0.750000 0.250000
O O6 0.489062 0.639641 0.269014
O O7 0.408162 0.555502 0.256151
O O8 0.425307 0.672009 0.644964
O O9 0.061440 0.250000 0.750000
O O10 0.061626 0.103321 0.434488
O O11 0.072056 0.081913 0.935621
O O12 0.654740 0.170865 0.311822
O O13 0.750000 0.357858 0.250000
#
# Coordination Sequence:
#
# PCOD9390682 Si02
#       6
#     8   8   8   8   4   8
#     4  10  21  39  63  93 126 164 215 268 328 395
#     4  11  26  39  65  97 139 176 220 268 319 401
#     4  11  27  45  68  93 128 170 228 285 337 390
#     4  12  23  45  70  95 130 175 220 270 343 397
#     4  12  23  36  60  90 142 176 225 260 318 382
#     4  10  21  37  57  89 133 180 217 256 311 391
#
# _framework density 21.468945999999999
#
# number of rings (size 3 to 8) (size 9 to 14) (size 15 to 20)
#    0.000    1.091    1.818    4.091    7.636    0.000 
#    0.000    2.727    0.000    3.273    0.000    0.000 
#    0.000    0.000    0.000    0.000    0.000    0.000 
#
# Total GULP energy -245135.847592 kJ/mol
# GULP energy per Si atom -5571.269263 kJ/mol
# Density = 2.142008 g / cm^3
# Si number density = 21.468946 Si / 1000 Ang^3
#
#
#
# Elastic Constant Matrix: (Units=GPa)
#
#
# Indices 1 2 3 4 5 6 
#
# 1 117.5933 12.1889 16.6242 0.0000 0.0000 0.0000
# 2 12.1889 36.0928 -5.5841 0.0000 0.0000 0.0000
# 3 16.6242 -5.5841 8.6989 0.0000 0.0000 0.0000
# 4 0.0000 0.0000 0.0000 54.1589 0.0000 0.0000
# 5 0.0000 0.0000 0.0000 0.0000 35.5478 0.0000
# 6 0.0000 0.0000 0.0000 0.0000 0.0000 -4.1213
#
#
#
# Elastic Compliance Matrix: (Units=1/GPa)
#
#
# Indices 1 2 3 4 5 6 
#
# 1 0.014337 -0.010082 -0.033872 0.000000 0.000000 0.000000
# 2 -0.010082 0.037852 0.043566 0.000000 0.000000 0.000000
# 3 -0.033872 0.043566 0.207656 0.000000 0.000000 0.000000
# 4 0.000000 0.000000 0.000000 0.018464 0.000000 0.000000
# 5 0.000000 0.000000 0.000000 0.000000 0.028131 0.000000
# 6 0.000000 0.000000 0.000000 0.000000 0.000000 -0.242643
#
#
# Mechanical properties :
#
#
# Convention : Reuss Voigt Hill
#
# Bulk Modulus (GPa) = 3.85998 23.20477 13.53237
# Shear Modulus (GPa) = 33.12813 26.39416 29.76115
#
# Velocity S-wave (km/s) = 3.93246 3.51010 3.72727
# Velocity P-wave (km/s) = 4.73506 5.22108 4.98400
#
# Compressibility (1/GPa) = 0.25906883
#
# Stress axis : x y z
#
# Youngs Moduli (GPa) = 69.74738 26.41891 4.81566
#
# Poissons Ratio (x) = 0.26637 0.16312
# Poissons Ratio (y) = 0.70322 -0.20980
# Poissons Ratio (z) = 2.36249 -1.15098
#
# Static dielectric constant tensor:
#      x y z
#    x 1.803380 0.000000 0.000000 
#    y 0.000000 1.745080 0.000000 
#    z 0.000000 0.000000 1.446690 
# 
# From -- ./inp_files/6421.got.cif
#   From: 2010.05.17/outbox.cif.g08.bks.cpg/sg48_4_cif.got.tgz:6421.got - 2010.06.03 20:39:00.
