data_PCOD9390127
_publ_section_title
;
Structure prediction by ZEFSAII (Michael W. Deem and Ramdas Pophale) SiO2 
 PCOD9390127
Probable space group: P N N N
;
_chemical_formula_sum "Si O2"
_cell_formula_units_Z 40
_cell_length_a 7.964854
_cell_length_b 12.024981
_cell_length_c 16.880409
_cell_angle_alpha 90.000000
_cell_angle_beta 90.000000
_cell_angle_gamma 90.000000
_cell_volume 1616.758613
_symmetry_space_group_name_H-M "P N N N"
_symmetry_group_IT_number 48
_space_group.IT_coordinate_system_code '2'
_symmetry_cell_setting 'orthorhombic'
loop_
_space_group_symop_operation_xyz
x,y,z
1/2-x,1/2-y,z
x,1/2-y,1/2-z
1/2-x,y,1/2-z
-x,-y,-z
1/2+x,1/2+y,-z
-x,1/2+y,1/2+z
1/2+x,-y,1/2+z
loop_
_atom_site_type_symbol
_atom_site_label
_atom_site_fract_x
_atom_site_fract_y
_atom_site_fract_z
Si Si1 0.913461 0.285115 0.618381
Si Si2 0.804274 0.466019 0.497597
Si Si3 0.369385 0.489031 0.826477
Si Si4 0.589637 0.671127 0.513915
Si Si5 0.445983 0.287868 0.167600
O O1 0.750000 0.250000 0.666962
O O2 0.823934 0.356454 0.548228
O O3 0.045479 0.368011 0.660310
O O4 0.007484 0.186207 0.572071
O O5 0.765386 0.473115 0.404388
O O6 0.669465 0.551914 0.533408
O O7 0.000000 0.500000 0.500000
O O8 0.250000 0.492237 0.750000
O O9 0.520162 0.580525 0.829428
O O10 0.750000 0.750000 0.505425
O O11 0.490574 0.726797 0.587783
O O12 0.250000 0.250000 0.169511
O O13 0.526699 0.250000 0.250000
#
# Coordination Sequence:
#
# PCOD9390127 Si02
#       5
#     8   8   8   8   8
#     4  11  23  41  69 107 144 191 249 299 358 435
#     4  10  19  39  70 105 137 189 246 296 349 429
#     4  11  23  43  70 106 148 189 243 297 367 445
#     4  11  18  38  73  97 140 186 243 295 358 433
#     4  10  21  39  69 105 144 181 227 305 380 421
#
# _framework density 24.740857999999999
#
# number of rings (size 3 to 8) (size 9 to 14) (size 15 to 20)
#    0.000    1.400    6.000    3.600    0.000    2.800 
#    0.000    6.000    0.000    6.000    0.000    0.000 
#    0.000    0.000    0.000    0.000    0.000    0.000 
#
# Total GULP energy -222977.339181 kJ/mol
# GULP energy per Si atom -5574.433480 kJ/mol
# Density = 2.468455 g / cm^3
# Si number density = 24.740858 Si / 1000 Ang^3
#
#
#
# Elastic Constant Matrix: (Units=GPa)
#
#
# Indices 1 2 3 4 5 6 
#
# 1 106.5939 51.4612 37.7781 0.0000 0.0000 0.0000
# 2 51.4612 107.7374 15.7695 0.0000 0.0000 0.0000
# 3 37.7781 15.7695 155.7143 0.0000 0.0000 0.0000
# 4 0.0000 0.0000 0.0000 -1.4780 0.0000 0.0000
# 5 0.0000 0.0000 0.0000 0.0000 -7.1399 0.0000
# 6 0.0000 0.0000 0.0000 0.0000 0.0000 58.8896
#
#
#
# Elastic Compliance Matrix: (Units=1/GPa)
#
#
# Indices 1 2 3 4 5 6 
#
# 1 0.013149 -0.005901 -0.002593 0.000000 0.000000 0.000000
# 2 -0.005901 0.012070 0.000209 0.000000 0.000000 0.000000
# 3 -0.002593 0.000209 0.007030 0.000000 0.000000 0.000000
# 4 0.000000 0.000000 0.000000 -0.676585 0.000000 0.000000
# 5 0.000000 0.000000 0.000000 0.000000 -0.140059 0.000000
# 6 0.000000 0.000000 0.000000 0.000000 0.000000 0.016981
#
#
# Mechanical properties :
#
#
# Convention : Reuss Voigt Hill
#
# Bulk Modulus (GPa) = 63.77521 64.45148 64.11335
# Shear Modulus (GPa) = -6.70585 27.72347 10.50881
#
# Velocity S-wave (km/s) = -1.64813 3.35110 2.06320
# Velocity P-wave (km/s) = 4.71291 6.40939 5.62547
#
# Compressibility (1/GPa) = 0.01568007
#
# Stress axis : x y z
#
# Youngs Moduli (GPa) = 76.04999 82.85022 142.25179
#
# Poissons Ratio (x) = 0.48893 0.36879
# Poissons Ratio (y) = 0.44880 -0.02978
# Poissons Ratio (z) = 0.19716 -0.01735
#
# Static dielectric constant tensor:
#      x y z
#    x 2.167100 0.000000 0.000000 
#    y 0.000000 1.938750 0.000000 
#    z 0.000000 0.000000 2.043590 
# 
# From -- ./inp_files/30002.got.cif
#   From: 2010.05.17/outbox.cif.g08.bks.cpg/sg48_16_cif.got.tgz:30002.got - 2010.06.03 20:39:00.
