data_PCOD9390224
_publ_section_title
;
Structure prediction by ZEFSAII (Michael W. Deem and Ramdas Pophale) SiO2 
 PCOD9390224
Probable space group: P N N N
;
_chemical_formula_sum "Si O2"
_cell_formula_units_Z 60
_cell_length_a 20.727162
_cell_length_b 12.124888
_cell_length_c 11.470419
_cell_angle_alpha 90.000000
_cell_angle_beta 90.000000
_cell_angle_gamma 90.000000
_cell_volume 2882.682820
_symmetry_space_group_name_H-M "P N N N"
_symmetry_group_IT_number 48
_space_group.IT_coordinate_system_code '2'
_symmetry_cell_setting 'orthorhombic'
loop_
_space_group_symop_operation_xyz
x,y,z
1/2-x,1/2-y,z
x,1/2-y,1/2-z
1/2-x,y,1/2-z
-x,-y,-z
1/2+x,1/2+y,-z
-x,1/2+y,1/2+z
1/2+x,-y,1/2+z
loop_
_atom_site_type_symbol
_atom_site_label
_atom_site_fract_x
_atom_site_fract_y
_atom_site_fract_z
Si Si1 0.238871 0.379893 0.007372
Si Si2 0.885337 0.192345 0.369361
Si Si3 0.290584 0.922401 0.360577
Si Si4 0.035097 0.264763 0.613398
Si Si5 0.750000 0.250000 0.441270
Si Si6 0.396168 0.443151 0.593906
Si Si7 0.141993 0.424159 0.636004
Si Si8 0.084708 0.887755 0.033208
O O1 0.250000 0.250000 0.024315
O O2 0.165202 0.415838 0.987160
O O3 0.283413 0.416601 0.897353
O O4 0.269146 0.453477 0.110355
O O5 0.909343 0.250000 0.250000
O O6 0.807381 0.196571 0.366613
O O7 0.900250 0.269798 0.477553
O O8 0.911126 0.072478 0.400287
O O9 0.250000 0.883960 0.250000
O O10 0.272303 0.847503 0.472047
O O11 0.368200 0.912620 0.357685
O O12 0.019373 0.250000 0.750000
O O13 0.044578 0.139825 0.567435
O O14 0.106719 0.313160 0.595162
O O15 0.988856 0.362907 0.567287
O O16 0.371828 0.426069 0.727368
O O17 0.107133 0.524033 0.565381
#
# Coordination Sequence:
#
# PCOD9390224 Si02
#       8
#     8   8   8   8   4   8   8   8
#     4  11  21  36  61  92 122 154 191 243 315 367
#     4  11  21  35  58  89 121 151 185 246 310 368
#     4  10  22  38  59  87 117 156 204 254 296 352
#     4  10  22  38  58  85 115 159 207 247 285 358
#     4  10  20  34  56  88 120 150 188 240 308 358
#     4  11  21  36  60  91 124 148 193 247 301 370
#     4  10  20  36  60  88 119 157 192 240 302 361
#     4  10  22  38  60  83 116 163 200 244 300 356
#
# _framework density 20.813945
#
# number of rings (size 3 to 8) (size 9 to 14) (size 15 to 20)
#    0.000    1.600    4.000    1.200    0.000    4.533 
#    0.000    0.000    0.000    0.000    0.000    0.000 
#    0.000    0.000    0.000    0.000    0.000    0.000 
#
# Total GULP energy -334176.136359 kJ/mol
# GULP energy per Si atom -5569.602273 kJ/mol
# Density = 2.076657 g / cm^3
# Si number density = 20.813945 Si / 1000 Ang^3
#
#
#
# Elastic Constant Matrix: (Units=GPa)
#
#
# Indices 1 2 3 4 5 6 
#
# 1 65.9188 9.1704 8.0493 0.0000 0.0000 0.0000
# 2 9.1704 148.8055 6.0121 0.0000 0.0000 0.0000
# 3 8.0493 6.0121 27.3945 0.0000 0.0000 0.0000
# 4 0.0000 0.0000 0.0000 13.2738 0.0000 0.0000
# 5 0.0000 0.0000 0.0000 0.0000 11.1820 0.0000
# 6 0.0000 0.0000 0.0000 0.0000 0.0000 26.2194
#
#
#
# Elastic Compliance Matrix: (Units=1/GPa)
#
#
# Indices 1 2 3 4 5 6 
#
# 1 0.015827 -0.000795 -0.004476 0.000000 0.000000 0.000000
# 2 -0.000795 0.006820 -0.001263 0.000000 0.000000 0.000000
# 3 -0.004476 -0.001263 0.038096 0.000000 0.000000 0.000000
# 4 0.000000 0.000000 0.000000 0.075336 0.000000 0.000000
# 5 0.000000 0.000000 0.000000 0.000000 0.089429 0.000000
# 6 0.000000 0.000000 0.000000 0.000000 0.000000 0.038140
#
#
# Mechanical properties :
#
#
# Convention : Reuss Voigt Hill
#
# Bulk Modulus (GPa) = 20.97511 32.06473 26.51992
# Shear Modulus (GPa) = 17.08765 24.72751 20.90758
#
# Velocity S-wave (km/s) = 2.86837 3.45051 3.17282
# Velocity P-wave (km/s) = 4.59014 5.59585 5.11776
#
# Compressibility (1/GPa) = 0.04767556
#
# Stress axis : x y z
#
# Youngs Moduli (GPa) = 63.18202 146.62352 26.24938
#
# Poissons Ratio (x) = 0.11650 0.11750
# Poissons Ratio (y) = 0.05020 0.03316
# Poissons Ratio (z) = 0.28281 0.18523
#
# Static dielectric constant tensor:
#      x y z
#    x 1.883110 0.000000 0.000000 
#    y 0.000000 1.816480 0.000000 
#    z 0.000000 0.000000 1.740440 
# 
# From -- ./inp_files/20305.got.cif
#   From: 2010.05.17/outbox.cif.g08.bks.cpg/sg48_11_cif.got.tgz:20305.got - 2010.06.03 20:39:00.
