data_PCOD9390667
_publ_section_title
;
Structure prediction by ZEFSAII (Michael W. Deem and Ramdas Pophale) SiO2 
 PCOD9390667
Probable space group: P N N N
;
_chemical_formula_sum "Si O2"
_cell_formula_units_Z 58
_cell_length_a 9.332231
_cell_length_b 12.216310
_cell_length_c 23.014221
_cell_angle_alpha 90.000000
_cell_angle_beta 90.000000
_cell_angle_gamma 90.000000
_cell_volume 2623.746090
_symmetry_space_group_name_H-M "P N N N"
_symmetry_group_IT_number 48
_space_group.IT_coordinate_system_code '2'
_symmetry_cell_setting 'orthorhombic'
loop_
_space_group_symop_operation_xyz
x,y,z
1/2-x,1/2-y,z
x,1/2-y,1/2-z
1/2-x,y,1/2-z
-x,-y,-z
1/2+x,1/2+y,-z
-x,1/2+y,1/2+z
1/2+x,-y,1/2+z
loop_
_atom_site_type_symbol
_atom_site_label
_atom_site_fract_x
_atom_site_fract_y
_atom_site_fract_z
Si Si1 0.335116 0.636290 0.106849
Si Si2 0.133894 0.168129 0.964415
Si Si3 0.750000 0.250000 0.250000
Si Si4 0.747911 0.540286 0.683251
Si Si5 0.051711 0.602864 0.830111
Si Si6 0.924904 0.692667 0.598747
Si Si7 0.774049 0.371104 0.405895
Si Si8 0.666780 0.028852 0.993175
O O1 0.250000 0.750000 0.112638
O O2 0.486212 0.652186 0.071789
O O3 0.338737 0.568207 0.167131
O O4 0.229596 0.556880 0.069149
O O5 0.250000 0.250000 0.936432
O O6 0.224197 0.058344 0.978090
O O7 0.104273 0.212680 0.030512
O O8 0.866020 0.335531 0.221722
O O9 0.750000 0.579981 0.750000
O O10 0.577472 0.520672 0.678502
O O11 0.809531 0.633053 0.639328
O O12 0.178552 0.549696 0.867583
O O13 0.976727 0.697278 0.869869
O O14 0.059627 0.610007 0.596100
O O15 0.750000 0.250000 0.379190
O O16 0.701298 0.365520 0.468190
O O17 0.500000 0.000000 0.000000
#
# Coordination Sequence:
#
# PCOD9390667 Si02
#       8
#     8   8   2   8   8   8   8   8
#     4  12  26  45  67  97 136 178 234 284 345 400
#     4  12  25  41  68 100 141 174 213 279 354 429
#     4  12  20  40  62  96 136 182 214 272 334 416
#     4  12  26  43  66  93 129 183 236 284 327 389
#     4  11  23  38  63  96 135 172 217 266 338 412
#     4  11  21  41  62  97 138 171 211 272 344 421
#     4  10  21  36  60  87 129 174 207 261 337 400
#     4  12  23  38  64  96 133 173 215 267 340 412
#
# _framework density 22.105798
#
# number of rings (size 3 to 8) (size 9 to 14) (size 15 to 20)
#    0.000    0.552    4.828    5.379    5.793    0.828 
#    0.000    0.000    0.000    0.000    0.000    2.897 
#    0.000    0.000    0.000    0.000    0.000    0.000 
#
# Total GULP energy -323042.240742 kJ/mol
# GULP energy per Si atom -5569.693806 kJ/mol
# Density = 2.205548 g / cm^3
# Si number density = 22.105798 Si / 1000 Ang^3
#
#
#
# Elastic Constant Matrix: (Units=GPa)
#
#
# Indices 1 2 3 4 5 6 
#
# 1 175.3569 11.8197 30.2249 0.0000 0.0000 0.0000
# 2 11.8197 60.8341 -13.9157 0.0000 0.0000 0.0000
# 3 30.2249 -13.9157 37.8130 0.0000 0.0000 0.0000
# 4 0.0000 0.0000 0.0000 12.4728 0.0000 0.0000
# 5 0.0000 0.0000 0.0000 0.0000 21.2545 0.0000
# 6 0.0000 0.0000 0.0000 0.0000 0.0000 24.2692
#
#
#
# Elastic Compliance Matrix: (Units=1/GPa)
#
#
# Indices 1 2 3 4 5 6 
#
# 1 0.007055 -0.002905 -0.006708 0.000000 0.000000 0.000000
# 2 -0.002905 0.019146 0.009368 0.000000 0.000000 0.000000
# 3 -0.006708 0.009368 0.035255 0.000000 0.000000 0.000000
# 4 0.000000 0.000000 0.000000 0.080174 0.000000 0.000000
# 5 0.000000 0.000000 0.000000 0.000000 0.047049 0.000000
# 6 0.000000 0.000000 0.000000 0.000000 0.000000 0.041204
#
#
# Mechanical properties :
#
#
# Convention : Reuss Voigt Hill
#
# Bulk Modulus (GPa) = 16.40284 36.69574 26.54929
# Shear Modulus (GPa) = 19.94449 27.99098 23.96774
#
# Velocity S-wave (km/s) = 3.00697 3.56227 3.29633
# Velocity P-wave (km/s) = 4.41499 5.79274 5.15014
#
# Compressibility (1/GPa) = 0.06096505
#
# Stress axis : x y z
#
# Youngs Moduli (GPa) = 141.74935 52.23151 28.36441
#
# Poissons Ratio (x) = 0.15174 0.19027
# Poissons Ratio (y) = 0.41181 -0.26572
# Poissons Ratio (z) = 0.95088 -0.48930
#
# Static dielectric constant tensor:
#      x y z
#    x 1.966760 0.000000 0.000000 
#    y 0.000000 1.969750 0.000000 
#    z 0.000000 0.000000 2.024860 
# 
# From -- ./inp_files/35973.got.cif
#   From: 2010.05.17/outbox.cif.g08.bks.cpg/sg48_18_cif.got.tgz:35973.got - 2010.06.03 20:39:00.
