data_PCOD9390771
_publ_section_title
;
Structure prediction by ZEFSAII (Michael W. Deem and Ramdas Pophale) SiO2 
 PCOD9390771
Probable space group: P N N N
;
_chemical_formula_sum "Si O2"
_cell_formula_units_Z 40
_cell_length_a 10.162760
_cell_length_b 12.595155
_cell_length_c 14.334122
_cell_angle_alpha 90.000000
_cell_angle_beta 90.000000
_cell_angle_gamma 90.000000
_cell_volume 1834.789654
_symmetry_space_group_name_H-M "P N N N"
_symmetry_group_IT_number 48
_space_group.IT_coordinate_system_code '2'
_symmetry_cell_setting 'orthorhombic'
loop_
_space_group_symop_operation_xyz
x,y,z
1/2-x,1/2-y,z
x,1/2-y,1/2-z
1/2-x,y,1/2-z
-x,-y,-z
1/2+x,1/2+y,-z
-x,1/2+y,1/2+z
1/2+x,-y,1/2+z
loop_
_atom_site_type_symbol
_atom_site_label
_atom_site_fract_x
_atom_site_fract_y
_atom_site_fract_z
Si Si1 0.423716 0.136689 0.014341
Si Si2 0.072716 0.946409 0.166933
Si Si3 0.217403 0.125125 0.853278
Si Si4 0.138521 0.565576 0.121268
Si Si5 0.602734 0.799481 0.658358
O O1 0.433238 0.253331 0.057480
O O2 0.396732 0.057942 0.100886
O O3 0.311740 0.099437 0.940421
O O4 0.557560 0.121433 0.958970
O O5 0.086221 0.074605 0.163460
O O6 0.207248 0.909987 0.118003
O O7 0.086176 0.910294 0.275110
O O8 0.934261 0.904288 0.129492
O O9 0.250000 0.250000 0.845810
O O10 0.250000 0.078390 0.750000
O O11 0.750000 0.750000 0.662183
O O12 0.533369 0.750000 0.750000
#
# Coordination Sequence:
#
# PCOD9390771 Si02
#       5
#     8   8   8   8   8
#     4  11  21  40  66 102 141 176 228 296 362 426
#     4  11  21  43  71 101 136 188 240 291 367 439
#     4  11  25  44  68  95 137 193 241 297 360 430
#     4  10  21  38  70 101 135 180 232 294 355 437
#     4  11  19  37  68 109 139 177 231 294 366 439
#
# _framework density 21.800865000000002
#
# number of rings (size 3 to 8) (size 9 to 14) (size 15 to 20)
#    0.000    1.200    6.000    1.800    0.000    0.800 
#    0.000    1.000    4.400    5.400    0.000    0.000 
#    0.000    0.000    0.000    0.000    0.000    0.000 
#
# Total GULP energy -223034.849256 kJ/mol
# GULP energy per Si atom -5575.871231 kJ/mol
# Density = 2.175124 g / cm^3
# Si number density = 21.800865 Si / 1000 Ang^3
#
#
#
# Elastic Constant Matrix: (Units=GPa)
#
#
# Indices 1 2 3 4 5 6 
#
# 1 156.4072 34.0247 49.7537 0.0000 0.0000 0.0000
# 2 34.0247 46.9506 13.9494 0.0000 0.0000 0.0000
# 3 49.7537 13.9494 88.2847 0.0000 0.0000 0.0000
# 4 0.0000 0.0000 0.0000 122.1462 0.0000 0.0000
# 5 0.0000 0.0000 0.0000 0.0000 30.0324 0.0000
# 6 0.0000 0.0000 0.0000 0.0000 0.0000 21.2572
#
#
#
# Elastic Compliance Matrix: (Units=1/GPa)
#
#
# Indices 1 2 3 4 5 6 
#
# 1 0.008844 -0.005171 -0.004167 0.000000 0.000000 0.000000
# 2 -0.005171 0.025372 -0.001095 0.000000 0.000000 0.000000
# 3 -0.004167 -0.001095 0.013848 0.000000 0.000000 0.000000
# 4 0.000000 0.000000 0.000000 0.008187 0.000000 0.000000
# 5 0.000000 0.000000 0.000000 0.000000 0.033297 0.000000
# 6 0.000000 0.000000 0.000000 0.000000 0.000000 0.047043
#
#
# Mechanical properties :
#
#
# Convention : Reuss Voigt Hill
#
# Bulk Modulus (GPa) = 36.76684 54.12201 45.44442
# Shear Modulus (GPa) = 30.02587 47.61481 38.82034
#
# Velocity S-wave (km/s) = 3.71520 4.67848 4.22439
# Velocity P-wave (km/s) = 5.94181 7.35281 6.68464
#
# Compressibility (1/GPa) = 0.02719842
#
# Stress axis : x y z
#
# Youngs Moduli (GPa) = 113.07029 39.41401 72.21076
#
# Poissons Ratio (x) = 0.20381 0.30091
# Poissons Ratio (y) = 0.58470 0.07904
# Poissons Ratio (z) = 0.47117 0.04314
#
# Static dielectric constant tensor:
#      x y z
#    x 1.838010 0.000000 0.000000 
#    y 0.000000 1.502230 0.000000 
#    z 0.000000 0.000000 2.291660 
# 
# From -- ./inp_files/12359.got.cif
#   From: 2010.05.17/outbox.cif.g08.bks.cpg/sg48_7_cif.got.tgz:12359.got - 2010.06.03 20:39:00.
