data_PCOD9390505
_publ_section_title
;
Structure prediction by ZEFSAII (Michael W. Deem and Ramdas Pophale) SiO2 
 PCOD9390505
Probable space group: P N N N
;
_chemical_formula_sum "Si O2"
_cell_formula_units_Z 30
_cell_length_a 31.431846
_cell_length_b 5.500127
_cell_length_c 8.355188
_cell_angle_alpha 90.000000
_cell_angle_beta 90.000000
_cell_angle_gamma 90.000000
_cell_volume 1444.437756
_symmetry_space_group_name_H-M "P N N N"
_symmetry_group_IT_number 48
_space_group.IT_coordinate_system_code '2'
_symmetry_cell_setting 'orthorhombic'
loop_
_space_group_symop_operation_xyz
x,y,z
1/2-x,1/2-y,z
x,1/2-y,1/2-z
1/2-x,y,1/2-z
-x,-y,-z
1/2+x,1/2+y,-z
-x,1/2+y,1/2+z
1/2+x,-y,1/2+z
loop_
_atom_site_type_symbol
_atom_site_label
_atom_site_fract_x
_atom_site_fract_y
_atom_site_fract_z
Si Si1 0.534801 0.004874 0.358930
Si Si2 0.317968 0.250000 0.750000
Si Si3 0.629232 0.389855 0.078908
Si Si4 0.250000 0.250000 0.250000
Si Si5 0.707593 0.406102 0.505613
O O1 0.528133 0.250000 0.250000
O O2 0.580155 0.049306 0.449211
O O3 0.535680 0.750000 0.250000
O O4 0.500000 0.000000 0.500000
O O5 0.347358 0.357158 0.888575
O O6 0.293072 0.462825 0.665992
O O7 0.628202 0.250000 0.250000
O O8 0.662733 0.234389 0.974985
O O9 0.281914 0.402856 0.358503
O O10 0.750000 0.250000 0.509299
#
# Coordination Sequence:
#
# PCOD9390505 Si02
#       5
#     8   4   8   2   8
#     4  11  23  45  75 108 147 188 239 299 368 429
#     4  10  20  39  64  92 114 162 222 272 315 398
#     4   9  20  38  66  94 127 170 228 276 335 407
#     4  12  26  42  56  82 140 178 214 280 360 408
#     4  11  24  40  62  91 126 172 222 276 342 409
#
# _framework density 20.769328000000002
#
# number of rings (size 3 to 8) (size 9 to 14) (size 15 to 20)
#    0.000    1.600    1.333    2.800    0.000   12.800 
#    0.000    5.333    2.933    0.000    0.000    0.000 
#    0.000    0.000    0.000    0.000    0.000    0.000 
#
# Total GULP energy -167163.106777 kJ/mol
# GULP energy per Si atom -5572.103559 kJ/mol
# Density = 2.072206 g / cm^3
# Si number density = 20.769328 Si / 1000 Ang^3
#
#
#
# Elastic Constant Matrix: (Units=GPa)
#
#
# Indices 1 2 3 4 5 6 
#
# 1 211.6401 80.6912 87.3833 0.0000 0.0000 0.0000
# 2 80.6912 125.6692 42.3708 0.0000 0.0000 0.0000
# 3 87.3833 42.3708 59.8111 0.0000 0.0000 0.0000
# 4 0.0000 0.0000 0.0000 147.0398 0.0000 0.0000
# 5 0.0000 0.0000 0.0000 0.0000 30.2059 0.0000
# 6 0.0000 0.0000 0.0000 0.0000 0.0000 -8.3436
#
#
#
# Elastic Compliance Matrix: (Units=1/GPa)
#
#
# Indices 1 2 3 4 5 6 
#
# 1 0.012456 -0.002447 -0.016465 0.000000 0.000000 0.000000
# 2 -0.002447 0.010935 -0.004172 0.000000 0.000000 0.000000
# 3 -0.016465 -0.004172 0.043729 0.000000 0.000000 0.000000
# 4 0.000000 0.000000 0.000000 0.006801 0.000000 0.000000
# 5 0.000000 0.000000 0.000000 0.000000 0.033106 0.000000
# 6 0.000000 0.000000 0.000000 0.000000 0.000000 -0.119852
#
#
# Mechanical properties :
#
#
# Convention : Reuss Voigt Hill
#
# Bulk Modulus (GPa) = 47.72413 90.89009 69.30711
# Shear Modulus (GPa) = 123.98769 46.22542 85.10656
#
# Velocity S-wave (km/s) = 7.73480 4.72281 6.40828
# Velocity P-wave (km/s) = 10.13891 8.57884 9.39133
#
# Compressibility (1/GPa) = 0.02095376
#
# Stress axis : x y z
#
# Youngs Moduli (GPa) = 80.28383 91.44983 22.86787
#
# Poissons Ratio (x) = 0.22374 0.37651
# Poissons Ratio (y) = 0.19642 0.09541
# Poissons Ratio (z) = 1.32184 0.38153
#
# Static dielectric constant tensor:
#      x y z
#    x 1.591150 0.000000 0.000000 
#    y 0.000000 1.774880 0.000000 
#    z 0.000000 0.000000 1.730090 
# 
# From -- ./inp_files/1075.got.cif
#   From: 2010.05.17/outbox.cif.g08.bks.cpg/sg48_1_cif.got.tgz:1075.got - 2010.06.03 20:39:00.
