data_PCOD9390951
_publ_section_title
;
Structure prediction by ZEFSAII (Michael W. Deem and Ramdas Pophale) SiO2 
 PCOD9390951
Probable space group: P N N N
;
_chemical_formula_sum "Si O2"
_cell_formula_units_Z 36
_cell_length_a 23.991480
_cell_length_b 5.194438
_cell_length_c 11.938180
_cell_angle_alpha 90.000000
_cell_angle_beta 90.000000
_cell_angle_gamma 90.000000
_cell_volume 1487.762917
_symmetry_space_group_name_H-M "P N N N"
_symmetry_group_IT_number 48
_space_group.IT_coordinate_system_code '2'
_symmetry_cell_setting 'orthorhombic'
loop_
_space_group_symop_operation_xyz
x,y,z
1/2-x,1/2-y,z
x,1/2-y,1/2-z
1/2-x,y,1/2-z
-x,-y,-z
1/2+x,1/2+y,-z
-x,1/2+y,1/2+z
1/2+x,-y,1/2+z
loop_
_atom_site_type_symbol
_atom_site_label
_atom_site_fract_x
_atom_site_fract_y
_atom_site_fract_z
Si Si1 0.832337 0.972006 0.420679
Si Si2 0.947869 0.032578 0.344227
Si Si3 0.959497 0.184226 0.928799
Si Si4 0.750000 0.250000 0.750000
Si Si5 0.837215 0.473319 0.574950
Si Si6 0.750000 0.750000 0.250000
O O1 0.831300 0.750345 0.516388
O O2 0.783072 0.931298 0.334728
O O3 0.886128 0.923127 0.340971
O O4 0.829363 0.249119 0.481408
O O5 0.955635 0.250000 0.250000
O O6 0.942314 0.127369 0.471949
O O7 0.000583 0.846964 0.349239
O O8 0.902355 0.058020 0.884608
O O9 0.000000 0.000000 0.000000
O O10 0.791700 0.417281 0.671146
#
# Coordination Sequence:
#
# PCOD9390951 Si02
#       6
#     8   8   8   2   8   2
#     4  11  26  46  70 107 145 183 244 308 367 447
#     4  10  23  41  69 103 143 189 237 301 382 451
#     4  10  21  43  68 102 145 186 238 313 372 439
#     4  12  28  50  78 100 144 214 252 308 384 456
#     4  11  26  48  72 105 146 190 251 310 361 449
#     4  12  28  42  74 100 136 198 224 292 376 440
#
# _framework density 24.197403999999999
#
# number of rings (size 3 to 8) (size 9 to 14) (size 15 to 20)
#    0.000    1.333    2.222    1.333    6.222    5.333 
#    0.000    0.000    0.000    0.000    0.000    0.000 
#    0.000    0.000    0.000    0.000    0.000    0.000 
#
# Total GULP energy -201088.833807 kJ/mol
# GULP energy per Si atom -5585.800939 kJ/mol
# Density = 2.414233 g / cm^3
# Si number density = 24.197404 Si / 1000 Ang^3
#
#
#
# Elastic Constant Matrix: (Units=GPa)
#
#
# Indices 1 2 3 4 5 6 
#
# 1 163.7125 11.1783 39.8412 0.0000 0.0000 0.0000
# 2 11.1783 73.8847 21.5793 0.0000 0.0000 0.0000
# 3 39.8412 21.5793 89.2444 0.0000 0.0000 0.0000
# 4 0.0000 0.0000 0.0000 31.7514 0.0000 0.0000
# 5 0.0000 0.0000 0.0000 0.0000 104.3264 0.0000
# 6 0.0000 0.0000 0.0000 0.0000 0.0000 28.3104
#
#
#
# Elastic Compliance Matrix: (Units=1/GPa)
#
#
# Indices 1 2 3 4 5 6 
#
# 1 0.006854 -0.000154 -0.003023 0.000000 0.000000 0.000000
# 2 -0.000154 0.014567 -0.003453 0.000000 0.000000 0.000000
# 3 -0.003023 -0.003453 0.013390 0.000000 0.000000 0.000000
# 4 0.000000 0.000000 0.000000 0.031495 0.000000 0.000000
# 5 0.000000 0.000000 0.000000 0.000000 0.009585 0.000000
# 6 0.000000 0.000000 0.000000 0.000000 0.000000 0.035323
#
#
# Mechanical properties :
#
#
# Convention : Reuss Voigt Hill
#
# Bulk Modulus (GPa) = 46.40359 52.44880 49.42620
# Shear Modulus (GPa) = 37.97741 49.82715 43.90228
#
# Velocity S-wave (km/s) = 3.96597 4.54276 4.26413
# Velocity P-wave (km/s) = 6.33961 7.01698 6.68687
#
# Compressibility (1/GPa) = 0.02155006
#
# Stress axis : x y z
#
# Youngs Moduli (GPa) = 145.89151 68.65046 74.68463
#
# Poissons Ratio (x) = 0.01059 0.22575
# Poissons Ratio (y) = 0.02250 0.25791
# Poissons Ratio (z) = 0.44099 0.23707
#
# Static dielectric constant tensor:
#      x y z
#    x 1.842060 0.000000 0.000000 
#    y 0.000000 1.916630 0.000000 
#    z 0.000000 0.000000 1.837480 
# 
# From -- ./inp_files/23158.got.cif
#   From: 2010.05.17/outbox.cif.g08.bks.cpg/sg48_12_cif.got.tgz:23158.got - 2010.06.03 20:39:00.
