data_PCOD9390176
_publ_section_title
;
Structure prediction by ZEFSAII (Michael W. Deem and Ramdas Pophale) SiO2 
 PCOD9390176
Probable space group: P N N N
;
_chemical_formula_sum "Si O2"
_cell_formula_units_Z 60
_cell_length_a 16.079125
_cell_length_b 15.497623
_cell_length_c 13.543464
_cell_angle_alpha 90.000000
_cell_angle_beta 90.000000
_cell_angle_gamma 90.000000
_cell_volume 3374.871652
_symmetry_space_group_name_H-M "P N N N"
_symmetry_group_IT_number 48
_space_group.IT_coordinate_system_code '2'
_symmetry_cell_setting 'orthorhombic'
loop_
_space_group_symop_operation_xyz
x,y,z
1/2-x,1/2-y,z
x,1/2-y,1/2-z
1/2-x,y,1/2-z
-x,-y,-z
1/2+x,1/2+y,-z
-x,1/2+y,1/2+z
1/2+x,-y,1/2+z
loop_
_atom_site_type_symbol
_atom_site_label
_atom_site_fract_x
_atom_site_fract_y
_atom_site_fract_z
Si Si1 0.525992 0.786612 0.856913
Si Si2 0.967452 0.818083 0.158531
Si Si3 0.750000 0.250000 0.403497
Si Si4 0.394998 0.000020 0.619420
Si Si5 0.869432 0.393851 0.184581
Si Si6 0.222434 0.059100 0.635517
Si Si7 0.411489 0.663526 0.989701
Si Si8 0.158348 0.281907 0.979803
O O1 0.549237 0.750000 0.750000
O O2 0.462000 0.865175 0.842329
O O3 0.470629 0.715443 0.913905
O O4 0.604201 0.806357 0.925278
O O5 0.967475 0.750000 0.250000
O O6 0.946273 0.921055 0.169470
O O7 0.895368 0.785423 0.084033
O O8 0.053835 0.813923 0.097988
O O9 0.807312 0.184968 0.339292
O O10 0.682686 0.195215 0.467722
O O11 0.309079 0.041152 0.581851
O O12 0.370485 0.929441 0.703778
O O13 0.427315 0.937468 0.533541
O O14 0.834174 0.475120 0.126111
O O15 0.250000 0.073098 0.750000
O O16 0.173879 0.139034 0.593491
O O17 0.250000 0.250000 0.007628
#
# Coordination Sequence:
#
# PCOD9390176 Si02
#       8
#     8   8   4   8   8   8   8   8
#     4  10  21  38  58  82 116 150 193 231 288 353
#     4  11  23  39  58  82 117 157 201 240 288 351
#     4  10  20  35  59  90 122 140 193 240 299 358
#     4  11  19  34  59  87 116 150 192 240 301 352
#     4  10  20  32  58  89 116 151 178 244 299 346
#     4  10  20  33  54  89 118 145 188 237 301 346
#     4  10  21  36  60  88 113 154 193 240 298 349
#     4  11  23  38  58  82 111 157 192 241 284 342
#
# _framework density 17.778454
#
# number of rings (size 3 to 8) (size 9 to 14) (size 15 to 20)
#    0.000    1.600    4.000    2.000    0.000    1.333 
#    0.000    1.667    0.000    0.000    0.000    0.000 
#    0.000    0.000    0.000    0.000    0.000    0.000 
#
# Total GULP energy -334297.899124 kJ/mol
# GULP energy per Si atom -5571.631652 kJ/mol
# Density = 1.773799 g / cm^3
# Si number density = 17.778454 Si / 1000 Ang^3
#
#
#
# Elastic Constant Matrix: (Units=GPa)
#
#
# Indices 1 2 3 4 5 6 
#
# 1 101.8043 50.6627 51.0131 0.0000 0.0000 0.0000
# 2 50.6627 107.8045 33.7705 0.0000 0.0000 0.0000
# 3 51.0131 33.7705 74.4603 0.0000 0.0000 0.0000
# 4 0.0000 0.0000 0.0000 16.3284 0.0000 0.0000
# 5 0.0000 0.0000 0.0000 0.0000 22.5116 0.0000
# 6 0.0000 0.0000 0.0000 0.0000 0.0000 20.5609
#
#
#
# Elastic Compliance Matrix: (Units=1/GPa)
#
#
# Indices 1 2 3 4 5 6 
#
# 1 0.017047 -0.005073 -0.009378 0.000000 0.000000 0.000000
# 2 -0.005073 0.012322 -0.002113 0.000000 0.000000 0.000000
# 3 -0.009378 -0.002113 0.020813 0.000000 0.000000 0.000000
# 4 0.000000 0.000000 0.000000 0.061243 0.000000 0.000000
# 5 0.000000 0.000000 0.000000 0.000000 0.044422 0.000000
# 6 0.000000 0.000000 0.000000 0.000000 0.000000 0.048636
#
#
# Mechanical properties :
#
#
# Convention : Reuss Voigt Hill
#
# Bulk Modulus (GPa) = 58.63760 61.66242 60.15001
# Shear Modulus (GPa) = 20.55121 21.78837 21.16979
#
# Velocity S-wave (km/s) = 3.40363 3.50458 3.45448
# Velocity P-wave (km/s) = 6.96421 7.15089 7.05817
#
# Compressibility (1/GPa) = 0.01705390
#
# Stress axis : x y z
#
# Youngs Moduli (GPa) = 58.66258 81.15485 48.04712
#
# Poissons Ratio (x) = 0.41173 0.45057
# Poissons Ratio (y) = 0.29762 0.10151
# Poissons Ratio (z) = 0.55012 0.17146
#
# Static dielectric constant tensor:
#      x y z
#    x 1.631830 0.000000 0.000000 
#    y 0.000000 1.650440 0.000000 
#    z 0.000000 0.000000 1.622950 
# 
# From -- ./inp_files/27457.got.cif
#   From: 2010.05.17/outbox.cif.g08.bks.cpg/sg48_14_cif.got.tgz:27457.got - 2010.06.03 20:39:00.
