data_PCOD9390615
_publ_section_title
;
Structure prediction by ZEFSAII (Michael W. Deem and Ramdas Pophale) SiO2 
 PCOD9390615
Probable space group: P N N N
;
_chemical_formula_sum "Si O2"
_cell_formula_units_Z 40
_cell_length_a 8.209964
_cell_length_b 7.488998
_cell_length_c 26.156829
_cell_angle_alpha 90.000000
_cell_angle_beta 90.000000
_cell_angle_gamma 90.000000
_cell_volume 1608.237041
_symmetry_space_group_name_H-M "P N N N"
_symmetry_group_IT_number 48
_space_group.IT_coordinate_system_code '2'
_symmetry_cell_setting 'orthorhombic'
loop_
_space_group_symop_operation_xyz
x,y,z
1/2-x,1/2-y,z
x,1/2-y,1/2-z
1/2-x,y,1/2-z
-x,-y,-z
1/2+x,1/2+y,-z
-x,1/2+y,1/2+z
1/2+x,-y,1/2+z
loop_
_atom_site_type_symbol
_atom_site_label
_atom_site_fract_x
_atom_site_fract_y
_atom_site_fract_z
Si Si1 0.751406 0.460356 0.992395
Si Si2 0.433482 0.525705 0.694004
Si Si3 0.587029 0.632232 0.902446
Si Si4 0.956176 0.044581 0.196113
Si Si5 0.942819 0.487816 0.082923
O O1 0.750000 0.250000 0.997601
O O2 0.610529 0.543312 0.957590
O O3 0.905647 0.489594 0.954713
O O4 0.789512 0.542297 0.048176
O O5 0.503525 0.464671 0.748741
O O6 0.236976 0.509214 0.692976
O O7 0.473366 0.738324 0.696266
O O8 0.478713 0.439869 0.639610
O O9 0.750000 0.750000 0.890949
O O10 0.550689 0.499033 0.855832
O O11 0.441415 0.774408 0.907030
#
# Coordination Sequence:
#
# PCOD9390615 Si02
#       5
#     8   8   8   8   8
#     4  10  21  34  50  72 105 138 172 206 254 307
#     4   8  14  27  49  75 100 124 164 215 264 299
#     4   9  18  33  51  76 106 133 173 210 255 311
#     4   8  14  26  49  78  99 125 164 215 264 302
#     4   9  19  35  51  73 103 133 169 215 253 306
#
# _framework density 24.871957999999999
#
# number of rings (size 3 to 8) (size 9 to 14) (size 15 to 20)
#    0.000    3.200    0.000    1.200    5.600    0.800 
#    0.000   17.000    0.000    2.400    0.000    2.800 
#    0.000    0.000    0.000    0.000    0.000    0.000 
#
# Total GULP energy -222874.102127 kJ/mol
# GULP energy per Si atom -5571.852553 kJ/mol
# Density = 2.481535 g / cm^3
# Si number density = 24.871958 Si / 1000 Ang^3
#
#
#
# Elastic Constant Matrix: (Units=GPa)
#
#
# Indices 1 2 3 4 5 6 
#
# 1 38.0919 2.9490 45.4267 0.0000 0.0000 0.0000
# 2 2.9490 60.2783 26.7938 0.0000 0.0000 0.0000
# 3 45.4267 26.7938 279.4146 0.0000 0.0000 0.0000
# 4 0.0000 0.0000 0.0000 18.0462 0.0000 0.0000
# 5 0.0000 0.0000 0.0000 0.0000 30.8680 0.0000
# 6 0.0000 0.0000 0.0000 0.0000 0.0000 7.0565
#
#
#
# Elastic Compliance Matrix: (Units=1/GPa)
#
#
# Indices 1 2 3 4 5 6 
#
# 1 0.032603 0.000795 -0.005377 0.000000 0.000000 0.000000
# 2 0.000795 0.017348 -0.001793 0.000000 0.000000 0.000000
# 3 -0.005377 -0.001793 0.004625 0.000000 0.000000 0.000000
# 4 0.000000 0.000000 0.000000 0.055413 0.000000 0.000000
# 5 0.000000 0.000000 0.000000 0.000000 0.032396 0.000000
# 6 0.000000 0.000000 0.000000 0.000000 0.000000 0.141714
#
#
# Mechanical properties :
#
#
# Convention : Reuss Voigt Hill
#
# Bulk Modulus (GPa) = 23.90837 58.68044 41.29440
# Shear Modulus (GPa) = 16.08803 31.36848 23.72826
#
# Velocity S-wave (km/s) = 2.54605 3.55519 3.09207
# Velocity P-wave (km/s) = 4.27512 6.36370 5.42095
#
# Compressibility (1/GPa) = 0.04182636
#
# Stress axis : x y z
#
# Youngs Moduli (GPa) = 30.67218 57.64450 216.21797
#
# Poissons Ratio (x) = -0.04582 1.16255
# Poissons Ratio (y) = -0.02438 0.38763
# Poissons Ratio (z) = 0.16492 0.10334
#
# Static dielectric constant tensor:
#      x y z
#    x 2.060260 0.000000 0.000000 
#    y 0.000000 2.066740 0.000000 
#    z 0.000000 0.000000 2.181290 
# 
# From -- ./inp_files/9031.got.cif
#   From: 2010.05.17/outbox.cif.g08.bks.cpg/sg48_5_cif.got.tgz:9031.got - 2010.06.03 20:39:00.
