data_PCOD9390009
_publ_section_title
;
Structure prediction by ZEFSAII (Michael W. Deem and Ramdas Pophale) SiO2 
 PCOD9390009
Probable space group: P N N N
;
_chemical_formula_sum "Si O2"
_cell_formula_units_Z 40
_cell_length_a 17.192279
_cell_length_b 8.986197
_cell_length_c 10.135899
_cell_angle_alpha 90.000000
_cell_angle_beta 90.000000
_cell_angle_gamma 90.000000
_cell_volume 1565.927532
_symmetry_space_group_name_H-M "P N N N"
_symmetry_group_IT_number 48
_space_group.IT_coordinate_system_code '2'
_symmetry_cell_setting 'orthorhombic'
loop_
_space_group_symop_operation_xyz
x,y,z
1/2-x,1/2-y,z
x,1/2-y,1/2-z
1/2-x,y,1/2-z
-x,-y,-z
1/2+x,1/2+y,-z
-x,1/2+y,1/2+z
1/2+x,-y,1/2+z
loop_
_atom_site_type_symbol
_atom_site_label
_atom_site_fract_x
_atom_site_fract_y
_atom_site_fract_z
Si Si1 0.640816 0.922739 0.771653
Si Si2 0.762515 0.075047 0.954796
Si Si3 0.960316 0.122869 0.345189
Si Si4 0.318977 0.337911 0.888671
Si Si5 0.971337 0.799829 0.389452
O O1 0.663375 0.750000 0.750000
O O2 0.548437 0.914747 0.795300
O O3 0.685123 0.998576 0.894364
O O4 0.670775 0.020292 0.648167
O O5 0.750000 0.250000 0.957907
O O6 0.790340 0.005350 0.093870
O O7 0.927642 0.250000 0.250000
O O8 0.968480 0.182572 0.493384
O O9 0.927668 0.957038 0.359094
O O10 0.250000 0.250000 0.962547
O O11 0.323461 0.250000 0.750000
O O12 0.405692 0.313860 0.940383
O O13 0.005184 0.750000 0.250000
#
# Coordination Sequence:
#
# PCOD9390009 Si02
#       5
#     8   8   8   8   8
#     4  10  19  35  62  90 121 162 202 251 324 388
#     4  11  21  34  58  95 126 150 201 271 321 370
#     4  10  21  39  62  89 123 165 213 263 316 374
#     4  10  20  39  61  79 113 164 207 244 305 380
#     4  10  22  39  60  89 123 167 215 257 312 383
#
# _framework density 25.543965
#
# number of rings (size 3 to 8) (size 9 to 14) (size 15 to 20)
#    0.000    1.800    0.000    7.200    0.000    2.400 
#    0.000   14.000    0.000    0.000    0.000    0.000 
#    0.000    0.000    0.000    0.000    0.000    0.000 
#
# Total GULP energy -223536.203296 kJ/mol
# GULP energy per Si atom -5588.405082 kJ/mol
# Density = 2.548583 g / cm^3
# Si number density = 25.543965 Si / 1000 Ang^3
#
#
#
# Elastic Constant Matrix: (Units=GPa)
#
#
# Indices 1 2 3 4 5 6 
#
# 1 66.7406 14.7082 5.0879 0.0000 0.0000 0.0000
# 2 14.7082 215.3499 75.2440 0.0000 0.0000 0.0000
# 3 5.0879 75.2440 141.3920 0.0000 0.0000 0.0000
# 4 0.0000 0.0000 0.0000 37.8903 0.0000 0.0000
# 5 0.0000 0.0000 0.0000 0.0000 12.5535 0.0000
# 6 0.0000 0.0000 0.0000 0.0000 0.0000 15.2390
#
#
#
# Elastic Compliance Matrix: (Units=1/GPa)
#
#
# Indices 1 2 3 4 5 6 
#
# 1 0.015212 -0.001041 0.000007 0.000000 0.000000 0.000000
# 2 -0.001041 0.005776 -0.003036 0.000000 0.000000 0.000000
# 3 0.000007 -0.003036 0.008688 0.000000 0.000000 0.000000
# 4 0.000000 0.000000 0.000000 0.026392 0.000000 0.000000
# 5 0.000000 0.000000 0.000000 0.000000 0.079659 0.000000
# 6 0.000000 0.000000 0.000000 0.000000 0.000000 0.065621
#
#
# Mechanical properties :
#
#
# Convention : Reuss Voigt Hill
#
# Bulk Modulus (GPa) = 46.43697 68.17364 57.30531
# Shear Modulus (GPa) = 23.07685 35.03272 29.05479
#
# Velocity S-wave (km/s) = 3.00895 3.70735 3.37626
# Velocity P-wave (km/s) = 5.50367 6.71361 6.13853
#
# Compressibility (1/GPa) = 0.02153457
#
# Stress axis : x y z
#
# Youngs Moduli (GPa) = 65.73601 173.14384 115.10139
#
# Poissons Ratio (x) = 0.18030 -0.00078
# Poissons Ratio (y) = 0.06845 0.34946
# Poissons Ratio (z) = -0.00044 0.52568
#
# Static dielectric constant tensor:
#      x y z
#    x 2.076960 0.000000 0.000000 
#    y 0.000000 2.037460 0.000000 
#    z 0.000000 0.000000 2.130010 
# 
# From -- ./inp_files/22733.got.cif
#   From: 2010.05.17/outbox.cif.g08.bks.cpg/sg48_12_cif.got.tgz:22733.got - 2010.06.03 20:39:00.
