data_PCOD9390398
_publ_section_title
;
Structure prediction by ZEFSAII (Michael W. Deem and Ramdas Pophale) SiO2 
 PCOD9390398
Probable space group: P N N N
;
_chemical_formula_sum "Si O2"
_cell_formula_units_Z 48
_cell_length_a 15.027369
_cell_length_b 10.650160
_cell_length_c 15.609895
_cell_angle_alpha 90.000000
_cell_angle_beta 90.000000
_cell_angle_gamma 90.000000
_cell_volume 2498.268228
_symmetry_space_group_name_H-M "P N N N"
_symmetry_group_IT_number 48
_space_group.IT_coordinate_system_code '2'
_symmetry_cell_setting 'orthorhombic'
loop_
_space_group_symop_operation_xyz
x,y,z
1/2-x,1/2-y,z
x,1/2-y,1/2-z
1/2-x,y,1/2-z
-x,-y,-z
1/2+x,1/2+y,-z
-x,1/2+y,1/2+z
1/2+x,-y,1/2+z
loop_
_atom_site_type_symbol
_atom_site_label
_atom_site_fract_x
_atom_site_fract_y
_atom_site_fract_z
Si Si1 0.857524 0.601202 0.740261
Si Si2 0.442312 0.657924 0.558016
Si Si3 0.772714 0.107459 0.349561
Si Si4 0.721412 0.617530 0.032982
Si Si5 0.879283 0.992814 0.578268
Si Si6 0.456031 0.402850 0.065108
O O1 0.881946 0.750000 0.750000
O O2 0.750000 0.598839 0.750000
O O3 0.884472 0.514776 0.820090
O O4 0.908587 0.557776 0.654335
O O5 0.377764 0.596756 0.628882
O O6 0.537247 0.591508 0.550728
O O7 0.391694 0.626502 0.468843
O O8 0.467954 0.799154 0.580673
O O9 0.750000 0.250000 0.378514
O O10 0.750000 0.098197 0.250000
O O11 0.722695 0.998401 0.401468
O O12 0.750000 0.750000 0.073323
O O13 0.790791 0.573286 0.958925
O O14 0.628055 0.645931 0.988920
O O15 0.500000 0.500000 0.000000
#
# Coordination Sequence:
#
# PCOD9390398 Si02
#       6
#     8   8   8   8   8   8
#     4  11  20  36  65  96 120 159 218 272 317 376
#     4  10  21  38  60  88 121 165 206 253 323 385
#     4  10  23  40  60  85 125 170 214 256 325 394
#     4  11  20  39  64  89 126 170 210 262 332 389
#     4  10  20  37  63  88 121 163 204 258 317 394
#     4  12  24  38  64  99 131 160 213 278 327 376
#
# _framework density 19.21331
#
# number of rings (size 3 to 8) (size 9 to 14) (size 15 to 20)
#    0.000    1.333    5.000    1.000    0.000    4.333 
#    0.000    0.833    3.667    1.000    0.000    0.000 
#    0.000    0.000    0.000    0.000    0.000    0.000 
#
# Total GULP energy -267277.011719 kJ/mol
# GULP energy per Si atom -5568.271077 kJ/mol
# Density = 1.916958 g / cm^3
# Si number density = 19.213310 Si / 1000 Ang^3
#
#
#
# Elastic Constant Matrix: (Units=GPa)
#
#
# Indices 1 2 3 4 5 6 
#
# 1 75.4859 12.6852 29.9237 0.0000 0.0000 0.0000
# 2 12.6852 57.9450 55.7629 0.0000 0.0000 0.0000
# 3 29.9237 55.7629 140.0459 0.0000 0.0000 0.0000
# 4 0.0000 0.0000 0.0000 -13.2162 0.0000 0.0000
# 5 0.0000 0.0000 0.0000 0.0000 30.2656 0.0000
# 6 0.0000 0.0000 0.0000 0.0000 0.0000 23.6150
#
#
#
# Elastic Compliance Matrix: (Units=1/GPa)
#
#
# Indices 1 2 3 4 5 6 
#
# 1 0.014477 -0.000312 -0.002969 0.000000 0.000000 0.000000
# 2 -0.000312 0.027985 -0.011076 0.000000 0.000000 0.000000
# 3 -0.002969 -0.011076 0.012185 0.000000 0.000000 0.000000
# 4 0.000000 0.000000 0.000000 -0.075665 0.000000 0.000000
# 5 0.000000 0.000000 0.000000 0.000000 0.033041 0.000000
# 6 0.000000 0.000000 0.000000 0.000000 0.000000 0.042346
#
#
# Mechanical properties :
#
#
# Convention : Reuss Voigt Hill
#
# Bulk Modulus (GPa) = 38.56157 52.24674 45.40416
# Shear Modulus (GPa) = 54.50843 19.80653 37.15748
#
# Velocity S-wave (km/s) = 5.33214 3.21421 4.40243
# Velocity P-wave (km/s) = 7.61727 6.40522 7.03739
#
# Compressibility (1/GPa) = 0.02593255
#
# Stress axis : x y z
#
# Youngs Moduli (GPa) = 69.07545 35.73296 82.06614
#
# Poissons Ratio (x) = 0.01115 0.24366
# Poissons Ratio (y) = 0.02155 0.90900
# Poissons Ratio (z) = 0.20509 0.39579
#
# Static dielectric constant tensor:
#      x y z
#    x 1.709970 0.000000 0.000000 
#    y 0.000000 1.708090 0.000000 
#    z 0.000000 0.000000 1.699050 
# 
# From -- ./inp_files/21249.got.cif
#   From: 2010.05.17/outbox.cif.g08.bks.cpg/sg48_11_cif.got.tgz:21249.got - 2010.06.03 20:39:00.
