data_PCOD9390146
_publ_section_title
;
Structure prediction by ZEFSAII (Michael W. Deem and Ramdas Pophale) SiO2 
 PCOD9390146
Probable space group: P N N N
;
_chemical_formula_sum "Si O2"
_cell_formula_units_Z 52
_cell_length_a 11.900097
_cell_length_b 28.358030
_cell_length_c 9.377722
_cell_angle_alpha 90.000000
_cell_angle_beta 90.000000
_cell_angle_gamma 90.000000
_cell_volume 3164.637085
_symmetry_space_group_name_H-M "P N N N"
_symmetry_group_IT_number 48
_space_group.IT_coordinate_system_code '2'
_symmetry_cell_setting 'orthorhombic'
loop_
_space_group_symop_operation_xyz
x,y,z
1/2-x,1/2-y,z
x,1/2-y,1/2-z
1/2-x,y,1/2-z
-x,-y,-z
1/2+x,1/2+y,-z
-x,1/2+y,1/2+z
1/2+x,-y,1/2+z
loop_
_atom_site_type_symbol
_atom_site_label
_atom_site_fract_x
_atom_site_fract_y
_atom_site_fract_z
Si Si1 0.375348 0.808866 0.574947
Si Si2 0.882420 0.449400 0.227054
Si Si3 0.392025 0.702489 0.586182
Si Si4 0.382558 0.060279 0.758005
Si Si5 0.750000 0.089484 0.750000
Si Si6 0.951641 0.112750 0.544477
Si Si7 0.937924 0.411504 0.531229
O O1 0.413562 0.755881 0.536262
O O2 0.240008 0.808509 0.559366
O O3 0.402589 0.808153 0.744545
O O4 0.420289 0.854962 0.493183
O O5 0.750000 0.440924 0.250000
O O6 0.901833 0.505002 0.209255
O O7 0.938742 0.432963 0.373796
O O8 0.919660 0.419255 0.091228
O O9 0.468628 0.665663 0.505702
O O10 0.250000 0.068078 0.750000
O O11 0.441895 0.090492 0.879830
O O12 0.449780 0.074960 0.615562
O O13 0.846771 0.113661 0.655041
O O14 0.667727 0.068104 0.625846
#
# Coordination Sequence:
#
# PCOD9390146 Si02
#       7
#     8   8   8   8   4   8   8
#     4   9  16  28  52  86 115 137 167 213 274 337
#     4  11  19  35  61  82 107 139 184 223 280 326
#     4   9  16  28  52  86 115 137 167 213 274 337
#     4  10  25  39  51  74 112 149 187 230 260 311
#     4  10  20  28  49  86 108 142 168 214 267 336
#     4  11  19  35  56  80 113 144 178 217 277 322
#     4  11  19  35  56  80 113 144 178 217 277 322
#
# _framework density 16.431584000000001
#
# number of rings (size 3 to 8) (size 9 to 14) (size 15 to 20)
#    0.000    1.846    4.615    1.846    0.000    0.000 
#    0.000    4.615    0.000    1.846    0.000    2.154 
#    0.000    0.000    0.000    0.000    0.000    0.000 
#
# Total GULP energy -289479.782086 kJ/mol
# GULP energy per Si atom -5566.918886 kJ/mol
# Density = 1.639418 g / cm^3
# Si number density = 16.431584 Si / 1000 Ang^3
#
#
#
# Elastic Constant Matrix: (Units=GPa)
#
#
# Indices 1 2 3 4 5 6 
#
# 1 59.3485 52.1776 25.5299 0.0000 0.0000 0.0000
# 2 52.1776 109.1908 45.7003 0.0000 0.0000 0.0000
# 3 25.5299 45.7003 79.9781 0.0000 0.0000 0.0000
# 4 0.0000 0.0000 0.0000 10.3312 0.0000 0.0000
# 5 0.0000 0.0000 0.0000 0.0000 19.2180 0.0000
# 6 0.0000 0.0000 0.0000 0.0000 0.0000 -13.7420
#
#
#
# Elastic Compliance Matrix: (Units=1/GPa)
#
#
# Indices 1 2 3 4 5 6 
#
# 1 0.029247 -0.013233 -0.001774 0.000000 0.000000 0.000000
# 2 -0.013233 0.018025 -0.006075 0.000000 0.000000 0.000000
# 3 -0.001774 -0.006075 0.016541 0.000000 0.000000 0.000000
# 4 0.000000 0.000000 0.000000 0.096794 0.000000 0.000000
# 5 0.000000 0.000000 0.000000 0.000000 0.052035 0.000000
# 6 0.000000 0.000000 0.000000 0.000000 0.000000 -0.072769
#
#
# Mechanical properties :
#
#
# Convention : Reuss Voigt Hill
#
# Bulk Modulus (GPa) = 46.19520 55.03698 50.61609
# Shear Modulus (GPa) = 26.41952 11.50209 18.96080
#
# Velocity S-wave (km/s) = 4.01415 2.64862 3.40063
# Velocity P-wave (km/s) = 7.04693 6.55141 6.80368
#
# Compressibility (1/GPa) = 0.02164727
#
# Stress axis : x y z
#
# Youngs Moduli (GPa) = 34.19114 55.47957 60.45495
#
# Poissons Ratio (x) = 0.73418 0.10727
# Poissons Ratio (y) = 0.45247 0.36728
# Poissons Ratio (z) = 0.06067 0.33705
#
# Static dielectric constant tensor:
#      x y z
#    x 1.523370 0.000000 0.000000 
#    y 0.000000 1.577480 0.000000 
#    z 0.000000 0.000000 1.586350 
# 
# From -- ./inp_files/11423.got.cif
#   From: 2010.05.17/outbox.cif.g08.bks.cpg/sg48_6_cif.got.tgz:11423.got - 2010.06.03 20:39:00.
