data_PCOD9390052
_publ_section_title
;
Structure prediction by ZEFSAII (Michael W. Deem and Ramdas Pophale) SiO2 
 PCOD9390052
Probable space group: P N N N
;
_chemical_formula_sum "Si O2"
_cell_formula_units_Z 32
_cell_length_a 16.958523
_cell_length_b 13.173788
_cell_length_c 5.622732
_cell_angle_alpha 90.000000
_cell_angle_beta 90.000000
_cell_angle_gamma 90.000000
_cell_volume 1256.163236
_symmetry_space_group_name_H-M "P N N N"
_symmetry_group_IT_number 48
_space_group.IT_coordinate_system_code '2'
_symmetry_cell_setting 'orthorhombic'
loop_
_space_group_symop_operation_xyz
x,y,z
1/2-x,1/2-y,z
x,1/2-y,1/2-z
1/2-x,y,1/2-z
-x,-y,-z
1/2+x,1/2+y,-z
-x,1/2+y,1/2+z
1/2+x,-y,1/2+z
loop_
_atom_site_type_symbol
_atom_site_label
_atom_site_fract_x
_atom_site_fract_y
_atom_site_fract_z
Si Si1 0.439720 0.955504 0.311672
Si Si2 0.706769 0.628738 0.498004
Si Si3 0.730603 0.095465 0.501771
Si Si4 0.037073 0.166716 0.447698
O O1 0.500000 0.000000 0.500000
O O2 0.639113 0.067294 0.539801
O O3 0.437844 0.055291 0.148459
O O4 0.475186 0.861780 0.156757
O O5 0.750000 0.647727 0.250000
O O6 0.712514 0.504269 0.498859
O O7 0.626233 0.693678 0.480940
O O8 0.750000 0.649449 0.750000
O O9 0.750000 0.144239 0.250000
O O10 0.750000 0.147810 0.750000
O O11 0.009995 0.250000 0.250000
#
# Coordination Sequence:
#
# PCOD9390052 Si02
#       4
#     8   8   8   8
#     4  11  23  42  67  96 144 194 250 308 382 464
#     4  10  19  38  60  93 138 184 240 292 372 448
#     4  10  19  36  63  97 132 181 247 298 363 436
#     4  11  25  42  64 102 148 198 246 312 387 468
#
# _framework density 25.474398000000001
#
# number of rings (size 3 to 8) (size 9 to 14) (size 15 to 20)
#    0.000    1.500    5.000    3.000    3.500    1.500 
#    0.000    2.500    0.000    0.000    0.000    5.250 
#    0.000    0.000    0.000    0.000    0.000    0.000 
#
# Total GULP energy -178236.313831 kJ/mol
# GULP energy per Si atom -5569.884807 kJ/mol
# Density = 2.541642 g / cm^3
# Si number density = 25.474398 Si / 1000 Ang^3
#
#
#
# Elastic Constant Matrix: (Units=GPa)
#
#
# Indices 1 2 3 4 5 6 
#
# 1 133.9005 18.7547 70.3682 0.0000 0.0000 0.0000
# 2 18.7547 154.9772 49.6858 0.0000 0.0000 0.0000
# 3 70.3682 49.6858 237.4240 0.0000 0.0000 0.0000
# 4 0.0000 0.0000 0.0000 -7.4552 0.0000 0.0000
# 5 0.0000 0.0000 0.0000 0.0000 35.8837 0.0000
# 6 0.0000 0.0000 0.0000 0.0000 0.0000 -16.1597
#
#
#
# Elastic Compliance Matrix: (Units=1/GPa)
#
#
# Indices 1 2 3 4 5 6 
#
# 1 0.008855 -0.000247 -0.002573 0.000000 0.000000 0.000000
# 2 -0.000247 0.006923 -0.001376 0.000000 0.000000 0.000000
# 3 -0.002573 -0.001376 0.005262 0.000000 0.000000 0.000000
# 4 0.000000 0.000000 0.000000 -0.134134 0.000000 0.000000
# 5 0.000000 0.000000 0.000000 0.000000 0.027868 0.000000
# 6 0.000000 0.000000 0.000000 0.000000 0.000000 -0.061882
#
#
# Mechanical properties :
#
#
# Convention : Reuss Voigt Hill
#
# Bulk Modulus (GPa) = 79.05078 89.32434 84.18756
# Shear Modulus (GPa) = -37.17448 28.28662 -4.44393
#
# Velocity S-wave (km/s) = -3.82421 3.33587 -1.32222
# Velocity P-wave (km/s) = 3.40579 7.06950 5.54875
#
# Compressibility (1/GPa) = 0.01265010
#
# Stress axis : x y z
#
# Youngs Moduli (GPa) = 112.93237 144.43581 190.03072
#
# Poissons Ratio (x) = 0.03564 0.48891
# Poissons Ratio (y) = 0.02787 0.26144
# Poissons Ratio (z) = 0.29055 0.19871
#
# Static dielectric constant tensor:
#      x y z
#    x 23.161660 0.000000 0.000000 
#    y 0.000000 1.784560 0.000000 
#    z 0.000000 0.000000 2.007240 
# 
# From -- ./inp_files/3062.got.cif
#   From: 2010.05.17/outbox.cif.g08.bks.cpg/sg48_2_cif.got.tgz:3062.got - 2010.06.03 20:39:00.
