data_PCOD9390354
_publ_section_title
;
Structure prediction by ZEFSAII (Michael W. Deem and Ramdas Pophale) SiO2 
 PCOD9390354
Probable space group: P N N N
;
_chemical_formula_sum "Si O2"
_cell_formula_units_Z 64
_cell_length_a 7.954293
_cell_length_b 20.559945
_cell_length_c 19.118858
_cell_angle_alpha 90.000000
_cell_angle_beta 90.000000
_cell_angle_gamma 90.000000
_cell_volume 3126.694722
_symmetry_space_group_name_H-M "P N N N"
_symmetry_group_IT_number 48
_space_group.IT_coordinate_system_code '2'
_symmetry_cell_setting 'orthorhombic'
loop_
_space_group_symop_operation_xyz
x,y,z
1/2-x,1/2-y,z
x,1/2-y,1/2-z
1/2-x,y,1/2-z
-x,-y,-z
1/2+x,1/2+y,-z
-x,1/2+y,1/2+z
1/2+x,-y,1/2+z
loop_
_atom_site_type_symbol
_atom_site_label
_atom_site_fract_x
_atom_site_fract_y
_atom_site_fract_z
Si Si1 0.072056 0.224595 0.439297
Si Si2 0.065817 0.182606 0.283526
Si Si3 0.748487 0.550898 0.018805
Si Si4 0.383576 0.545782 0.410437
Si Si5 0.296733 0.821554 0.051581
Si Si6 0.521429 0.464933 0.288266
Si Si7 0.992611 0.136283 0.053839
Si Si8 0.111443 0.985130 0.854818
O O1 0.250000 0.250000 0.469353
O O2 0.087124 0.185573 0.367613
O O3 0.998011 0.293254 0.411793
O O4 0.949630 0.192133 0.496175
O O5 0.992249 0.250000 0.250000
O O6 0.250000 0.178265 0.250000
O O7 0.983796 0.112108 0.272511
O O8 0.624315 0.536732 0.083139
O O9 0.935232 0.554669 0.050652
O O10 0.762019 0.489901 0.966017
O O11 0.670270 0.611241 0.977337
O O12 0.336281 0.620299 0.395119
O O13 0.399187 0.496246 0.345826
O O14 0.250000 0.750000 0.079621
O O15 0.142254 0.850444 0.006886
O O16 0.499779 0.498641 0.212878
O O17 0.702416 0.478490 0.322692
O O18 0.935656 0.081718 0.107483
#
# Coordination Sequence:
#
# PCOD9390354 Si02
#       8
#     8   8   8   8   8   8   8   8
#     4  11  22  35  56  79 116 160 201 246 292 360
#     4  11  22  36  49  78 119 165 199 239 279 348
#     4  10  21  34  62  83 121 152 199 248 306 359
#     4  10  21  38  58  88 114 161 196 255 306 362
#     4  10  22  38  58  87 118 150 201 257 316 364
#     4  10  23  37  56  78 124 157 203 244 300 362
#     4  11  21  36  57  86 115 157 199 254 297 361
#     4  10  20  37  54  84 114 159 195 249 295 363
#
# _framework density 20.468899
#
# number of rings (size 3 to 8) (size 9 to 14) (size 15 to 20)
#    0.000    1.625    2.500    2.625    5.250    0.000 
#    0.000    3.750    0.000    0.000    0.000    6.125 
#    0.000   17.000    0.000    0.000    0.000    0.000 
#
# Total GULP energy -356862.971864 kJ/mol
# GULP energy per Si atom -5575.983935 kJ/mol
# Density = 2.042231 g / cm^3
# Si number density = 20.468899 Si / 1000 Ang^3
#
#
#
# Elastic Constant Matrix: (Units=GPa)
#
#
# Indices 1 2 3 4 5 6 
#
# 1 49.7037 3.9140 2.1211 0.0000 0.0000 0.0000
# 2 3.9140 107.9507 39.0055 0.0000 0.0000 0.0000
# 3 2.1211 39.0055 75.3251 0.0000 0.0000 0.0000
# 4 0.0000 0.0000 0.0000 24.7461 0.0000 0.0000
# 5 0.0000 0.0000 0.0000 0.0000 9.6443 0.0000
# 6 0.0000 0.0000 0.0000 0.0000 0.0000 26.6333
#
#
#
# Elastic Compliance Matrix: (Units=1/GPa)
#
#
# Indices 1 2 3 4 5 6 
#
# 1 0.020180 -0.000648 -0.000233 0.000000 0.000000 0.000000
# 2 -0.000648 0.011416 -0.005894 0.000000 0.000000 0.000000
# 3 -0.000233 -0.005894 0.016334 0.000000 0.000000 0.000000
# 4 0.000000 0.000000 0.000000 0.040410 0.000000 0.000000
# 5 0.000000 0.000000 0.000000 0.000000 0.103689 0.000000
# 6 0.000000 0.000000 0.000000 0.000000 0.000000 0.037547
#
#
# Mechanical properties :
#
#
# Convention : Reuss Voigt Hill
#
# Bulk Modulus (GPa) = 29.08432 35.89564 32.48998
# Shear Modulus (GPa) = 19.63974 24.73400 22.18687
#
# Velocity S-wave (km/s) = 3.10093 3.47993 3.29588
# Velocity P-wave (km/s) = 5.20201 5.80701 5.51281
#
# Compressibility (1/GPa) = 0.03438279
#
# Stress axis : x y z
#
# Youngs Moduli (GPa) = 49.55366 87.59291 61.22128
#
# Poissons Ratio (x) = 0.05672 0.01426
# Poissons Ratio (y) = 0.03209 0.36081
# Poissons Ratio (z) = 0.01154 0.51623
#
# Static dielectric constant tensor:
#      x y z
#    x 1.811590 0.000000 0.000000 
#    y 0.000000 1.755710 0.000000 
#    z 0.000000 0.000000 1.727350 
# 
# From -- ./inp_files/30596.got.cif
#   From: 2010.05.17/outbox.cif.g08.bks.cpg/sg48_16_cif.got.tgz:30596.got - 2010.06.03 20:39:00.
