data_PCOD9390830
_publ_section_title
;
Structure prediction by ZEFSAII (Michael W. Deem and Ramdas Pophale) SiO2 
 PCOD9390830
Probable space group: P N N N
;
_chemical_formula_sum "Si O2"
_cell_formula_units_Z 58
_cell_length_a 11.208565
_cell_length_b 9.139519
_cell_length_c 27.213291
_cell_angle_alpha 90.000000
_cell_angle_beta 90.000000
_cell_angle_gamma 90.000000
_cell_volume 2787.753826
_symmetry_space_group_name_H-M "P N N N"
_symmetry_group_IT_number 48
_space_group.IT_coordinate_system_code '2'
_symmetry_cell_setting 'orthorhombic'
loop_
_space_group_symop_operation_xyz
x,y,z
1/2-x,1/2-y,z
x,1/2-y,1/2-z
1/2-x,y,1/2-z
-x,-y,-z
1/2+x,1/2+y,-z
-x,1/2+y,1/2+z
1/2+x,-y,1/2+z
loop_
_atom_site_type_symbol
_atom_site_label
_atom_site_fract_x
_atom_site_fract_y
_atom_site_fract_z
Si Si1 0.400705 0.115733 0.515935
Si Si2 0.282066 0.592029 0.385033
Si Si3 0.750000 0.750000 0.750000
Si Si4 0.059057 0.376033 0.174700
Si Si5 0.210619 0.919118 0.698119
Si Si6 0.000876 0.416578 0.949013
Si Si7 0.770368 0.427774 0.087878
Si Si8 0.370248 0.166807 0.403279
O O1 0.445960 0.253359 0.547404
O O2 0.376040 0.184944 0.461797
O O3 0.500000 0.000000 0.500000
O O4 0.303845 0.022799 0.547412
O O5 0.250000 0.750000 0.366837
O O6 0.376729 0.511192 0.351142
O O7 0.361974 0.597906 0.434172
O O8 0.161221 0.500629 0.392645
O O9 0.843197 0.667593 0.784956
O O10 0.039745 0.243904 0.134370
O O11 0.932431 0.418230 0.196375
O O12 0.250000 0.750000 0.699717
O O13 0.250000 0.988950 0.750000
O O14 0.259715 0.969549 0.644646
O O15 0.092496 0.517868 0.918123
O O16 0.000000 0.500000 0.000000
O O17 0.750000 0.250000 0.081004
O O18 0.250000 0.250000 0.388460
#
# Coordination Sequence:
#
# PCOD9390830 Si02
#       8
#     8   8   2   8   8   8   8   8
#     4  12  25  38  62  99 133 186 238 278 347 416
#     4  11  22  41  61  96 136 175 216 279 355 416
#     4  12  20  40  76 104 120 164 238 298 342 416
#     4  11  22  42  71 102 130 173 224 296 356 409
#     4  10  22  42  69 103 134 176 239 297 352 418
#     4  12  23  39  65  92 139 186 225 283 341 415
#     4  11  24  41  66  97 139 180 235 293 349 422
#     4  10  21  40  61  89 133 168 224 279 334 406
#
# _framework density 20.805281000000001
#
# number of rings (size 3 to 8) (size 9 to 14) (size 15 to 20)
#    0.000    0.966    3.448    6.207    3.862    1.103 
#    0.000    0.345    0.000    1.655    0.000    0.966 
#    0.000    0.000    0.000    0.000    0.000    0.000 
#
# Total GULP energy -323234.420347 kJ/mol
# GULP energy per Si atom -5573.007247 kJ/mol
# Density = 2.075793 g / cm^3
# Si number density = 20.805281 Si / 1000 Ang^3
#
#
#
# Elastic Constant Matrix: (Units=GPa)
#
#
# Indices 1 2 3 4 5 6 
#
# 1 90.4140 31.7373 38.9529 0.0000 0.0000 0.0000
# 2 31.7373 112.3671 21.0999 0.0000 0.0000 0.0000
# 3 38.9529 21.0999 122.5754 0.0000 0.0000 0.0000
# 4 0.0000 0.0000 0.0000 18.6412 0.0000 0.0000
# 5 0.0000 0.0000 0.0000 0.0000 49.8275 0.0000
# 6 0.0000 0.0000 0.0000 0.0000 0.0000 24.6325
#
#
#
# Elastic Compliance Matrix: (Units=1/GPa)
#
#
# Indices 1 2 3 4 5 6 
#
# 1 0.013836 -0.003185 -0.003849 0.000000 0.000000 0.000000
# 2 -0.003185 0.009930 -0.000697 0.000000 0.000000 0.000000
# 3 -0.003849 -0.000697 0.009501 0.000000 0.000000 0.000000
# 4 0.000000 0.000000 0.000000 0.053645 0.000000 0.000000
# 5 0.000000 0.000000 0.000000 0.000000 0.020069 0.000000
# 6 0.000000 0.000000 0.000000 0.000000 0.000000 0.040597
#
#
# Mechanical properties :
#
#
# Convention : Reuss Voigt Hill
#
# Bulk Modulus (GPa) = 56.16242 56.54855 56.35548
# Shear Modulus (GPa) = 29.59001 34.19133 31.89067
#
# Velocity S-wave (km/s) = 3.77534 4.05828 3.91937
# Velocity P-wave (km/s) = 6.78655 7.01416 6.90129
#
# Compressibility (1/GPa) = 0.01780550
#
# Stress axis : x y z
#
# Youngs Moduli (GPa) = 72.27262 100.70533 105.24853
#
# Poissons Ratio (x) = 0.32078 0.40508
# Poissons Ratio (y) = 0.23021 0.07337
# Poissons Ratio (z) = 0.27816 0.07020
#
# Static dielectric constant tensor:
#      x y z
#    x 1.584740 0.000000 0.000000 
#    y 0.000000 1.730290 0.000000 
#    z 0.000000 0.000000 2.328780 
# 
# From -- ./inp_files/37776.got.cif
#   From: 2010.05.17/outbox.cif.g08.bks.cpg/sg48_19_cif.got.tgz:37776.got - 2010.06.03 20:39:00.
