data_PCOD9390620
_publ_section_title
;
Structure prediction by ZEFSAII (Michael W. Deem and Ramdas Pophale) SiO2 
 PCOD9390620
Probable space group: P N N N
;
_chemical_formula_sum "Si O2"
_cell_formula_units_Z 34
_cell_length_a 16.669520
_cell_length_b 8.974480
_cell_length_c 11.218744
_cell_angle_alpha 90.000000
_cell_angle_beta 90.000000
_cell_angle_gamma 90.000000
_cell_volume 1678.327175
_symmetry_space_group_name_H-M "P N N N"
_symmetry_group_IT_number 48
_space_group.IT_coordinate_system_code '2'
_symmetry_cell_setting 'orthorhombic'
loop_
_space_group_symop_operation_xyz
x,y,z
1/2-x,1/2-y,z
x,1/2-y,1/2-z
1/2-x,y,1/2-z
-x,-y,-z
1/2+x,1/2+y,-z
-x,1/2+y,1/2+z
1/2+x,-y,1/2+z
loop_
_atom_site_type_symbol
_atom_site_label
_atom_site_fract_x
_atom_site_fract_y
_atom_site_fract_z
Si Si1 0.413522 0.413725 0.860402
Si Si2 0.990610 0.282358 0.444253
Si Si3 0.369990 0.529069 0.614271
Si Si4 0.835554 0.762798 0.550765
Si Si5 0.750000 0.250000 0.250000
O O1 0.437396 0.583292 0.893970
O O2 0.395027 0.418749 0.721928
O O3 0.338849 0.353190 0.938073
O O4 0.487136 0.319709 0.917934
O O5 0.944751 0.130667 0.423306
O O6 0.079962 0.276973 0.387545
O O7 0.344276 0.426880 0.504709
O O8 0.303933 0.641456 0.668065
O O9 0.750000 0.750000 0.611729
#
# Coordination Sequence:
#
# PCOD9390620 Si02
#       5
#     8   8   8   8   2
#     4   9  19  35  53  76 112 145 179 224 285 334
#     4   9  20  36  51  78 113 147 182 221 284 342
#     4  12  20  35  54  83 115 143 186 232 287 341
#     4  10  21  34  55  82 113 142 184 232 283 338
#     4  12  24  28  58  88 110 142 170 228 300 328
#
# _framework density 20.258268000000001
#
# number of rings (size 3 to 8) (size 9 to 14) (size 15 to 20)
#    1.412    0.471    2.353    2.824    0.000    0.941 
#    0.000    0.000    0.000    2.824    0.000    0.000 
#    7.059    0.000    0.000    0.000    0.000    0.000 
#
# Total GULP energy -189370.386970 kJ/mol
# GULP energy per Si atom -5569.717264 kJ/mol
# Density = 2.021216 g / cm^3
# Si number density = 20.258268 Si / 1000 Ang^3
#
#
#
# Elastic Constant Matrix: (Units=GPa)
#
#
# Indices 1 2 3 4 5 6 
#
# 1 92.3801 38.2054 -4.0681 0.0000 0.0000 0.0000
# 2 38.2054 74.3588 13.5765 0.0000 0.0000 0.0000
# 3 -4.0681 13.5765 49.4208 0.0000 0.0000 0.0000
# 4 0.0000 0.0000 0.0000 29.4274 0.0000 0.0000
# 5 0.0000 0.0000 0.0000 0.0000 11.1185 0.0000
# 6 0.0000 0.0000 0.0000 0.0000 0.0000 33.3905
#
#
#
# Elastic Compliance Matrix: (Units=1/GPa)
#
#
# Indices 1 2 3 4 5 6 
#
# 1 0.014255 -0.007936 0.003354 0.000000 0.000000 0.000000
# 2 -0.007936 0.018577 -0.005757 0.000000 0.000000 0.000000
# 3 0.003354 -0.005757 0.022092 0.000000 0.000000 0.000000
# 4 0.000000 0.000000 0.000000 0.033982 0.000000 0.000000
# 5 0.000000 0.000000 0.000000 0.000000 0.089941 0.000000
# 6 0.000000 0.000000 0.000000 0.000000 0.000000 0.029949
#
#
# Mechanical properties :
#
#
# Convention : Reuss Voigt Hill
#
# Bulk Modulus (GPa) = 29.20147 34.62083 31.91115
# Shear Modulus (GPa) = 20.75649 26.01699 23.38674
#
# Velocity S-wave (km/s) = 3.20440 3.58755 3.40138
# Velocity P-wave (km/s) = 5.30441 5.85556 5.58678
#
# Compressibility (1/GPa) = 0.03424485
#
# Stress axis : x y z
#
# Youngs Moduli (GPa) = 70.15211 53.82992 45.26558
#
# Poissons Ratio (x) = 0.42721 -0.15180
# Poissons Ratio (y) = 0.55675 0.26058
# Poissons Ratio (z) = -0.23526 0.30988
#
# Static dielectric constant tensor:
#      x y z
#    x 1.735900 0.000000 0.000000 
#    y 0.000000 1.746280 0.000000 
#    z 0.000000 0.000000 1.746040 
# 
# From -- ./inp_files/12484.got.cif
#   From: 2010.05.17/outbox.cif.g08.bks.cpg/sg48_7_cif.got.tgz:12484.got - 2010.06.03 20:39:00.
