data_PCOD9390369
_publ_section_title
;
Structure prediction by ZEFSAII (Michael W. Deem and Ramdas Pophale) SiO2 
 PCOD9390369
Probable space group: P N N N
;
_chemical_formula_sum "Si O2"
_cell_formula_units_Z 64
_cell_length_a 13.834668
_cell_length_b 9.827172
_cell_length_c 21.687801
_cell_angle_alpha 90.000000
_cell_angle_beta 90.000000
_cell_angle_gamma 90.000000
_cell_volume 2948.579342
_symmetry_space_group_name_H-M "P N N N"
_symmetry_group_IT_number 48
_space_group.IT_coordinate_system_code '2'
_symmetry_cell_setting 'orthorhombic'
loop_
_space_group_symop_operation_xyz
x,y,z
1/2-x,1/2-y,z
x,1/2-y,1/2-z
1/2-x,y,1/2-z
-x,-y,-z
1/2+x,1/2+y,-z
-x,1/2+y,1/2+z
1/2+x,-y,1/2+z
loop_
_atom_site_type_symbol
_atom_site_label
_atom_site_fract_x
_atom_site_fract_y
_atom_site_fract_z
Si Si1 0.022173 0.053688 0.853144
Si Si2 0.661793 0.911678 0.957087
Si Si3 0.140188 0.503228 0.451186
Si Si4 0.857905 0.212271 0.143353
Si Si5 0.067855 0.199272 0.337926
Si Si6 0.383128 0.783841 0.000705
Si Si7 0.638328 0.529503 0.766425
Si Si8 0.405492 0.287055 0.952584
O O1 0.953801 0.995698 0.908884
O O2 0.071914 0.187995 0.881169
O O3 0.940327 0.068120 0.800196
O O4 0.107457 0.943488 0.844412
O O5 0.596434 0.831797 0.908095
O O6 0.766637 0.926016 0.925804
O O7 0.663685 0.829146 0.021336
O O8 0.632303 0.063624 0.975956
O O9 0.166093 0.660228 0.461832
O O10 0.122885 0.430558 0.516426
O O11 0.750000 0.250000 0.165769
O O12 0.860133 0.255645 0.070827
O O13 0.952845 0.285970 0.170442
O O14 0.098247 0.068426 0.299909
O O15 0.122892 0.330178 0.307414
O O16 0.494018 0.753456 0.015906
O O17 0.750000 0.492888 0.750000
#
# Coordination Sequence:
#
# PCOD9390369 Si02
#       8
#     8   8   8   8   8   8   8   8
#     4  10  20  37  59  85 119 161 206 260 311 369
#     4  12  23  34  58  93 126 162 203 255 312 389
#     4  11  20  36  58  86 123 165 207 247 312 382
#     4  11  20  35  56  80 120 165 199 243 305 376
#     4  10  21  35  53  87 118 151 205 267 304 355
#     4  11  21  38  53  82 128 169 198 243 306 383
#     4  10  20  38  63  86 117 157 204 263 320 360
#     4  11  20  35  55  84 126 161 202 249 310 370
#
# _framework density 21.705366999999999
#
# number of rings (size 3 to 8) (size 9 to 14) (size 15 to 20)
#    0.000    1.250    3.750    4.875    0.000    2.000 
#    0.000    5.000    0.000    3.000    0.000   10.500 
#    0.000    0.000    0.000    0.000    0.000    0.125 
#
# Total GULP energy -356561.694770 kJ/mol
# GULP energy per Si atom -5571.276481 kJ/mol
# Density = 2.165596 g / cm^3
# Si number density = 21.705367 Si / 1000 Ang^3
#
#
#
# Elastic Constant Matrix: (Units=GPa)
#
#
# Indices 1 2 3 4 5 6 
#
# 1 136.3101 32.9374 13.2092 0.0000 0.0000 0.0000
# 2 32.9374 89.3563 14.2699 0.0000 0.0000 0.0000
# 3 13.2092 14.2699 56.0235 0.0000 0.0000 0.0000
# 4 0.0000 0.0000 0.0000 12.1807 0.0000 0.0000
# 5 0.0000 0.0000 0.0000 0.0000 10.4434 0.0000
# 6 0.0000 0.0000 0.0000 0.0000 0.0000 16.8347
#
#
#
# Elastic Compliance Matrix: (Units=1/GPa)
#
#
# Indices 1 2 3 4 5 6 
#
# 1 0.008131 -0.002805 -0.001203 0.000000 0.000000 0.000000
# 2 -0.002805 0.012633 -0.002557 0.000000 0.000000 0.000000
# 3 -0.001203 -0.002557 0.018784 0.000000 0.000000 0.000000
# 4 0.000000 0.000000 0.000000 0.082097 0.000000 0.000000
# 5 0.000000 0.000000 0.000000 0.000000 0.095754 0.000000
# 6 0.000000 0.000000 0.000000 0.000000 0.000000 0.059401
#
#
# Mechanical properties :
#
#
# Convention : Reuss Voigt Hill
#
# Bulk Modulus (GPa) = 37.84982 44.72477 41.28729
# Shear Modulus (GPa) = 16.73720 22.64330 19.69025
#
# Velocity S-wave (km/s) = 2.77990 3.23338 3.01518
# Velocity P-wave (km/s) = 5.27064 5.88131 5.58433
#
# Compressibility (1/GPa) = 0.02642021
#
# Stress axis : x y z
#
# Youngs Moduli (GPa) = 122.99334 79.15565 53.23570
#
# Poissons Ratio (x) = 0.22203 0.06402
# Poissons Ratio (y) = 0.34499 0.13610
# Poissons Ratio (z) = 0.14791 0.20236
#
# Static dielectric constant tensor:
#      x y z
#    x 1.908860 0.000000 0.000000 
#    y 0.000000 1.877730 0.000000 
#    z 0.000000 0.000000 1.837090 
# 
# From -- ./inp_files/36576.got.cif
#   From: 2010.05.17/outbox.cif.g08.bks.cpg/sg48_19_cif.got.tgz:36576.got - 2010.06.03 20:39:00.
