data_PCOD9390409
_publ_section_title
;
Structure prediction by ZEFSAII (Michael W. Deem and Ramdas Pophale) SiO2 
 PCOD9390409
Probable space group: P N N N
;
_chemical_formula_sum "Si O2"
_cell_formula_units_Z 36
_cell_length_a 22.129459
_cell_length_b 4.896455
_cell_length_c 12.996528
_cell_angle_alpha 90.000000
_cell_angle_beta 90.000000
_cell_angle_gamma 90.000000
_cell_volume 1408.250490
_symmetry_space_group_name_H-M "P N N N"
_symmetry_group_IT_number 48
_space_group.IT_coordinate_system_code '2'
_symmetry_cell_setting 'orthorhombic'
loop_
_space_group_symop_operation_xyz
x,y,z
1/2-x,1/2-y,z
x,1/2-y,1/2-z
1/2-x,y,1/2-z
-x,-y,-z
1/2+x,1/2+y,-z
-x,1/2+y,1/2+z
1/2+x,-y,1/2+z
loop_
_atom_site_type_symbol
_atom_site_label
_atom_site_fract_x
_atom_site_fract_y
_atom_site_fract_z
Si Si1 0.128491 0.587466 0.919653
Si Si2 0.999378 0.059584 0.349458
Si Si3 0.750000 0.250000 0.413785
Si Si4 0.688988 0.667957 0.923369
Si Si5 0.429030 0.538479 0.081287
O O1 0.190842 0.632835 0.858115
O O2 0.071118 0.481663 0.857387
O O3 0.153480 0.405952 0.014586
O O4 0.097623 0.852174 0.972887
O O5 0.008025 0.250000 0.250000
O O6 0.028544 0.273254 0.432027
O O7 0.036973 0.784652 0.363163
O O8 0.781196 0.471630 0.489291
O O9 0.750000 0.750000 0.865305
O O10 0.634080 0.533956 0.861310
#
# Coordination Sequence:
#
# PCOD9390409 Si02
#       5
#     8   8   4   8   8
#     4  10  20  37  65  90 122 155 211 251 303 364
#     4  12  26  39  57  91 130 165 200 248 308 366
#     4   8  18  32  59  96 119 148 200 260 306 352
#     4   9  18  35  62  99 115 149 205 269 305 356
#     4  11  22  40  62  89 120 159 205 254 301 362
#
# _framework density 25.563634
#
# number of rings (size 3 to 8) (size 9 to 14) (size 15 to 20)
#    0.000    1.778    2.222    2.000    6.222    0.000 
#    0.000    0.556    0.000    0.667   17.333    0.000 
#    0.000    0.000    0.000    0.000    0.000    0.000 
#
# Total GULP energy -200737.593938 kJ/mol
# GULP energy per Si atom -5576.044276 kJ/mol
# Density = 2.550545 g / cm^3
# Si number density = 25.563634 Si / 1000 Ang^3
#
#
#
# Elastic Constant Matrix: (Units=GPa)
#
#
# Indices 1 2 3 4 5 6 
#
# 1 350.7284 80.2671 21.6165 0.0000 0.0000 0.0000
# 2 80.2671 137.8906 7.4908 0.0000 0.0000 0.0000
# 3 21.6165 7.4908 50.1711 0.0000 0.0000 0.0000
# 4 0.0000 0.0000 0.0000 15.6195 0.0000 0.0000
# 5 0.0000 0.0000 0.0000 0.0000 -7.6837 0.0000
# 6 0.0000 0.0000 0.0000 0.0000 0.0000 46.9932
#
#
#
# Elastic Compliance Matrix: (Units=1/GPa)
#
#
# Indices 1 2 3 4 5 6 
#
# 1 0.003355 -0.001890 -0.001164 0.000000 0.000000 0.000000
# 2 -0.001890 0.008376 -0.000436 0.000000 0.000000 0.000000
# 3 -0.001164 -0.000436 0.020498 0.000000 0.000000 0.000000
# 4 0.000000 0.000000 0.000000 0.064023 0.000000 0.000000
# 5 0.000000 0.000000 0.000000 0.000000 -0.130146 0.000000
# 6 0.000000 0.000000 0.000000 0.000000 0.000000 0.021280
#
#
# Mechanical properties :
#
#
# Convention : Reuss Voigt Hill
#
# Bulk Modulus (GPa) = 39.60378 84.17098 61.88738
# Shear Modulus (GPa) = 1796.87543 39.61351 918.24447
#
# Velocity S-wave (km/s) = 26.54108 3.94077 18.97312
# Velocity P-wave (km/s) = 30.89926 7.32829 22.45516
#
# Compressibility (1/GPa) = 0.02525012
#
# Stress axis : x y z
#
# Youngs Moduli (GPa) = 298.02073 119.38838 48.78466
#
# Poissons Ratio (x) = 0.22565 0.05676
# Poissons Ratio (y) = 0.56327 0.02128
# Poissons Ratio (z) = 0.34676 0.05208
#
# Static dielectric constant tensor:
#      x y z
#    x 2.201040 0.000000 0.000000 
#    y 0.000000 2.119640 0.000000 
#    z 0.000000 0.000000 2.136500 
# 
# From -- ./inp_files/4331.got.cif
#   From: 2010.05.17/outbox.cif.g08.bks.cpg/sg48_3_cif.got.tgz:4331.got - 2010.06.03 20:39:00.
