data_PCOD9390010
_publ_section_title
;
Structure prediction by ZEFSAII (Michael W. Deem and Ramdas Pophale) SiO2 
 PCOD9390010
Probable space group: P N N N
;
_chemical_formula_sum "Si O2"
_cell_formula_units_Z 32
_cell_length_a 12.117256
_cell_length_b 14.775193
_cell_length_c 7.880253
_cell_angle_alpha 90.000000
_cell_angle_beta 90.000000
_cell_angle_gamma 90.000000
_cell_volume 1410.839489
_symmetry_space_group_name_H-M "P N N N"
_symmetry_group_IT_number 48
_space_group.IT_coordinate_system_code '2'
_symmetry_cell_setting 'orthorhombic'
loop_
_space_group_symop_operation_xyz
x,y,z
1/2-x,1/2-y,z
x,1/2-y,1/2-z
1/2-x,y,1/2-z
-x,-y,-z
1/2+x,1/2+y,-z
-x,1/2+y,1/2+z
1/2+x,-y,1/2+z
loop_
_atom_site_type_symbol
_atom_site_label
_atom_site_fract_x
_atom_site_fract_y
_atom_site_fract_z
Si Si1 0.563243 0.969442 0.659994
Si Si2 0.840256 0.122989 0.613660
Si Si3 0.727587 0.937785 0.050254
Si Si4 0.475476 0.324199 0.393116
O O1 0.672166 0.920559 0.583697
O O2 0.488031 0.906386 0.773378
O O3 0.500000 0.000000 0.500000
O O4 0.586306 0.056996 0.771026
O O5 0.750000 0.155662 0.750000
O O6 0.921041 0.193110 0.518208
O O7 0.791087 0.045620 0.486854
O O8 0.750000 0.923662 0.250000
O O9 0.627965 0.870460 0.992336
O O10 0.447709 0.250000 0.250000
#
# Coordination Sequence:
#
# PCOD9390010 Si02
#       4
#     8   8   8   8
#     4  10  19  35  62  90 121 164 211 252 301 375
#     4   9  19  36  61  87 116 161 215 258 303 373
#     4  10  19  35  63  93 122 164 214 260 306 374
#     4  11  22  37  59  92 130 163 200 264 331 380
#
# _framework density 22.681533000000002
#
# number of rings (size 3 to 8) (size 9 to 14) (size 15 to 20)
#    0.000    2.000    0.000    8.250    0.000    2.000 
#    0.000    6.250    0.000   32.250    0.000    1.750 
#    0.000    0.000    0.000    0.000    0.000    0.000 
#
# Total GULP energy -178155.704733 kJ/mol
# GULP energy per Si atom -5567.365773 kJ/mol
# Density = 2.262991 g / cm^3
# Si number density = 22.681533 Si / 1000 Ang^3
#
#
#
# Elastic Constant Matrix: (Units=GPa)
#
#
# Indices 1 2 3 4 5 6 
#
# 1 96.4572 24.2278 48.6139 0.0000 0.0000 0.0000
# 2 24.2278 65.8848 30.5055 0.0000 0.0000 0.0000
# 3 48.6139 30.5055 158.5223 0.0000 0.0000 0.0000
# 4 0.0000 0.0000 0.0000 -38.9638 0.0000 0.0000
# 5 0.0000 0.0000 0.0000 0.0000 47.3886 0.0000
# 6 0.0000 0.0000 0.0000 0.0000 0.0000 22.5176
#
#
#
# Elastic Compliance Matrix: (Units=1/GPa)
#
#
# Indices 1 2 3 4 5 6 
#
# 1 0.012843 -0.003183 -0.003326 0.000000 0.000000 0.000000
# 2 -0.003183 0.017451 -0.002382 0.000000 0.000000 0.000000
# 3 -0.003326 -0.002382 0.007787 0.000000 0.000000 0.000000
# 4 0.000000 0.000000 0.000000 -0.025665 0.000000 0.000000
# 5 0.000000 0.000000 0.000000 0.000000 0.021102 0.000000
# 6 0.000000 0.000000 0.000000 0.000000 0.000000 0.044410
#
#
# Mechanical properties :
#
#
# Convention : Reuss Voigt Hill
#
# Bulk Modulus (GPa) = 49.26350 58.61762 53.94056
# Shear Modulus (GPa) = 48.79154 20.68960 34.74057
#
# Velocity S-wave (km/s) = 4.64309 3.02351 3.91790
# Velocity P-wave (km/s) = 7.10712 6.17160 6.65582
#
# Compressibility (1/GPa) = 0.02029901
#
# Stress axis : x y z
#
# Youngs Moduli (GPa) = 77.86304 57.30196 128.42407
#
# Poissons Ratio (x) = 0.18238 0.42715
# Poissons Ratio (y) = 0.24782 0.30594
# Poissons Ratio (z) = 0.25898 0.13651
#
# Static dielectric constant tensor:
#      x y z
#    x 1.851020 0.000000 0.000000 
#    y 0.000000 1.862280 0.000000 
#    z 0.000000 0.000000 1.729750 
# 
# From -- ./inp_files/10243.got.cif
#   From: 2010.05.17/outbox.cif.g08.bks.cpg/sg48_6_cif.got.tgz:10243.got - 2010.06.03 20:39:00.
