data_PCOD9390483
_publ_section_title
;
Structure prediction by ZEFSAII (Michael W. Deem and Ramdas Pophale) SiO2 
 PCOD9390483
Probable space group: P N N N
;
_chemical_formula_sum "Si O2"
_cell_formula_units_Z 44
_cell_length_a 8.757306
_cell_length_b 25.495963
_cell_length_c 9.533633
_cell_angle_alpha 90.000000
_cell_angle_beta 90.000000
_cell_angle_gamma 90.000000
_cell_volume 2128.630963
_symmetry_space_group_name_H-M "P N N N"
_symmetry_group_IT_number 48
_space_group.IT_coordinate_system_code '2'
_symmetry_cell_setting 'orthorhombic'
loop_
_space_group_symop_operation_xyz
x,y,z
1/2-x,1/2-y,z
x,1/2-y,1/2-z
1/2-x,y,1/2-z
-x,-y,-z
1/2+x,1/2+y,-z
-x,1/2+y,1/2+z
1/2+x,-y,1/2+z
loop_
_atom_site_type_symbol
_atom_site_label
_atom_site_fract_x
_atom_site_fract_y
_atom_site_fract_z
Si Si1 0.503469 0.174912 0.130316
Si Si2 0.250000 0.250000 0.250000
Si Si3 0.812833 0.422377 0.891428
Si Si4 0.684931 0.960290 0.601756
Si Si5 0.250000 0.750000 0.750000
Si Si6 0.125538 0.913942 0.847152
Si Si7 0.358620 0.390662 0.617785
O O1 0.359590 0.210957 0.167438
O O2 0.646091 0.213913 0.149825
O O3 0.543323 0.130437 0.249776
O O4 0.451595 0.151322 0.979963
O O5 0.750000 0.397234 0.750000
O O6 0.749395 0.481300 0.910045
O O7 0.993202 0.427502 0.858410
O O8 0.731158 0.393879 0.023756
O O9 0.750000 0.940144 0.750000
O O10 0.504363 0.953512 0.606479
O O11 0.746868 0.922770 0.482091
O O12 0.250000 0.941969 0.750000
O O13 0.250000 0.374699 0.750000
#
# Coordination Sequence:
#
# PCOD9390483 Si02
#       7
#     8   2   8   8   2   8   8
#     4  11  21  42  67 103 126 168 217 277 350 405
#     4  10  24  38  74  98 128 154 214 274 336 422
#     4  11  24  39  58  97 133 181 229 277 322 377
#     4  11  22  39  61  93 134 179 233 272 315 384
#     4  10  20  38  72 106 130 150 224 296 340 426
#     4  12  21  40  68  92 132 169 221 276 331 395
#     4  12  24  43  65  94 135 177 221 272 338 397
#
# _framework density 20.670563000000001
#
# number of rings (size 3 to 8) (size 9 to 14) (size 15 to 20)
#    0.000    0.727    4.545    3.273    0.000    3.636 
#    0.000    0.455    0.000    0.000    0.000    0.636 
#    0.000    0.000    0.000    0.000    0.000    0.000 
#
# Total GULP energy -245016.679061 kJ/mol
# GULP energy per Si atom -5568.560888 kJ/mol
# Density = 2.062352 g / cm^3
# Si number density = 20.670563 Si / 1000 Ang^3
#
#
#
# Elastic Constant Matrix: (Units=GPa)
#
#
# Indices 1 2 3 4 5 6 
#
# 1 190.0008 42.9282 57.6253 0.0000 0.0000 0.0000
# 2 42.9282 75.5885 26.3165 0.0000 0.0000 0.0000
# 3 57.6253 26.3165 136.8857 0.0000 0.0000 0.0000
# 4 0.0000 0.0000 0.0000 16.2979 0.0000 0.0000
# 5 0.0000 0.0000 0.0000 0.0000 48.9144 0.0000
# 6 0.0000 0.0000 0.0000 0.0000 0.0000 22.3534
#
#
#
# Elastic Compliance Matrix: (Units=1/GPa)
#
#
# Indices 1 2 3 4 5 6 
#
# 1 0.006607 -0.002984 -0.002208 0.000000 0.000000 0.000000
# 2 -0.002984 0.015526 -0.001729 0.000000 0.000000 0.000000
# 3 -0.002208 -0.001729 0.008567 0.000000 0.000000 0.000000
# 4 0.000000 0.000000 0.000000 0.061358 0.000000 0.000000
# 5 0.000000 0.000000 0.000000 0.000000 0.020444 0.000000
# 6 0.000000 0.000000 0.000000 0.000000 0.000000 0.044736
#
#
# Mechanical properties :
#
#
# Convention : Reuss Voigt Hill
#
# Bulk Modulus (GPa) = 59.31351 72.91280 66.11315
# Shear Modulus (GPa) = 28.29698 35.88680 32.09189
#
# Velocity S-wave (km/s) = 3.70395 4.17121 3.94450
# Velocity P-wave (km/s) = 6.85925 7.65173 7.26630
#
# Compressibility (1/GPa) = 0.01685956
#
# Stress axis : x y z
#
# Youngs Moduli (GPa) = 151.35931 64.40870 116.72517
#
# Poissons Ratio (x) = 0.19216 0.25769
# Poissons Ratio (y) = 0.45158 0.20181
# Poissons Ratio (z) = 0.33416 0.11136
#
# Static dielectric constant tensor:
#      x y z
#    x 1.830200 0.000000 0.000000 
#    y 0.000000 1.825140 0.000000 
#    z 0.000000 0.000000 1.830780 
# 
# From -- ./inp_files/9399.got.cif
#   From: 2010.05.17/outbox.cif.g08.bks.cpg/sg48_5_cif.got.tgz:9399.got - 2010.06.03 20:39:00.
