data_PCOD9390889
_publ_section_title
;
Structure prediction by ZEFSAII (Michael W. Deem and Ramdas Pophale) SiO2 
 PCOD9390889
Probable space group: P N N N
;
_chemical_formula_sum "Si O2"
_cell_formula_units_Z 48
_cell_length_a 10.814541
_cell_length_b 7.257777
_cell_length_c 31.141190
_cell_angle_alpha 90.000000
_cell_angle_beta 90.000000
_cell_angle_gamma 90.000000
_cell_volume 2444.257271
_symmetry_space_group_name_H-M "P N N N"
_symmetry_group_IT_number 48
_space_group.IT_coordinate_system_code '2'
_symmetry_cell_setting 'orthorhombic'
loop_
_space_group_symop_operation_xyz
x,y,z
1/2-x,1/2-y,z
x,1/2-y,1/2-z
1/2-x,y,1/2-z
-x,-y,-z
1/2+x,1/2+y,-z
-x,1/2+y,1/2+z
1/2+x,-y,1/2+z
loop_
_atom_site_type_symbol
_atom_site_label
_atom_site_fract_x
_atom_site_fract_y
_atom_site_fract_z
Si Si1 0.868038 0.631847 0.951728
Si Si2 0.250000 0.750000 0.826296
Si Si3 0.637955 0.113134 0.871439
Si Si4 0.147496 0.405549 0.882866
Si Si5 0.131013 0.873956 0.531338
Si Si6 0.628031 0.449148 0.727991
Si Si7 0.569747 0.250000 0.250000
O O1 0.750000 0.750000 0.963662
O O2 0.855359 0.560123 0.903380
O O3 0.001208 0.726714 0.958364
O O4 0.873633 0.458231 0.983850
O O5 0.189640 0.586765 0.855204
O O6 0.352698 0.684546 0.791686
O O7 0.750000 0.250000 0.884619
O O8 0.491759 0.167761 0.873271
O O9 0.658102 0.069588 0.821889
O O10 0.250000 0.250000 0.875872
O O11 0.142354 0.467893 0.932619
O O12 0.250000 0.750000 0.535658
O O13 0.606314 0.250000 0.750000
O O14 0.750000 0.528623 0.750000
O O15 0.513118 0.580637 0.734906
#
# Coordination Sequence:
#
# PCOD9390889 Si02
#       7
#     8   4   8   8   8   8   4
#     4  10  23  39  63  96 129 170 213 261 322 377
#     4  11  24  42  62  96 126 164 220 270 317 392
#     4  11  23  44  62  93 129 164 219 267 316 390
#     4  11  24  42  68  96 131 174 213 265 328 383
#     4  10  21  41  64  93 135 167 212 264 311 388
#     4  11  23  42  63  89 125 168 213 266 327 388
#     4  11  25  40  64  92 125 163 218 272 324 383
#
# _framework density 19.637867
#
# number of rings (size 3 to 8) (size 9 to 14) (size 15 to 20)
#    0.000    1.333    4.167    1.250    2.333    3.333 
#    0.000    1.667    0.000    0.000    0.000    0.000 
#    0.000    0.000    0.000    0.000    0.000    0.000 
#
# Total GULP energy -267715.022932 kJ/mol
# GULP energy per Si atom -5577.396311 kJ/mol
# Density = 1.959317 g / cm^3
# Si number density = 19.637867 Si / 1000 Ang^3
#
#
#
# Elastic Constant Matrix: (Units=GPa)
#
#
# Indices 1 2 3 4 5 6 
#
# 1 171.2981 41.5114 13.4653 0.0000 0.0000 0.0000
# 2 41.5114 39.1097 7.1092 0.0000 0.0000 0.0000
# 3 13.4653 7.1092 106.0163 0.0000 0.0000 0.0000
# 4 0.0000 0.0000 0.0000 9.4873 0.0000 0.0000
# 5 0.0000 0.0000 0.0000 0.0000 29.1160 0.0000
# 6 0.0000 0.0000 0.0000 0.0000 0.0000 38.1854
#
#
#
# Elastic Compliance Matrix: (Units=1/GPa)
#
#
# Indices 1 2 3 4 5 6 
#
# 1 0.007880 -0.008283 -0.000445 0.000000 0.000000 0.000000
# 2 -0.008283 0.034591 -0.001268 0.000000 0.000000 0.000000
# 3 -0.000445 -0.001268 0.009574 0.000000 0.000000 0.000000
# 4 0.000000 0.000000 0.000000 0.105404 0.000000 0.000000
# 5 0.000000 0.000000 0.000000 0.000000 0.034345 0.000000
# 6 0.000000 0.000000 0.000000 0.000000 0.000000 0.026188
#
#
# Mechanical properties :
#
#
# Convention : Reuss Voigt Hill
#
# Bulk Modulus (GPa) = 31.19801 48.95509 40.07655
# Shear Modulus (GPa) = 20.10789 32.31363 26.21076
#
# Velocity S-wave (km/s) = 3.20337 4.06085 3.65733
# Velocity P-wave (km/s) = 5.44089 6.85349 6.18763
#
# Compressibility (1/GPa) = 0.03205333
#
# Stress axis : x y z
#
# Youngs Moduli (GPa) = 126.90299 28.90916 104.44867
#
# Poissons Ratio (x) = 0.23945 0.04652
# Poissons Ratio (y) = 1.05113 0.13240
# Poissons Ratio (z) = 0.05652 0.03664
#
# Static dielectric constant tensor:
#      x y z
#    x 1.734110 0.000000 0.000000 
#    y 0.000000 1.671330 0.000000 
#    z 0.000000 0.000000 1.676630 
# 
# From -- ./inp_files/38738.got.cif
#   From: 2010.05.17/outbox.cif.g08.bks.cpg/sg48_20_cif.got.tgz:38738.got - 2010.06.03 20:39:00.
