data_PCOD9390031
_publ_section_title
;
Structure prediction by ZEFSAII (Michael W. Deem and Ramdas Pophale) SiO2 
 PCOD9390031
Probable space group: P N N N
;
_chemical_formula_sum "Si O2"
_cell_formula_units_Z 64
_cell_length_a 9.660050
_cell_length_b 14.109314
_cell_length_c 21.640686
_cell_angle_alpha 90.000000
_cell_angle_beta 90.000000
_cell_angle_gamma 90.000000
_cell_volume 2949.553627
_symmetry_space_group_name_H-M "P N N N"
_symmetry_group_IT_number 48
_space_group.IT_coordinate_system_code '2'
_symmetry_cell_setting 'orthorhombic'
loop_
_space_group_symop_operation_xyz
x,y,z
1/2-x,1/2-y,z
x,1/2-y,1/2-z
1/2-x,y,1/2-z
-x,-y,-z
1/2+x,1/2+y,-z
-x,1/2+y,1/2+z
1/2+x,-y,1/2+z
loop_
_atom_site_type_symbol
_atom_site_label
_atom_site_fract_x
_atom_site_fract_y
_atom_site_fract_z
Si Si1 0.111167 0.302509 0.418456
Si Si2 0.408850 0.777689 0.678471
Si Si3 0.519578 0.940208 0.140890
Si Si4 0.970995 0.104952 0.784644
Si Si5 0.292951 0.529758 0.818609
Si Si6 0.027843 0.605921 0.473386
Si Si7 0.779913 0.489330 0.617136
Si Si8 0.591346 0.735993 0.129486
O O1 0.250000 0.250000 0.441432
O O2 0.164845 0.405743 0.396425
O O3 0.035312 0.244327 0.363759
O O4 0.993361 0.323669 0.469530
O O5 0.250000 0.750000 0.664311
O O6 0.434301 0.750000 0.750000
O O7 0.398077 0.889122 0.662071
O O8 0.482582 0.913312 0.212276
O O9 0.384348 0.990501 0.116362
O O10 0.548245 0.840874 0.107038
O O11 0.656412 0.005671 0.143290
O O12 0.846875 0.049562 0.818708
O O13 0.985603 0.208012 0.815180
O O14 0.116983 0.062845 0.809320
O O15 0.250000 0.562605 0.750000
O O16 0.166022 0.586079 0.434235
O O17 0.000000 0.500000 0.500000
O O18 0.926152 0.655283 0.422952
O O19 0.750000 0.750000 0.150342
#
# Coordination Sequence:
#
# PCOD9390031 Si02
#       8
#     8   8   8   8   8   8   8   8
#     4  11  24  43  68  95 125 170 231 283 335 404
#     4  11  23  41  62  94 132 172 219 274 335 405
#     4  11  23  34  62  98 131 167 221 276 319 409
#     4  10  20  36  58  88 133 179 207 260 344 401
#     4  10  19  36  58  85 132 175 209 257 329 396
#     4   9  22  44  69  85 126 177 217 277 357 396
#     4  10  22  42  63  91 132 175 220 276 346 405
#     4  11  21  38  64  94 127 171 233 275 327 407
#
# _framework density 21.698198000000001
#
# number of rings (size 3 to 8) (size 9 to 14) (size 15 to 20)
#    0.000    1.625    3.750    1.125    1.750    2.750 
#    4.500    2.500    0.000    3.000    0.000    0.000 
#    0.000    0.000    0.000    0.000    0.000    0.000 
#
# Total GULP energy -356482.569189 kJ/mol
# GULP energy per Si atom -5570.040144 kJ/mol
# Density = 2.164881 g / cm^3
# Si number density = 21.698198 Si / 1000 Ang^3
#
#
#
# Elastic Constant Matrix: (Units=GPa)
#
#
# Indices 1 2 3 4 5 6 
#
# 1 102.6507 18.0716 12.5599 0.0000 0.0000 0.0000
# 2 18.0716 66.5906 13.9429 0.0000 0.0000 0.0000
# 3 12.5599 13.9429 72.6091 0.0000 0.0000 0.0000
# 4 0.0000 0.0000 0.0000 23.5766 0.0000 0.0000
# 5 0.0000 0.0000 0.0000 0.0000 12.5772 0.0000
# 6 0.0000 0.0000 0.0000 0.0000 0.0000 19.8351
#
#
#
# Elastic Compliance Matrix: (Units=1/GPa)
#
#
# Indices 1 2 3 4 5 6 
#
# 1 0.010348 -0.002535 -0.001303 0.000000 0.000000 0.000000
# 2 -0.002535 0.016267 -0.002685 0.000000 0.000000 0.000000
# 3 -0.001303 -0.002685 0.014513 0.000000 0.000000 0.000000
# 4 0.000000 0.000000 0.000000 0.042415 0.000000 0.000000
# 5 0.000000 0.000000 0.000000 0.000000 0.079509 0.000000
# 6 0.000000 0.000000 0.000000 0.000000 0.000000 0.050416
#
#
# Mechanical properties :
#
#
# Convention : Reuss Voigt Hill
#
# Bulk Modulus (GPa) = 35.61105 36.77769 36.19437
# Shear Modulus (GPa) = 21.19758 24.34949 22.77354
#
# Velocity S-wave (km/s) = 3.12898 3.35354 3.24320
# Velocity P-wave (km/s) = 5.43154 5.65522 5.54450
#
# Compressibility (1/GPa) = 0.02808117
#
# Stress axis : x y z
#
# Youngs Moduli (GPa) = 96.64117 61.47260 68.90173
#
# Poissons Ratio (x) = 0.15585 0.08978
# Poissons Ratio (y) = 0.24502 0.18502
# Poissons Ratio (z) = 0.12593 0.16507
#
# Static dielectric constant tensor:
#      x y z
#    x 1.775150 0.000000 0.000000 
#    y 0.000000 1.930600 0.000000 
#    z 0.000000 0.000000 1.887960 
# 
# From -- ./inp_files/36010.got.cif
#   From: 2010.05.17/outbox.cif.g08.bks.cpg/sg48_19_cif.got.tgz:36010.got - 2010.06.03 20:39:00.
