data_PCOD9390003
_publ_section_title
;
Structure prediction by ZEFSAII (Michael W. Deem and Ramdas Pophale) SiO2 
 PCOD9390003
Probable space group: P N N N
;
_chemical_formula_sum "Si O2"
_cell_formula_units_Z 48
_cell_length_a 5.126701
_cell_length_b 23.001130
_cell_length_c 18.881069
_cell_angle_alpha 90.000000
_cell_angle_beta 90.000000
_cell_angle_gamma 90.000000
_cell_volume 2226.454074
_symmetry_space_group_name_H-M "P N N N"
_symmetry_group_IT_number 48
_space_group.IT_coordinate_system_code '2'
_symmetry_cell_setting 'orthorhombic'
loop_
_space_group_symop_operation_xyz
x,y,z
1/2-x,1/2-y,z
x,1/2-y,1/2-z
1/2-x,y,1/2-z
-x,-y,-z
1/2+x,1/2+y,-z
-x,1/2+y,1/2+z
1/2+x,-y,1/2+z
loop_
_atom_site_type_symbol
_atom_site_label
_atom_site_fract_x
_atom_site_fract_y
_atom_site_fract_z
Si Si1 0.990349 0.356508 0.702267
Si Si2 0.492491 0.788516 0.596064
Si Si3 0.998147 0.897158 0.800561
Si Si4 0.535244 0.941255 0.044693
Si Si5 0.526869 0.140104 0.542920
Si Si6 0.138395 0.481932 0.673353
O O1 0.750000 0.336046 0.750000
O O2 0.009015 0.332894 0.622028
O O3 0.250000 0.349735 0.750000
O O4 0.959670 0.425653 0.685074
O O5 0.250000 0.750000 0.620575
O O6 0.526981 0.843122 0.647502
O O7 0.436986 0.812391 0.517387
O O8 0.750000 0.750000 0.595590
O O9 0.750000 0.903154 0.750000
O O10 0.250000 0.888301 0.750000
O O11 0.016667 0.956559 0.847198
O O12 0.275160 0.902963 0.043934
O O13 0.773825 0.898819 0.023136
O O14 0.631825 0.962399 0.121667
O O15 0.500000 0.000000 0.000000
O O16 0.250000 0.494216 0.750000
#
# Coordination Sequence:
#
# PCOD9390003 Si02
#       6
#     8   8   8   8   8   8
#     4  10  19  35  60  91 126 160 191 230 293 377
#     4  12  27  46  67  87 117 164 221 281 328 363
#     4  11  24  41  63  91 125 164 210 262 313 373
#     4  11  22  36  59  91 129 164 199 246 303 382
#     4  11  23  40  62  90 123 163 208 256 313 375
#     4   9  19  34  56  89 127 162 192 232 294 371
#
# _framework density 21.558945999999999
#
# number of rings (size 3 to 8) (size 9 to 14) (size 15 to 20)
#    0.000    1.333    0.000    7.000    0.000   10.000 
#    0.000    0.000    0.000    3.000    0.000    0.000 
#    0.000    0.000    0.000    0.000    0.000    0.000 
#
# Total GULP energy -268295.751807 kJ/mol
# GULP energy per Si atom -5589.494829 kJ/mol
# Density = 2.150988 g / cm^3
# Si number density = 21.558946 Si / 1000 Ang^3
#
#
#
# Elastic Constant Matrix: (Units=GPa)
#
#
# Indices 1 2 3 4 5 6 
#
# 1 127.6848 -4.5996 1.1476 0.0000 0.0000 0.0000
# 2 -4.5996 15.6033 -3.4641 0.0000 0.0000 0.0000
# 3 1.1476 -3.4641 50.6088 0.0000 0.0000 0.0000
# 4 0.0000 0.0000 0.0000 99.5222 0.0000 0.0000
# 5 0.0000 0.0000 0.0000 0.0000 24.0592 0.0000
# 6 0.0000 0.0000 0.0000 0.0000 0.0000 7.4341
#
#
#
# Elastic Compliance Matrix: (Units=1/GPa)
#
#
# Indices 1 2 3 4 5 6 
#
# 1 0.007916 0.002329 -0.000020 0.000000 0.000000 0.000000
# 2 0.002329 0.065763 0.004449 0.000000 0.000000 0.000000
# 3 -0.000020 0.004449 0.020064 0.000000 0.000000 0.000000
# 4 0.000000 0.000000 0.000000 0.010048 0.000000 0.000000
# 5 0.000000 0.000000 0.000000 0.000000 0.041564 0.000000
# 6 0.000000 0.000000 0.000000 0.000000 0.000000 0.134515
#
#
# Mechanical properties :
#
#
# Convention : Reuss Voigt Hill
#
# Bulk Modulus (GPa) = 9.32326 20.00717 14.66521
# Shear Modulus (GPa) = 16.55033 39.59062 28.07048
#
# Velocity S-wave (km/s) = 2.77371 4.28996 3.61229
# Velocity P-wave (km/s) = 3.81993 5.81711 4.92090
#
# Compressibility (1/GPa) = 0.10725862
#
# Stress axis : x y z
#
# Youngs Moduli (GPa) = 126.32852 15.20607 49.83958
#
# Poissons Ratio (x) = -0.03542 0.00100
# Poissons Ratio (y) = -0.29422 -0.22172
# Poissons Ratio (z) = 0.00254 -0.06765
#
# Static dielectric constant tensor:
#      x y z
#    x 1.798930 0.000000 0.000000 
#    y 0.000000 1.804300 0.000000 
#    z 0.000000 0.000000 1.852360 
# 
# From -- ./inp_files/29514.got.cif
#   From: 2010.05.17/outbox.cif.g08.bks.cpg/sg48_15_cif.got.tgz:29514.got - 2010.06.03 20:39:00.
