data_PCOD9390817
_publ_section_title
;
Structure prediction by ZEFSAII (Michael W. Deem and Ramdas Pophale) SiO2 
 PCOD9390817
Probable space group: P N N N
;
_chemical_formula_sum "Si O2"
_cell_formula_units_Z 34
_cell_length_a 14.916792
_cell_length_b 11.770467
_cell_length_c 8.187226
_cell_angle_alpha 90.000000
_cell_angle_beta 90.000000
_cell_angle_gamma 90.000000
_cell_volume 1437.493557
_symmetry_space_group_name_H-M "P N N N"
_symmetry_group_IT_number 48
_space_group.IT_coordinate_system_code '2'
_symmetry_cell_setting 'orthorhombic'
loop_
_space_group_symop_operation_xyz
x,y,z
1/2-x,1/2-y,z
x,1/2-y,1/2-z
1/2-x,y,1/2-z
-x,-y,-z
1/2+x,1/2+y,-z
-x,1/2+y,1/2+z
1/2+x,-y,1/2+z
loop_
_atom_site_type_symbol
_atom_site_label
_atom_site_fract_x
_atom_site_fract_y
_atom_site_fract_z
Si Si1 0.613998 0.410856 0.363817
Si Si2 0.071005 0.139700 0.464467
Si Si3 0.750000 0.250000 0.750000
Si Si4 0.840979 0.872813 0.858602
Si Si5 0.184063 0.603101 0.525837
O O1 0.535955 0.351492 0.467419
O O2 0.602821 0.546034 0.404996
O O3 0.713410 0.377766 0.418409
O O4 0.615541 0.376915 0.173279
O O5 0.088511 0.090790 0.280996
O O6 0.123459 0.259291 0.449317
O O7 0.815465 0.328334 0.641645
O O8 0.750000 0.862967 0.750000
O O9 0.825728 0.970872 0.985928
#
# Coordination Sequence:
#
# PCOD9390817 Si02
#       5
#     8   8   2   8   8
#     4  10  23  42  64 105 143 183 238 307 367 451
#     4  10  21  39  68 101 147 180 228 304 375 434
#     4  12  24  42  68  94 136 198 254 308 364 440
#     4  11  21  40  70 101 134 194 239 293 368 453
#     4  11  24  43  69  97 139 193 251 300 371 451
#
# _framework density 23.652279
#
# number of rings (size 3 to 8) (size 9 to 14) (size 15 to 20)
#    0.000    1.412    3.529    1.412    0.000    7.529 
#    0.000    7.059    0.000    0.000    0.000    0.000 
#    0.000    0.000    0.000    0.000    0.000    0.000 
#
# Total GULP energy -189798.542660 kJ/mol
# GULP energy per Si atom -5582.310078 kJ/mol
# Density = 2.359845 g / cm^3
# Si number density = 23.652279 Si / 1000 Ang^3
#
#
#
# Elastic Constant Matrix: (Units=GPa)
#
#
# Indices 1 2 3 4 5 6 
#
# 1 96.2513 35.6036 22.4473 0.0000 0.0000 0.0000
# 2 35.6036 139.5966 54.6480 0.0000 0.0000 0.0000
# 3 22.4473 54.6480 84.0953 0.0000 0.0000 0.0000
# 4 0.0000 0.0000 0.0000 37.0653 0.0000 0.0000
# 5 0.0000 0.0000 0.0000 0.0000 24.7833 0.0000
# 6 0.0000 0.0000 0.0000 0.0000 0.0000 8.7821
#
#
#
# Elastic Compliance Matrix: (Units=1/GPa)
#
#
# Indices 1 2 3 4 5 6 
#
# 1 0.011626 -0.002347 -0.001578 0.000000 0.000000 0.000000
# 2 -0.002347 0.010082 -0.005925 0.000000 0.000000 0.000000
# 3 -0.001578 -0.005925 0.016163 0.000000 0.000000 0.000000
# 4 0.000000 0.000000 0.000000 0.026979 0.000000 0.000000
# 5 0.000000 0.000000 0.000000 0.000000 0.040350 0.000000
# 6 0.000000 0.000000 0.000000 0.000000 0.000000 0.113869
#
#
# Mechanical properties :
#
#
# Convention : Reuss Voigt Hill
#
# Bulk Modulus (GPa) = 55.03607 60.59343 57.81475
# Shear Modulus (GPa) = 20.42282 27.94241 24.18262
#
# Velocity S-wave (km/s) = 2.94166 3.44085 3.20100
# Velocity P-wave (km/s) = 5.90399 6.43895 6.17726
#
# Compressibility (1/GPa) = 0.01816990
#
# Stress axis : x y z
#
# Youngs Moduli (GPa) = 86.01584 99.19079 61.87145
#
# Poissons Ratio (x) = 0.23285 0.09762
# Poissons Ratio (y) = 0.20192 0.36657
# Poissons Ratio (z) = 0.13571 0.58768
#
# Static dielectric constant tensor:
#      x y z
#    x 1.963720 0.000000 0.000000 
#    y 0.000000 1.955310 0.000000 
#    z 0.000000 0.000000 1.941940 
# 
# From -- ./inp_files/11993.got.cif
#   From: 2010.05.17/outbox.cif.g08.bks.cpg/sg48_6_cif.got.tgz:11993.got - 2010.06.03 20:39:00.
