data_PCOD9390607
_publ_section_title
;
Structure prediction by ZEFSAII (Michael W. Deem and Ramdas Pophale) SiO2 
 PCOD9390607
Probable space group: P N N N
;
_chemical_formula_sum "Si O2"
_cell_formula_units_Z 64
_cell_length_a 11.452903
_cell_length_b 18.423139
_cell_length_c 16.764723
_cell_angle_alpha 90.000000
_cell_angle_beta 90.000000
_cell_angle_gamma 90.000000
_cell_volume 3537.330130
_symmetry_space_group_name_H-M "P N N N"
_symmetry_group_IT_number 48
_space_group.IT_coordinate_system_code '2'
_symmetry_cell_setting 'orthorhombic'
loop_
_space_group_symop_operation_xyz
x,y,z
1/2-x,1/2-y,z
x,1/2-y,1/2-z
1/2-x,y,1/2-z
-x,-y,-z
1/2+x,1/2+y,-z
-x,1/2+y,1/2+z
1/2+x,-y,1/2+z
loop_
_atom_site_type_symbol
_atom_site_label
_atom_site_fract_x
_atom_site_fract_y
_atom_site_fract_z
Si Si1 0.453629 0.094389 0.793636
Si Si2 0.973622 0.579550 0.956447
Si Si3 0.225880 0.415553 0.927766
Si Si4 0.959452 0.617642 0.386860
Si Si5 0.329184 0.007600 0.174045
Si Si6 0.078162 0.734265 0.161691
Si Si7 0.307973 0.677370 0.499427
Si Si8 0.838260 0.041872 0.969452
O O1 0.349209 0.066023 0.849052
O O2 0.431063 0.086088 0.700492
O O3 0.473458 0.178217 0.818368
O O4 0.579459 0.056547 0.806520
O O5 0.915685 0.564375 0.870493
O O6 0.870641 0.611148 0.010528
O O7 0.000000 0.500000 0.000000
O O8 0.082631 0.634093 0.961288
O O9 0.332650 0.360727 0.918753
O O10 0.293427 0.484938 0.964662
O O11 0.036252 0.688983 0.372672
O O12 0.031361 0.559241 0.439045
O O13 0.250000 0.029256 0.250000
O O14 0.237167 0.980738 0.108110
O O15 0.128995 0.750000 0.250000
O O16 0.153281 0.697072 0.091677
O O17 0.250000 0.750000 0.534984
O O18 0.206770 0.618934 0.498392
#
# Coordination Sequence:
#
# PCOD9390607 Si02
#       8
#     8   8   8   8   8   8   8   8
#     4  11  19  35  52  76 111 155 194 227 283 351
#     4  11  19  37  58  79 111 162 194 248 307 348
#     4  11  21  36  53  69 110 159 195 232 290 347
#     4  11  23  33  48  79 116 152 195 235 283 346
#     4  11  19  32  59  82 110 148 200 251 296 353
#     4  10  21  33  48  77 116 158 186 224 275 341
#     4  12  20  34  56  82 117 152 201 239 292 362
#     4  11  20  34  53  80 109 151 190 249 289 333
#
# _framework density 18.092742000000001
#
# number of rings (size 3 to 8) (size 9 to 14) (size 15 to 20)
#    0.000    1.000    8.750    0.750    0.000    0.750 
#    0.000    1.875    0.000    0.000    0.000    0.000 
#    0.000   36.000    0.000    0.000    0.000    0.000 
#
# Total GULP energy -356328.537142 kJ/mol
# GULP energy per Si atom -5567.633393 kJ/mol
# Density = 1.805156 g / cm^3
# Si number density = 18.092742 Si / 1000 Ang^3
#
#
#
# Elastic Constant Matrix: (Units=GPa)
#
#
# Indices 1 2 3 4 5 6 
#
# 1 114.3492 28.4121 30.3239 0.0000 0.0000 0.0000
# 2 28.4121 59.1032 31.0106 0.0000 0.0000 0.0000
# 3 30.3239 31.0106 56.1186 0.0000 0.0000 0.0000
# 4 0.0000 0.0000 0.0000 15.3376 0.0000 0.0000
# 5 0.0000 0.0000 0.0000 0.0000 4.0081 0.0000
# 6 0.0000 0.0000 0.0000 0.0000 0.0000 13.0324
#
#
#
# Elastic Compliance Matrix: (Units=1/GPa)
#
#
# Indices 1 2 3 4 5 6 
#
# 1 0.010557 -0.002932 -0.004084 0.000000 0.000000 0.000000
# 2 -0.002932 0.024643 -0.012033 0.000000 0.000000 0.000000
# 3 -0.004084 -0.012033 0.026676 0.000000 0.000000 0.000000
# 4 0.000000 0.000000 0.000000 0.065199 0.000000 0.000000
# 5 0.000000 0.000000 0.000000 0.000000 0.249494 0.000000
# 6 0.000000 0.000000 0.000000 0.000000 0.000000 0.076732
#
#
# Mechanical properties :
#
#
# Convention : Reuss Voigt Hill
#
# Bulk Modulus (GPa) = 42.05799 45.45159 43.75479
# Shear Modulus (GPa) = 10.01354 15.79724 12.90539
#
# Velocity S-wave (km/s) = 2.35512 2.95808 2.67365
# Velocity P-wave (km/s) = 5.54001 6.06984 5.81096
#
# Compressibility (1/GPa) = 0.02377670
#
# Stress axis : x y z
#
# Youngs Moduli (GPa) = 94.72656 40.58025 37.48734
#
# Poissons Ratio (x) = 0.11898 0.15311
# Poissons Ratio (y) = 0.27773 0.45108
# Poissons Ratio (z) = 0.38688 0.48830
#
# Static dielectric constant tensor:
#      x y z
#    x 1.686590 0.000000 0.000000 
#    y 0.000000 1.648650 0.000000 
#    z 0.000000 0.000000 1.663260 
# 
# From -- ./inp_files/31232.got.cif
#   From: 2010.05.17/outbox.cif.g08.bks.cpg/sg48_16_cif.got.tgz:31232.got - 2010.06.03 20:39:00.
