data_PCOD9390330
_publ_section_title
;
Structure prediction by ZEFSAII (Michael W. Deem and Ramdas Pophale) SiO2 
 PCOD9390330
Probable space group: P N N N
;
_chemical_formula_sum "Si O2"
_cell_formula_units_Z 60
_cell_length_a 5.841279
_cell_length_b 24.552561
_cell_length_c 17.885110
_cell_angle_alpha 90.000000
_cell_angle_beta 90.000000
_cell_angle_gamma 90.000000
_cell_volume 2565.053126
_symmetry_space_group_name_H-M "P N N N"
_symmetry_group_IT_number 48
_space_group.IT_coordinate_system_code '2'
_symmetry_cell_setting 'orthorhombic'
loop_
_space_group_symop_operation_xyz
x,y,z
1/2-x,1/2-y,z
x,1/2-y,1/2-z
1/2-x,y,1/2-z
-x,-y,-z
1/2+x,1/2+y,-z
-x,1/2+y,1/2+z
1/2+x,-y,1/2+z
loop_
_atom_site_type_symbol
_atom_site_label
_atom_site_fract_x
_atom_site_fract_y
_atom_site_fract_z
Si Si1 0.150774 0.416901 0.515171
Si Si2 0.014031 0.376258 0.090893
Si Si3 0.785470 0.023509 0.072502
Si Si4 0.003050 0.973849 0.214337
Si Si5 0.625807 0.193861 0.946889
Si Si6 0.500676 0.354378 0.843870
Si Si7 0.997455 0.769247 0.664772
Si Si8 0.250000 0.250000 0.652037
O O1 0.234421 0.389190 0.439641
O O2 0.313525 0.466743 0.540835
O O3 0.138911 0.376300 0.583816
O O4 0.912367 0.445087 0.494561
O O5 0.888122 0.432846 0.105671
O O6 0.005522 0.334302 0.157956
O O7 0.910206 0.343646 0.019119
O O8 0.969456 0.002983 0.134059
O O9 0.750000 0.985174 0.250000
O O10 0.012521 0.907708 0.207160
O O11 0.250000 0.990161 0.250000
O O12 0.750000 0.250000 0.969466
O O13 0.410084 0.216613 0.903487
O O14 0.762792 0.161438 0.883153
O O15 0.402007 0.298016 0.810361
O O16 0.250000 0.750000 0.636346
O O17 0.990866 0.750000 0.750000
O O18 0.750000 0.750000 0.629535
#
# Coordination Sequence:
#
# PCOD9390330 Si02
#       8
#     8   8   8   8   8   8   8   4
#     4  10  21  39  65 105 133 174 220 301 372 413
#     4  12  22  36  71  97 139 178 238 281 369 412
#     4  10  24  43  65 100 138 171 239 295 354 420
#     4  11  28  50  73  95 136 192 239 287 351 426
#     4  10  21  34  61 101 137 168 216 280 360 421
#     4  10  21  41  69  99 139 175 227 288 364 429
#     4  10  25  47  65  93 137 194 241 287 333 403
#     4  10  20  36  61 100 137 170 212 278 344 438
#
# _framework density 23.391328000000001
#
# number of rings (size 3 to 8) (size 9 to 14) (size 15 to 20)
#    0.000    1.600    2.667    0.800    6.533    0.000 
#    2.400    0.333    0.000    0.000    0.000    0.000 
#    0.000    0.000    0.000    0.000    0.000    0.000 
#
# Total GULP energy -334547.502886 kJ/mol
# GULP energy per Si atom -5575.791715 kJ/mol
# Density = 2.333809 g / cm^3
# Si number density = 23.391328 Si / 1000 Ang^3
#
#
#
# Elastic Constant Matrix: (Units=GPa)
#
#
# Indices 1 2 3 4 5 6 
#
# 1 100.6042 29.3365 20.3273 0.0000 0.0000 0.0000
# 2 29.3365 98.9930 2.2855 0.0000 0.0000 0.0000
# 3 20.3273 2.2855 61.7188 0.0000 0.0000 0.0000
# 4 0.0000 0.0000 0.0000 35.2035 0.0000 0.0000
# 5 0.0000 0.0000 0.0000 0.0000 23.4842 0.0000
# 6 0.0000 0.0000 0.0000 0.0000 0.0000 41.9433
#
#
#
# Elastic Compliance Matrix: (Units=1/GPa)
#
#
# Indices 1 2 3 4 5 6 
#
# 1 0.011676 -0.003374 -0.003720 0.000000 0.000000 0.000000
# 2 -0.003374 0.011085 0.000701 0.000000 0.000000 0.000000
# 3 -0.003720 0.000701 0.017402 0.000000 0.000000 0.000000
# 4 0.000000 0.000000 0.000000 0.028406 0.000000 0.000000
# 5 0.000000 0.000000 0.000000 0.000000 0.042582 0.000000
# 6 0.000000 0.000000 0.000000 0.000000 0.000000 0.023842
#
#
# Mechanical properties :
#
#
# Convention : Reuss Voigt Hill
#
# Bulk Modulus (GPa) = 36.52924 40.57940 38.55432
# Shear Modulus (GPa) = 31.86632 34.08399 32.97516
#
# Velocity S-wave (km/s) = 3.69496 3.82137 3.75869
# Velocity P-wave (km/s) = 5.81843 6.07093 5.94602
#
# Compressibility (1/GPa) = 0.02737533
#
# Stress axis : x y z
#
# Youngs Moduli (GPa) = 85.64881 90.20820 57.46495
#
# Poissons Ratio (x) = 0.30438 0.21380
# Poissons Ratio (y) = 0.28899 -0.04027
# Poissons Ratio (z) = 0.31865 -0.06322
#
# Static dielectric constant tensor:
#      x y z
#    x 2.039900 0.000000 0.000000 
#    y 0.000000 1.944220 0.000000 
#    z 0.000000 0.000000 1.874630 
# 
# From -- ./inp_files/32998.got.cif
#   From: 2010.05.17/outbox.cif.g08.bks.cpg/sg48_17_cif.got.tgz:32998.got - 2010.06.03 20:39:00.
