data_PCOD9390737
_publ_section_title
;
Structure prediction by ZEFSAII (Michael W. Deem and Ramdas Pophale) SiO2 
 PCOD9390737
Probable space group: P N N N
;
_chemical_formula_sum "Si O2"
_cell_formula_units_Z 64
_cell_length_a 9.378341
_cell_length_b 13.977065
_cell_length_c 24.228470
_cell_angle_alpha 90.000000
_cell_angle_beta 90.000000
_cell_angle_gamma 90.000000
_cell_volume 3175.908594
_symmetry_space_group_name_H-M "P N N N"
_symmetry_group_IT_number 48
_space_group.IT_coordinate_system_code '2'
_symmetry_cell_setting 'orthorhombic'
loop_
_space_group_symop_operation_xyz
x,y,z
1/2-x,1/2-y,z
x,1/2-y,1/2-z
1/2-x,y,1/2-z
-x,-y,-z
1/2+x,1/2+y,-z
-x,1/2+y,1/2+z
1/2+x,-y,1/2+z
loop_
_atom_site_type_symbol
_atom_site_label
_atom_site_fract_x
_atom_site_fract_y
_atom_site_fract_z
Si Si1 0.475681 0.308207 0.532323
Si Si2 0.905976 0.204863 0.418103
Si Si3 0.590001 0.709146 0.690059
Si Si4 0.262961 0.855587 0.109354
Si Si5 0.668988 0.516383 0.415056
Si Si6 0.943395 0.877328 0.099823
Si Si7 0.912891 0.853701 0.229563
Si Si8 0.455343 0.983111 0.184527
O O1 0.496970 0.271329 0.470671
O O2 0.629567 0.334906 0.558891
O O3 0.389304 0.405767 0.541553
O O4 0.411295 0.221224 0.567747
O O5 0.750000 0.250000 0.420046
O O6 0.985461 0.231808 0.361224
O O7 0.879196 0.091178 0.425376
O O8 0.750000 0.750000 0.680570
O O9 0.543678 0.750000 0.750000
O O10 0.584280 0.593676 0.691678
O O11 0.250000 0.750000 0.136096
O O12 0.331710 0.928224 0.152073
O O13 0.110641 0.893495 0.089791
O O14 0.837072 0.536492 0.413746
O O15 0.593071 0.535028 0.355562
O O16 0.922138 0.857203 0.164281
O O17 0.962325 0.750000 0.250000
O O18 0.750000 0.865036 0.250000
O O19 0.007817 0.934817 0.257715
#
# Coordination Sequence:
#
# PCOD9390737 Si02
#       8
#     8   8   8   8   8   8   8   8
#     4  10  21  41  62  86 129 166 200 249 316 375
#     4  11  24  43  66  91 123 158 208 266 313 365
#     4  10  25  47  67  88 119 164 216 266 313 364
#     4   9  19  35  58  90 131 164 195 243 315 383
#     4  10  21  38  62  90 119 161 207 251 311 369
#     4  11  21  34  59  93 122 161 207 252 300 373
#     4  11  21  32  57  92 132 161 201 246 303 387
#     4  10  21  41  60  86 128 168 203 254 317 366
#
# _framework density 20.151713999999998
#
# number of rings (size 3 to 8) (size 9 to 14) (size 15 to 20)
#    0.000    1.750    1.250    4.125    1.750    5.750 
#    0.000    5.000    0.000    0.000    0.000    0.000 
#    0.000    0.000    0.000    0.000    0.000    0.000 
#
# Total GULP energy -357333.941404 kJ/mol
# GULP energy per Si atom -5583.342834 kJ/mol
# Density = 2.010585 g / cm^3
# Si number density = 20.151714 Si / 1000 Ang^3
#
#
#
# Elastic Constant Matrix: (Units=GPa)
#
#
# Indices 1 2 3 4 5 6 
#
# 1 81.7571 24.4018 20.0840 0.0000 0.0000 0.0000
# 2 24.4018 61.5285 27.8919 0.0000 0.0000 0.0000
# 3 20.0840 27.8919 123.2961 0.0000 0.0000 0.0000
# 4 0.0000 0.0000 0.0000 19.9762 0.0000 0.0000
# 5 0.0000 0.0000 0.0000 0.0000 -0.4718 0.0000
# 6 0.0000 0.0000 0.0000 0.0000 0.0000 2.1059
#
#
#
# Elastic Compliance Matrix: (Units=1/GPa)
#
#
# Indices 1 2 3 4 5 6 
#
# 1 0.014017 -0.005041 -0.001143 0.000000 0.000000 0.000000
# 2 -0.005041 0.019923 -0.003686 0.000000 0.000000 0.000000
# 3 -0.001143 -0.003686 0.009131 0.000000 0.000000 0.000000
# 4 0.000000 0.000000 0.000000 0.050060 0.000000 0.000000
# 5 0.000000 0.000000 0.000000 0.000000 -2.119430 0.000000
# 6 0.000000 0.000000 0.000000 0.000000 0.000000 0.474860
#
#
# Mechanical properties :
#
#
# Convention : Reuss Voigt Hill
#
# Bulk Modulus (GPa) = 42.86174 45.70413 44.28293
# Shear Modulus (GPa) = -3.28100 17.26898 6.99399
#
# Velocity S-wave (km/s) = -1.27737 2.93054 1.86499
# Velocity P-wave (km/s) = 4.37494 5.84637 5.16334
#
# Compressibility (1/GPa) = 0.02333083
#
# Stress axis : x y z
#
# Youngs Moduli (GPa) = 71.34384 50.19425 109.52292
#
# Poissons Ratio (x) = 0.25302 0.12517
# Poissons Ratio (y) = 0.35963 0.40367
# Poissons Ratio (z) = 0.08154 0.18500
#
# Static dielectric constant tensor:
#      x y z
#    x 1.736760 0.000000 0.000000 
#    y 0.000000 1.704130 0.000000 
#    z 0.000000 0.000000 1.718490 
# 
# From -- ./inp_files/36011.got.cif
#   From: 2010.05.17/outbox.cif.g08.bks.cpg/sg48_19_cif.got.tgz:36011.got - 2010.06.03 20:39:00.
