data_PCOD9390964
_publ_section_title
;
Structure prediction by ZEFSAII (Michael W. Deem and Ramdas Pophale) SiO2 
 PCOD9390964
Probable space group: P N N N
;
_chemical_formula_sum "Si O2"
_cell_formula_units_Z 38
_cell_length_a 7.954947
_cell_length_b 13.628774
_cell_length_c 16.689826
_cell_angle_alpha 90.000000
_cell_angle_beta 90.000000
_cell_angle_gamma 90.000000
_cell_volume 1809.447094
_symmetry_space_group_name_H-M "P N N N"
_symmetry_group_IT_number 48
_space_group.IT_coordinate_system_code '2'
_symmetry_cell_setting 'orthorhombic'
loop_
_space_group_symop_operation_xyz
x,y,z
1/2-x,1/2-y,z
x,1/2-y,1/2-z
1/2-x,y,1/2-z
-x,-y,-z
1/2+x,1/2+y,-z
-x,1/2+y,1/2+z
1/2+x,-y,1/2+z
loop_
_atom_site_type_symbol
_atom_site_label
_atom_site_fract_x
_atom_site_fract_y
_atom_site_fract_z
Si Si1 0.934625 0.215597 0.517732
Si Si2 0.250000 0.493864 0.750000
Si Si3 0.274812 0.985206 0.044913
Si Si4 0.499504 0.370119 0.355129
Si Si5 0.584606 0.596841 0.096374
Si Si6 0.250000 0.250000 0.250000
O O1 0.750000 0.250000 0.541699
O O2 0.943059 0.211313 0.420978
O O3 0.062494 0.290973 0.561343
O O4 0.913655 0.100957 0.537730
O O5 0.363563 0.565809 0.693519
O O6 0.351639 0.424788 0.813414
O O7 0.369892 0.062944 0.097033
O O8 0.207045 0.034945 0.962873
O O9 0.102977 0.947179 0.085839
O O10 0.378533 0.317309 0.295439
#
# Coordination Sequence:
#
# PCOD9390964 Si02
#       6
#     8   4   8   8   8   2
#     4  10  22  40  71  96 128 187 237 279 340 453
#     4  12  26  41  69 106 144 176 226 323 361 402
#     4  10  21  45  68  94 135 191 232 275 354 454
#     4  12  25  43  67 100 139 181 226 296 364 416
#     4  10  22  42  70 103 136 182 241 288 358 428
#     4  12  28  38  64 100 134 180 228 296 360 430
#
# _framework density 21.000889999999998
#
# number of rings (size 3 to 8) (size 9 to 14) (size 15 to 20)
#    0.000    1.263    2.105    3.158    2.947    0.000 
#    0.000    2.105    0.000    3.789    0.000    0.000 
#    0.000    0.000    0.000    0.000    0.000    0.000 
#
# Total GULP energy -211652.742153 kJ/mol
# GULP energy per Si atom -5569.809004 kJ/mol
# Density = 2.095309 g / cm^3
# Si number density = 21.000890 Si / 1000 Ang^3
#
#
#
# Elastic Constant Matrix: (Units=GPa)
#
#
# Indices 1 2 3 4 5 6 
#
# 1 115.7978 43.4934 60.8355 0.0000 0.0000 0.0000
# 2 43.4934 105.3304 55.5267 0.0000 0.0000 0.0000
# 3 60.8355 55.5267 136.6131 0.0000 0.0000 0.0000
# 4 0.0000 0.0000 0.0000 46.0016 0.0000 0.0000
# 5 0.0000 0.0000 0.0000 0.0000 44.4637 0.0000
# 6 0.0000 0.0000 0.0000 0.0000 0.0000 33.2150
#
#
#
# Elastic Compliance Matrix: (Units=1/GPa)
#
#
# Indices 1 2 3 4 5 6 
#
# 1 0.011841 -0.002685 -0.004182 0.000000 0.000000 0.000000
# 2 -0.002685 0.012692 -0.003963 0.000000 0.000000 0.000000
# 3 -0.004182 -0.003963 0.010793 0.000000 0.000000 0.000000
# 4 0.000000 0.000000 0.000000 0.021738 0.000000 0.000000
# 5 0.000000 0.000000 0.000000 0.000000 0.022490 0.000000
# 6 0.000000 0.000000 0.000000 0.000000 0.000000 0.030107
#
#
# Mechanical properties :
#
#
# Convention : Reuss Voigt Hill
#
# Bulk Modulus (GPa) = 73.17173 75.27249 74.22211
# Shear Modulus (GPa) = 36.79829 37.92845 37.36337
#
# Velocity S-wave (km/s) = 4.19050 4.25436 4.22255
# Velocity P-wave (km/s) = 7.63751 7.74940 7.69366
#
# Compressibility (1/GPa) = 0.01366648
#
# Stress axis : x y z
#
# Youngs Moduli (GPa) = 84.45155 78.79127 92.65429
#
# Poissons Ratio (x) = 0.21156 0.38745
# Poissons Ratio (y) = 0.22676 0.36718
# Poissons Ratio (z) = 0.35315 0.31224
#
# Static dielectric constant tensor:
#      x y z
#    x 1.733720 0.000000 0.000000 
#    y 0.000000 1.835520 0.000000 
#    z 0.000000 0.000000 2.468090 
# 
# From -- ./inp_files/30033.got.cif
#   From: 2010.05.17/outbox.cif.g08.bks.cpg/sg48_16_cif.got.tgz:30033.got - 2010.06.03 20:39:00.
