data_PCOD9390610
_publ_section_title
;
Structure prediction by ZEFSAII (Michael W. Deem and Ramdas Pophale) SiO2 
 PCOD9390610
Probable space group: P N N N
;
_chemical_formula_sum "Si O2"
_cell_formula_units_Z 46
_cell_length_a 23.582616
_cell_length_b 5.203130
_cell_length_c 18.409040
_cell_angle_alpha 90.000000
_cell_angle_beta 90.000000
_cell_angle_gamma 90.000000
_cell_volume 2258.852108
_symmetry_space_group_name_H-M "P N N N"
_symmetry_group_IT_number 48
_space_group.IT_coordinate_system_code '2'
_symmetry_cell_setting 'orthorhombic'
loop_
_space_group_symop_operation_xyz
x,y,z
1/2-x,1/2-y,z
x,1/2-y,1/2-z
1/2-x,y,1/2-z
-x,-y,-z
1/2+x,1/2+y,-z
-x,1/2+y,1/2+z
1/2+x,-y,1/2+z
loop_
_atom_site_type_symbol
_atom_site_label
_atom_site_fract_x
_atom_site_fract_y
_atom_site_fract_z
Si Si1 0.250000 0.250000 0.750000
Si Si2 0.503398 0.724985 0.405202
Si Si3 0.844167 0.066643 0.308899
Si Si4 0.311512 0.805306 0.555511
Si Si5 0.445208 0.250000 0.750000
Si Si6 0.063355 0.224425 0.051724
Si Si7 0.187950 0.305231 0.038486
O O1 0.297938 0.342430 0.690574
O O2 0.520223 0.797044 0.323442
O O3 0.475663 0.443078 0.411680
O O4 0.554603 0.734161 0.464414
O O5 0.459040 0.939965 0.432166
O O6 0.815644 0.250000 0.250000
O O7 0.854690 0.217714 0.382982
O O8 0.902408 0.973306 0.274415
O O9 0.250000 0.750000 0.589725
O O10 0.314155 0.596473 0.490805
O O11 0.314568 0.092032 0.526096
O O12 0.128080 0.257785 0.077016
O O13 0.250000 0.250000 0.073091
#
# Coordination Sequence:
#
# PCOD9390610 Si02
#       7
#     2   8   8   8   4   8   8
#     4  10  22  36  44  70 104 156 212 224 292 338
#     4  10  23  39  61  85 117 158 201 246 299 359
#     4  11  24  34  52  73 113 160 201 248 286 341
#     4  10  21  33  53  78 118 153 194 236 283 342
#     4  11  26  39  58  88 115 154 209 262 300 346
#     4  10  21  40  62  85 117 156 196 245 305 365
#     4  10  21  36  59  89 112 147 194 249 298 359
#
# _framework density 20.364325999999998
#
# number of rings (size 3 to 8) (size 9 to 14) (size 15 to 20)
#    0.000    1.739    0.000    3.391   13.391    1.391 
#    0.000    0.000    0.000    0.000    0.000    3.652 
#    0.000    0.000    0.000    0.000    0.000    0.000 
#
# Total GULP energy -256392.413422 kJ/mol
# GULP energy per Si atom -5573.748118 kJ/mol
# Density = 2.031798 g / cm^3
# Si number density = 20.364326 Si / 1000 Ang^3
#
#
#
# Elastic Constant Matrix: (Units=GPa)
#
#
# Indices 1 2 3 4 5 6 
#
# 1 84.7811 -6.9693 4.1708 0.0000 0.0000 0.0000
# 2 -6.9693 54.1735 -10.4419 0.0000 0.0000 0.0000
# 3 4.1708 -10.4419 49.5273 0.0000 0.0000 0.0000
# 4 0.0000 0.0000 0.0000 13.3468 0.0000 0.0000
# 5 0.0000 0.0000 0.0000 0.0000 13.9266 0.0000
# 6 0.0000 0.0000 0.0000 0.0000 0.0000 146.3937
#
#
#
# Elastic Compliance Matrix: (Units=1/GPa)
#
#
# Indices 1 2 3 4 5 6 
#
# 1 0.011945 0.001400 -0.000711 0.000000 0.000000 0.000000
# 2 0.001400 0.019405 0.003973 0.000000 0.000000 0.000000
# 3 -0.000711 0.003973 0.021088 0.000000 0.000000 0.000000
# 4 0.000000 0.000000 0.000000 0.074924 0.000000 0.000000
# 5 0.000000 0.000000 0.000000 0.000000 0.071805 0.000000
# 6 0.000000 0.000000 0.000000 0.000000 0.000000 0.006831
#
#
# Mechanical properties :
#
#
# Convention : Reuss Voigt Hill
#
# Bulk Modulus (GPa) = 16.19089 18.00011 17.09550
# Shear Modulus (GPa) = 23.01367 48.18157 35.59762
#
# Velocity S-wave (km/s) = 3.36534 4.86941 4.18549
# Velocity P-wave (km/s) = 4.80297 6.36185 5.63656
#
# Compressibility (1/GPa) = 0.06176314
#
# Stress axis : x y z
#
# Youngs Moduli (GPa) = 83.71628 51.53274 47.41933
#
# Poissons Ratio (x) = -0.07213 0.03371
# Poissons Ratio (y) = -0.11718 -0.18841
# Poissons Ratio (z) = 0.05951 -0.20476
#
# Static dielectric constant tensor:
#      x y z
#    x 1.808480 0.000000 0.000000 
#    y 0.000000 1.607310 0.000000 
#    z 0.000000 0.000000 1.669810 
# 
# From -- ./inp_files/32322.got.cif
#   From: 2010.05.17/outbox.cif.g08.bks.cpg/sg48_17_cif.got.tgz:32322.got - 2010.06.03 20:39:00.
