data_PCOD9390206
_publ_section_title
;
Structure prediction by ZEFSAII (Michael W. Deem and Ramdas Pophale) SiO2 
 PCOD9390206
Probable space group: P N N N
;
_chemical_formula_sum "Si O2"
_cell_formula_units_Z 54
_cell_length_a 12.217205
_cell_length_b 20.176772
_cell_length_c 12.283724
_cell_angle_alpha 90.000000
_cell_angle_beta 90.000000
_cell_angle_gamma 90.000000
_cell_volume 3027.984150
_symmetry_space_group_name_H-M "P N N N"
_symmetry_group_IT_number 48
_space_group.IT_coordinate_system_code '2'
_symmetry_cell_setting 'orthorhombic'
loop_
_space_group_symop_operation_xyz
x,y,z
1/2-x,1/2-y,z
x,1/2-y,1/2-z
1/2-x,y,1/2-z
-x,-y,-z
1/2+x,1/2+y,-z
-x,1/2+y,1/2+z
1/2+x,-y,1/2+z
loop_
_atom_site_type_symbol
_atom_site_label
_atom_site_fract_x
_atom_site_fract_y
_atom_site_fract_z
Si Si1 0.132762 0.652164 0.492982
Si Si2 0.543067 0.067933 0.309354
Si Si3 0.250000 0.022656 0.750000
Si Si4 0.839988 0.467895 0.652742
Si Si5 0.129937 0.697523 0.049004
Si Si6 0.010449 0.594202 0.924979
Si Si7 0.750000 0.250000 0.750000
Si Si8 0.819194 0.975105 0.476010
O O1 0.069439 0.613492 0.587338
O O2 0.123903 0.605799 0.385566
O O3 0.095154 0.727930 0.480628
O O4 0.263112 0.666506 0.513151
O O5 0.526050 0.111957 0.200955
O O6 0.650322 0.023503 0.288969
O O7 0.441006 0.016876 0.320772
O O8 0.213495 0.057904 0.638677
O O9 0.750000 0.465604 0.750000
O O10 0.780934 0.495784 0.544119
O O11 0.175300 0.705615 0.171060
O O12 0.036165 0.648004 0.016288
O O13 0.096189 0.534300 0.946424
O O14 0.887744 0.570705 0.944126
#
# Coordination Sequence:
#
# PCOD9390206 Si02
#       8
#     8   8   4   8   8   8   2   8
#     4  10  21  34  56  87 118 150 198 243 301 356
#     4  11  21  36  58  87 122 152 192 253 295 364
#     4  10  20  34  52  83 117 146 182 242 300 342
#     4  12  22  36  60  91 119 156 200 248 306 363
#     4  10  21  37  56  83 120 157 192 250 298 361
#     4  10  20  37  54  81 119 154 196 234 302 362
#     4   8  20  36  52  86 116 158 196 244 296 356
#     4  10  20  35  53  84 115 151 192 241 293 357
#
# _framework density 17.833646999999999
#
# number of rings (size 3 to 8) (size 9 to 14) (size 15 to 20)
#    0.000    1.778    4.444    1.333    4.148    0.593 
#    0.000    2.963    0.000    0.889    0.000    1.037 
#    0.000    0.000    0.000    0.000    0.000    0.000 
#
# Total GULP energy -300643.975565 kJ/mol
# GULP energy per Si atom -5567.481029 kJ/mol
# Density = 1.779306 g / cm^3
# Si number density = 17.833647 Si / 1000 Ang^3
#
#
#
# Elastic Constant Matrix: (Units=GPa)
#
#
# Indices 1 2 3 4 5 6 
#
# 1 58.3081 20.8294 25.8381 0.0000 0.0000 0.0000
# 2 20.8294 60.8756 26.4770 0.0000 0.0000 0.0000
# 3 25.8381 26.4770 121.8064 0.0000 0.0000 0.0000
# 4 0.0000 0.0000 0.0000 16.3808 0.0000 0.0000
# 5 0.0000 0.0000 0.0000 0.0000 24.5531 0.0000
# 6 0.0000 0.0000 0.0000 0.0000 0.0000 18.6399
#
#
#
# Elastic Compliance Matrix: (Units=1/GPa)
#
#
# Indices 1 2 3 4 5 6 
#
# 1 0.020564 -0.005676 -0.003128 0.000000 0.000000 0.000000
# 2 -0.005676 0.019709 -0.003080 0.000000 0.000000 0.000000
# 3 -0.003128 -0.003080 0.009543 0.000000 0.000000 0.000000
# 4 0.000000 0.000000 0.000000 0.061047 0.000000 0.000000
# 5 0.000000 0.000000 0.000000 0.000000 0.040728 0.000000
# 6 0.000000 0.000000 0.000000 0.000000 0.000000 0.053648
#
#
# Mechanical properties :
#
#
# Convention : Reuss Voigt Hill
#
# Bulk Modulus (GPa) = 38.39176 43.03099 40.71137
# Shear Modulus (GPa) = 21.03582 23.10447 22.07014
#
# Velocity S-wave (km/s) = 3.43820 3.60329 3.52171
# Velocity P-wave (km/s) = 6.11032 6.44151 6.27810
#
# Compressibility (1/GPa) = 0.02604726
#
# Stress axis : x y z
#
# Youngs Moduli (GPa) = 48.62847 50.73936 104.79014
#
# Poissons Ratio (x) = 0.28798 0.32783
# Poissons Ratio (y) = 0.27600 0.32276
# Poissons Ratio (z) = 0.15213 0.15628
#
# Static dielectric constant tensor:
#      x y z
#    x 1.605680 0.000000 0.000000 
#    y 0.000000 1.613030 0.000000 
#    z 0.000000 0.000000 1.661000 
# 
# From -- ./inp_files/20296.got.cif
#   From: 2010.05.17/outbox.cif.g08.bks.cpg/sg48_11_cif.got.tgz:20296.got - 2010.06.03 20:39:00.
