data_PCOD9390652
_publ_section_title
;
Structure prediction by ZEFSAII (Michael W. Deem and Ramdas Pophale) SiO2 
 PCOD9390652
Probable space group: P N N N
;
_chemical_formula_sum "Si O2"
_cell_formula_units_Z 58
_cell_length_a 19.083644
_cell_length_b 8.678512
_cell_length_c 18.229246
_cell_angle_alpha 90.000000
_cell_angle_beta 90.000000
_cell_angle_gamma 90.000000
_cell_volume 3019.084582
_symmetry_space_group_name_H-M "P N N N"
_symmetry_group_IT_number 48
_space_group.IT_coordinate_system_code '2'
_symmetry_cell_setting 'orthorhombic'
loop_
_space_group_symop_operation_xyz
x,y,z
1/2-x,1/2-y,z
x,1/2-y,1/2-z
1/2-x,y,1/2-z
-x,-y,-z
1/2+x,1/2+y,-z
-x,1/2+y,1/2+z
1/2+x,-y,1/2+z
loop_
_atom_site_type_symbol
_atom_site_label
_atom_site_fract_x
_atom_site_fract_y
_atom_site_fract_z
Si Si1 0.947829 0.160066 0.674794
Si Si2 0.250000 0.750000 0.750000
Si Si3 0.309790 0.466887 0.692623
Si Si4 0.449531 0.171654 0.563463
Si Si5 0.188805 0.140003 0.528624
Si Si6 0.174997 0.820378 0.443221
Si Si7 0.548764 0.393042 0.306266
Si Si8 0.072467 0.825093 0.943908
O O1 0.935745 0.250000 0.750000
O O2 0.878992 0.164843 0.624045
O O3 0.009006 0.246707 0.629080
O O4 0.976617 0.987935 0.689394
O O5 0.295927 0.649206 0.696583
O O6 0.250000 0.411768 0.750000
O O7 0.295079 0.403966 0.613039
O O8 0.392021 0.475131 0.711965
O O9 0.383707 0.268679 0.535614
O O10 0.504597 0.171361 0.496500
O O11 0.424940 0.999721 0.586323
O O12 0.250000 0.250000 0.500275
O O13 0.182845 0.987035 0.480819
O O14 0.250000 0.750000 0.422800
O O15 0.138489 0.711596 0.504517
O O16 0.547515 0.250000 0.250000
O O17 0.564457 0.310332 0.384309
#
# Coordination Sequence:
#
# PCOD9390652 Si02
#       8
#     8   2   8   8   8   8   8   8
#     4  11  24  42  65  92 122 159 216 278 332 381
#     4   8  20  36  50  80 124 176 208 230 292 356
#     4  10  21  36  52  83 130 170 210 248 293 375
#     4  10  21  40  61  93 124 159 205 262 307 379
#     4  12  24  38  60  93 129 172 210 264 313 386
#     4  11  24  42  67  89 119 166 215 274 332 391
#     4  12  21  38  62  92 126 175 211 255 313 394
#     4  10  21  39  65  89 123 161 209 253 313 379
#
# _framework density 19.211119
#
# number of rings (size 3 to 8) (size 9 to 14) (size 15 to 20)
#    0.414    0.828    3.448    2.483    0.966    7.172 
#    0.000    1.379    0.000    0.000    0.000    0.000 
#    0.000    0.000    0.000    0.000    0.000    0.000 
#
# Total GULP energy -323609.012626 kJ/mol
# GULP energy per Si atom -5579.465735 kJ/mol
# Density = 1.916739 g / cm^3
# Si number density = 19.211119 Si / 1000 Ang^3
#
#
#
# Elastic Constant Matrix: (Units=GPa)
#
#
# Indices 1 2 3 4 5 6 
#
# 1 138.5024 60.0292 47.7563 0.0000 0.0000 0.0000
# 2 60.0292 107.3460 39.3405 0.0000 0.0000 0.0000
# 3 47.7563 39.3405 85.2233 0.0000 0.0000 0.0000
# 4 0.0000 0.0000 0.0000 23.6334 0.0000 0.0000
# 5 0.0000 0.0000 0.0000 0.0000 13.9143 0.0000
# 6 0.0000 0.0000 0.0000 0.0000 0.0000 33.6416
#
#
#
# Elastic Compliance Matrix: (Units=1/GPa)
#
#
# Indices 1 2 3 4 5 6 
#
# 1 0.010464 -0.004457 -0.003807 0.000000 0.000000 0.000000
# 2 -0.004457 0.013111 -0.003555 0.000000 0.000000 0.000000
# 3 -0.003807 -0.003555 0.015508 0.000000 0.000000 0.000000
# 4 0.000000 0.000000 0.000000 0.042313 0.000000 0.000000
# 5 0.000000 0.000000 0.000000 0.000000 0.071869 0.000000
# 6 0.000000 0.000000 0.000000 0.000000 0.000000 0.029725
#
#
# Mechanical properties :
#
#
# Convention : Reuss Voigt Hill
#
# Bulk Modulus (GPa) = 64.73809 69.48043 67.10926
# Shear Modulus (GPa) = 23.61004 26.50089 25.05546
#
# Velocity S-wave (km/s) = 3.50948 3.71813 3.61531
# Velocity P-wave (km/s) = 7.08473 7.39446 7.24125
#
# Compressibility (1/GPa) = 0.01544686
#
# Stress axis : x y z
#
# Youngs Moduli (GPa) = 95.56396 76.27383 64.48352
#
# Poissons Ratio (x) = 0.33993 0.24546
# Poissons Ratio (y) = 0.42590 0.22922
# Poissons Ratio (z) = 0.36376 0.27113
#
# Static dielectric constant tensor:
#      x y z
#    x 1.730950 0.000000 0.000000 
#    y 0.000000 1.697810 0.000000 
#    z 0.000000 0.000000 1.649360 
# 
# From -- ./inp_files/32010.got.cif
#   From: 2010.05.17/outbox.cif.g08.bks.cpg/sg48_17_cif.got.tgz:32010.got - 2010.06.03 20:39:00.
