data_PCOD9390029
_publ_section_title
;
Structure prediction by ZEFSAII (Michael W. Deem and Ramdas Pophale) SiO2 
 PCOD9390029
Probable space group: P N N N
;
_chemical_formula_sum "Si O2"
_cell_formula_units_Z 48
_cell_length_a 16.987906
_cell_length_b 19.570299
_cell_length_c 7.538594
_cell_angle_alpha 90.000000
_cell_angle_beta 90.000000
_cell_angle_gamma 90.000000
_cell_volume 2506.268898
_symmetry_space_group_name_H-M "P N N N"
_symmetry_group_IT_number 48
_space_group.IT_coordinate_system_code '2'
_symmetry_cell_setting 'orthorhombic'
loop_
_space_group_symop_operation_xyz
x,y,z
1/2-x,1/2-y,z
x,1/2-y,1/2-z
1/2-x,y,1/2-z
-x,-y,-z
1/2+x,1/2+y,-z
-x,1/2+y,1/2+z
1/2+x,-y,1/2+z
loop_
_atom_site_type_symbol
_atom_site_label
_atom_site_fract_x
_atom_site_fract_y
_atom_site_fract_z
Si Si1 0.711182 0.995684 0.442149
Si Si2 0.122031 0.994085 0.447600
Si Si3 0.545895 0.927598 0.489115
Si Si4 0.517864 0.323765 0.716010
Si Si5 0.333360 0.617086 0.164286
Si Si6 0.014556 0.900427 0.641385
O O1 0.750000 0.989264 0.250000
O O2 0.789324 0.979783 0.554605
O O3 0.686001 0.074012 0.488200
O O4 0.637779 0.947656 0.487366
O O5 0.124262 0.939749 0.288598
O O6 0.091176 0.949746 0.616285
O O7 0.058849 0.052466 0.419103
O O8 0.529791 0.884172 0.313170
O O9 0.509327 0.885734 0.656218
O O10 0.500000 0.000000 0.500000
O O11 0.481042 0.250000 0.750000
O O12 0.602099 0.324305 0.820912
O O13 0.524232 0.341545 0.506422
O O14 0.250000 0.636753 0.250000
#
# Coordination Sequence:
#
# PCOD9390029 Si02
#       6
#     8   8   8   8   8   8
#     4  11  19  29  54  91 120 141 185 253 304 352
#     4   9  17  32  54  87 116 142 189 252 307 348
#     4  12  21  36  61  88 114 154 200 252 311 359
#     4  11  24  39  56  83 119 163 205 245 299 374
#     4   9  18  34  55  83 115 149 190 242 305 363
#     4  10  19  36  58  81 120 154 195 248 301 360
#
# _framework density 19.151976000000001
#
# number of rings (size 3 to 8) (size 9 to 14) (size 15 to 20)
#    0.000    1.667    3.333    4.000    0.000    1.000 
#    0.000    0.000    0.000    4.500    0.000    4.667 
#    0.000    0.000    0.000    0.000    0.000    0.000 
#
# Total GULP energy -267281.587773 kJ/mol
# GULP energy per Si atom -5568.366412 kJ/mol
# Density = 1.910839 g / cm^3
# Si number density = 19.151976 Si / 1000 Ang^3
#
#
#
# Elastic Constant Matrix: (Units=GPa)
#
#
# Indices 1 2 3 4 5 6 
#
# 1 133.3058 18.9947 12.5338 0.0000 0.0000 0.0000
# 2 18.9947 46.9059 2.9132 0.0000 0.0000 0.0000
# 3 12.5338 2.9132 86.1554 0.0000 0.0000 0.0000
# 4 0.0000 0.0000 0.0000 15.1401 0.0000 0.0000
# 5 0.0000 0.0000 0.0000 0.0000 30.7274 0.0000
# 6 0.0000 0.0000 0.0000 0.0000 0.0000 14.7035
#
#
#
# Elastic Compliance Matrix: (Units=1/GPa)
#
#
# Indices 1 2 3 4 5 6 
#
# 1 0.008057 -0.003197 -0.001064 0.000000 0.000000 0.000000
# 2 -0.003197 0.022632 -0.000300 0.000000 0.000000 0.000000
# 3 -0.001064 -0.000300 0.011772 0.000000 0.000000 0.000000
# 4 0.000000 0.000000 0.000000 0.066050 0.000000 0.000000
# 5 0.000000 0.000000 0.000000 0.000000 0.032544 0.000000
# 6 0.000000 0.000000 0.000000 0.000000 0.000000 0.068011
#
#
# Mechanical properties :
#
#
# Convention : Reuss Voigt Hill
#
# Bulk Modulus (GPa) = 29.99444 37.25005 33.62225
# Shear Modulus (GPa) = 21.80534 27.57588 24.69061
#
# Velocity S-wave (km/s) = 3.37789 3.79865 3.59443
# Velocity P-wave (km/s) = 5.55957 6.22347 5.90086
#
# Compressibility (1/GPa) = 0.03333951
#
# Stress axis : x y z
#
# Youngs Moduli (GPa) = 124.11442 44.18444 84.94818
#
# Poissons Ratio (x) = 0.14124 0.09039
# Poissons Ratio (y) = 0.39675 0.02550
# Poissons Ratio (z) = 0.13206 0.01327
#
# Static dielectric constant tensor:
#      x y z
#    x 1.746140 0.000000 0.000000 
#    y 0.000000 1.670410 0.000000 
#    z 0.000000 0.000000 1.812000 
# 
# From -- ./inp_files/14310.got.cif
#   From: 2010.05.17/outbox.cif.g08.bks.cpg/sg48_8_cif.got.tgz:14310.got - 2010.06.03 20:39:00.
