data_PCOD9390236
_publ_section_title
;
Structure prediction by ZEFSAII (Michael W. Deem and Ramdas Pophale) SiO2 
 PCOD9390236
Probable space group: P N N N
;
_chemical_formula_sum "Si O2"
_cell_formula_units_Z 40
_cell_length_a 12.427185
_cell_length_b 11.815779
_cell_length_c 11.267541
_cell_angle_alpha 90.000000
_cell_angle_beta 90.000000
_cell_angle_gamma 90.000000
_cell_volume 1654.490471
_symmetry_space_group_name_H-M "P N N N"
_symmetry_group_IT_number 48
_space_group.IT_coordinate_system_code '2'
_symmetry_cell_setting 'orthorhombic'
loop_
_space_group_symop_operation_xyz
x,y,z
1/2-x,1/2-y,z
x,1/2-y,1/2-z
1/2-x,y,1/2-z
-x,-y,-z
1/2+x,1/2+y,-z
-x,1/2+y,1/2+z
1/2+x,-y,1/2+z
loop_
_atom_site_type_symbol
_atom_site_label
_atom_site_fract_x
_atom_site_fract_y
_atom_site_fract_z
Si Si1 0.756091 0.067869 0.448187
Si Si2 0.536883 0.468985 0.135738
Si Si3 0.195360 0.372739 0.126696
Si Si4 0.596378 0.175550 0.641661
Si Si5 0.967820 0.211796 0.415175
O O1 0.665544 0.026154 0.355855
O O2 0.689069 0.136819 0.549809
O O3 0.855216 0.143949 0.402832
O O4 0.788288 0.957228 0.519425
O O5 0.468113 0.567561 0.196012
O O6 0.520928 0.334615 0.146619
O O7 0.500000 0.500000 0.000000
O O8 0.250000 0.250000 0.105685
O O9 0.250000 0.413686 0.250000
O O10 0.067938 0.359013 0.129369
O O11 0.634134 0.250000 0.750000
O O12 0.523307 0.254053 0.554852
#
# Coordination Sequence:
#
# PCOD9390236 Si02
#       5
#     8   8   8   8   8
#     4  10  20  36  61  95 131 176 229 287 347 408
#     4   8  16  35  59  87 131 178 210 270 349 408
#     4  11  23  38  59  92 130 178 230 288 348 427
#     4  10  20  34  63 101 136 178 223 287 348 412
#     4  10  20  37  60  93 133 176 227 280 352 422
#
# _framework density 24.176628999999998
#
# number of rings (size 3 to 8) (size 9 to 14) (size 15 to 20)
#    0.000    2.600    0.000    6.600    2.800    0.800 
#    0.000    0.000    0.000    5.400   15.600   44.800 
#    0.000    0.000    0.000    0.000    0.000    0.000 
#
# Total GULP energy -223366.936897 kJ/mol
# GULP energy per Si atom -5584.173422 kJ/mol
# Density = 2.412160 g / cm^3
# Si number density = 24.176629 Si / 1000 Ang^3
#
#
#
# Elastic Constant Matrix: (Units=GPa)
#
#
# Indices 1 2 3 4 5 6 
#
# 1 156.0264 44.6046 29.8512 0.0000 0.0000 0.0000
# 2 44.6046 95.3687 26.7355 0.0000 0.0000 0.0000
# 3 29.8512 26.7355 66.2288 0.0000 0.0000 0.0000
# 4 0.0000 0.0000 0.0000 21.0714 0.0000 0.0000
# 5 0.0000 0.0000 0.0000 0.0000 8.8665 0.0000
# 6 0.0000 0.0000 0.0000 0.0000 0.0000 47.9968
#
#
#
# Elastic Compliance Matrix: (Units=1/GPa)
#
#
# Indices 1 2 3 4 5 6 
#
# 1 0.007690 -0.002960 -0.002271 0.000000 0.000000 0.000000
# 2 -0.002960 0.012963 -0.003899 0.000000 0.000000 0.000000
# 3 -0.002271 -0.003899 0.017697 0.000000 0.000000 0.000000
# 4 0.000000 0.000000 0.000000 0.047458 0.000000 0.000000
# 5 0.000000 0.000000 0.000000 0.000000 0.112784 0.000000
# 6 0.000000 0.000000 0.000000 0.000000 0.000000 0.020835
#
#
# Mechanical properties :
#
#
# Convention : Reuss Voigt Hill
#
# Bulk Modulus (GPa) = 49.77658 57.77850 53.77754
# Shear Modulus (GPa) = 20.45974 30.01578 25.23776
#
# Velocity S-wave (km/s) = 2.91221 3.52734 3.23444
# Velocity P-wave (km/s) = 5.65167 6.36710 6.02002
#
# Compressibility (1/GPa) = 0.02008977
#
# Stress axis : x y z
#
# Youngs Moduli (GPa) = 130.04116 77.14273 56.50752
#
# Poissons Ratio (x) = 0.22834 0.12834
# Poissons Ratio (y) = 0.38491 0.22031
# Poissons Ratio (z) = 0.29535 0.30077
#
# Static dielectric constant tensor:
#      x y z
#    x 2.015140 0.000000 0.000000 
#    y 0.000000 1.985770 0.000000 
#    z 0.000000 0.000000 2.088530 
# 
# From -- ./inp_files/26272.got.cif
#   From: 2010.05.17/outbox.cif.g08.bks.cpg/sg48_14_cif.got.tgz:26272.got - 2010.06.03 20:39:00.
