data_PCOD9390961
_publ_section_title
;
Structure prediction by ZEFSAII (Michael W. Deem and Ramdas Pophale) SiO2 
 PCOD9390961
Probable space group: P N N N
;
_chemical_formula_sum "Si O2"
_cell_formula_units_Z 36
_cell_length_a 9.598985
_cell_length_b 6.994407
_cell_length_c 21.241976
_cell_angle_alpha 90.000000
_cell_angle_beta 90.000000
_cell_angle_gamma 90.000000
_cell_volume 1426.169442
_symmetry_space_group_name_H-M "P N N N"
_symmetry_group_IT_number 48
_space_group.IT_coordinate_system_code '2'
_symmetry_cell_setting 'orthorhombic'
loop_
_space_group_symop_operation_xyz
x,y,z
1/2-x,1/2-y,z
x,1/2-y,1/2-z
1/2-x,y,1/2-z
-x,-y,-z
1/2+x,1/2+y,-z
-x,1/2+y,1/2+z
1/2+x,-y,1/2+z
loop_
_atom_site_type_symbol
_atom_site_label
_atom_site_fract_x
_atom_site_fract_y
_atom_site_fract_z
Si Si1 0.250000 0.250000 0.469792
Si Si2 0.202033 0.945557 0.373382
Si Si3 0.930310 0.990079 0.311275
Si Si4 0.988284 0.561670 0.679342
Si Si5 0.702871 0.468434 0.080790
O O1 0.335646 0.385673 0.422019
O O2 0.194414 0.406385 0.518482
O O3 0.250000 0.750000 0.406103
O O4 0.324093 0.021446 0.326773
O O5 0.067518 0.884527 0.334593
O O6 0.974655 0.214249 0.314145
O O7 0.924519 0.962035 0.235989
O O8 0.810088 0.964042 0.363220
O O9 0.053045 0.513318 0.612356
O O10 0.750000 0.250000 0.068281
#
# Coordination Sequence:
#
# PCOD9390961 Si02
#       5
#     4   8   8   8   8
#     4  12  26  48  66  94 144 184 224 268 330 408
#     4  12  26  44  66 101 134 182 228 274 332 394
#     4  10  21  44  73 102 136 172 222 283 341 393
#     4  10  21  44  73 102 136 172 222 283 341 393
#     4  10  24  45  69 103 132 178 223 273 338 400
#
# _framework density 25.242443999999999
#
# number of rings (size 3 to 8) (size 9 to 14) (size 15 to 20)
#    0.000    1.333    2.222    2.000    3.111    8.000 
#    0.000    1.111    0.000    0.000    0.000    0.000 
#    0.000    0.000    0.000    0.000    0.000    0.000 
#
# Total GULP energy -201019.584642 kJ/mol
# GULP energy per Si atom -5583.877351 kJ/mol
# Density = 2.518499 g / cm^3
# Si number density = 25.242444 Si / 1000 Ang^3
#
#
#
# Elastic Constant Matrix: (Units=GPa)
#
#
# Indices 1 2 3 4 5 6 
#
# 1 52.3455 -3.1129 -4.1681 0.0000 0.0000 0.0000
# 2 -3.1129 116.3198 29.7629 0.0000 0.0000 0.0000
# 3 -4.1681 29.7629 132.1262 0.0000 0.0000 0.0000
# 4 0.0000 0.0000 0.0000 4.1557 0.0000 0.0000
# 5 0.0000 0.0000 0.0000 0.0000 21.3147 0.0000
# 6 0.0000 0.0000 0.0000 0.0000 0.0000 10.0383
#
#
#
# Elastic Compliance Matrix: (Units=1/GPa)
#
#
# Indices 1 2 3 4 5 6 
#
# 1 0.019168 0.000380 0.000519 0.000000 0.000000 0.000000
# 2 0.000380 0.009130 -0.002045 0.000000 0.000000 0.000000
# 3 0.000519 -0.002045 0.008045 0.000000 0.000000 0.000000
# 4 0.000000 0.000000 0.000000 0.240633 0.000000 0.000000
# 5 0.000000 0.000000 0.000000 0.000000 0.046916 0.000000
# 6 0.000000 0.000000 0.000000 0.000000 0.000000 0.099618
#
#
# Mechanical properties :
#
#
# Convention : Reuss Voigt Hill
#
# Bulk Modulus (GPa) = 29.36638 38.41726 33.89182
# Shear Modulus (GPa) = 11.43765 25.65572 18.54669
#
# Velocity S-wave (km/s) = 2.13095 3.19152 2.71355
# Velocity P-wave (km/s) = 4.20875 5.36967 4.82426
#
# Compressibility (1/GPa) = 0.03405255
#
# Stress axis : x y z
#
# Youngs Moduli (GPa) = 52.17092 109.52480 124.29319
#
# Poissons Ratio (x) = -0.04164 -0.06451
# Poissons Ratio (y) = -0.01983 0.25415
# Poissons Ratio (z) = -0.02708 0.22395
#
# Static dielectric constant tensor:
#      x y z
#    x 1.990570 0.000000 0.000000 
#    y 0.000000 2.201310 0.000000 
#    z 0.000000 0.000000 1.940670 
# 
# From -- ./inp_files/33232.got.cif
#   From: 2010.05.17/outbox.cif.g08.bks.cpg/sg48_17_cif.got.tgz:33232.got - 2010.06.03 20:39:00.
