data_PCOD9390788
_publ_section_title
;
Structure prediction by ZEFSAII (Michael W. Deem and Ramdas Pophale) SiO2 
 PCOD9390788
Probable space group: P N N N
;
_chemical_formula_sum "Si O2"
_cell_formula_units_Z 40
_cell_length_a 11.753989
_cell_length_b 30.367860
_cell_length_c 5.348555
_cell_angle_alpha 90.000000
_cell_angle_beta 90.000000
_cell_angle_gamma 90.000000
_cell_volume 1909.131901
_symmetry_space_group_name_H-M "P N N N"
_symmetry_group_IT_number 48
_space_group.IT_coordinate_system_code '2'
_symmetry_cell_setting 'orthorhombic'
loop_
_space_group_symop_operation_xyz
x,y,z
1/2-x,1/2-y,z
x,1/2-y,1/2-z
1/2-x,y,1/2-z
-x,-y,-z
1/2+x,1/2+y,-z
-x,1/2+y,1/2+z
1/2+x,-y,1/2+z
loop_
_atom_site_type_symbol
_atom_site_label
_atom_site_fract_x
_atom_site_fract_y
_atom_site_fract_z
Si Si1 0.122468 0.593700 0.255855
Si Si2 0.405428 0.535551 0.735783
Si Si3 0.145716 0.463158 0.408119
Si Si4 0.624699 0.630816 0.119659
Si Si5 0.619517 0.731035 0.996918
O O1 0.250000 0.615766 0.250000
O O2 0.116246 0.566875 0.519104
O O3 0.999616 0.620192 0.247691
O O4 0.125053 0.561450 0.014211
O O5 0.538263 0.526313 0.739803
O O6 0.359525 0.488444 0.829504
O O7 0.250000 0.478546 0.250000
O O8 0.142086 0.411103 0.443961
O O9 0.750000 0.633195 0.250000
O O10 0.615498 0.678593 0.995522
O O11 0.750000 0.750000 0.997448
O O12 0.567288 0.750000 0.250000
O O13 0.563540 0.750000 0.750000
#
# Coordination Sequence:
#
# PCOD9390788 Si02
#       5
#     8   8   8   8   8
#     4  11  24  42  65  90 132 180 222 265 320 402
#     4  10  23  42  60  87 130 183 222 263 338 378
#     4  10  22  36  62  94 129 168 226 290 315 380
#     4  11  23  39  65 102 126 164 224 276 328 388
#     4  10  21  39  63  91 127 165 191 258 340 412
#
# _framework density 20.951930000000001
#
# number of rings (size 3 to 8) (size 9 to 14) (size 15 to 20)
#    0.000    1.600    2.000    2.400    2.800   13.600 
#    0.000    2.000    0.000    0.600    0.000    2.800 
#    0.000    0.000    0.000    0.000    0.000    0.000 
#
# Total GULP energy -222874.266487 kJ/mol
# GULP energy per Si atom -5571.856662 kJ/mol
# Density = 2.090424 g / cm^3
# Si number density = 20.951930 Si / 1000 Ang^3
#
#
#
# Elastic Constant Matrix: (Units=GPa)
#
#
# Indices 1 2 3 4 5 6 
#
# 1 183.8615 32.0841 31.6063 0.0000 0.0000 0.0000
# 2 32.0841 154.9586 52.9590 0.0000 0.0000 0.0000
# 3 31.6063 52.9590 139.9507 0.0000 0.0000 0.0000
# 4 0.0000 0.0000 0.0000 51.4859 0.0000 0.0000
# 5 0.0000 0.0000 0.0000 0.0000 22.7818 0.0000
# 6 0.0000 0.0000 0.0000 0.0000 0.0000 5.4167
#
#
#
# Elastic Compliance Matrix: (Units=1/GPa)
#
#
# Indices 1 2 3 4 5 6 
#
# 1 0.005756 -0.000859 -0.000975 0.000000 0.000000 0.000000
# 2 -0.000859 0.007540 -0.002659 0.000000 0.000000 0.000000
# 3 -0.000975 -0.002659 0.008372 0.000000 0.000000 0.000000
# 4 0.000000 0.000000 0.000000 0.019423 0.000000 0.000000
# 5 0.000000 0.000000 0.000000 0.000000 0.043895 0.000000
# 6 0.000000 0.000000 0.000000 0.000000 0.000000 0.184616
#
#
# Mechanical properties :
#
#
# Convention : Reuss Voigt Hill
#
# Bulk Modulus (GPa) = 78.85076 79.11886 78.98481
# Shear Modulus (GPa) = 17.67942 40.07830 28.87886
#
# Velocity S-wave (km/s) = 2.90799 4.37838 3.71663
# Velocity P-wave (km/s) = 6.99936 7.96269 7.49651
#
# Compressibility (1/GPa) = 0.01268219
#
# Stress axis : x y z
#
# Youngs Moduli (GPa) = 173.72197 132.62672 119.44710
#
# Poissons Ratio (x) = 0.11387 0.11647
# Poissons Ratio (y) = 0.14916 0.31765
# Poissons Ratio (z) = 0.16940 0.35270
#
# Static dielectric constant tensor:
#      x y z
#    x 1.838530 0.000000 0.000000 
#    y 0.000000 1.783960 0.000000 
#    z 0.000000 0.000000 1.811860 
# 
# From -- ./inp_files/2563.got.cif
#   From: 2010.05.17/outbox.cif.g08.bks.cpg/sg48_2_cif.got.tgz:2563.got - 2010.06.03 20:39:00.
