data_PCOD9390394
_publ_section_title
;
Structure prediction by ZEFSAII (Michael W. Deem and Ramdas Pophale) SiO2 
 PCOD9390394
Probable space group: P N N N
;
_chemical_formula_sum "Si O2"
_cell_formula_units_Z 46
_cell_length_a 22.393887
_cell_length_b 5.993842
_cell_length_c 17.360543
_cell_angle_alpha 90.000000
_cell_angle_beta 90.000000
_cell_angle_gamma 90.000000
_cell_volume 2330.226183
_symmetry_space_group_name_H-M "P N N N"
_symmetry_group_IT_number 48
_space_group.IT_coordinate_system_code '2'
_symmetry_cell_setting 'orthorhombic'
loop_
_space_group_symop_operation_xyz
x,y,z
1/2-x,1/2-y,z
x,1/2-y,1/2-z
1/2-x,y,1/2-z
-x,-y,-z
1/2+x,1/2+y,-z
-x,1/2+y,1/2+z
1/2+x,-y,1/2+z
loop_
_atom_site_type_symbol
_atom_site_label
_atom_site_fract_x
_atom_site_fract_y
_atom_site_fract_z
Si Si1 0.994149 0.750000 0.750000
Si Si2 0.964286 0.786574 0.029042
Si Si3 0.270590 0.993997 0.661504
Si Si4 0.406416 0.071854 0.681114
Si Si5 0.432379 0.491539 0.392107
Si Si6 0.189004 0.636459 0.167261
Si Si7 0.250000 0.250000 0.250000
O O1 0.039160 0.593270 0.701615
O O2 0.954592 0.892372 0.689787
O O3 0.920505 0.822141 0.099430
O O4 0.014962 0.632737 0.068519
O O5 0.927287 0.700692 0.955735
O O6 0.000000 0.000000 0.000000
O O7 0.250000 0.750000 0.626835
O O8 0.250000 0.996732 0.750000
O O9 0.250000 0.250000 0.632162
O O10 0.341751 0.969173 0.668888
O O11 0.403318 0.250000 0.750000
O O12 0.371006 0.625845 0.381487
O O13 0.250000 0.750000 0.135643
O O14 0.176108 0.750000 0.250000
O O15 0.208553 0.391782 0.193696
#
# Coordination Sequence:
#
# PCOD9390394 Si02
#       7
#     4   8   8   8   8   8   2
#     4  12  23  36  69 101 118 165 226 272 332 406
#     4  11  25  43  59  91 136 174 205 271 334 389
#     4  10  20  37  62  95 132 168 221 289 336 392
#     4  12  23  40  67  95 128 171 225 268 335 414
#     4  11  24  40  64  95 130 168 217 267 336 396
#     4   9  20  36  63  94 123 160 213 271 317 387
#     4   8  16  36  60  94 120 154 204 268 330 358
#
# _framework density 19.740573999999999
#
# number of rings (size 3 to 8) (size 9 to 14) (size 15 to 20)
#    0.000    1.565    5.217    1.565    2.435    2.783 
#    0.000    0.000    5.739    1.043    0.000    0.000 
#    0.000    0.000    0.000    0.000    0.000    0.000 
#
# Total GULP energy -256120.954015 kJ/mol
# GULP energy per Si atom -5567.846826 kJ/mol
# Density = 1.969564 g / cm^3
# Si number density = 19.740574 Si / 1000 Ang^3
#
#
#
# Elastic Constant Matrix: (Units=GPa)
#
#
# Indices 1 2 3 4 5 6 
#
# 1 135.9613 20.0036 43.4643 0.0000 0.0000 0.0000
# 2 20.0036 75.2087 16.2144 0.0000 0.0000 0.0000
# 3 43.4643 16.2144 78.1773 0.0000 0.0000 0.0000
# 4 0.0000 0.0000 0.0000 71.3451 0.0000 0.0000
# 5 0.0000 0.0000 0.0000 0.0000 0.8655 0.0000
# 6 0.0000 0.0000 0.0000 0.0000 0.0000 -23.0928
#
#
#
# Elastic Compliance Matrix: (Units=1/GPa)
#
#
# Indices 1 2 3 4 5 6 
#
# 1 0.009081 -0.001389 -0.004761 0.000000 0.000000 0.000000
# 2 -0.001389 0.014131 -0.002159 0.000000 0.000000 0.000000
# 3 -0.004761 -0.002159 0.015886 0.000000 0.000000 0.000000
# 4 0.000000 0.000000 0.000000 0.014016 0.000000 0.000000
# 5 0.000000 0.000000 0.000000 0.000000 1.155414 0.000000
# 6 0.000000 0.000000 0.000000 0.000000 0.000000 -0.043304
#
#
# Mechanical properties :
#
#
# Convention : Reuss Voigt Hill
#
# Bulk Modulus (GPa) = 44.48095 49.85689 47.16892
# Shear Modulus (GPa) = 4.20403 23.80123 14.00263
#
# Velocity S-wave (km/s) = 1.46091 3.47609 2.66622
# Velocity P-wave (km/s) = 5.04255 6.43598 5.78140
#
# Compressibility (1/GPa) = 0.02248153
#
# Stress axis : x y z
#
# Youngs Moduli (GPa) = 110.11569 70.76562 62.94822
#
# Poissons Ratio (x) = 0.09829 0.29969
# Poissons Ratio (y) = 0.15295 0.13588
# Poissons Ratio (z) = 0.52425 0.15276
#
# Static dielectric constant tensor:
#      x y z
#    x 1.648450 0.000000 0.000000 
#    y 0.000000 1.600660 0.000000 
#    z 0.000000 0.000000 1.704050 
# 
# From -- ./inp_files/32317.got.cif
#   From: 2010.05.17/outbox.cif.g08.bks.cpg/sg48_17_cif.got.tgz:32317.got - 2010.06.03 20:39:00.
