data_PCOD9390390
_publ_section_title
;
Structure prediction by ZEFSAII (Michael W. Deem and Ramdas Pophale) SiO2 
 PCOD9390390
Probable space group: P N N N
;
_chemical_formula_sum "Si O2"
_cell_formula_units_Z 40
_cell_length_a 13.075439
_cell_length_b 16.632020
_cell_length_c 8.522155
_cell_angle_alpha 90.000000
_cell_angle_beta 90.000000
_cell_angle_gamma 90.000000
_cell_volume 1853.321254
_symmetry_space_group_name_H-M "P N N N"
_symmetry_group_IT_number 48
_space_group.IT_coordinate_system_code '2'
_symmetry_cell_setting 'orthorhombic'
loop_
_space_group_symop_operation_xyz
x,y,z
1/2-x,1/2-y,z
x,1/2-y,1/2-z
1/2-x,y,1/2-z
-x,-y,-z
1/2+x,1/2+y,-z
-x,1/2+y,1/2+z
1/2+x,-y,1/2+z
loop_
_atom_site_type_symbol
_atom_site_label
_atom_site_fract_x
_atom_site_fract_y
_atom_site_fract_z
Si Si1 0.637064 0.976449 0.416624
Si Si2 0.355541 0.283106 0.925863
Si Si3 0.516818 0.190979 0.129725
Si Si4 0.867504 0.464902 0.074840
Si Si5 0.373872 0.056064 0.245173
O O1 0.648889 0.879528 0.417192
O O2 0.594460 0.989425 0.593586
O O3 0.595945 0.001810 0.245102
O O4 0.745741 0.022247 0.421825
O O5 0.250000 0.250000 0.000980
O O6 0.356905 0.250000 0.750000
O O7 0.453571 0.243824 0.007321
O O8 0.572253 0.250000 0.250000
O O9 0.593480 0.125721 0.060259
O O10 0.432042 0.140517 0.228976
O O11 0.899216 0.512905 0.919185
O O12 0.250000 0.065674 0.250000
#
# Coordination Sequence:
#
# PCOD9390390 Si02
#       5
#     8   8   8   8   8
#     4  10  20  41  64  87 121 173 217 252 310 392
#     4  11  21  37  62  93 129 165 206 262 323 373
#     4  12  24  38  58  96 133 161 205 271 323 365
#     4  10  22  40  62  93 124 168 215 256 313 382
#     4  10  20  37  62  90 122 166 213 256 316 383
#
# _framework density 21.582875000000001
#
# number of rings (size 3 to 8) (size 9 to 14) (size 15 to 20)
#    0.000    1.400    2.000    6.600    0.000    0.800 
#    3.600    2.000    0.000    0.000    0.000    0.000 
#    0.000    0.000    0.000    0.000    0.000    0.000 
#
# Total GULP energy -223264.221358 kJ/mol
# GULP energy per Si atom -5581.605534 kJ/mol
# Density = 2.153375 g / cm^3
# Si number density = 21.582875 Si / 1000 Ang^3
#
#
#
# Elastic Constant Matrix: (Units=GPa)
#
#
# Indices 1 2 3 4 5 6 
#
# 1 68.0902 37.1873 36.4043 0.0000 0.0000 0.0000
# 2 37.1873 115.9864 20.4886 0.0000 0.0000 0.0000
# 3 36.4043 20.4886 150.7130 0.0000 0.0000 0.0000
# 4 0.0000 0.0000 0.0000 34.1680 0.0000 0.0000
# 5 0.0000 0.0000 0.0000 0.0000 39.8485 0.0000
# 6 0.0000 0.0000 0.0000 0.0000 0.0000 30.7320
#
#
#
# Elastic Compliance Matrix: (Units=1/GPa)
#
#
# Indices 1 2 3 4 5 6 
#
# 1 0.019954 -0.005683 -0.004047 0.000000 0.000000 0.000000
# 2 -0.005683 0.010452 -0.000048 0.000000 0.000000 0.000000
# 3 -0.004047 -0.000048 0.007619 0.000000 0.000000 0.000000
# 4 0.000000 0.000000 0.000000 0.029267 0.000000 0.000000
# 5 0.000000 0.000000 0.000000 0.000000 0.025095 0.000000
# 6 0.000000 0.000000 0.000000 0.000000 0.000000 0.032539
#
#
# Mechanical properties :
#
#
# Convention : Reuss Voigt Hill
#
# Bulk Modulus (GPa) = 54.14495 58.10554 56.12524
# Shear Modulus (GPa) = 33.19182 36.99699 35.09441
#
# Velocity S-wave (km/s) = 3.92583 4.14476 4.03678
# Velocity P-wave (km/s) = 6.75951 7.06299 6.91292
#
# Compressibility (1/GPa) = 0.01846894
#
# Stress axis : x y z
#
# Youngs Moduli (GPa) = 50.11575 95.67381 131.24569
#
# Poissons Ratio (x) = 0.54368 0.53119
# Poissons Ratio (y) = 0.28479 0.00634
# Poissons Ratio (z) = 0.20283 0.00462
#
# Static dielectric constant tensor:
#      x y z
#    x 1.892230 0.000000 0.000000 
#    y 0.000000 1.736660 0.000000 
#    z 0.000000 0.000000 1.812590 
# 
# From -- ./inp_files/12318.got.cif
#   From: 2010.05.17/outbox.cif.g08.bks.cpg/sg48_7_cif.got.tgz:12318.got - 2010.06.03 20:39:00.
