data_PCOD9390484
_publ_section_title
;
Structure prediction by ZEFSAII (Michael W. Deem and Ramdas Pophale) SiO2 
 PCOD9390484
Probable space group: P N N N
;
_chemical_formula_sum "Si O2"
_cell_formula_units_Z 34
_cell_length_a 14.380499
_cell_length_b 9.578113
_cell_length_c 10.086181
_cell_angle_alpha 90.000000
_cell_angle_beta 90.000000
_cell_angle_gamma 90.000000
_cell_volume 1389.250847
_symmetry_space_group_name_H-M "P N N N"
_symmetry_group_IT_number 48
_space_group.IT_coordinate_system_code '2'
_symmetry_cell_setting 'orthorhombic'
loop_
_space_group_symop_operation_xyz
x,y,z
1/2-x,1/2-y,z
x,1/2-y,1/2-z
1/2-x,y,1/2-z
-x,-y,-z
1/2+x,1/2+y,-z
-x,1/2+y,1/2+z
1/2+x,-y,1/2+z
loop_
_atom_site_type_symbol
_atom_site_label
_atom_site_fract_x
_atom_site_fract_y
_atom_site_fract_z
Si Si1 0.398527 0.076384 0.008001
Si Si2 0.052072 0.250000 0.250000
Si Si3 0.594623 0.446616 0.116403
Si Si4 0.904112 0.750000 0.250000
Si Si5 0.250000 0.750000 0.750000
Si Si6 0.232510 0.914222 0.099725
O O1 0.394040 0.154925 0.147385
O O2 0.316670 0.966538 0.009373
O O3 0.374138 0.180078 0.888401
O O4 0.500000 0.000000 0.000000
O O5 0.989003 0.156407 0.151764
O O6 0.569360 0.596292 0.182149
O O7 0.680374 0.359096 0.179195
O O8 0.633795 0.455866 0.965651
O O9 0.250000 0.750000 0.103664
O O10 0.250000 0.962920 0.250000
#
# Coordination Sequence:
#
# PCOD9390484 Si02
#       6
#     8   4   8   4   2   8
#     4  12  27  50  73 119 154 197 257 321 387 460
#     4  11  26  49  81 110 159 204 250 323 393 452
#     4  11  23  46  73 111 144 207 255 307 382 459
#     4  12  28  45  76 110 153 194 258 318 373 460
#     4  10  20  38  74  96 146 190 258 308 360 458
#     4  11  26  48  76 107 149 206 257 315 381 466
#
# _framework density 24.47362
#
# number of rings (size 3 to 8) (size 9 to 14) (size 15 to 20)
#    0.000    0.706    3.529    2.824    3.294    8.941 
#    0.000    0.000    0.000    0.000    0.000    0.000 
#    0.000    0.000    0.000    0.000    0.000    0.000 
#
# Total GULP energy -189363.125669 kJ/mol
# GULP energy per Si atom -5569.503696 kJ/mol
# Density = 2.441792 g / cm^3
# Si number density = 24.473620 Si / 1000 Ang^3
#
#
#
# Elastic Constant Matrix: (Units=GPa)
#
#
# Indices 1 2 3 4 5 6 
#
# 1 79.5903 50.6140 37.7376 0.0000 0.0000 0.0000
# 2 50.6140 137.0891 17.8766 0.0000 0.0000 0.0000
# 3 37.7376 17.8766 134.4447 0.0000 0.0000 0.0000
# 4 0.0000 0.0000 0.0000 42.2681 0.0000 0.0000
# 5 0.0000 0.0000 0.0000 0.0000 34.2015 0.0000
# 6 0.0000 0.0000 0.0000 0.0000 0.0000 22.5242
#
#
#
# Elastic Compliance Matrix: (Units=1/GPa)
#
#
# Indices 1 2 3 4 5 6 
#
# 1 0.018669 -0.006319 -0.004400 0.000000 0.000000 0.000000
# 2 -0.006319 0.009562 0.000502 0.000000 0.000000 0.000000
# 3 -0.004400 0.000502 0.008606 0.000000 0.000000 0.000000
# 4 0.000000 0.000000 0.000000 0.023659 0.000000 0.000000
# 5 0.000000 0.000000 0.000000 0.000000 0.029238 0.000000
# 6 0.000000 0.000000 0.000000 0.000000 0.000000 0.044397
#
#
# Mechanical properties :
#
#
# Convention : Reuss Voigt Hill
#
# Bulk Modulus (GPa) = 60.96124 62.62006 61.79065
# Shear Modulus (GPa) = 31.24367 36.12515 33.68441
#
# Velocity S-wave (km/s) = 3.57687 3.84615 3.71395
# Velocity P-wave (km/s) = 6.48241 6.73544 6.61014
#
# Compressibility (1/GPa) = 0.01640387
#
# Stress axis : x y z
#
# Youngs Moduli (GPa) = 53.56458 104.58049 116.19417
#
# Poissons Ratio (x) = 0.66084 0.51126
# Poissons Ratio (y) = 0.33847 -0.05836
# Poissons Ratio (z) = 0.23569 -0.05253
#
# Static dielectric constant tensor:
#      x y z
#    x 2.050210 0.000000 0.000000 
#    y 0.000000 1.482840 0.000000 
#    z 0.000000 0.000000 2.038550 
# 
# From -- ./inp_files/21877.got.cif
#   From: 2010.05.17/outbox.cif.g08.bks.cpg/sg48_11_cif.got.tgz:21877.got - 2010.06.03 20:39:00.
