data_PCOD9390963
_publ_section_title
;
Structure prediction by ZEFSAII (Michael W. Deem and Ramdas Pophale) SiO2 
 PCOD9390963
Probable space group: P N N N
;
_chemical_formula_sum "Si O2"
_cell_formula_units_Z 44
_cell_length_a 6.652335
_cell_length_b 24.496470
_cell_length_c 13.512756
_cell_angle_alpha 90.000000
_cell_angle_beta 90.000000
_cell_angle_gamma 90.000000
_cell_volume 2202.021486
_symmetry_space_group_name_H-M "P N N N"
_symmetry_group_IT_number 48
_space_group.IT_coordinate_system_code '2'
_symmetry_cell_setting 'orthorhombic'
loop_
_space_group_symop_operation_xyz
x,y,z
1/2-x,1/2-y,z
x,1/2-y,1/2-z
1/2-x,y,1/2-z
-x,-y,-z
1/2+x,1/2+y,-z
-x,1/2+y,1/2+z
1/2+x,-y,1/2+z
loop_
_atom_site_type_symbol
_atom_site_label
_atom_site_fract_x
_atom_site_fract_y
_atom_site_fract_z
Si Si1 0.250000 0.444131 0.250000
Si Si2 0.369600 0.592961 0.649988
Si Si3 0.077067 0.003228 0.886636
Si Si4 0.595113 0.701166 0.372709
Si Si5 0.750000 0.250000 0.750000
Si Si6 0.065350 0.706995 0.910694
Si Si7 0.250000 0.250000 0.250000
Si Si8 0.250000 0.099343 0.750000
O O1 0.396235 0.411932 0.323815
O O2 0.403030 0.477495 0.181712
O O3 0.250000 0.605002 0.750000
O O4 0.273886 0.536206 0.614239
O O5 0.338335 0.646583 0.586666
O O6 0.131748 0.058520 0.825929
O O7 0.000000 0.000000 0.000000
O O8 0.750000 0.750000 0.348799
O O9 0.387314 0.713965 0.319412
O O10 0.559722 0.707547 0.488724
O O11 0.655549 0.642454 0.328738
O O12 0.250000 0.750000 0.905720
O O13 0.906309 0.717088 0.821193
#
# Coordination Sequence:
#
# PCOD9390963 Si02
#       8
#     4   8   8   8   2   8   2   4
#     4  10  21  45  68  93 145 183 229 300 358 400
#     4  10  22  44  64  98 144 179 229 301 342 416
#     4  11  26  45  71 105 142 185 247 293 357 433
#     4  12  26  47  71 107 147 185 248 304 361 429
#     4  12  22  50  72  98 140 194 226 320 346 428
#     4  12  26  43  73 108 143 196 245 288 368 438
#     4  12  24  44  72 106 156 180 244 296 358 432
#     4  12  25  50  72 106 145 190 240 310 362 428
#
# _framework density 19.981639999999999
#
# number of rings (size 3 to 8) (size 9 to 14) (size 15 to 20)
#    0.000    0.727    6.364    1.909    2.545    7.273 
#    0.000    0.000    0.000    0.000    0.000    0.000 
#    0.000    0.000    0.000    0.000    0.000    0.000 
#
# Total GULP energy -245066.858228 kJ/mol
# GULP energy per Si atom -5569.701323 kJ/mol
# Density = 1.993616 g / cm^3
# Si number density = 19.981640 Si / 1000 Ang^3
#
#
#
# Elastic Constant Matrix: (Units=GPa)
#
#
# Indices 1 2 3 4 5 6 
#
# 1 96.6259 65.6059 30.3716 0.0000 0.0000 0.0000
# 2 65.6059 148.7048 43.1527 0.0000 0.0000 0.0000
# 3 30.3716 43.1527 137.6249 0.0000 0.0000 0.0000
# 4 0.0000 0.0000 0.0000 -31.9474 0.0000 0.0000
# 5 0.0000 0.0000 0.0000 0.0000 29.3849 0.0000
# 6 0.0000 0.0000 0.0000 0.0000 0.0000 11.5203
#
#
#
# Elastic Compliance Matrix: (Units=1/GPa)
#
#
# Indices 1 2 3 4 5 6 
#
# 1 0.015003 -0.006224 -0.001359 0.000000 0.000000 0.000000
# 2 -0.006224 0.009980 -0.001756 0.000000 0.000000 0.000000
# 3 -0.001359 -0.001756 0.008117 0.000000 0.000000 0.000000
# 4 0.000000 0.000000 0.000000 -0.031301 0.000000 0.000000
# 5 0.000000 0.000000 0.000000 0.000000 0.034031 0.000000
# 6 0.000000 0.000000 0.000000 0.000000 0.000000 0.086803
#
#
# Mechanical properties :
#
#
# Convention : Reuss Voigt Hill
#
# Bulk Modulus (GPa) = 69.34392 73.46843 71.40618
# Shear Modulus (GPa) = 34.21896 18.04660 26.13278
#
# Velocity S-wave (km/s) = 4.14275 3.00852 3.62033
# Velocity P-wave (km/s) = 7.59357 6.99400 7.29994
#
# Compressibility (1/GPa) = 0.01442088
#
# Stress axis : x y z
#
# Youngs Moduli (GPa) = 66.65503 100.19686 123.20463
#
# Poissons Ratio (x) = 0.62367 0.16745
# Poissons Ratio (y) = 0.41489 0.21631
# Poissons Ratio (z) = 0.09059 0.17592
#
# Static dielectric constant tensor:
#      x y z
#    x 1.626650 0.000000 0.000000 
#    y 0.000000 1.779190 0.000000 
#    z 0.000000 0.000000 1.872360 
# 
# From -- ./inp_files/24412.got.cif
#   From: 2010.05.17/outbox.cif.g08.bks.cpg/sg48_13_cif.got.tgz:24412.got - 2010.06.03 20:39:00.
