data_PCOD9390875
_publ_section_title
;
Structure prediction by ZEFSAII (Michael W. Deem and Ramdas Pophale) SiO2 
 PCOD9390875
Probable space group: P N N N
;
_chemical_formula_sum "Si O2"
_cell_formula_units_Z 58
_cell_length_a 13.788462
_cell_length_b 12.779588
_cell_length_c 16.749851
_cell_angle_alpha 90.000000
_cell_angle_beta 90.000000
_cell_angle_gamma 90.000000
_cell_volume 2951.505708
_symmetry_space_group_name_H-M "P N N N"
_symmetry_group_IT_number 48
_space_group.IT_coordinate_system_code '2'
_symmetry_cell_setting 'orthorhombic'
loop_
_space_group_symop_operation_xyz
x,y,z
1/2-x,1/2-y,z
x,1/2-y,1/2-z
1/2-x,y,1/2-z
-x,-y,-z
1/2+x,1/2+y,-z
-x,1/2+y,1/2+z
1/2+x,-y,1/2+z
loop_
_atom_site_type_symbol
_atom_site_label
_atom_site_fract_x
_atom_site_fract_y
_atom_site_fract_z
Si Si1 0.429560 0.132025 0.486622
Si Si2 0.951432 0.367366 0.785580
Si Si3 0.250000 0.250000 0.250000
Si Si4 0.458035 0.496780 0.590380
Si Si5 0.743825 0.126858 0.872704
Si Si6 0.231219 0.485952 0.989969
Si Si7 0.959869 0.446554 0.626263
Si Si8 0.615212 0.658985 0.613245
O O1 0.335541 0.068154 0.520476
O O2 0.501794 0.137896 0.561860
O O3 0.405004 0.238550 0.441082
O O4 0.473087 0.055638 0.418592
O O5 0.946143 0.250000 0.750000
O O6 0.844980 0.404155 0.815722
O O7 0.000798 0.066750 0.785649
O O8 0.012585 0.390347 0.864814
O O9 0.322001 0.313519 0.308715
O O10 0.500000 0.500000 0.500000
O O11 0.342254 0.496990 0.583080
O O12 0.516440 0.593810 0.629897
O O13 0.750000 0.250000 0.862234
O O14 0.846140 0.072296 0.856706
O O15 0.729958 0.097201 0.965225
O O16 0.182181 0.412786 0.057326
#
# Coordination Sequence:
#
# PCOD9390875 Si02
#       8
#     8   8   2   8   8   8   8   8
#     4  10  22  42  59  87 124 172 207 266 315 394
#     4  12  23  37  59  96 126 163 204 270 327 392
#     4  12  24  36  56 100 122 160 204 272 360 380
#     4  10  23  40  61  88 125 168 213 265 321 394
#     4  11  21  35  57  94 127 162 192 265 329 386
#     4  10  21  41  61  86 119 171 216 257 313 394
#     4  10  24  36  58  88 130 160 207 253 333 383
#     4  11  22  36  63  87 126 164 205 269 329 407
#
# _framework density 19.650986
#
# number of rings (size 3 to 8) (size 9 to 14) (size 15 to 20)
#    0.000    1.379    5.517    0.414    7.724    0.000 
#    0.000    0.690    0.000    0.828    0.000    0.000 
#    0.000    0.000    0.000    0.000    0.000    0.000 
#
# Total GULP energy -323142.992048 kJ/mol
# GULP energy per Si atom -5571.430897 kJ/mol
# Density = 1.960626 g / cm^3
# Si number density = 19.650986 Si / 1000 Ang^3
#
#
#
# Elastic Constant Matrix: (Units=GPa)
#
#
# Indices 1 2 3 4 5 6 
#
# 1 70.7920 10.7996 30.0333 0.0000 0.0000 0.0000
# 2 10.7996 52.1038 21.9081 0.0000 0.0000 0.0000
# 3 30.0333 21.9081 85.4334 0.0000 0.0000 0.0000
# 4 0.0000 0.0000 0.0000 25.9090 0.0000 0.0000
# 5 0.0000 0.0000 0.0000 0.0000 22.3232 0.0000
# 6 0.0000 0.0000 0.0000 0.0000 0.0000 19.6696
#
#
#
# Elastic Compliance Matrix: (Units=1/GPa)
#
#
# Indices 1 2 3 4 5 6 
#
# 1 0.016659 -0.001110 -0.005572 0.000000 0.000000 0.000000
# 2 -0.001110 0.021586 -0.005145 0.000000 0.000000 0.000000
# 3 -0.005572 -0.005145 0.014983 0.000000 0.000000 0.000000
# 4 0.000000 0.000000 0.000000 0.038597 0.000000 0.000000
# 5 0.000000 0.000000 0.000000 0.000000 0.044797 0.000000
# 6 0.000000 0.000000 0.000000 0.000000 0.000000 0.050840
#
#
# Mechanical properties :
#
#
# Convention : Reuss Voigt Hill
#
# Bulk Modulus (GPa) = 33.81335 37.09013 35.45174
# Shear Modulus (GPa) = 22.62720 23.28623 22.95672
#
# Velocity S-wave (km/s) = 3.39699 3.44610 3.42163
# Velocity P-wave (km/s) = 5.71230 5.89488 5.80431
#
# Compressibility (1/GPa) = 0.02957412
#
# Stress axis : x y z
#
# Youngs Moduli (GPa) = 60.02758 46.32644 66.74213
#
# Poissons Ratio (x) = 0.05143 0.37186
# Poissons Ratio (y) = 0.06665 0.34339
# Poissons Ratio (z) = 0.33445 0.23835
#
# Static dielectric constant tensor:
#      x y z
#    x 1.771570 0.000000 0.000000 
#    y 0.000000 1.765920 0.000000 
#    z 0.000000 0.000000 1.768300 
# 
# From -- ./inp_files/31689.got.cif
#   From: 2010.05.17/outbox.cif.g08.bks.cpg/sg48_16_cif.got.tgz:31689.got - 2010.06.03 20:39:00.
