data_PCOD9390546
_publ_section_title
;
Structure prediction by ZEFSAII (Michael W. Deem and Ramdas Pophale) SiO2 
 PCOD9390546
Probable space group: P N N N
;
_chemical_formula_sum "Si O2"
_cell_formula_units_Z 64
_cell_length_a 36.031648
_cell_length_b 11.148934
_cell_length_c 8.013324
_cell_angle_alpha 90.000000
_cell_angle_beta 90.000000
_cell_angle_gamma 90.000000
_cell_volume 3219.068167
_symmetry_space_group_name_H-M "P N N N"
_symmetry_group_IT_number 48
_space_group.IT_coordinate_system_code '2'
_symmetry_cell_setting 'orthorhombic'
loop_
_space_group_symop_operation_xyz
x,y,z
1/2-x,1/2-y,z
x,1/2-y,1/2-z
1/2-x,y,1/2-z
-x,-y,-z
1/2+x,1/2+y,-z
-x,1/2+y,1/2+z
1/2+x,-y,1/2+z
loop_
_atom_site_type_symbol
_atom_site_label
_atom_site_fract_x
_atom_site_fract_y
_atom_site_fract_z
Si Si1 0.844813 0.002400 0.975549
Si Si2 0.793491 0.392576 0.230830
Si Si3 0.836791 0.479544 0.917530
Si Si4 0.572087 0.470760 0.958808
Si Si5 0.363806 0.231554 0.950421
Si Si6 0.472754 0.757031 0.939624
Si Si7 0.911424 0.371784 0.862932
Si Si8 0.051851 0.234305 0.943031
O O1 0.832739 0.035546 0.784602
O O2 0.885895 0.055684 0.022471
O O3 0.851208 0.858712 0.974312
O O4 0.816855 0.042285 0.121535
O O5 0.799036 0.250000 0.250000
O O6 0.750000 0.419732 0.250000
O O7 0.806186 0.431035 0.045177
O O8 0.874098 0.403546 0.957853
O O9 0.843318 0.617917 0.970339
O O10 0.580299 0.479592 0.762985
O O11 0.541544 0.368261 0.982784
O O12 0.557368 0.593327 0.029258
O O13 0.358906 0.250000 0.750000
O O14 0.407833 0.211226 0.979320
O O15 0.462003 0.750000 0.750000
O O16 0.447395 0.854823 0.026907
O O17 0.516232 0.778357 0.957662
O O18 0.906345 0.250000 0.750000
O O19 0.042670 0.250000 0.750000
#
# Coordination Sequence:
#
# PCOD9390546 Si02
#       8
#     8   8   8   8   8   8   8   8
#     4  10  22  41  69  97 128 169 219 263 315 390
#     4  11  27  45  68 102 139 168 205 265 323 383
#     4  11  23  40  70  94 130 171 215 266 317 387
#     4   9  20  38  58  80 113 161 208 261 314 369
#     4  10  20  40  66  97 124 169 219 269 321 379
#     4  11  23  33  52  83 118 160 210 264 322 378
#     4   9  21  38  58  89 117 158 219 262 313 382
#     4  10  21  37  56  78 121 163 207 265 320 371
#
# _framework density 19.881530000000001
#
# number of rings (size 3 to 8) (size 9 to 14) (size 15 to 20)
#    0.000    1.875    1.250    1.875    7.000    3.500 
#    0.000    4.375    0.000    1.500    0.000    0.000 
#    0.000    0.000    0.000    0.000    0.000    0.000 
#
# Total GULP energy -357030.245174 kJ/mol
# GULP energy per Si atom -5578.597581 kJ/mol
# Density = 1.983628 g / cm^3
# Si number density = 19.881530 Si / 1000 Ang^3
#
#
#
# Elastic Constant Matrix: (Units=GPa)
#
#
# Indices 1 2 3 4 5 6 
#
# 1 88.2448 10.9347 45.3719 0.0000 0.0000 0.0000
# 2 10.9347 29.7813 17.3433 0.0000 0.0000 0.0000
# 3 45.3719 17.3433 80.8806 0.0000 0.0000 0.0000
# 4 0.0000 0.0000 0.0000 30.6419 0.0000 0.0000
# 5 0.0000 0.0000 0.0000 0.0000 46.7505 0.0000
# 6 0.0000 0.0000 0.0000 0.0000 0.0000 13.8943
#
#
#
# Elastic Compliance Matrix: (Units=1/GPa)
#
#
# Indices 1 2 3 4 5 6 
#
# 1 0.015940 -0.000737 -0.008784 0.000000 0.000000 0.000000
# 2 -0.000737 0.038404 -0.007821 0.000000 0.000000 0.000000
# 3 -0.008784 -0.007821 0.018968 0.000000 0.000000 0.000000
# 4 0.000000 0.000000 0.000000 0.032635 0.000000 0.000000
# 5 0.000000 0.000000 0.000000 0.000000 0.021390 0.000000
# 6 0.000000 0.000000 0.000000 0.000000 0.000000 0.071972
#
#
# Mechanical properties :
#
#
# Convention : Reuss Voigt Hill
#
# Bulk Modulus (GPa) = 25.88853 38.46740 32.17796
# Shear Modulus (GPa) = 20.25365 26.60778 23.43072
#
# Velocity S-wave (km/s) = 3.19520 3.66227 3.43668
# Velocity P-wave (km/s) = 5.16353 6.10518 5.65399
#
# Compressibility (1/GPa) = 0.03862715
#
# Stress axis : x y z
#
# Youngs Moduli (GPa) = 62.73665 26.03925 52.71925
#
# Poissons Ratio (x) = 0.01920 0.46307
# Poissons Ratio (y) = 0.04626 0.41233
# Poissons Ratio (z) = 0.55105 0.20366
#
# Static dielectric constant tensor:
#      x y z
#    x 1.697150 0.000000 0.000000 
#    y 0.000000 1.681080 0.000000 
#    z 0.000000 0.000000 1.691310 
# 
# From -- ./inp_files/16958.got.cif
#   From: 2010.05.17/outbox.cif.g08.bks.cpg/sg48_9_cif.got.tgz:16958.got - 2010.06.03 20:39:00.
