data_PCOD9390500
_publ_section_title
;
Structure prediction by ZEFSAII (Michael W. Deem and Ramdas Pophale) SiO2 
 PCOD9390500
Probable space group: P N N N
;
_chemical_formula_sum "Si O2"
_cell_formula_units_Z 56
_cell_length_a 9.332094
_cell_length_b 13.734508
_cell_length_c 22.202338
_cell_angle_alpha 90.000000
_cell_angle_beta 90.000000
_cell_angle_gamma 90.000000
_cell_volume 2845.711843
_symmetry_space_group_name_H-M "P N N N"
_symmetry_group_IT_number 48
_space_group.IT_coordinate_system_code '2'
_symmetry_cell_setting 'orthorhombic'
loop_
_space_group_symop_operation_xyz
x,y,z
1/2-x,1/2-y,z
x,1/2-y,1/2-z
1/2-x,y,1/2-z
-x,-y,-z
1/2+x,1/2+y,-z
-x,1/2+y,1/2+z
1/2+x,-y,1/2+z
loop_
_atom_site_type_symbol
_atom_site_label
_atom_site_fract_x
_atom_site_fract_y
_atom_site_fract_z
Si Si1 0.338499 0.350260 0.592633
Si Si2 0.651642 0.551533 0.987289
Si Si3 0.602194 0.704879 0.886499
Si Si4 0.861201 0.998085 0.303786
Si Si5 0.155927 0.660873 0.899444
Si Si6 0.892259 0.082272 0.525502
Si Si7 0.418401 0.136098 0.263253
O O1 0.250000 0.250000 0.597738
O O2 0.237539 0.415554 0.547649
O O3 0.369509 0.399269 0.657567
O O4 0.498768 0.349471 0.562621
O O5 0.500000 0.500000 0.000000
O O6 0.622875 0.647708 0.948175
O O7 0.759111 0.480517 0.949167
O O8 0.750000 0.750000 0.864399
O O9 0.503883 0.798683 0.895065
O O10 0.550993 0.631094 0.834764
O O11 0.750000 0.987375 0.250000
O O12 0.814252 0.072624 0.355987
O O13 0.996689 0.054721 0.274298
O O14 0.250000 0.750000 0.879008
O O15 0.178520 0.636501 0.968983
O O16 0.000000 0.000000 0.500000
O O17 0.460588 0.250000 0.250000
O O18 0.250000 0.125230 0.250000
#
# Coordination Sequence:
#
# PCOD9390500 Si02
#       7
#     8   8   8   8   8   8   8
#     4  11  25  47  66  91 126 177 235 273 324 396
#     4  11  23  38  65 100 134 164 215 277 337 395
#     4  12  22  35  62  93 135 171 204 256 332 413
#     4  12  26  41  65  92 130 176 219 274 327 390
#     4  12  22  36  61  94 134 163 200 255 333 405
#     4  10  20  39  63  90 126 167 214 262 327 387
#     4  11  22  38  59  96 134 170 210 255 334 424
#
# _framework density 19.678732
#
# number of rings (size 3 to 8) (size 9 to 14) (size 15 to 20)
#    0.000    0.714    5.714    4.714    4.000    0.286 
#    0.000    0.000    0.000    0.000    0.000    1.000 
#    0.000    0.000    0.000    0.000    0.000    0.000 
#
# Total GULP energy -312220.294728 kJ/mol
# GULP energy per Si atom -5575.362406 kJ/mol
# Density = 1.963394 g / cm^3
# Si number density = 19.678732 Si / 1000 Ang^3
#
#
#
# Elastic Constant Matrix: (Units=GPa)
#
#
# Indices 1 2 3 4 5 6 
#
# 1 68.5000 19.8628 14.8963 0.0000 0.0000 0.0000
# 2 19.8628 74.5591 28.6338 0.0000 0.0000 0.0000
# 3 14.8963 28.6338 101.7217 0.0000 0.0000 0.0000
# 4 0.0000 0.0000 0.0000 12.8635 0.0000 0.0000
# 5 0.0000 0.0000 0.0000 0.0000 23.0032 0.0000
# 6 0.0000 0.0000 0.0000 0.0000 0.0000 14.4870
#
#
#
# Elastic Compliance Matrix: (Units=1/GPa)
#
#
# Indices 1 2 3 4 5 6 
#
# 1 0.015968 -0.003763 -0.001279 0.000000 0.000000 0.000000
# 2 -0.003763 0.015924 -0.003932 0.000000 0.000000 0.000000
# 3 -0.001279 -0.003932 0.011125 0.000000 0.000000 0.000000
# 4 0.000000 0.000000 0.000000 0.077739 0.000000 0.000000
# 5 0.000000 0.000000 0.000000 0.000000 0.043472 0.000000
# 6 0.000000 0.000000 0.000000 0.000000 0.000000 0.069028
#
#
# Mechanical properties :
#
#
# Convention : Reuss Voigt Hill
#
# Bulk Modulus (GPa) = 39.88802 41.28518 40.58660
# Shear Modulus (GPa) = 19.26340 22.16326 20.71333
#
# Velocity S-wave (km/s) = 3.13212 3.35961 3.24786
# Velocity P-wave (km/s) = 5.77874 6.00620 5.89357
#
# Compressibility (1/GPa) = 0.02507018
#
# Stress axis : x y z
#
# Youngs Moduli (GPa) = 62.62620 62.79650 89.88933
#
# Poissons Ratio (x) = 0.23628 0.11499
# Poissons Ratio (y) = 0.23564 0.35341
# Poissons Ratio (z) = 0.08011 0.24689
#
# Static dielectric constant tensor:
#      x y z
#    x 1.709700 0.000000 0.000000 
#    y 0.000000 1.723370 0.000000 
#    z 0.000000 0.000000 1.767730 
# 
# From -- ./inp_files/33580.got.cif
#   From: 2010.05.17/outbox.cif.g08.bks.cpg/sg48_17_cif.got.tgz:33580.got - 2010.06.03 20:39:00.
