data_PCOD9390877
_publ_section_title
;
Structure prediction by ZEFSAII (Michael W. Deem and Ramdas Pophale) SiO2 
 PCOD9390877
Probable space group: P N N N
;
_chemical_formula_sum "Si O2"
_cell_formula_units_Z 56
_cell_length_a 9.210787
_cell_length_b 14.364145
_cell_length_c 22.433215
_cell_angle_alpha 90.000000
_cell_angle_beta 90.000000
_cell_angle_gamma 90.000000
_cell_volume 2968.028306
_symmetry_space_group_name_H-M "P N N N"
_symmetry_group_IT_number 48
_space_group.IT_coordinate_system_code '2'
_symmetry_cell_setting 'orthorhombic'
loop_
_space_group_symop_operation_xyz
x,y,z
1/2-x,1/2-y,z
x,1/2-y,1/2-z
1/2-x,y,1/2-z
-x,-y,-z
1/2+x,1/2+y,-z
-x,1/2+y,1/2+z
1/2+x,-y,1/2+z
loop_
_atom_site_type_symbol
_atom_site_label
_atom_site_fract_x
_atom_site_fract_y
_atom_site_fract_z
Si Si1 0.562861 0.842367 0.355694
Si Si2 0.397897 0.650416 0.781302
Si Si3 0.100173 0.127884 0.660355
Si Si4 0.639076 0.978058 0.039002
Si Si5 0.080914 0.528505 0.263735
Si Si6 0.425350 0.100768 0.506724
Si Si7 0.334721 0.842896 0.577994
O O1 0.724987 0.867155 0.332005
O O2 0.542954 0.733616 0.342627
O O3 0.453604 0.910013 0.321999
O O4 0.554802 0.860390 0.426398
O O5 0.427738 0.750000 0.750000
O O6 0.250000 0.614717 0.750000
O O7 0.523944 0.576002 0.772435
O O8 0.365233 0.658094 0.851464
O O9 0.085704 0.076627 0.597249
O O10 0.014680 0.073792 0.711090
O O11 0.753288 0.914733 0.002000
O O12 0.734031 0.067933 0.060518
O O13 0.500000 0.000000 0.000000
O O14 0.250000 0.531261 0.250000
O O15 0.513246 0.157409 0.457577
O O16 0.500000 0.000000 0.500000
O O17 0.250000 0.750000 0.561452
#
# Coordination Sequence:
#
# PCOD9390877 Si02
#       7
#     8   8   8   8   8   8   8
#     4  10  21  41  63  88 121 168 211 252 309 386
#     4  11  22  43  70  90 118 167 223 261 310 388
#     4  10  22  39  64  88 120 167 215 253 308 386
#     4  10  22  39  62  93 130 163 210 263 324 387
#     4  12  25  39  61  92 130 160 203 269 328 375
#     4   9  20  39  61  87 124 164 204 254 314 377
#     4  11  22  39  66  95 122 167 216 265 320 386
#
# _framework density 18.867744999999999
#
# number of rings (size 3 to 8) (size 9 to 14) (size 15 to 20)
#    0.000    1.571    1.429    5.143    2.000    6.000 
#    0.000    0.000    3.143    0.000    0.000    0.000 
#    0.000    0.000    0.000    0.000    0.000    0.000 
#
# Total GULP energy -312721.381790 kJ/mol
# GULP energy per Si atom -5584.310389 kJ/mol
# Density = 1.882480 g / cm^3
# Si number density = 18.867745 Si / 1000 Ang^3
#
#
#
# Elastic Constant Matrix: (Units=GPa)
#
#
# Indices 1 2 3 4 5 6 
#
# 1 95.7504 48.7993 81.5758 0.0000 0.0000 0.0000
# 2 48.7993 100.5458 37.0765 0.0000 0.0000 0.0000
# 3 81.5758 37.0765 106.1497 0.0000 0.0000 0.0000
# 4 0.0000 0.0000 0.0000 54.7956 0.0000 0.0000
# 5 0.0000 0.0000 0.0000 0.0000 30.1882 0.0000
# 6 0.0000 0.0000 0.0000 0.0000 0.0000 15.9555
#
#
#
# Elastic Compliance Matrix: (Units=1/GPa)
#
#
# Indices 1 2 3 4 5 6 
#
# 1 0.035270 -0.008176 -0.024249 0.000000 0.000000 0.000000
# 2 -0.008176 0.013312 0.001634 0.000000 0.000000 0.000000
# 3 -0.024249 0.001634 0.027486 0.000000 0.000000 0.000000
# 4 0.000000 0.000000 0.000000 0.018250 0.000000 0.000000
# 5 0.000000 0.000000 0.000000 0.000000 0.033126 0.000000
# 6 0.000000 0.000000 0.000000 0.000000 0.000000 0.062674
#
#
# Mechanical properties :
#
#
# Convention : Reuss Voigt Hill
#
# Bulk Modulus (GPa) = 69.04156 70.81656 69.92906
# Shear Modulus (GPa) = 19.49101 29.18747 24.33924
#
# Velocity S-wave (km/s) = 3.21757 3.93740 3.59554
# Velocity P-wave (km/s) = 7.10461 7.63449 7.37431
#
# Compressibility (1/GPa) = 0.01448403
#
# Stress axis : x y z
#
# Youngs Moduli (GPa) = 28.35233 75.12300 36.38276
#
# Poissons Ratio (x) = 0.61423 0.88226
# Poissons Ratio (y) = 0.23182 -0.05945
# Poissons Ratio (z) = 0.68753 -0.12275
#
# Static dielectric constant tensor:
#      x y z
#    x 1.643440 0.000000 0.000000 
#    y 0.000000 1.668180 0.000000 
#    z 0.000000 0.000000 1.668030 
# 
# From -- ./inp_files/33597.got.cif
#   From: 2010.05.17/outbox.cif.g08.bks.cpg/sg48_17_cif.got.tgz:33597.got - 2010.06.03 20:39:00.
