data_PCOD9390638
_publ_section_title
;
Structure prediction by ZEFSAII (Michael W. Deem and Ramdas Pophale) SiO2 
 PCOD9390638
Probable space group: P N N N
;
_chemical_formula_sum "Si O2"
_cell_formula_units_Z 32
_cell_length_a 14.979182
_cell_length_b 5.295505
_cell_length_c 16.250424
_cell_angle_alpha 90.000000
_cell_angle_beta 90.000000
_cell_angle_gamma 90.000000
_cell_volume 1289.021547
_symmetry_space_group_name_H-M "P N N N"
_symmetry_group_IT_number 48
_space_group.IT_coordinate_system_code '2'
_symmetry_cell_setting 'orthorhombic'
loop_
_space_group_symop_operation_xyz
x,y,z
1/2-x,1/2-y,z
x,1/2-y,1/2-z
1/2-x,y,1/2-z
-x,-y,-z
1/2+x,1/2+y,-z
-x,1/2+y,1/2+z
1/2+x,-y,1/2+z
loop_
_atom_site_type_symbol
_atom_site_label
_atom_site_fract_x
_atom_site_fract_y
_atom_site_fract_z
Si Si1 0.400198 0.250000 0.750000
Si Si2 0.108560 0.772212 0.031773
Si Si3 0.338490 0.538147 0.306342
Si Si4 0.017636 0.250000 0.250000
Si Si5 0.898843 0.737780 0.067532
O O1 0.455483 0.510564 0.752976
O O2 0.358322 0.249985 0.841099
O O3 0.167115 0.667017 0.106231
O O4 0.006660 0.790282 0.066952
O O5 0.110080 0.546336 0.965523
O O6 0.136438 0.038196 0.991541
O O7 0.385460 0.750000 0.250000
O O8 0.250000 0.492891 0.250000
O O9 0.406986 0.193962 0.180303
#
# Coordination Sequence:
#
# PCOD9390638 Si02
#       5
#     4   8   8   4   8
#     4  12  22  36  61  84 116 159 206 252 314 374
#     4  10  21  36  53  81 114 155 200 252 300 360
#     4  11  24  39  57  82 119 165 207 245 302 373
#     4  12  21  36  54  84 114 162 202 249 288 376
#     4  10  21  35  56  80 113 153 202 250 302 368
#
# _framework density 24.825030999999999
#
# number of rings (size 3 to 8) (size 9 to 14) (size 15 to 20)
#    0.000    1.250    3.750    1.875   10.500    0.000 
#    0.000    0.000    0.000    0.000    0.000    0.000 
#    0.000   24.000    0.000    0.000    0.000    0.000 
#
# Total GULP energy -178401.375398 kJ/mol
# GULP energy per Si atom -5575.042981 kJ/mol
# Density = 2.476853 g / cm^3
# Si number density = 24.825031 Si / 1000 Ang^3
#
#
#
# Elastic Constant Matrix: (Units=GPa)
#
#
# Indices 1 2 3 4 5 6 
#
# 1 57.7129 18.9167 12.1912 0.0000 0.0000 0.0000
# 2 18.9167 143.4131 15.5723 0.0000 0.0000 0.0000
# 3 12.1912 15.5723 156.5099 0.0000 0.0000 0.0000
# 4 0.0000 0.0000 0.0000 16.0657 0.0000 0.0000
# 5 0.0000 0.0000 0.0000 0.0000 0.6853 0.0000
# 6 0.0000 0.0000 0.0000 0.0000 0.0000 -48.6601
#
#
#
# Elastic Compliance Matrix: (Units=1/GPa)
#
#
# Indices 1 2 3 4 5 6 
#
# 1 0.018330 -0.002288 -0.001200 0.000000 0.000000 0.000000
# 2 -0.002288 0.007334 -0.000552 0.000000 0.000000 0.000000
# 3 -0.001200 -0.000552 0.006538 0.000000 0.000000 0.000000
# 4 0.000000 0.000000 0.000000 0.062244 0.000000 0.000000
# 5 0.000000 0.000000 0.000000 0.000000 1.459120 0.000000
# 6 0.000000 0.000000 0.000000 0.000000 0.000000 -0.020551
#
#
# Mechanical properties :
#
#
# Convention : Reuss Voigt Hill
#
# Bulk Modulus (GPa) = 41.45248 50.11073 45.78161
# Shear Modulus (GPa) = 3.22760 14.34857 8.78809
#
# Velocity S-wave (km/s) = 1.14147 2.40675 1.88353
# Velocity P-wave (km/s) = 4.29784 5.28702 4.81788
#
# Compressibility (1/GPa) = 0.02412401
#
# Stress axis : x y z
#
# Youngs Moduli (GPa) = 54.55397 136.34211 152.95801
#
# Poissons Ratio (x) = 0.31189 0.18359
# Poissons Ratio (y) = 0.12479 0.08437
# Poissons Ratio (z) = 0.06548 0.07520
#
# Static dielectric constant tensor:
#      x y z
#    x 2.039120 0.000000 0.000000 
#    y 0.000000 2.116890 0.000000 
#    z 0.000000 0.000000 1.991680 
# 
# From -- ./inp_files/27592.got.cif
#   From: 2010.05.17/outbox.cif.g08.bks.cpg/sg48_14_cif.got.tgz:27592.got - 2010.06.03 20:39:00.
