data_PCOD9390358
_publ_section_title
;
Structure prediction by ZEFSAII (Michael W. Deem and Ramdas Pophale) SiO2 
 PCOD9390358
Probable space group: P N N N
;
_chemical_formula_sum "Si O2"
_cell_formula_units_Z 64
_cell_length_a 8.614538
_cell_length_b 30.385784
_cell_length_c 12.156445
_cell_angle_alpha 90.000000
_cell_angle_beta 90.000000
_cell_angle_gamma 90.000000
_cell_volume 3182.064855
_symmetry_space_group_name_H-M "P N N N"
_symmetry_group_IT_number 48
_space_group.IT_coordinate_system_code '2'
_symmetry_cell_setting 'orthorhombic'
loop_
_space_group_symop_operation_xyz
x,y,z
1/2-x,1/2-y,z
x,1/2-y,1/2-z
1/2-x,y,1/2-z
-x,-y,-z
1/2+x,1/2+y,-z
-x,1/2+y,1/2+z
1/2+x,-y,1/2+z
loop_
_atom_site_type_symbol
_atom_site_label
_atom_site_fract_x
_atom_site_fract_y
_atom_site_fract_z
Si Si1 0.929586 0.089735 0.285538
Si Si2 0.629883 0.666529 0.834410
Si Si3 0.307006 0.701877 0.876821
Si Si4 0.922653 0.077664 0.887021
Si Si5 0.287000 0.406435 0.016434
Si Si6 0.363401 0.873292 0.015871
Si Si7 0.123651 0.483309 0.330848
Si Si8 0.103760 0.118743 0.683970
O O1 0.750000 0.093448 0.250000
O O2 0.935944 0.097279 0.416835
O O3 0.034395 0.127724 0.229427
O O4 0.996866 0.044168 0.237581
O O5 0.750000 0.688134 0.750000
O O6 0.493443 0.697158 0.879183
O O7 0.733661 0.640198 0.923255
O O8 0.250000 0.750000 0.910561
O O9 0.250000 0.695770 0.750000
O O10 0.229009 0.665043 0.953197
O O11 0.754146 0.096206 0.914853
O O12 0.996814 0.094390 0.773052
O O13 0.938699 0.025173 0.894871
O O14 0.033369 0.096651 0.981053
O O15 0.282604 0.447547 0.097612
O O16 0.188969 0.412503 0.905669
O O17 0.489382 0.855037 0.102676
O O18 0.250000 0.504201 0.250000
O O19 0.250000 0.139778 0.750000
#
# Coordination Sequence:
#
# PCOD9390358 Si02
#       8
#     8   8   8   8   8   8   8   8
#     4  11  20  35  59  90 121 166 210 252 317 394
#     4  11  19  37  65  95 126 157 199 242 308 394
#     4  11  23  41  67 102 136 152 191 249 314 401
#     4  11  23  38  55  82 119 165 223 273 302 359
#     4  10  20  37  57  83 116 164 209 252 319 366
#     4  12  19  40  65  85 120 169 207 250 327 389
#     4  11  22  35  51  84 123 160 213 271 320 370
#     4  10  23  37  57  86 113 158 217 265 302 357
#
# _framework density 20.112725999999999
#
# number of rings (size 3 to 8) (size 9 to 14) (size 15 to 20)
#    0.000    1.125    3.750    5.250    0.000    2.500 
#    0.000    3.750    0.000    1.500    3.250    0.000 
#    0.000    0.000    0.000    0.000    0.000    0.000 
#
# Total GULP energy -357031.337323 kJ/mol
# GULP energy per Si atom -5578.614646 kJ/mol
# Density = 2.006695 g / cm^3
# Si number density = 20.112726 Si / 1000 Ang^3
#
#
#
# Elastic Constant Matrix: (Units=GPa)
#
#
# Indices 1 2 3 4 5 6 
#
# 1 90.7620 30.0086 41.6467 0.0000 0.0000 0.0000
# 2 30.0086 84.4271 25.5026 0.0000 0.0000 0.0000
# 3 41.6467 25.5026 101.0480 0.0000 0.0000 0.0000
# 4 0.0000 0.0000 0.0000 11.7676 0.0000 0.0000
# 5 0.0000 0.0000 0.0000 0.0000 54.7228 0.0000
# 6 0.0000 0.0000 0.0000 0.0000 0.0000 16.0576
#
#
#
# Elastic Compliance Matrix: (Units=1/GPa)
#
#
# Indices 1 2 3 4 5 6 
#
# 1 0.014551 -0.003638 -0.005079 0.000000 0.000000 0.000000
# 2 -0.003638 0.013732 -0.001966 0.000000 0.000000 0.000000
# 3 -0.005079 -0.001966 0.012486 0.000000 0.000000 0.000000
# 4 0.000000 0.000000 0.000000 0.084979 0.000000 0.000000
# 5 0.000000 0.000000 0.000000 0.000000 0.018274 0.000000
# 6 0.000000 0.000000 0.000000 0.000000 0.000000 0.062276
#
#
# Mechanical properties :
#
#
# Convention : Reuss Voigt Hill
#
# Bulk Modulus (GPa) = 51.54058 52.28365 51.91212
# Shear Modulus (GPa) = 21.35557 28.44821 24.90189
#
# Velocity S-wave (km/s) = 3.26205 3.76498 3.52250
# Velocity P-wave (km/s) = 6.31423 6.70462 6.51235
#
# Compressibility (1/GPa) = 0.01940219
#
# Stress axis : x y z
#
# Youngs Moduli (GPa) = 68.72302 72.82524 80.09054
#
# Poissons Ratio (x) = 0.26492 0.40679
# Poissons Ratio (y) = 0.25000 0.15748
# Poissons Ratio (z) = 0.34905 0.14319
#
# Static dielectric constant tensor:
#      x y z
#    x 1.793500 0.000000 0.000000 
#    y 0.000000 1.661040 0.000000 
#    z 0.000000 0.000000 1.744050 
# 
# From -- ./inp_files/19061.got.cif
#   From: 2010.05.17/outbox.cif.g08.bks.cpg/sg48_10_cif.got.tgz:19061.got - 2010.06.03 20:39:00.
