data_PCOD9390882
_publ_section_title
;
Structure prediction by ZEFSAII (Michael W. Deem and Ramdas Pophale) SiO2 
 PCOD9390882
Probable space group: P N N N
;
_chemical_formula_sum "Si O2"
_cell_formula_units_Z 58
_cell_length_a 19.621939
_cell_length_b 8.648160
_cell_length_c 17.346647
_cell_angle_alpha 90.000000
_cell_angle_beta 90.000000
_cell_angle_gamma 90.000000
_cell_volume 2943.616157
_symmetry_space_group_name_H-M "P N N N"
_symmetry_group_IT_number 48
_space_group.IT_coordinate_system_code '2'
_symmetry_cell_setting 'orthorhombic'
loop_
_space_group_symop_operation_xyz
x,y,z
1/2-x,1/2-y,z
x,1/2-y,1/2-z
1/2-x,y,1/2-z
-x,-y,-z
1/2+x,1/2+y,-z
-x,1/2+y,1/2+z
1/2+x,-y,1/2+z
loop_
_atom_site_type_symbol
_atom_site_label
_atom_site_fract_x
_atom_site_fract_y
_atom_site_fract_z
Si Si1 0.210364 0.912994 0.177755
Si Si2 0.361206 0.140183 0.630066
Si Si3 0.820429 0.659949 0.549414
Si Si4 0.046015 0.348886 0.082095
Si Si5 0.511637 0.674385 0.403238
Si Si6 0.250000 0.250000 0.750000
Si Si7 0.946154 0.111073 0.802340
Si Si8 0.951175 0.356054 0.317161
O O1 0.250000 0.750000 0.164024
O O2 0.250000 0.990196 0.250000
O O3 0.133569 0.893967 0.207071
O O4 0.198343 0.010585 0.100526
O O5 0.340658 0.131279 0.539869
O O6 0.415944 0.282631 0.637425
O O7 0.299955 0.161184 0.690405
O O8 0.400009 0.982821 0.651088
O O9 0.750000 0.750000 0.547160
O O10 0.881266 0.760702 0.589979
O O11 0.034844 0.523373 0.113980
O O12 0.985004 0.250450 0.118584
O O13 0.033223 0.348942 0.991000
O O14 0.466389 0.827487 0.387564
O O15 0.973818 0.250000 0.750000
O O16 0.984602 0.954030 0.785018
O O17 0.921495 0.250000 0.250000
#
# Coordination Sequence:
#
# PCOD9390882 Si02
#       8
#     8   8   8   8   8   2   8   8
#     4  11  24  42  59  91 133 183 222 264 317 395
#     4  10  25  45  71  93 128 175 221 273 343 407
#     4  11  24  44  64  98 134 180 222 268 333 407
#     4  10  21  41  63  97 133 161 217 274 328 381
#     4   9  22  38  68  95 122 171 212 270 325 397
#     4  12  24  48  70  92 130 176 212 280 332 428
#     4  11  21  38  61  88 129 171 216 261 324 383
#     4  11  24  39  67  99 129 162 222 287 329 382
#
# _framework density 19.703657
#
# number of rings (size 3 to 8) (size 9 to 14) (size 15 to 20)
#    0.000    1.517    3.448    0.828    9.655    3.034 
#    0.000    1.724    0.000    0.000    0.000    0.000 
#    0.000    0.000    0.000    0.000    0.000    0.000 
#
# Total GULP energy -323171.712749 kJ/mol
# GULP energy per Si atom -5571.926082 kJ/mol
# Density = 1.965881 g / cm^3
# Si number density = 19.703657 Si / 1000 Ang^3
#
#
#
# Elastic Constant Matrix: (Units=GPa)
#
#
# Indices 1 2 3 4 5 6 
#
# 1 101.8360 25.8624 42.8306 0.0000 0.0000 0.0000
# 2 25.8624 80.1372 38.5058 0.0000 0.0000 0.0000
# 3 42.8306 38.5058 82.7098 0.0000 0.0000 0.0000
# 4 0.0000 0.0000 0.0000 31.2465 0.0000 0.0000
# 5 0.0000 0.0000 0.0000 0.0000 15.5141 0.0000
# 6 0.0000 0.0000 0.0000 0.0000 0.0000 7.3186
#
#
#
# Elastic Compliance Matrix: (Units=1/GPa)
#
#
# Indices 1 2 3 4 5 6 
#
# 1 0.012643 -0.001204 -0.005987 0.000000 0.000000 0.000000
# 2 -0.001204 0.016189 -0.006914 0.000000 0.000000 0.000000
# 3 -0.005987 -0.006914 0.018409 0.000000 0.000000 0.000000
# 4 0.000000 0.000000 0.000000 0.032004 0.000000 0.000000
# 5 0.000000 0.000000 0.000000 0.000000 0.064457 0.000000
# 6 0.000000 0.000000 0.000000 0.000000 0.000000 0.136639
#
#
# Mechanical properties :
#
#
# Convention : Reuss Voigt Hill
#
# Bulk Modulus (GPa) = 52.53883 53.23117 52.88500
# Shear Modulus (GPa) = 15.87834 21.31479 18.59657
#
# Velocity S-wave (km/s) = 2.84184 3.29259 3.07549
# Velocity P-wave (km/s) = 6.12295 6.44433 6.28569
#
# Compressibility (1/GPa) = 0.01903354
#
# Stress axis : x y z
#
# Youngs Moduli (GPa) = 79.09271 61.77043 54.32023
#
# Poissons Ratio (x) = 0.07435 0.32521
# Poissons Ratio (y) = 0.09520 0.37554
# Poissons Ratio (z) = 0.47352 0.42705
#
# Static dielectric constant tensor:
#      x y z
#    x 1.684530 0.000000 0.000000 
#    y 0.000000 1.734420 0.000000 
#    z 0.000000 0.000000 1.808170 
# 
# From -- ./inp_files/32007.got.cif
#   From: 2010.05.17/outbox.cif.g08.bks.cpg/sg48_17_cif.got.tgz:32007.got - 2010.06.03 20:39:00.
