data_PCOD9390759
_publ_section_title
;
Structure prediction by ZEFSAII (Michael W. Deem and Ramdas Pophale) SiO2 
 PCOD9390759
Probable space group: P N N N
;
_chemical_formula_sum "Si O2"
_cell_formula_units_Z 64
_cell_length_a 8.625579
_cell_length_b 21.485068
_cell_length_c 15.476153
_cell_angle_alpha 90.000000
_cell_angle_beta 90.000000
_cell_angle_gamma 90.000000
_cell_volume 2868.058492
_symmetry_space_group_name_H-M "P N N N"
_symmetry_group_IT_number 48
_space_group.IT_coordinate_system_code '2'
_symmetry_cell_setting 'orthorhombic'
loop_
_space_group_symop_operation_xyz
x,y,z
1/2-x,1/2-y,z
x,1/2-y,1/2-z
1/2-x,y,1/2-z
-x,-y,-z
1/2+x,1/2+y,-z
-x,1/2+y,1/2+z
1/2+x,-y,1/2+z
loop_
_atom_site_type_symbol
_atom_site_label
_atom_site_fract_x
_atom_site_fract_y
_atom_site_fract_z
Si Si1 0.897995 0.317678 0.044459
Si Si2 0.818575 0.879019 0.155957
Si Si3 0.009204 0.504427 0.603918
Si Si4 0.585727 0.785737 0.473069
Si Si5 0.422811 0.645853 0.878558
Si Si6 0.154264 0.023090 0.376551
Si Si7 0.910921 0.843733 0.706357
Si Si8 0.042736 0.424216 0.945751
O O1 0.732949 0.321685 0.089561
O O2 0.028087 0.311828 0.119812
O O3 0.945961 0.263468 0.979832
O O4 0.916362 0.383226 0.995143
O O5 0.750000 0.868956 0.250000
O O6 0.900485 0.945922 0.143491
O O7 0.922792 0.825091 0.114972
O O8 0.669291 0.879505 0.094022
O O9 0.087756 0.571020 0.622114
O O10 0.000000 0.500000 0.500000
O O11 0.832528 0.506498 0.638912
O O12 0.750000 0.750000 0.479054
O O13 0.557013 0.833453 0.553489
O O14 0.465698 0.664451 0.782023
O O15 0.108508 0.083814 0.322301
O O16 0.132825 0.038559 0.478936
O O17 0.033258 0.966503 0.371433
O O18 0.750000 0.823896 0.750000
#
# Coordination Sequence:
#
# PCOD9390759 Si02
#       8
#     8   8   8   8   8   8   8   8
#     4  11  25  44  71 101 141 195 247 310 355 442
#     4  12  28  45  73 111 141 189 252 315 379 442
#     4  12  22  42  72 104 149 190 236 301 381 460
#     4  12  25  50  74  97 140 192 254 302 369 442
#     4  12  25  43  73 110 144 191 243 304 375 456
#     4  10  21  38  65 101 151 194 225 288 365 453
#     4  11  23  41  67 107 153 189 233 292 373 449
#     4  10  21  41  64 102 141 186 247 290 365 434
#
# _framework density 22.314747000000001
#
# number of rings (size 3 to 8) (size 9 to 14) (size 15 to 20)
#    0.000    0.750    5.000    2.250    5.250    0.750 
#    0.000    2.500    0.000    0.000    3.250    0.000 
#    0.000    0.000    0.000    0.000    0.000    0.000 
#
# Total GULP energy -358002.895619 kJ/mol
# GULP energy per Si atom -5593.795244 kJ/mol
# Density = 2.226396 g / cm^3
# Si number density = 22.314747 Si / 1000 Ang^3
#
#
#
# Elastic Constant Matrix: (Units=GPa)
#
#
# Indices 1 2 3 4 5 6 
#
# 1 103.7132 47.4821 17.2111 0.0000 0.0000 0.0000
# 2 47.4821 120.2417 37.8919 0.0000 0.0000 0.0000
# 3 17.2111 37.8919 74.4011 0.0000 0.0000 0.0000
# 4 0.0000 0.0000 0.0000 17.1562 0.0000 0.0000
# 5 0.0000 0.0000 0.0000 0.0000 30.0253 0.0000
# 6 0.0000 0.0000 0.0000 0.0000 0.0000 33.6105
#
#
#
# Elastic Compliance Matrix: (Units=1/GPa)
#
#
# Indices 1 2 3 4 5 6 
#
# 1 0.011781 -0.004519 -0.000424 0.000000 0.000000 0.000000
# 2 -0.004519 0.011640 -0.004883 0.000000 0.000000 0.000000
# 3 -0.000424 -0.004883 0.016025 0.000000 0.000000 0.000000
# 4 0.000000 0.000000 0.000000 0.058288 0.000000 0.000000
# 5 0.000000 0.000000 0.000000 0.000000 0.033305 0.000000
# 6 0.000000 0.000000 0.000000 0.000000 0.000000 0.029753
#
#
# Mechanical properties :
#
#
# Convention : Reuss Voigt Hill
#
# Bulk Modulus (GPa) = 50.51641 55.94735 53.23188
# Shear Modulus (GPa) = 26.73213 29.20981 27.97097
#
# Velocity S-wave (km/s) = 3.46491 3.62192 3.54429
# Velocity P-wave (km/s) = 6.22051 6.52820 6.37621
#
# Compressibility (1/GPa) = 0.01979555
#
# Stress axis : x y z
#
# Youngs Moduli (GPa) = 84.88217 85.91357 62.40072
#
# Poissons Ratio (x) = 0.38821 0.02646
# Poissons Ratio (y) = 0.38355 0.30468
# Poissons Ratio (z) = 0.03599 0.41949
#
# Static dielectric constant tensor:
#      x y z
#    x 1.836080 0.000000 0.000000 
#    y 0.000000 1.890410 0.000000 
#    z 0.000000 0.000000 1.802300 
# 
# From -- ./inp_files/25764.got.cif
#   From: 2010.05.17/outbox.cif.g08.bks.cpg/sg48_13_cif.got.tgz:25764.got - 2010.06.03 20:39:00.
