data_PCOD9390864
_publ_section_title
;
Structure prediction by ZEFSAII (Michael W. Deem and Ramdas Pophale) SiO2 
 PCOD9390864
Probable space group: P N N N
;
_chemical_formula_sum "Si O2"
_cell_formula_units_Z 40
_cell_length_a 6.376369
_cell_length_b 19.534027
_cell_length_c 14.065141
_cell_angle_alpha 90.000000
_cell_angle_beta 90.000000
_cell_angle_gamma 90.000000
_cell_volume 1751.900012
_symmetry_space_group_name_H-M "P N N N"
_symmetry_group_IT_number 48
_space_group.IT_coordinate_system_code '2'
_symmetry_cell_setting 'orthorhombic'
loop_
_space_group_symop_operation_xyz
x,y,z
1/2-x,1/2-y,z
x,1/2-y,1/2-z
1/2-x,y,1/2-z
-x,-y,-z
1/2+x,1/2+y,-z
-x,1/2+y,1/2+z
1/2+x,-y,1/2+z
loop_
_atom_site_type_symbol
_atom_site_label
_atom_site_fract_x
_atom_site_fract_y
_atom_site_fract_z
Si Si1 0.704914 0.543232 0.511863
Si Si2 0.750000 0.750000 0.515206
Si Si3 0.076442 0.842713 0.578518
Si Si4 0.508112 0.040379 0.655718
Si Si5 0.250000 0.568113 0.750000
Si Si6 0.622321 0.316546 0.898544
O O1 0.500000 0.500000 0.500000
O O2 0.630690 0.613697 0.554674
O O3 0.803631 0.551694 0.408957
O O4 0.846618 0.501960 0.584361
O O5 0.949356 0.771308 0.583961
O O6 0.605138 0.794015 0.439967
O O7 0.196360 0.881534 0.662601
O O8 0.232978 0.840373 0.488528
O O9 0.594638 0.117022 0.669098
O O10 0.442858 0.985335 0.735033
O O11 0.750000 0.250000 0.861419
#
# Coordination Sequence:
#
# PCOD9390864 Si02
#       6
#     8   4   8   8   4   8
#     4  11  19  38  67  89 120 162 224 271 308 369
#     4  10  22  40  69  85 124 174 214 266 310 385
#     4  11  22  41  63  98 125 170 217 266 322 389
#     4  11  22  38  63  99 123 165 215 276 326 386
#     4  12  26  38  61 101 144 164 214 268 340 406
#     4  10  21  40  68  97 118 165 234 266 309 391
#
# _framework density 22.832352
#
# number of rings (size 3 to 8) (size 9 to 14) (size 15 to 20)
#    0.000    1.200    6.000    1.200    0.000    0.800 
#    0.000    5.500    0.000    0.600    5.200    0.000 
#    0.000    0.000    0.000    0.000    0.000    0.000 
#
# Total GULP energy -222676.867115 kJ/mol
# GULP energy per Si atom -5566.921678 kJ/mol
# Density = 2.278038 g / cm^3
# Si number density = 22.832352 Si / 1000 Ang^3
#
#
#
# Elastic Constant Matrix: (Units=GPa)
#
#
# Indices 1 2 3 4 5 6 
#
# 1 81.8508 30.8079 22.3960 0.0000 0.0000 0.0000
# 2 30.8079 71.1697 26.0969 0.0000 0.0000 0.0000
# 3 22.3960 26.0969 53.5739 0.0000 0.0000 0.0000
# 4 0.0000 0.0000 0.0000 22.3427 0.0000 0.0000
# 5 0.0000 0.0000 0.0000 0.0000 16.2345 0.0000
# 6 0.0000 0.0000 0.0000 0.0000 0.0000 32.0553
#
#
#
# Elastic Compliance Matrix: (Units=1/GPa)
#
#
# Indices 1 2 3 4 5 6 
#
# 1 0.015217 -0.005180 -0.003838 0.000000 0.000000 0.000000
# 2 -0.005180 0.018870 -0.007026 0.000000 0.000000 0.000000
# 3 -0.003838 -0.007026 0.023693 0.000000 0.000000 0.000000
# 4 0.000000 0.000000 0.000000 0.044757 0.000000 0.000000
# 5 0.000000 0.000000 0.000000 0.000000 0.061597 0.000000
# 6 0.000000 0.000000 0.000000 0.000000 0.000000 0.031196
#
#
# Mechanical properties :
#
#
# Convention : Reuss Voigt Hill
#
# Bulk Modulus (GPa) = 38.92408 40.57733 39.75070
# Shear Modulus (GPa) = 21.18795 22.61273 21.90034
#
# Velocity S-wave (km/s) = 3.04958 3.15045 3.10042
# Velocity P-wave (km/s) = 5.42998 5.57173 5.50131
#
# Compressibility (1/GPa) = 0.02569104
#
# Stress axis : x y z
#
# Youngs Moduli (GPa) = 65.71515 52.99517 42.20651
#
# Poissons Ratio (x) = 0.27450 0.16200
# Poissons Ratio (y) = 0.34039 0.29656
# Poissons Ratio (z) = 0.25223 0.37237
#
# Static dielectric constant tensor:
#      x y z
#    x 1.868780 0.000000 0.000000 
#    y 0.000000 2.560920 0.000000 
#    z 0.000000 0.000000 1.826670 
# 
# From -- ./inp_files/29432.got.cif
#   From: 2010.05.17/outbox.cif.g08.bks.cpg/sg48_15_cif.got.tgz:29432.got - 2010.06.03 20:39:00.
