data_PCOD9390115
_publ_section_title
;
Structure prediction by ZEFSAII (Michael W. Deem and Ramdas Pophale) SiO2 
 PCOD9390115
Probable space group: P N N N
;
_chemical_formula_sum "Si O2"
_cell_formula_units_Z 52
_cell_length_a 20.740848
_cell_length_b 5.075217
_cell_length_c 24.226292
_cell_angle_alpha 90.000000
_cell_angle_beta 90.000000
_cell_angle_gamma 90.000000
_cell_volume 2550.163775
_symmetry_space_group_name_H-M "P N N N"
_symmetry_group_IT_number 48
_space_group.IT_coordinate_system_code '2'
_symmetry_cell_setting 'orthorhombic'
loop_
_space_group_symop_operation_xyz
x,y,z
1/2-x,1/2-y,z
x,1/2-y,1/2-z
1/2-x,y,1/2-z
-x,-y,-z
1/2+x,1/2+y,-z
-x,1/2+y,1/2+z
1/2+x,-y,1/2+z
loop_
_atom_site_type_symbol
_atom_site_label
_atom_site_fract_x
_atom_site_fract_y
_atom_site_fract_z
Si Si1 0.250000 0.750000 0.659010
Si Si2 0.865719 0.791895 0.687937
Si Si3 0.115275 0.709937 0.691044
Si Si4 0.919900 0.794235 0.371550
Si Si5 0.250000 0.750000 0.473062
Si Si6 0.250000 0.250000 0.104555
Si Si7 0.690888 0.569988 0.059628
Si Si8 0.047645 0.795339 0.186815
O O1 0.188139 0.822844 0.694041
O O2 0.220580 0.538312 0.616899
O O3 0.839592 0.750000 0.750000
O O4 0.812076 0.721743 0.643512
O O5 0.924808 0.588350 0.683498
O O6 0.894449 0.084496 0.681300
O O7 0.082960 0.750000 0.750000
O O8 0.109174 0.405575 0.674833
O O9 0.088001 0.898725 0.643249
O O10 0.876359 0.711618 0.424674
O O11 0.995393 0.742402 0.361590
O O12 0.261580 0.504804 0.433151
O O13 0.191598 0.664641 0.514741
O O14 0.750000 0.750000 0.039287
O O15 0.022142 0.750000 0.250000
#
# Coordination Sequence:
#
# PCOD9390115 Si02
#       8
#     4   8   8   8   4   4   8   8
#     4   9  19  30  47  72 105 148 197 259 304 352
#     4  10  22  40  66  94 129 155 183 229 296 384
#     4  11  20  30  45  73 109 151 199 258 303 340
#     4  11  22  34  57  79 115 164 214 243 290 356
#     4  11  24  38  66  92 122 152 198 271 308 358
#     4  12  23  42  68 100 118 146 189 244 316 376
#     4  10  19  39  57  82 113 158 217 258 306 338
#     4  10  20  37  58  89 125 166 200 233 284 360
#
# _framework density 20.390848999999999
#
# number of rings (size 3 to 8) (size 9 to 14) (size 15 to 20)
#    0.000    1.538    2.308    3.692    0.000    1.231 
#    0.000    4.615    0.000    5.538    0.000    0.000 
#    0.000    0.000    0.000    0.000    0.000    0.000 
#
# Total GULP energy -289616.267785 kJ/mol
# GULP energy per Si atom -5569.543611 kJ/mol
# Density = 2.034444 g / cm^3
# Si number density = 20.390849 Si / 1000 Ang^3
#
#
#
# Elastic Constant Matrix: (Units=GPa)
#
#
# Indices 1 2 3 4 5 6 
#
# 1 56.6048 1.3954 35.4884 0.0000 0.0000 0.0000
# 2 1.3954 72.6938 22.8740 0.0000 0.0000 0.0000
# 3 35.4884 22.8740 95.7273 0.0000 0.0000 0.0000
# 4 0.0000 0.0000 0.0000 16.3030 0.0000 0.0000
# 5 0.0000 0.0000 0.0000 0.0000 12.7329 0.0000
# 6 0.0000 0.0000 0.0000 0.0000 0.0000 15.8035
#
#
#
# Elastic Compliance Matrix: (Units=1/GPa)
#
#
# Indices 1 2 3 4 5 6 
#
# 1 0.023418 0.002468 -0.009271 0.000000 0.000000 0.000000
# 2 0.002468 0.015135 -0.004531 0.000000 0.000000 0.000000
# 3 -0.009271 -0.004531 0.014966 0.000000 0.000000 0.000000
# 4 0.000000 0.000000 0.000000 0.061339 0.000000 0.000000
# 5 0.000000 0.000000 0.000000 0.000000 0.078537 0.000000
# 6 0.000000 0.000000 0.000000 0.000000 0.000000 0.063277
#
#
# Mechanical properties :
#
#
# Convention : Reuss Voigt Hill
#
# Bulk Modulus (GPa) = 32.41548 38.28239 35.34893
# Shear Modulus (GPa) = 17.26372 19.98574 18.62473
#
# Velocity S-wave (km/s) = 2.91287 3.13410 3.02551
# Velocity P-wave (km/s) = 5.21964 5.64906 5.43859
#
# Compressibility (1/GPa) = 0.03084946
#
# Stress axis : x y z
#
# Youngs Moduli (GPa) = 42.70182 66.07287 66.81711
#
# Poissons Ratio (x) = -0.16306 0.61949
# Poissons Ratio (y) = -0.10538 0.30277
# Poissons Ratio (z) = 0.39590 0.29940
#
# Static dielectric constant tensor:
#      x y z
#    x 1.797620 0.000000 0.000000 
#    y 0.000000 1.773800 0.000000 
#    z 0.000000 0.000000 1.750590 
# 
# From -- ./inp_files/34838.got.cif
#   From: 2010.05.17/outbox.cif.g08.bks.cpg/sg48_18_cif.got.tgz:34838.got - 2010.06.03 20:39:00.
