data_PCOD9390705
_publ_section_title
;
Structure prediction by ZEFSAII (Michael W. Deem and Ramdas Pophale) SiO2 
 PCOD9390705
Probable space group: P N N N
;
_chemical_formula_sum "Si O2"
_cell_formula_units_Z 36
_cell_length_a 13.146137
_cell_length_b 8.624021
_cell_length_c 13.194925
_cell_angle_alpha 90.000000
_cell_angle_beta 90.000000
_cell_angle_gamma 90.000000
_cell_volume 1495.942447
_symmetry_space_group_name_H-M "P N N N"
_symmetry_group_IT_number 48
_space_group.IT_coordinate_system_code '2'
_symmetry_cell_setting 'orthorhombic'
loop_
_space_group_symop_operation_xyz
x,y,z
1/2-x,1/2-y,z
x,1/2-y,1/2-z
1/2-x,y,1/2-z
-x,-y,-z
1/2+x,1/2+y,-z
-x,1/2+y,1/2+z
1/2+x,-y,1/2+z
loop_
_atom_site_type_symbol
_atom_site_label
_atom_site_fract_x
_atom_site_fract_y
_atom_site_fract_z
Si Si1 0.263985 0.581045 0.520742
Si Si2 0.616469 0.411865 0.689865
Si Si3 0.134419 0.173370 0.042595
Si Si4 0.111599 0.352283 0.844536
Si Si5 0.600227 0.750000 0.750000
O O1 0.250000 0.750000 0.563254
O O2 0.338053 0.593805 0.423117
O O3 0.161278 0.504969 0.475854
O O4 0.308391 0.471450 0.608265
O O5 0.638347 0.250000 0.750000
O O6 0.494669 0.427769 0.685725
O O7 0.648887 0.576725 0.738064
O O8 0.250000 0.250000 0.058878
O O9 0.091089 0.239967 0.939387
O O10 0.062855 0.223003 0.135095
O O11 0.144787 0.250000 0.750000
#
# Coordination Sequence:
#
# PCOD9390705 Si02
#       5
#     8   8   8   8   4
#     4  11  23  41  68 103 131 172 229 285 336 404
#     4  11  24  42  68 103 137 174 220 288 342 404
#     4  10  21  37  66  93 129 176 210 270 345 397
#     4  10  23  47  66  86 136 185 222 269 331 402
#     4  12  21  38  68 100 137 172 220 274 363 400
#
# _framework density 24.065094999999999
#
# number of rings (size 3 to 8) (size 9 to 14) (size 15 to 20)
#    0.000    1.333    4.444    2.333    0.000    6.222 
#    8.000    6.667    0.000    0.000    0.000    0.000 
#    0.000    0.000    0.000    0.000    0.000    0.000 
#
# Total GULP energy -200801.159427 kJ/mol
# GULP energy per Si atom -5577.809984 kJ/mol
# Density = 2.401032 g / cm^3
# Si number density = 24.065095 Si / 1000 Ang^3
#
#
#
# Elastic Constant Matrix: (Units=GPa)
#
#
# Indices 1 2 3 4 5 6 
#
# 1 58.8571 17.6122 13.6779 0.0000 0.0000 0.0000
# 2 17.6122 198.0815 73.5870 0.0000 0.0000 0.0000
# 3 13.6779 73.5870 192.0767 0.0000 0.0000 0.0000
# 4 0.0000 0.0000 0.0000 25.0784 0.0000 0.0000
# 5 0.0000 0.0000 0.0000 0.0000 -125.7746 0.0000
# 6 0.0000 0.0000 0.0000 0.0000 0.0000 -31.6513
#
#
#
# Elastic Compliance Matrix: (Units=1/GPa)
#
#
# Indices 1 2 3 4 5 6 
#
# 1 0.017549 -0.001278 -0.000760 0.000000 0.000000 0.000000
# 2 -0.001278 0.005979 -0.002200 0.000000 0.000000 0.000000
# 3 -0.000760 -0.002200 0.006103 0.000000 0.000000 0.000000
# 4 0.000000 0.000000 0.000000 0.039875 0.000000 0.000000
# 5 0.000000 0.000000 0.000000 0.000000 -0.007951 0.000000
# 6 0.000000 0.000000 0.000000 0.000000 0.000000 -0.031594
#
#
# Mechanical properties :
#
#
# Convention : Reuss Voigt Hill
#
# Bulk Modulus (GPa) = 47.26764 73.19660 60.23212
# Shear Modulus (GPa) = 109.91592 -3.52696 53.19448
#
# Velocity S-wave (km/s) = 6.76562 -1.21193 4.70663
# Velocity P-wave (km/s) = 8.98419 5.34076 7.39051
#
# Compressibility (1/GPa) = 0.02115612
#
# Stress axis : x y z
#
# Youngs Moduli (GPa) = 56.98211 167.24496 163.85067
#
# Poissons Ratio (x) = 0.21374 0.12454
# Poissons Ratio (y) = 0.07282 0.36043
# Poissons Ratio (z) = 0.04331 0.36789
#
# Static dielectric constant tensor:
#      x y z
#    x 1.971220 0.000000 0.000000 
#    y 0.000000 1.960780 0.000000 
#    z 0.000000 0.000000 1.917140 
# 
# From -- ./inp_files/21926.got.cif
#   From: 2010.05.17/outbox.cif.g08.bks.cpg/sg48_11_cif.got.tgz:21926.got - 2010.06.03 20:39:00.
