data_PCOD9390713
_publ_section_title
;
Structure prediction by ZEFSAII (Michael W. Deem and Ramdas Pophale) SiO2 
 PCOD9390713
Probable space group: P N N N
;
_chemical_formula_sum "Si O2"
_cell_formula_units_Z 60
_cell_length_a 23.508765
_cell_length_b 9.947170
_cell_length_c 12.989640
_cell_angle_alpha 90.000000
_cell_angle_beta 90.000000
_cell_angle_gamma 90.000000
_cell_volume 3037.571224
_symmetry_space_group_name_H-M "P N N N"
_symmetry_group_IT_number 48
_space_group.IT_coordinate_system_code '2'
_symmetry_cell_setting 'orthorhombic'
loop_
_space_group_symop_operation_xyz
x,y,z
1/2-x,1/2-y,z
x,1/2-y,1/2-z
1/2-x,y,1/2-z
-x,-y,-z
1/2+x,1/2+y,-z
-x,1/2+y,1/2+z
1/2+x,-y,1/2+z
loop_
_atom_site_type_symbol
_atom_site_label
_atom_site_fract_x
_atom_site_fract_y
_atom_site_fract_z
Si Si1 0.233629 0.599079 0.929809
Si Si2 0.021593 0.804995 0.359977
Si Si3 0.354830 0.989016 0.547014
Si Si4 0.036740 0.368591 0.464884
Si Si5 0.440303 0.515988 0.637127
Si Si6 0.488589 0.750000 0.750000
Si Si7 0.666225 0.598060 0.274333
Si Si8 0.122071 0.804578 0.478790
O O1 0.250000 0.750000 0.887988
O O2 0.288245 0.530081 0.982467
O O3 0.207541 0.498681 0.842680
O O4 0.184470 0.634105 0.012049
O O5 0.003462 0.750000 0.250000
O O6 0.088573 0.781906 0.373919
O O7 0.985820 0.736869 0.451112
O O8 0.003146 0.958417 0.365777
O O9 0.378738 0.838223 0.536160
O O10 0.397617 0.086952 0.485268
O O11 0.348493 0.033221 0.664775
O O12 0.023334 0.306353 0.350997
O O13 0.000000 0.500000 0.500000
O O14 0.446086 0.629812 0.721995
O O15 0.393688 0.404486 0.665147
O O16 0.417975 0.591095 0.537835
O O17 0.685506 0.750000 0.250000
#
# Coordination Sequence:
#
# PCOD9390713 Si02
#       8
#     8   8   8   8   8   4   8   8
#     4   9  22  39  62  89 122 171 225 275 328 400
#     4  12  23  38  61  91 128 166 212 270 334 395
#     4  11  21  38  59  87 127 165 212 266 332 404
#     4  12  23  40  61  97 132 173 213 269 341 411
#     4  11  21  37  58  92 129 162 210 264 322 402
#     4  12  24  38  64  96 136 180 222 262 340 426
#     4  11  22  37  61  94 132 171 212 269 343 402
#     4  10  21  38  59  87 121 164 217 269 320 394
#
# _framework density 19.752624999999998
#
# number of rings (size 3 to 8) (size 9 to 14) (size 15 to 20)
#    0.000    1.067    2.667    5.200    0.000    6.933 
#    0.000    0.000    0.000    3.600    0.000    0.933 
#    0.000    0.000    0.000    0.000    0.000    0.000 
#
# Total GULP energy -334279.057222 kJ/mol
# GULP energy per Si atom -5571.317620 kJ/mol
# Density = 1.970767 g / cm^3
# Si number density = 19.752625 Si / 1000 Ang^3
#
#
#
# Elastic Constant Matrix: (Units=GPa)
#
#
# Indices 1 2 3 4 5 6 
#
# 1 121.9795 37.0233 42.9673 0.0000 0.0000 0.0000
# 2 37.0233 86.2705 22.5575 0.0000 0.0000 0.0000
# 3 42.9673 22.5575 88.8087 0.0000 0.0000 0.0000
# 4 0.0000 0.0000 0.0000 23.0597 0.0000 0.0000
# 5 0.0000 0.0000 0.0000 0.0000 28.1098 0.0000
# 6 0.0000 0.0000 0.0000 0.0000 0.0000 33.5280
#
#
#
# Elastic Compliance Matrix: (Units=1/GPa)
#
#
# Indices 1 2 3 4 5 6 
#
# 1 0.010784 -0.003496 -0.004330 0.000000 0.000000 0.000000
# 2 -0.003496 0.013549 -0.001750 0.000000 0.000000 0.000000
# 3 -0.004330 -0.001750 0.013799 0.000000 0.000000 0.000000
# 4 0.000000 0.000000 0.000000 0.043366 0.000000 0.000000
# 5 0.000000 0.000000 0.000000 0.000000 0.035575 0.000000
# 6 0.000000 0.000000 0.000000 0.000000 0.000000 0.029826
#
#
# Mechanical properties :
#
#
# Convention : Reuss Voigt Hill
#
# Bulk Modulus (GPa) = 52.68272 55.79500 54.23886
# Shear Modulus (GPa) = 29.00596 29.90688 29.45642
#
# Velocity S-wave (km/s) = 3.83621 3.89533 3.86588
# Velocity P-wave (km/s) = 6.80817 6.96704 6.88806
#
# Compressibility (1/GPa) = 0.01898156
#
# Stress axis : x y z
#
# Youngs Moduli (GPa) = 92.72691 73.80406 72.46662
#
# Poissons Ratio (x) = 0.25802 0.31376
# Poissons Ratio (y) = 0.32418 0.12682
# Poissons Ratio (z) = 0.40148 0.12916
#
# Static dielectric constant tensor:
#      x y z
#    x 1.782500 0.000000 0.000000 
#    y 0.000000 1.789720 0.000000 
#    z 0.000000 0.000000 1.749920 
# 
# From -- ./inp_files/23652.got.cif
#   From: 2010.05.17/outbox.cif.g08.bks.cpg/sg48_12_cif.got.tgz:23652.got - 2010.06.03 20:39:00.
