data_PCOD9390044
_publ_section_title
;
Structure prediction by ZEFSAII (Michael W. Deem and Ramdas Pophale) SiO2 
 PCOD9390044
Probable space group: P N N N
;
_chemical_formula_sum "Si O2"
_cell_formula_units_Z 58
_cell_length_a 18.484210
_cell_length_b 19.740502
_cell_length_c 8.436659
_cell_angle_alpha 90.000000
_cell_angle_beta 90.000000
_cell_angle_gamma 90.000000
_cell_volume 3078.432124
_symmetry_space_group_name_H-M "P N N N"
_symmetry_group_IT_number 48
_space_group.IT_coordinate_system_code '2'
_symmetry_cell_setting 'orthorhombic'
loop_
_space_group_symop_operation_xyz
x,y,z
1/2-x,1/2-y,z
x,1/2-y,1/2-z
1/2-x,y,1/2-z
-x,-y,-z
1/2+x,1/2+y,-z
-x,1/2+y,1/2+z
1/2+x,-y,1/2+z
loop_
_atom_site_type_symbol
_atom_site_label
_atom_site_fract_x
_atom_site_fract_y
_atom_site_fract_z
Si Si1 0.955545 0.567621 0.947116
Si Si2 0.250000 0.750000 0.250000
Si Si3 0.365585 0.856382 0.136685
Si Si4 0.530762 0.828860 0.227660
Si Si5 0.835447 0.169888 0.274376
Si Si6 0.334408 0.492009 0.248319
Si Si7 0.077401 0.061841 0.943819
Si Si8 0.555369 0.074953 0.343356
O O1 0.877699 0.543331 0.890004
O O2 0.999423 0.593757 0.793748
O O3 0.950578 0.627962 0.071067
O O4 0.000000 0.500000 0.000000
O O5 0.303928 0.799864 0.159270
O O6 0.442332 0.836252 0.215819
O O7 0.345138 0.927648 0.218866
O O8 0.364971 0.858816 0.943449
O O9 0.544500 0.750000 0.250000
O O10 0.580581 0.866254 0.359636
O O11 0.848563 0.250000 0.250000
O O12 0.750000 0.158241 0.250000
O O13 0.880893 0.128164 0.145345
O O14 0.250000 0.477390 0.250000
O O15 0.372132 0.462689 0.088267
O O16 0.084076 0.001160 0.817078
O O17 0.993737 0.067488 0.001827
#
# Coordination Sequence:
#
# PCOD9390044 Si02
#       8
#     8   2   8   8   8   8   8   8
#     4  11  19  40  65  94 129 169 222 274 316 386
#     4  12  24  36  58  96 152 180 196 254 320 400
#     4  12  23  38  61  93 135 185 216 250 313 410
#     4  12  24  40  67  99 130 170 221 274 338 391
#     4  11  25  37  53  89 140 179 211 249 310 390
#     4  11  24  42  68  97 129 172 225 273 339 393
#     4  10  23  38  62  93 120 160 222 281 315 379
#     4  10  19  36  61  81 122 174 216 259 305 358
#
# _framework density 18.84076
#
# number of rings (size 3 to 8) (size 9 to 14) (size 15 to 20)
#    0.000    0.966    5.517    2.483    3.862    2.207 
#    0.000    2.759    0.000    2.483    0.000    0.000 
#    0.000    0.000    0.000    0.000    0.000    0.000 
#
# Total GULP energy -323034.801751 kJ/mol
# GULP energy per Si atom -5569.565547 kJ/mol
# Density = 1.879788 g / cm^3
# Si number density = 18.840760 Si / 1000 Ang^3
#
#
#
# Elastic Constant Matrix: (Units=GPa)
#
#
# Indices 1 2 3 4 5 6 
#
# 1 120.7866 70.7098 26.4338 0.0000 0.0000 0.0000
# 2 70.7098 153.3781 48.1399 0.0000 0.0000 0.0000
# 3 26.4338 48.1399 62.9214 0.0000 0.0000 0.0000
# 4 0.0000 0.0000 0.0000 16.7592 0.0000 0.0000
# 5 0.0000 0.0000 0.0000 0.0000 17.8694 0.0000
# 6 0.0000 0.0000 0.0000 0.0000 0.0000 33.2802
#
#
#
# Elastic Compliance Matrix: (Units=1/GPa)
#
#
# Indices 1 2 3 4 5 6 
#
# 1 0.011388 -0.004933 -0.001010 0.000000 0.000000 0.000000
# 2 -0.004933 0.010717 -0.006127 0.000000 0.000000 0.000000
# 3 -0.001010 -0.006127 0.021005 0.000000 0.000000 0.000000
# 4 0.000000 0.000000 0.000000 0.059669 0.000000 0.000000
# 5 0.000000 0.000000 0.000000 0.000000 0.055962 0.000000
# 6 0.000000 0.000000 0.000000 0.000000 0.000000 0.030048
#
#
# Mechanical properties :
#
#
# Convention : Reuss Voigt Hill
#
# Bulk Modulus (GPa) = 52.71555 69.73923 61.22739
# Shear Modulus (GPa) = 22.80487 26.36860 24.58673
#
# Velocity S-wave (km/s) = 3.48286 3.74512 3.61636
# Velocity P-wave (km/s) = 6.64936 7.46971 7.07144
#
# Compressibility (1/GPa) = 0.01896973
#
# Stress axis : x y z
#
# Youngs Moduli (GPa) = 87.81211 93.30884 47.60811
#
# Poissons Ratio (x) = 0.46029 0.04808
# Poissons Ratio (y) = 0.43318 0.29170
# Poissons Ratio (z) = 0.08869 0.57171
#
# Static dielectric constant tensor:
#      x y z
#    x 1.658280 0.000000 0.000000 
#    y 0.000000 1.702320 0.000000 
#    z 0.000000 0.000000 1.906920 
# 
# From -- ./inp_files/14424.got.cif
#   From: 2010.05.17/outbox.cif.g08.bks.cpg/sg48_8_cif.got.tgz:14424.got - 2010.06.03 20:39:00.
