data_PCOD9390477
_publ_section_title
;
Structure prediction by ZEFSAII (Michael W. Deem and Ramdas Pophale) SiO2 
 PCOD9390477
Probable space group: P N N N
;
_chemical_formula_sum "Si O2"
_cell_formula_units_Z 40
_cell_length_a 27.347324
_cell_length_b 8.245672
_cell_length_c 8.899847
_cell_angle_alpha 90.000000
_cell_angle_beta 90.000000
_cell_angle_gamma 90.000000
_cell_volume 2006.889367
_symmetry_space_group_name_H-M "P N N N"
_symmetry_group_IT_number 48
_space_group.IT_coordinate_system_code '2'
_symmetry_cell_setting 'orthorhombic'
loop_
_space_group_symop_operation_xyz
x,y,z
1/2-x,1/2-y,z
x,1/2-y,1/2-z
1/2-x,y,1/2-z
-x,-y,-z
1/2+x,1/2+y,-z
-x,1/2+y,1/2+z
1/2+x,-y,1/2+z
loop_
_atom_site_type_symbol
_atom_site_label
_atom_site_fract_x
_atom_site_fract_y
_atom_site_fract_z
Si Si1 0.363249 0.296961 0.573491
Si Si2 0.112170 0.750000 0.750000
Si Si3 0.893778 0.250000 0.750000
Si Si4 0.736363 0.939289 0.076128
Si Si5 0.332522 0.557108 0.011363
Si Si6 0.057129 0.536376 0.996307
O O1 0.364395 0.250000 0.750000
O O2 0.321589 0.436426 0.551815
O O3 0.413291 0.368371 0.513519
O O4 0.348627 0.130575 0.494276
O O5 0.146309 0.854382 0.862257
O O6 0.077382 0.636227 0.851862
O O7 0.858642 0.359073 0.648843
O O8 0.926544 0.139586 0.640923
O O9 0.750000 0.750000 0.049757
O O10 0.750000 0.969885 0.250000
O O11 0.773519 0.051777 0.985802
O O12 0.000000 0.500000 0.000000
#
# Coordination Sequence:
#
# PCOD9390477 Si02
#       6
#     8   4   4   8   8   8
#     4  11  19  37  68  98 121 162 232 271 307 380
#     4  10  20  40  61  96 130 170 213 272 320 394
#     4  10  26  44  57  98 138 166 213 270 352 398
#     4   9  14  30  60  96 115 147 207 264 299 369
#     4  10  20  38  66  93 134 162 211 267 327 396
#     4  11  25  42  65  90 129 175 224 273 334 385
#
# _framework density 19.931342000000001
#
# number of rings (size 3 to 8) (size 9 to 14) (size 15 to 20)
#    0.000    1.800    6.000    0.000    1.400    2.400 
#    0.000   15.500    0.000    3.600    0.000    0.000 
#    0.000    0.000    0.000    0.000    0.000    0.000 
#
# Total GULP energy -223381.067810 kJ/mol
# GULP energy per Si atom -5584.526695 kJ/mol
# Density = 1.988598 g / cm^3
# Si number density = 19.931342 Si / 1000 Ang^3
#
#
#
# Elastic Constant Matrix: (Units=GPa)
#
#
# Indices 1 2 3 4 5 6 
#
# 1 186.7810 59.1873 51.7236 0.0000 0.0000 0.0000
# 2 59.1873 85.6908 44.1880 0.0000 0.0000 0.0000
# 3 51.7236 44.1880 95.0185 0.0000 0.0000 0.0000
# 4 0.0000 0.0000 0.0000 15.9789 0.0000 0.0000
# 5 0.0000 0.0000 0.0000 0.0000 15.4826 0.0000
# 6 0.0000 0.0000 0.0000 0.0000 0.0000 28.4934
#
#
#
# Elastic Compliance Matrix: (Units=1/GPa)
#
#
# Indices 1 2 3 4 5 6 
#
# 1 0.007159 -0.003861 -0.002102 0.000000 0.000000 0.000000
# 2 -0.003861 0.017434 -0.006006 0.000000 0.000000 0.000000
# 3 -0.002102 -0.006006 0.014461 0.000000 0.000000 0.000000
# 4 0.000000 0.000000 0.000000 0.062583 0.000000 0.000000
# 5 0.000000 0.000000 0.000000 0.000000 0.064588 0.000000
# 6 0.000000 0.000000 0.000000 0.000000 0.000000 0.035096
#
#
# Mechanical properties :
#
#
# Convention : Reuss Voigt Hill
#
# Bulk Modulus (GPa) = 66.14903 75.29868 70.72386
# Shear Modulus (GPa) = 21.71106 26.15042 23.93074
#
# Velocity S-wave (km/s) = 3.30402 3.62612 3.46881
# Velocity P-wave (km/s) = 6.91491 7.44263 7.18361
#
# Compressibility (1/GPa) = 0.01511738
#
# Stress axis : x y z
#
# Youngs Moduli (GPa) = 139.67619 57.35973 69.15095
#
# Poissons Ratio (x) = 0.22149 0.14532
# Poissons Ratio (y) = 0.53934 0.41529
# Poissons Ratio (z) = 0.29353 0.34448
#
# Static dielectric constant tensor:
#      x y z
#    x 1.710930 0.000000 0.000000 
#    y 0.000000 1.718620 0.000000 
#    z 0.000000 0.000000 1.709090 
# 
# From -- ./inp_files/9235.got.cif
#   From: 2010.05.17/outbox.cif.g08.bks.cpg/sg48_5_cif.got.tgz:9235.got - 2010.06.03 20:39:00.
