data_PCOD9390256
_publ_section_title
;
Structure prediction by ZEFSAII (Michael W. Deem and Ramdas Pophale) SiO2 
 PCOD9390256
Probable space group: P N N N
;
_chemical_formula_sum "Si O2"
_cell_formula_units_Z 40
_cell_length_a 20.819592
_cell_length_b 5.024261
_cell_length_c 18.679666
_cell_angle_alpha 90.000000
_cell_angle_beta 90.000000
_cell_angle_gamma 90.000000
_cell_volume 1953.950300
_symmetry_space_group_name_H-M "P N N N"
_symmetry_group_IT_number 48
_space_group.IT_coordinate_system_code '2'
_symmetry_cell_setting 'orthorhombic'
loop_
_space_group_symop_operation_xyz
x,y,z
1/2-x,1/2-y,z
x,1/2-y,1/2-z
1/2-x,y,1/2-z
-x,-y,-z
1/2+x,1/2+y,-z
-x,1/2+y,1/2+z
1/2+x,-y,1/2+z
loop_
_atom_site_type_symbol
_atom_site_label
_atom_site_fract_x
_atom_site_fract_y
_atom_site_fract_z
Si Si1 0.382261 0.113991 0.675039
Si Si2 0.979369 0.822249 0.829801
Si Si3 0.594998 0.825449 0.030506
Si Si4 0.705756 0.492227 0.059120
Si Si5 0.044626 0.700345 0.075296
O O1 0.368276 0.250000 0.750000
O O2 0.327342 0.940058 0.636604
O O3 0.390637 0.347393 0.615159
O O4 0.448635 0.947200 0.677501
O O5 0.957137 0.750000 0.750000
O O6 0.973695 0.553271 0.875191
O O7 0.941562 0.052098 0.873215
O O8 0.595738 0.082149 0.980934
O O9 0.646835 0.601763 0.010391
O O10 0.520874 0.736769 0.031457
O O11 0.750000 0.750000 0.067356
O O12 0.750000 0.250000 0.035286
#
# Coordination Sequence:
#
# PCOD9390256 Si02
#       5
#     8   8   8   8   8
#     4   9  20  37  53  75 107 151 197 249 295 352
#     4  11  21  33  55  81 112 142 181 238 311 369
#     4   8  20  36  56  77 104 145 198 245 299 350
#     4  10  23  37  54  75 107 148 200 256 294 342
#     4  10  20  35  55  81 105 144 188 243 295 377
#
# _framework density 20.471350999999999
#
# number of rings (size 3 to 8) (size 9 to 14) (size 15 to 20)
#    1.200    1.200    0.000    3.000    2.800    9.200 
#    0.000    1.000    0.000    0.000    0.000    0.000 
#    0.000    0.800    0.000    9.200    0.000    2.600 
#
# Total GULP energy -222780.163494 kJ/mol
# GULP energy per Si atom -5569.504087 kJ/mol
# Density = 2.042476 g / cm^3
# Si number density = 20.471351 Si / 1000 Ang^3
#
#
#
# Elastic Constant Matrix: (Units=GPa)
#
#
# Indices 1 2 3 4 5 6 
#
# 1 64.0216 55.8774 38.5780 0.0000 0.0000 0.0000
# 2 55.8774 137.9851 56.3659 0.0000 0.0000 0.0000
# 3 38.5780 56.3659 106.3090 0.0000 0.0000 0.0000
# 4 0.0000 0.0000 0.0000 31.6156 0.0000 0.0000
# 5 0.0000 0.0000 0.0000 0.0000 14.9774 0.0000
# 6 0.0000 0.0000 0.0000 0.0000 0.0000 96.7148
#
#
#
# Elastic Compliance Matrix: (Units=1/GPa)
#
#
# Indices 1 2 3 4 5 6 
#
# 1 0.026032 -0.008530 -0.004924 0.000000 0.000000 0.000000
# 2 -0.008530 0.012046 -0.003291 0.000000 0.000000 0.000000
# 3 -0.004924 -0.003291 0.012938 0.000000 0.000000 0.000000
# 4 0.000000 0.000000 0.000000 0.031630 0.000000 0.000000
# 5 0.000000 0.000000 0.000000 0.000000 0.066767 0.000000
# 6 0.000000 0.000000 0.000000 0.000000 0.000000 0.010340
#
#
# Mechanical properties :
#
#
# Convention : Reuss Voigt Hill
#
# Bulk Modulus (GPa) = 57.06001 67.77314 62.41658
# Shear Modulus (GPa) = 25.11480 39.16118 32.13799
#
# Velocity S-wave (km/s) = 3.50641 4.37850 3.96650
# Velocity P-wave (km/s) = 6.65784 7.66420 7.17867
#
# Compressibility (1/GPa) = 0.01752541
#
# Stress axis : x y z
#
# Youngs Moduli (GPa) = 38.41452 83.01478 77.28926
#
# Poissons Ratio (x) = 0.70814 0.38055
# Poissons Ratio (y) = 0.32769 0.25439
# Poissons Ratio (z) = 0.18914 0.27323
#
# Static dielectric constant tensor:
#      x y z
#    x 1.808560 0.000000 0.000000 
#    y 0.000000 1.814080 0.000000 
#    z 0.000000 0.000000 1.772450 
# 
# From -- ./inp_files/31819.got.cif
#   From: 2010.05.17/outbox.cif.g08.bks.cpg/sg48_16_cif.got.tgz:31819.got - 2010.06.03 20:39:00.
