data_PCOD9390943
_publ_section_title
;
Structure prediction by ZEFSAII (Michael W. Deem and Ramdas Pophale) SiO2 
 PCOD9390943
Probable space group: P N N N
;
_chemical_formula_sum "Si O2"
_cell_formula_units_Z 58
_cell_length_a 8.978089
_cell_length_b 26.114242
_cell_length_c 11.079710
_cell_angle_alpha 90.000000
_cell_angle_beta 90.000000
_cell_angle_gamma 90.000000
_cell_volume 2597.704364
_symmetry_space_group_name_H-M "P N N N"
_symmetry_group_IT_number 48
_space_group.IT_coordinate_system_code '2'
_symmetry_cell_setting 'orthorhombic'
loop_
_space_group_symop_operation_xyz
x,y,z
1/2-x,1/2-y,z
x,1/2-y,1/2-z
1/2-x,y,1/2-z
-x,-y,-z
1/2+x,1/2+y,-z
-x,1/2+y,1/2+z
1/2+x,-y,1/2+z
loop_
_atom_site_type_symbol
_atom_site_label
_atom_site_fract_x
_atom_site_fract_y
_atom_site_fract_z
Si Si1 0.259758 0.014116 0.023037
Si Si2 0.478885 0.559357 0.352303
Si Si3 0.096005 0.829407 0.435369
Si Si4 0.592412 0.484533 0.191211
Si Si5 0.654011 0.322986 0.125579
Si Si6 0.750000 0.250000 0.750000
Si Si7 0.611198 0.900071 0.681935
Si Si8 0.420335 0.260936 0.395082
O O1 0.184364 0.063672 0.081890
O O2 0.333755 0.973096 0.111604
O O3 0.389138 0.037255 0.937715
O O4 0.137044 0.982919 0.947294
O O5 0.454867 0.619008 0.369336
O O6 0.532266 0.540676 0.221622
O O7 0.235136 0.841720 0.522752
O O8 0.149040 0.786811 0.337104
O O9 0.968766 0.811627 0.531853
O O10 0.750000 0.473724 0.250000
O O11 0.480336 0.444145 0.251656
O O12 0.750000 0.315384 0.250000
O O13 0.516436 0.360987 0.147929
O O14 0.567263 0.273286 0.076365
O O15 0.750000 0.874696 0.750000
O O16 0.250000 0.250000 0.434014
O O17 0.417420 0.250000 0.250000
#
# Coordination Sequence:
#
# PCOD9390943 Si02
#       8
#     8   8   8   8   8   2   8   8
#     4  10  22  41  66  99 141 180 235 283 352 431
#     4  10  23  42  69  98 137 189 228 296 356 419
#     4  12  26  49  74 100 145 193 244 301 362 431
#     4  10  21  43  62  91 137 188 231 278 339 424
#     4  12  26  43  73 106 142 184 230 295 379 440
#     4  12  28  48  72 104 136 196 262 282 340 454
#     4  12  25  37  65 107 144 175 232 288 351 428
#     4  11  25  47  76 108 138 173 236 309 374 433
#
# _framework density 22.327406
#
# number of rings (size 3 to 8) (size 9 to 14) (size 15 to 20)
#    0.000    0.966    4.138    1.655    5.793    2.207 
#    0.000    1.724    0.000    0.000    0.000    0.000 
#    0.000    0.000    0.000    0.000    0.000    0.000 
#
# Total GULP energy -323493.461016 kJ/mol
# GULP energy per Si atom -5577.473466 kJ/mol
# Density = 2.227659 g / cm^3
# Si number density = 22.327406 Si / 1000 Ang^3
#
#
#
# Elastic Constant Matrix: (Units=GPa)
#
#
# Indices 1 2 3 4 5 6 
#
# 1 151.0370 25.0573 38.6947 0.0000 0.0000 0.0000
# 2 25.0573 89.4330 20.2810 0.0000 0.0000 0.0000
# 3 38.6947 20.2810 63.1001 0.0000 0.0000 0.0000
# 4 0.0000 0.0000 0.0000 17.8637 0.0000 0.0000
# 5 0.0000 0.0000 0.0000 0.0000 24.8844 0.0000
# 6 0.0000 0.0000 0.0000 0.0000 0.0000 40.7126
#
#
#
# Elastic Compliance Matrix: (Units=1/GPa)
#
#
# Indices 1 2 3 4 5 6 
#
# 1 0.007975 -0.001214 -0.004501 0.000000 0.000000 0.000000
# 2 -0.001214 0.012245 -0.003191 0.000000 0.000000 0.000000
# 3 -0.004501 -0.003191 0.019633 0.000000 0.000000 0.000000
# 4 0.000000 0.000000 0.000000 0.055979 0.000000 0.000000
# 5 0.000000 0.000000 0.000000 0.000000 0.040186 0.000000
# 6 0.000000 0.000000 0.000000 0.000000 0.000000 0.024562
#
#
# Mechanical properties :
#
#
# Convention : Reuss Voigt Hill
#
# Bulk Modulus (GPa) = 45.36691 52.40399 48.88545
# Shear Modulus (GPa) = 26.91923 31.32795 29.12359
#
# Velocity S-wave (km/s) = 3.47603 3.74988 3.61555
# Velocity P-wave (km/s) = 6.03932 6.50158 6.27471
#
# Compressibility (1/GPa) = 0.02204250
#
# Stress axis : x y z
#
# Youngs Moduli (GPa) = 125.38734 81.66338 50.93358
#
# Poissons Ratio (x) = 0.09913 0.22923
# Poissons Ratio (y) = 0.15221 0.16255
# Poissons Ratio (z) = 0.56431 0.26062
#
# Static dielectric constant tensor:
#      x y z
#    x 1.968590 0.000000 0.000000 
#    y 0.000000 1.946910 0.000000 
#    z 0.000000 0.000000 1.893540 
# 
# From -- ./inp_files/18970.got.cif
#   From: 2010.05.17/outbox.cif.g08.bks.cpg/sg48_10_cif.got.tgz:18970.got - 2010.06.03 20:39:00.
