data_PCOD9390215
_publ_section_title
;
Structure prediction by ZEFSAII (Michael W. Deem and Ramdas Pophale) SiO2 
 PCOD9390215
Probable space group: P N N N
;
_chemical_formula_sum "Si O2"
_cell_formula_units_Z 40
_cell_length_a 20.641931
_cell_length_b 19.942911
_cell_length_c 4.879147
_cell_angle_alpha 90.000000
_cell_angle_beta 90.000000
_cell_angle_gamma 90.000000
_cell_volume 2008.550595
_symmetry_space_group_name_H-M "P N N N"
_symmetry_group_IT_number 48
_space_group.IT_coordinate_system_code '2'
_symmetry_cell_setting 'orthorhombic'
loop_
_space_group_symop_operation_xyz
x,y,z
1/2-x,1/2-y,z
x,1/2-y,1/2-z
1/2-x,y,1/2-z
-x,-y,-z
1/2+x,1/2+y,-z
-x,1/2+y,1/2+z
1/2+x,-y,1/2+z
loop_
_atom_site_type_symbol
_atom_site_label
_atom_site_fract_x
_atom_site_fract_y
_atom_site_fract_z
Si Si1 0.875697 0.513419 0.948784
Si Si2 0.467711 0.814523 0.577932
Si Si3 0.386724 0.853792 0.070187
Si Si4 0.552951 0.941250 0.459110
Si Si5 0.250000 0.527825 0.750000
Si Si6 0.250000 0.623982 0.250000
O O1 0.925412 0.552314 0.145585
O O2 0.806514 0.513209 0.099739
O O3 0.892981 0.434559 0.918370
O O4 0.884948 0.543315 0.648938
O O5 0.492735 0.750000 0.750000
O O6 0.436677 0.818186 0.274617
O O7 0.521688 0.872009 0.555926
O O8 0.406717 0.835412 0.765357
O O9 0.312821 0.837321 0.144289
O O10 0.500000 0.000000 0.500000
O O11 0.226596 0.576781 0.503310
#
# Coordination Sequence:
#
# PCOD9390215 Si02
#       6
#     8   8   8   8   4   4
#     4  11  20  35  60  87 111 147 184 241 292 342
#     4  12  25  38  54  80 116 153 190 239 287 341
#     4  11  20  38  56  79 113 149 195 234 285 333
#     4  12  21  36  59  85 112 148 193 234 288 351
#     4  10  20  34  54  90 120 134 182 240 298 336
#     4  10  20  34  57  80 110 154 189 238 274 328
#
# _framework density 19.914860000000001
#
# number of rings (size 3 to 8) (size 9 to 14) (size 15 to 20)
#    0.000    0.800    4.000    7.200    0.000    0.000 
#    0.000    3.000    0.000    0.000    0.000    4.200 
#    0.000    0.000    0.000    0.000    0.000    0.000 
#
# Total GULP energy -223233.212954 kJ/mol
# GULP energy per Si atom -5580.830324 kJ/mol
# Density = 1.986953 g / cm^3
# Si number density = 19.914860 Si / 1000 Ang^3
#
#
#
# Elastic Constant Matrix: (Units=GPa)
#
#
# Indices 1 2 3 4 5 6 
#
# 1 60.0662 31.1781 7.4940 0.0000 0.0000 0.0000
# 2 31.1781 98.7622 0.2433 0.0000 0.0000 0.0000
# 3 7.4940 0.2433 88.6510 0.0000 0.0000 0.0000
# 4 0.0000 0.0000 0.0000 30.5321 0.0000 0.0000
# 5 0.0000 0.0000 0.0000 0.0000 36.8633 0.0000
# 6 0.0000 0.0000 0.0000 0.0000 0.0000 3.0751
#
#
#
# Elastic Compliance Matrix: (Units=1/GPa)
#
#
# Indices 1 2 3 4 5 6 
#
# 1 0.020160 -0.006360 -0.001687 0.000000 0.000000 0.000000
# 2 -0.006360 0.012132 0.000504 0.000000 0.000000 0.000000
# 3 -0.001687 0.000504 0.011421 0.000000 0.000000 0.000000
# 4 0.000000 0.000000 0.000000 0.032752 0.000000 0.000000
# 5 0.000000 0.000000 0.000000 0.000000 0.027127 0.000000
# 6 0.000000 0.000000 0.000000 0.000000 0.000000 0.325188
#
#
# Mechanical properties :
#
#
# Convention : Reuss Voigt Hill
#
# Bulk Modulus (GPa) = 34.93050 36.14557 35.53804
# Shear Modulus (GPa) = 11.02757 27.99838 19.51298
#
# Velocity S-wave (km/s) = 2.35571 3.75361 3.13360
# Velocity P-wave (km/s) = 4.99772 6.08075 5.56564
#
# Compressibility (1/GPa) = 0.02862828
#
# Stress axis : x y z
#
# Youngs Moduli (GPa) = 49.60312 82.42727 87.55506
#
# Poissons Ratio (x) = 0.52425 0.14768
# Poissons Ratio (y) = 0.31548 -0.04416
# Poissons Ratio (z) = 0.08367 -0.04157
#
# Static dielectric constant tensor:
#      x y z
#    x 1.726980 0.000000 0.000000 
#    y 0.000000 1.747500 0.000000 
#    z 0.000000 0.000000 1.735700 
# 
# From -- ./inp_files/5100.got.cif
#   From: 2010.05.17/outbox.cif.g08.bks.cpg/sg48_3_cif.got.tgz:5100.got - 2010.06.03 20:39:00.
