data_PCOD9390537
_publ_section_title
;
Structure prediction by ZEFSAII (Michael W. Deem and Ramdas Pophale) SiO2 
 PCOD9390537
Probable space group: P N N N
;
_chemical_formula_sum "Si O2"
_cell_formula_units_Z 32
_cell_length_a 31.051955
_cell_length_b 5.693722
_cell_length_c 7.378413
_cell_angle_alpha 90.000000
_cell_angle_beta 90.000000
_cell_angle_gamma 90.000000
_cell_volume 1304.512268
_symmetry_space_group_name_H-M "P N N N"
_symmetry_group_IT_number 48
_space_group.IT_coordinate_system_code '2'
_symmetry_cell_setting 'orthorhombic'
loop_
_space_group_symop_operation_xyz
x,y,z
1/2-x,1/2-y,z
x,1/2-y,1/2-z
1/2-x,y,1/2-z
-x,-y,-z
1/2+x,1/2+y,-z
-x,1/2+y,1/2+z
1/2+x,-y,1/2+z
loop_
_atom_site_type_symbol
_atom_site_label
_atom_site_fract_x
_atom_site_fract_y
_atom_site_fract_z
Si Si1 0.555214 0.118311 0.967016
Si Si2 0.082765 0.250000 0.750000
Si Si3 0.508557 0.750000 0.750000
Si Si4 0.860763 0.377752 0.441191
Si Si5 0.766766 0.002560 0.956251
O O1 0.521829 0.284875 0.073294
O O2 0.603767 0.215943 0.958894
O O3 0.556384 0.918046 0.122410
O O4 0.538103 0.979193 0.792603
O O5 0.112826 0.395992 0.617298
O O6 0.849238 0.250000 0.250000
O O7 0.818084 0.462931 0.540573
O O8 0.750000 0.750000 0.033335
O O9 0.750000 0.000571 0.750000
O O10 0.750000 0.250000 0.038688
#
# Coordination Sequence:
#
# PCOD9390537 Si02
#       5
#     8   4   4   8   8
#     4  10  21  41  65 100 139 189 239 305 360 440
#     4  10  20  40  63  94 130 186 230 292 361 442
#     4  10  20  42  64  96 148 182 252 296 362 436
#     4  10  22  43  68 100 140 183 235 294 377 440
#     4  10  24  47  71 102 141 183 233 304 361 442
#
# _framework density 24.530239000000002
#
# number of rings (size 3 to 8) (size 9 to 14) (size 15 to 20)
#    0.000    2.000    3.750    0.000    7.000    1.500 
#    9.000    0.000    0.000    0.000    0.000    0.000 
#    0.000    0.000    0.000    0.000    0.000    0.000 
#
# Total GULP energy -178807.793801 kJ/mol
# GULP energy per Si atom -5587.743556 kJ/mol
# Density = 2.447441 g / cm^3
# Si number density = 24.530239 Si / 1000 Ang^3
#
#
#
# Elastic Constant Matrix: (Units=GPa)
#
#
# Indices 1 2 3 4 5 6 
#
# 1 178.2067 60.0659 71.4352 0.0000 0.0000 0.0000
# 2 60.0659 161.1100 43.5827 0.0000 0.0000 0.0000
# 3 71.4352 43.5827 129.4889 0.0000 0.0000 0.0000
# 4 0.0000 0.0000 0.0000 20.7985 0.0000 0.0000
# 5 0.0000 0.0000 0.0000 0.0000 58.8309 0.0000
# 6 0.0000 0.0000 0.0000 0.0000 0.0000 -3.1171
#
#
#
# Elastic Compliance Matrix: (Units=1/GPa)
#
#
# Indices 1 2 3 4 5 6 
#
# 1 0.007696 -0.001893 -0.003609 0.000000 0.000000 0.000000
# 2 -0.001893 0.007294 -0.001411 0.000000 0.000000 0.000000
# 3 -0.003609 -0.001411 0.010188 0.000000 0.000000 0.000000
# 4 0.000000 0.000000 0.000000 0.048080 0.000000 0.000000
# 5 0.000000 0.000000 0.000000 0.000000 0.016998 0.000000
# 6 0.000000 0.000000 0.000000 0.000000 0.000000 -0.320809
#
#
# Mechanical properties :
#
#
# Convention : Reuss Voigt Hill
#
# Bulk Modulus (GPa) = 88.07543 90.99702 89.53622
# Shear Modulus (GPa) = -23.48047 34.88391 5.70172
#
# Velocity S-wave (km/s) = -3.09723 3.77514 1.52624
# Velocity P-wave (km/s) = 4.81584 7.49524 6.29964
#
# Compressibility (1/GPa) = 0.01135390
#
# Stress axis : x y z
#
# Youngs Moduli (GPa) = 129.93691 137.09212 98.15292
#
# Poissons Ratio (x) = 0.25953 0.35418
# Poissons Ratio (y) = 0.24599 0.13847
# Poissons Ratio (z) = 0.46888 0.19340
#
# Static dielectric constant tensor:
#      x y z
#    x 1.924730 0.000000 0.000000 
#    y 0.000000 2.753130 0.000000 
#    z 0.000000 0.000000 2.023430 
# 
# From -- ./inp_files/16598.got.cif
#   From: 2010.05.17/outbox.cif.g08.bks.cpg/sg48_9_cif.got.tgz:16598.got - 2010.06.03 20:39:00.
