data_PCOD9390885
_publ_section_title
;
Structure prediction by ZEFSAII (Michael W. Deem and Ramdas Pophale) SiO2 
 PCOD9390885
Probable space group: P N N N
;
_chemical_formula_sum "Si O2"
_cell_formula_units_Z 46
_cell_length_a 11.886736
_cell_length_b 24.837872
_cell_length_c 7.050676
_cell_angle_alpha 90.000000
_cell_angle_beta 90.000000
_cell_angle_gamma 90.000000
_cell_volume 2081.650235
_symmetry_space_group_name_H-M "P N N N"
_symmetry_group_IT_number 48
_space_group.IT_coordinate_system_code '2'
_symmetry_cell_setting 'orthorhombic'
loop_
_space_group_symop_operation_xyz
x,y,z
1/2-x,1/2-y,z
x,1/2-y,1/2-z
1/2-x,y,1/2-z
-x,-y,-z
1/2+x,1/2+y,-z
-x,1/2+y,1/2+z
1/2+x,-y,1/2+z
loop_
_atom_site_type_symbol
_atom_site_label
_atom_site_fract_x
_atom_site_fract_y
_atom_site_fract_z
Si Si1 0.523379 0.870298 0.657579
Si Si2 0.786194 0.418366 0.467304
Si Si3 0.620856 0.973353 0.549476
Si Si4 0.918361 0.810596 0.214014
Si Si5 0.250000 0.399012 0.750000
Si Si6 0.893952 0.170127 0.508441
Si Si7 0.250000 0.750000 0.750000
O O1 0.405774 0.888207 0.556189
O O2 0.593205 0.925341 0.695239
O O3 0.579508 0.829672 0.506152
O O4 0.488808 0.845260 0.855197
O O5 0.750000 0.430993 0.250000
O O6 0.803926 0.474150 0.574343
O O7 0.689356 0.379747 0.545432
O O8 0.680563 0.938416 0.386052
O O9 0.500000 0.000000 0.500000
O O10 0.877903 0.750000 0.250000
O O11 0.843716 0.856050 0.319365
O O12 0.043358 0.812373 0.302552
O O13 0.823014 0.213848 0.391989
#
# Coordination Sequence:
#
# PCOD9390885 Si02
#       7
#     8   8   8   8   4   8   2
#     4   9  19  38  59  90 123 162 208 253 313 384
#     4   9  16  33  58  88 120 165 195 253 316 372
#     4   9  17  33  68  88 122 171 204 254 329 374
#     4  11  24  40  62  89 124 168 214 265 312 375
#     4  10  21  41  64  90 125 167 218 264 316 380
#     4  11  22  38  62  88 131 160 213 259 321 379
#     4  12  20  38  62  92 124 178 200 268 332 374
#
# _framework density 22.097853000000001
#
# number of rings (size 3 to 8) (size 9 to 14) (size 15 to 20)
#    0.000    2.087    3.478    1.304    0.000    0.696 
#    0.000    4.348   11.478    4.174    0.000    0.000 
#    0.000    0.000    0.000    0.000    0.000    0.000 
#
# Total GULP energy -256524.196949 kJ/mol
# GULP energy per Si atom -5576.612977 kJ/mol
# Density = 2.204756 g / cm^3
# Si number density = 22.097853 Si / 1000 Ang^3
#
#
#
# Elastic Constant Matrix: (Units=GPa)
#
#
# Indices 1 2 3 4 5 6 
#
# 1 83.2980 52.0614 23.9439 0.0000 0.0000 0.0000
# 2 52.0614 151.4750 38.0239 0.0000 0.0000 0.0000
# 3 23.9439 38.0239 50.9774 0.0000 0.0000 0.0000
# 4 0.0000 0.0000 0.0000 -6.0282 0.0000 0.0000
# 5 0.0000 0.0000 0.0000 0.0000 27.9163 0.0000
# 6 0.0000 0.0000 0.0000 0.0000 0.0000 0.0528
#
#
#
# Elastic Compliance Matrix: (Units=1/GPa)
#
#
# Indices 1 2 3 4 5 6 
#
# 1 0.015987 -0.004441 -0.004196 0.000000 0.000000 0.000000
# 2 -0.004441 0.009356 -0.004893 0.000000 0.000000 0.000000
# 3 -0.004196 -0.004893 0.025237 0.000000 0.000000 0.000000
# 4 0.000000 0.000000 0.000000 -0.165887 0.000000 0.000000
# 5 0.000000 0.000000 0.000000 0.000000 0.035821 0.000000
# 6 0.000000 0.000000 0.000000 0.000000 0.000000 18.948979
#
#
# Mechanical properties :
#
#
# Convention : Reuss Voigt Hill
#
# Bulk Modulus (GPa) = 42.51763 57.08986 49.80374
# Shear Modulus (GPa) = 0.26449 15.83625 8.05037
#
# Velocity S-wave (km/s) = 0.34634 2.67992 1.91075
# Velocity P-wave (km/s) = 4.40934 5.95542 5.23972
#
# Compressibility (1/GPa) = 0.02351966
#
# Stress axis : x y z
#
# Youngs Moduli (GPa) = 62.55019 106.87810 39.62420
#
# Poissons Ratio (x) = 0.47468 0.16628
# Poissons Ratio (y) = 0.27781 0.19388
# Poissons Ratio (z) = 0.26248 0.52294
#
# Static dielectric constant tensor:
#      x y z
#    x 1.876790 0.000000 0.000000 
#    y 0.000000 1.812790 0.000000 
#    z 0.000000 0.000000 1.782520 
# 
# From -- ./inp_files/11288.got.cif
#   From: 2010.05.17/outbox.cif.g08.bks.cpg/sg48_6_cif.got.tgz:11288.got - 2010.06.03 20:39:00.
