data_PCOD9390032
_publ_section_title
;
Structure prediction by ZEFSAII (Michael W. Deem and Ramdas Pophale) SiO2 
 PCOD9390032
Probable space group: P N N N
;
_chemical_formula_sum "Si O2"
_cell_formula_units_Z 40
_cell_length_a 9.798568
_cell_length_b 13.266648
_cell_length_c 15.123451
_cell_angle_alpha 90.000000
_cell_angle_beta 90.000000
_cell_angle_gamma 90.000000
_cell_volume 1965.960197
_symmetry_space_group_name_H-M "P N N N"
_symmetry_group_IT_number 48
_space_group.IT_coordinate_system_code '2'
_symmetry_cell_setting 'orthorhombic'
loop_
_space_group_symop_operation_xyz
x,y,z
1/2-x,1/2-y,z
x,1/2-y,1/2-z
1/2-x,y,1/2-z
-x,-y,-z
1/2+x,1/2+y,-z
-x,1/2+y,1/2+z
1/2+x,-y,1/2+z
loop_
_atom_site_type_symbol
_atom_site_label
_atom_site_fract_x
_atom_site_fract_y
_atom_site_fract_z
Si Si1 0.938992 0.137471 0.785992
Si Si2 0.330974 0.959610 0.127440
Si Si3 0.682772 0.142619 0.054607
Si Si4 0.054042 0.147015 0.297627
Si Si5 0.866562 0.487819 0.323065
O O1 0.929639 0.250000 0.750000
O O2 0.805458 0.097622 0.838256
O O3 0.948541 0.079599 0.692496
O O4 0.065990 0.096380 0.841910
O O5 0.332132 0.078090 0.152575
O O6 0.364286 0.920345 0.030608
O O7 0.750000 0.250000 0.029858
O O8 0.564555 0.161551 0.127581
O O9 0.797710 0.071530 0.097518
O O10 0.096325 0.250000 0.250000
O O11 0.982037 0.084897 0.218094
O O12 0.750000 0.500895 0.250000
#
# Coordination Sequence:
#
# PCOD9390032 Si02
#       5
#     8   8   8   8   8
#     4  10  20  39  58  80 119 164 208 250 318 374
#     4  10  21  35  57  89 119 163 210 255 306 375
#     4  11  19  33  61  90 125 160 207 259 315 368
#     4  10  19  36  58  86 125 165 206 251 312 376
#     4   9  20  34  57  88 114 158 209 253 302 379
#
# _framework density 20.346292999999999
#
# number of rings (size 3 to 8) (size 9 to 14) (size 15 to 20)
#    0.000    2.000    2.000    3.000    0.000    1.200 
#    0.000    8.000    0.000    0.000   31.200    0.000 
#    0.000    0.000    0.000    0.000    0.000    0.000 
#
# Total GULP energy -222712.892488 kJ/mol
# GULP energy per Si atom -5567.822312 kJ/mol
# Density = 2.029998 g / cm^3
# Si number density = 20.346293 Si / 1000 Ang^3
#
#
#
# Elastic Constant Matrix: (Units=GPa)
#
#
# Indices 1 2 3 4 5 6 
#
# 1 59.8876 48.6840 6.4447 0.0000 0.0000 0.0000
# 2 48.6840 161.6850 38.4111 0.0000 0.0000 0.0000
# 3 6.4447 38.4111 95.0666 0.0000 0.0000 0.0000
# 4 0.0000 0.0000 0.0000 34.0198 0.0000 0.0000
# 5 0.0000 0.0000 0.0000 0.0000 3.9203 0.0000
# 6 0.0000 0.0000 0.0000 0.0000 0.0000 25.7798
#
#
#
# Elastic Compliance Matrix: (Units=1/GPa)
#
#
# Indices 1 2 3 4 5 6 
#
# 1 0.022260 -0.007018 0.001326 0.000000 0.000000 0.000000
# 2 -0.007018 0.009054 -0.003182 0.000000 0.000000 0.000000
# 3 0.001326 -0.003182 0.011715 0.000000 0.000000 0.000000
# 4 0.000000 0.000000 0.000000 0.029395 0.000000 0.000000
# 5 0.000000 0.000000 0.000000 0.000000 0.255082 0.000000
# 6 0.000000 0.000000 0.000000 0.000000 0.000000 0.038790
#
#
# Mechanical properties :
#
#
# Convention : Reuss Voigt Hill
#
# Bulk Modulus (GPa) = 39.55474 55.96874 47.76174
# Shear Modulus (GPa) = 12.73983 27.61728 20.17855
#
# Velocity S-wave (km/s) = 2.50501 3.68824 3.15263
# Velocity P-wave (km/s) = 5.27729 6.76057 6.06445
#
# Compressibility (1/GPa) = 0.02528142
#
# Stress axis : x y z
#
# Youngs Moduli (GPa) = 44.92353 110.44877 85.36150
#
# Poissons Ratio (x) = 0.77510 -0.11323
# Poissons Ratio (y) = 0.31526 0.27166
# Poissons Ratio (z) = -0.05959 0.35150
#
# Static dielectric constant tensor:
#      x y z
#    x 1.780410 0.000000 0.000000 
#    y 0.000000 1.864250 0.000000 
#    z 0.000000 0.000000 1.725350 
# 
# From -- ./inp_files/26266.got.cif
#   From: 2010.05.17/outbox.cif.g08.bks.cpg/sg48_14_cif.got.tgz:26266.got - 2010.06.03 20:39:00.
