data_PCOD9390465
_publ_section_title
;
Structure prediction by ZEFSAII (Michael W. Deem and Ramdas Pophale) SiO2 
 PCOD9390465
Probable space group: P N N N
;
_chemical_formula_sum "Si O2"
_cell_formula_units_Z 38
_cell_length_a 10.942127
_cell_length_b 18.762130
_cell_length_c 8.090257
_cell_angle_alpha 90.000000
_cell_angle_beta 90.000000
_cell_angle_gamma 90.000000
_cell_volume 1660.910420
_symmetry_space_group_name_H-M "P N N N"
_symmetry_group_IT_number 48
_space_group.IT_coordinate_system_code '2'
_symmetry_cell_setting 'orthorhombic'
loop_
_space_group_symop_operation_xyz
x,y,z
1/2-x,1/2-y,z
x,1/2-y,1/2-z
1/2-x,y,1/2-z
-x,-y,-z
1/2+x,1/2+y,-z
-x,1/2+y,1/2+z
1/2+x,-y,1/2+z
loop_
_atom_site_type_symbol
_atom_site_label
_atom_site_fract_x
_atom_site_fract_y
_atom_site_fract_z
Si Si1 0.807388 0.621671 0.462445
Si Si2 0.925113 0.889934 0.670607
Si Si3 0.001985 0.970680 0.186745
Si Si4 0.750000 0.750000 0.250000
Si Si5 0.442250 0.750000 0.750000
Si Si6 0.250000 0.750000 0.491407
Si Si7 0.750000 0.377775 0.750000
O O1 0.669738 0.604433 0.520430
O O2 0.867468 0.616743 0.644464
O O3 0.819421 0.698646 0.377395
O O4 0.878623 0.574582 0.328573
O O5 0.988604 0.813771 0.661095
O O6 0.001332 0.962723 0.687860
O O7 0.129500 0.926447 0.213629
O O8 0.000000 0.000000 0.000000
O O9 0.355926 0.780655 0.607721
O O10 0.288579 0.680258 0.389092
#
# Coordination Sequence:
#
# PCOD9390465 Si02
#       7
#     8   8   8   2   4   4   4
#     4  10  22  38  61  91 124 165 209 260 322 387
#     4  10  21  41  65  88 122 169 213 260 327 391
#     4  10  20  38  64  93 125 165 212 266 324 389
#     4  12  24  38  56  90 128 156 204 264 320 380
#     4  11  22  41  64  90 126 169 220 271 322 392
#     4  10  24  40  62  92 122 170 224 268 320 388
#     4  11  22  40  64  91 128 170 216 271 328 384
#
# _framework density 22.879019
#
# number of rings (size 3 to 8) (size 9 to 14) (size 15 to 20)
#    0.000    1.684    0.000    6.316    0.000    6.737 
#    0.000   10.526    0.000    0.000    0.000    0.000 
#    0.000    0.000    0.000    0.000    0.000    0.000 
#
# Total GULP energy -211647.251512 kJ/mol
# GULP energy per Si atom -5569.664513 kJ/mol
# Density = 2.282695 g / cm^3
# Si number density = 22.879019 Si / 1000 Ang^3
#
#
#
# Elastic Constant Matrix: (Units=GPa)
#
#
# Indices 1 2 3 4 5 6 
#
# 1 116.4667 70.0567 43.3030 0.0000 0.0000 0.0000
# 2 70.0567 151.4409 35.1023 0.0000 0.0000 0.0000
# 3 43.3030 35.1023 117.5990 0.0000 0.0000 0.0000
# 4 0.0000 0.0000 0.0000 36.9275 0.0000 0.0000
# 5 0.0000 0.0000 0.0000 0.0000 1503.7669 0.0000
# 6 0.0000 0.0000 0.0000 0.0000 0.0000 39.4331
#
#
#
# Elastic Compliance Matrix: (Units=1/GPa)
#
#
# Indices 1 2 3 4 5 6 
#
# 1 0.012925 -0.005239 -0.003196 0.000000 0.000000 0.000000
# 2 -0.005239 0.009217 -0.000822 0.000000 0.000000 0.000000
# 3 -0.003196 -0.000822 0.009926 0.000000 0.000000 0.000000
# 4 0.000000 0.000000 0.000000 0.027080 0.000000 0.000000
# 5 0.000000 0.000000 0.000000 0.000000 0.000665 0.000000
# 6 0.000000 0.000000 0.000000 0.000000 0.000000 0.025359
#
#
# Mechanical properties :
#
#
# Convention : Reuss Voigt Hill
#
# Bulk Modulus (GPa) = 73.77341 75.82562 74.79952
# Shear Modulus (GPa) = 46.20879 331.82848 189.01864
#
# Velocity S-wave (km/s) = 4.49898 12.05616 9.09923
# Velocity P-wave (km/s) = 7.70083 15.06703 11.96491
#
# Compressibility (1/GPa) = 0.01355502
#
# Stress axis : x y z
#
# Youngs Moduli (GPa) = 77.36665 108.49278 100.74863
#
# Poissons Ratio (x) = 0.56835 0.32197
# Poissons Ratio (y) = 0.40529 0.08284
# Poissons Ratio (z) = 0.24725 0.08921
#
# Static dielectric constant tensor:
#      x y z
#    x 1.932870 0.000000 0.000000 
#    y 0.000000 1.532450 0.000000 
#    z 0.000000 0.000000 1.901090 
# 
# From -- ./inp_files/10780.got.cif
#   From: 2010.05.17/outbox.cif.g08.bks.cpg/sg48_6_cif.got.tgz:10780.got - 2010.06.03 20:39:00.
