data_PCOD9390611
_publ_section_title
;
Structure prediction by ZEFSAII (Michael W. Deem and Ramdas Pophale) SiO2 
 PCOD9390611
Probable space group: P N N N
;
_chemical_formula_sum "Si O2"
_cell_formula_units_Z 64
_cell_length_a 11.799656
_cell_length_b 8.877525
_cell_length_c 32.904616
_cell_angle_alpha 90.000000
_cell_angle_beta 90.000000
_cell_angle_gamma 90.000000
_cell_volume 3446.815817
_symmetry_space_group_name_H-M "P N N N"
_symmetry_group_IT_number 48
_space_group.IT_coordinate_system_code '2'
_symmetry_cell_setting 'orthorhombic'
loop_
_space_group_symop_operation_xyz
x,y,z
1/2-x,1/2-y,z
x,1/2-y,1/2-z
1/2-x,y,1/2-z
-x,-y,-z
1/2+x,1/2+y,-z
-x,1/2+y,1/2+z
1/2+x,-y,1/2+z
loop_
_atom_site_type_symbol
_atom_site_label
_atom_site_fract_x
_atom_site_fract_y
_atom_site_fract_z
Si Si1 0.850179 0.372258 0.981353
Si Si2 0.681012 0.038507 0.073867
Si Si3 0.633059 0.780830 0.952208
Si Si4 0.396968 0.916239 0.675968
Si Si5 0.057689 0.924523 0.912163
Si Si6 0.638387 0.066529 0.163585
Si Si7 0.910354 0.766613 0.041332
Si Si8 0.114244 0.074512 0.744291
O O1 0.750000 0.250000 0.971585
O O2 0.857460 0.540422 0.961844
O O3 0.969426 0.306527 0.968444
O O4 0.850276 0.394249 0.030100
O O5 0.806685 0.104388 0.083435
O O6 0.610973 0.060533 0.115702
O O7 0.665373 0.859158 0.064469
O O8 0.750000 0.750000 0.928887
O O9 0.526196 0.700809 0.930631
O O10 0.638186 0.698812 0.996514
O O11 0.468066 0.945997 0.635446
O O12 0.378128 0.737534 0.677919
O O13 0.270887 0.980849 0.666489
O O14 0.439180 0.982002 0.718426
O O15 0.057009 0.083095 0.935117
O O16 0.579311 0.969923 0.198659
O O17 0.095890 0.250000 0.750000
O O18 0.250000 0.043976 0.750000
#
# Coordination Sequence:
#
# PCOD9390611 Si02
#       8
#     8   8   8   8   8   8   8   8
#     4  11  23  37  56  74 106 143 192 234 279 328
#     4  10  21  33  54  77 108 145 188 227 276 327
#     4  11  22  38  53  74 100 146 187 233 284 323
#     4   9  19  30  48  74 101 143 175 218 257 322
#     4  11  22  35  55  77 110 142 189 231 278 328
#     4   9  18  30  49  70 104 141 179 214 260 317
#     4  11  22  35  52  77 107 143 185 234 272 332
#     4   9  17  30  47  71 105 141 176 211 259 318
#
# _framework density 18.567861000000001
#
# number of rings (size 3 to 8) (size 9 to 14) (size 15 to 20)
#    0.000    1.875    0.000    5.625    8.750    1.500 
#    0.000    0.000    0.000    0.000    0.000    0.000 
#    0.000    2.000    0.000    2.750    0.000    1.875 
#
# Total GULP energy -356352.223498 kJ/mol
# GULP energy per Si atom -5568.003492 kJ/mol
# Density = 1.852560 g / cm^3
# Si number density = 18.567861 Si / 1000 Ang^3
#
#
#
# Elastic Constant Matrix: (Units=GPa)
#
#
# Indices 1 2 3 4 5 6 
#
# 1 68.7255 40.6559 28.7506 0.0000 0.0000 0.0000
# 2 40.6559 79.8216 63.8786 0.0000 0.0000 0.0000
# 3 28.7506 63.8786 127.6007 0.0000 0.0000 0.0000
# 4 0.0000 0.0000 0.0000 18.0649 0.0000 0.0000
# 5 0.0000 0.0000 0.0000 0.0000 1.5019 0.0000
# 6 0.0000 0.0000 0.0000 0.0000 0.0000 32.0764
#
#
#
# Elastic Compliance Matrix: (Units=1/GPa)
#
#
# Indices 1 2 3 4 5 6 
#
# 1 0.020907 -0.011477 0.001035 0.000000 0.000000 0.000000
# 2 -0.011477 0.027202 -0.011032 0.000000 0.000000 0.000000
# 3 0.001035 -0.011032 0.013126 0.000000 0.000000 0.000000
# 4 0.000000 0.000000 0.000000 0.055356 0.000000 0.000000
# 5 0.000000 0.000000 0.000000 0.000000 0.665816 0.000000
# 6 0.000000 0.000000 0.000000 0.000000 0.000000 0.031176
#
#
# Mechanical properties :
#
#
# Convention : Reuss Voigt Hill
#
# Bulk Modulus (GPa) = 54.68122 60.30202 57.49162
# Shear Modulus (GPa) = 5.79626 19.85280 12.82453
#
# Velocity S-wave (km/s) = 1.76874 3.27341 2.63094
# Velocity P-wave (km/s) = 5.80384 6.84354 6.34502
#
# Compressibility (1/GPa) = 0.01828782
#
# Stress axis : x y z
#
# Youngs Moduli (GPa) = 47.83068 36.76243 76.18235
#
# Poissons Ratio (x) = 0.42191 -0.07883
# Poissons Ratio (y) = 0.54894 0.84042
# Poissons Ratio (z) = -0.04949 0.40555
#
# Static dielectric constant tensor:
#      x y z
#    x 1.712060 0.000000 0.000000 
#    y 0.000000 1.722520 0.000000 
#    z 0.000000 0.000000 1.683010 
# 
# From -- ./inp_files/38976.got.cif
#   From: 2010.05.17/outbox.cif.g08.bks.cpg/sg48_20_cif.got.tgz:38976.got - 2010.06.03 20:39:00.
