data_PCOD9390681
_publ_section_title
;
Structure prediction by ZEFSAII (Michael W. Deem and Ramdas Pophale) SiO2 
 PCOD9390681
Probable space group: P N N N
;
_chemical_formula_sum "Si O2"
_cell_formula_units_Z 28
_cell_length_a 5.430264
_cell_length_b 29.541976
_cell_length_c 7.455115
_cell_angle_alpha 90.000000
_cell_angle_beta 90.000000
_cell_angle_gamma 90.000000
_cell_volume 1195.954981
_symmetry_space_group_name_H-M "P N N N"
_symmetry_group_IT_number 48
_space_group.IT_coordinate_system_code '2'
_symmetry_cell_setting 'orthorhombic'
loop_
_space_group_symop_operation_xyz
x,y,z
1/2-x,1/2-y,z
x,1/2-y,1/2-z
1/2-x,y,1/2-z
-x,-y,-z
1/2+x,1/2+y,-z
-x,1/2+y,1/2+z
1/2+x,-y,1/2+z
loop_
_atom_site_type_symbol
_atom_site_label
_atom_site_fract_x
_atom_site_fract_y
_atom_site_fract_z
Si Si1 0.250000 0.931987 0.250000
Si Si2 0.250475 0.301861 0.032561
Si Si3 0.503646 0.982906 0.701695
Si Si4 0.752379 0.145650 0.033210
O O1 0.461728 0.968563 0.197576
O O2 0.286711 0.900102 0.419806
O O3 0.250000 0.250000 0.969694
O O4 0.250000 0.300788 0.250000
O O5 0.508470 0.324776 0.982750
O O6 0.005683 0.329987 0.980803
O O7 0.750000 0.955821 0.750000
O O8 0.250000 0.961068 0.750000
O O9 0.500000 0.000000 0.500000
O O10 0.750000 0.140700 0.250000
#
# Coordination Sequence:
#
# PCOD9390681 Si02
#       4
#     4   8   8   8
#     4  10  26  38  65  88 130 150 204 250 317 366
#     4   9  18  35  59  84 118 162 208 248 294 356
#     4  10  23  43  66  92 122 161 205 256 315 377
#     4  10  21  37  57  87 120 161 200 249 307 357
#
# _framework density 23.412253
#
# number of rings (size 3 to 8) (size 9 to 14) (size 15 to 20)
#    0.857    1.429    0.000    1.714    4.000    4.571 
#    0.000    4.286    0.000    0.000    0.000    0.000 
#    0.000    0.000    0.000    0.000    0.000    0.000 
#
# Total GULP energy -156325.811048 kJ/mol
# GULP energy per Si atom -5583.064680 kJ/mol
# Density = 2.335897 g / cm^3
# Si number density = 23.412253 Si / 1000 Ang^3
#
#
#
# Elastic Constant Matrix: (Units=GPa)
#
#
# Indices 1 2 3 4 5 6 
#
# 1 210.0112 40.3300 22.1896 0.0000 0.0000 0.0000
# 2 40.3300 128.7144 5.1577 0.0000 0.0000 0.0000
# 3 22.1896 5.1577 78.9166 0.0000 0.0000 0.0000
# 4 0.0000 0.0000 0.0000 19.2380 0.0000 0.0000
# 5 0.0000 0.0000 0.0000 0.0000 11.2792 0.0000
# 6 0.0000 0.0000 0.0000 0.0000 0.0000 -10.3368
#
#
#
# Elastic Compliance Matrix: (Units=1/GPa)
#
#
# Indices 1 2 3 4 5 6 
#
# 1 0.005208 -0.001577 -0.001361 0.000000 0.000000 0.000000
# 2 -0.001577 0.008267 -0.000097 0.000000 0.000000 0.000000
# 3 -0.001361 -0.000097 0.013061 0.000000 0.000000 0.000000
# 4 0.000000 0.000000 0.000000 0.051980 0.000000 0.000000
# 5 0.000000 0.000000 0.000000 0.000000 0.088659 0.000000
# 6 0.000000 0.000000 0.000000 0.000000 0.000000 -0.096742
#
#
# Mechanical properties :
#
#
# Convention : Reuss Voigt Hill
#
# Bulk Modulus (GPa) = 48.86334 61.44407 55.15371
# Shear Modulus (GPa) = 60.00480 27.36708 43.68594
#
# Velocity S-wave (km/s) = 5.06807 3.42266 4.32434
# Velocity P-wave (km/s) = 7.42719 6.47463 6.96721
#
# Compressibility (1/GPa) = 0.02046524
#
# Stress axis : x y z
#
# Youngs Moduli (GPa) = 191.99698 120.95903 76.56543
#
# Poissons Ratio (x) = 0.19080 0.10424
# Poissons Ratio (y) = 0.30286 0.00741
# Poissons Ratio (z) = 0.26139 0.01171
#
# Static dielectric constant tensor:
#      x y z
#    x 2.034760 0.000000 0.000000 
#    y 0.000000 1.831920 0.000000 
#    z 0.000000 0.000000 1.946260 
# 
# From -- ./inp_files/7542.got.cif
#   From: 2010.05.17/outbox.cif.g08.bks.cpg/sg48_4_cif.got.tgz:7542.got - 2010.06.03 20:39:00.
