data_PCOD9390675
_publ_section_title
;
Structure prediction by ZEFSAII (Michael W. Deem and Ramdas Pophale) SiO2 
 PCOD9390675
Probable space group: P N N N
;
_chemical_formula_sum "Si O2"
_cell_formula_units_Z 38
_cell_length_a 9.588788
_cell_length_b 14.457251
_cell_length_c 13.452320
_cell_angle_alpha 90.000000
_cell_angle_beta 90.000000
_cell_angle_gamma 90.000000
_cell_volume 1864.861691
_symmetry_space_group_name_H-M "P N N N"
_symmetry_group_IT_number 48
_space_group.IT_coordinate_system_code '2'
_symmetry_cell_setting 'orthorhombic'
loop_
_space_group_symop_operation_xyz
x,y,z
1/2-x,1/2-y,z
x,1/2-y,1/2-z
1/2-x,y,1/2-z
-x,-y,-z
1/2+x,1/2+y,-z
-x,1/2+y,1/2+z
1/2+x,-y,1/2+z
loop_
_atom_site_type_symbol
_atom_site_label
_atom_site_fract_x
_atom_site_fract_y
_atom_site_fract_z
Si Si1 0.445110 0.742728 0.920997
Si Si2 0.855645 0.050321 0.475503
Si Si3 0.195133 0.404992 0.645979
Si Si4 0.917405 0.425370 0.567298
Si Si5 0.750000 0.250000 0.250000
Si Si6 0.750000 0.750000 0.520668
O O1 0.389117 0.844412 0.947046
O O2 0.361012 0.704457 0.826049
O O3 0.418556 0.672491 0.010889
O O4 0.611325 0.752092 0.913325
O O5 0.744110 0.046238 0.566990
O O6 0.775591 0.998651 0.385361
O O7 0.000000 0.000000 0.500000
O O8 0.250000 0.369074 0.750000
O O9 0.232478 0.336707 0.554526
O O10 0.027538 0.416536 0.656015
O O11 0.000000 0.500000 0.500000
#
# Coordination Sequence:
#
# PCOD9390675 Si02
#       6
#     8   8   8   8   2   4
#     4  11  22  38  62  90 120 161 202 251 313 372
#     4  11  20  37  61  88 121 162 205 246 310 372
#     4  10  21  36  63  89 120 160 213 252 300 366
#     4   9  20  38  59  85 122 163 197 247 316 364
#     4  12  24  38  68  88 122 160 212 252 296 378
#     4  10  21  41  60  86 124 162 202 259 313 364
#
# _framework density 20.376844999999999
#
# number of rings (size 3 to 8) (size 9 to 14) (size 15 to 20)
#    0.000    1.684    4.211    0.316    1.474    0.421 
#    0.000    1.053    4.632    0.000    0.000    0.000 
#    0.000    0.000    0.000    0.000    0.000    0.000 
#
# Total GULP energy -211623.047374 kJ/mol
# GULP energy per Si atom -5569.027562 kJ/mol
# Density = 2.033047 g / cm^3
# Si number density = 20.376845 Si / 1000 Ang^3
#
#
#
# Elastic Constant Matrix: (Units=GPa)
#
#
# Indices 1 2 3 4 5 6 
#
# 1 228.3787 21.1945 47.0314 0.0000 0.0000 0.0000
# 2 21.1945 122.7548 0.4285 0.0000 0.0000 0.0000
# 3 47.0314 0.4285 53.8646 0.0000 0.0000 0.0000
# 4 0.0000 0.0000 0.0000 3.1350 0.0000 0.0000
# 5 0.0000 0.0000 0.0000 0.0000 35.5741 0.0000
# 6 0.0000 0.0000 0.0000 0.0000 0.0000 31.7952
#
#
#
# Elastic Compliance Matrix: (Units=1/GPa)
#
#
# Indices 1 2 3 4 5 6 
#
# 1 0.005441 -0.000923 -0.004744 0.000000 0.000000 0.000000
# 2 -0.000923 0.008303 0.000740 0.000000 0.000000 0.000000
# 3 -0.004744 0.000740 0.022701 0.000000 0.000000 0.000000
# 4 0.000000 0.000000 0.000000 0.318979 0.000000 0.000000
# 5 0.000000 0.000000 0.000000 0.000000 0.028110 0.000000
# 6 0.000000 0.000000 0.000000 0.000000 0.000000 0.031451
#
#
# Mechanical properties :
#
#
# Convention : Reuss Voigt Hill
#
# Bulk Modulus (GPa) = 37.60550 60.25631 48.93091
# Shear Modulus (GPa) = 11.52863 36.52378 24.02620
#
# Velocity S-wave (km/s) = 2.38117 4.23829 3.43752
# Velocity P-wave (km/s) = 5.10442 7.32024 6.31035
#
# Compressibility (1/GPa) = 0.02659186
#
# Stress axis : x y z
#
# Youngs Moduli (GPa) = 183.78230 120.43720 44.05086
#
# Poissons Ratio (x) = 0.11115 0.20896
# Poissons Ratio (y) = 0.16961 -0.03259
# Poissons Ratio (z) = 0.87179 -0.08910
#
# Static dielectric constant tensor:
#      x y z
#    x 1.797840 0.000000 0.000000 
#    y 0.000000 1.765250 0.000000 
#    z 0.000000 0.000000 1.732570 
# 
# From -- ./inp_files/25269.got.cif
#   From: 2010.05.17/outbox.cif.g08.bks.cpg/sg48_13_cif.got.tgz:25269.got - 2010.06.03 20:39:00.
