data_PCOD9390204
_publ_section_title
;
Structure prediction by ZEFSAII (Michael W. Deem and Ramdas Pophale) SiO2 
 PCOD9390204
Probable space group: P N N N
;
_chemical_formula_sum "Si O2"
_cell_formula_units_Z 64
_cell_length_a 19.868062
_cell_length_b 9.080342
_cell_length_c 18.763104
_cell_angle_alpha 90.000000
_cell_angle_beta 90.000000
_cell_angle_gamma 90.000000
_cell_volume 3385.029036
_symmetry_space_group_name_H-M "P N N N"
_symmetry_group_IT_number 48
_space_group.IT_coordinate_system_code '2'
_symmetry_cell_setting 'orthorhombic'
loop_
_space_group_symop_operation_xyz
x,y,z
1/2-x,1/2-y,z
x,1/2-y,1/2-z
1/2-x,y,1/2-z
-x,-y,-z
1/2+x,1/2+y,-z
-x,1/2+y,1/2+z
1/2+x,-y,1/2+z
loop_
_atom_site_type_symbol
_atom_site_label
_atom_site_fract_x
_atom_site_fract_y
_atom_site_fract_z
Si Si1 0.907696 0.705744 0.921416
Si Si2 0.527197 0.791375 0.446629
Si Si3 0.092977 0.897358 0.949978
Si Si4 0.713069 0.909714 0.838090
Si Si5 0.016614 0.373169 0.803417
Si Si6 0.337701 0.975421 0.417804
Si Si7 0.044636 0.692577 0.830551
Si Si8 0.872358 0.410250 0.732396
O O1 0.851724 0.601774 0.889126
O O2 0.971228 0.709871 0.868203
O O3 0.871212 0.863878 0.925911
O O4 0.932399 0.679822 0.001530
O O5 0.466647 0.845560 0.496759
O O6 0.503520 0.708403 0.377253
O O7 0.571093 0.936755 0.427423
O O8 0.092548 0.788397 0.882584
O O9 0.155772 0.903053 0.004702
O O10 0.750000 0.750000 0.831362
O O11 0.764988 0.011869 0.881186
O O12 0.679229 0.969967 0.764968
O O13 0.046318 0.250000 0.750000
O O14 0.058446 0.518819 0.822014
O O15 0.945817 0.423218 0.767885
O O16 0.380582 0.911898 0.352284
O O17 0.042619 0.750000 0.750000
O O18 0.843992 0.250000 0.750000
#
# Coordination Sequence:
#
# PCOD9390204 Si02
#       8
#     8   8   8   8   8   8   8   8
#     4   9  19  33  52  76 103 142 190 231 270 320
#     4   9  18  34  51  72 106 143 177 227 279 332
#     4   9  18  34  52  74 103 146 185 225 277 329
#     4  10  21  36  53  77 103 150 201 236 264 321
#     4  11  21  33  52  79 110 144 175 225 286 335
#     4  10  20  34  52  71 108 150 189 228 270 321
#     4  11  20  32  53  78 108 140 189 229 282 342
#     4  11  22  35  50  75 112 150 186 229 274 321
#
# _framework density 18.906779
#
# number of rings (size 3 to 8) (size 9 to 14) (size 15 to 20)
#    0.000    2.000    1.250    4.125    0.000    6.000 
#    2.250    0.000    0.000    0.000    0.000    0.000 
#    0.000   24.500    0.500    0.000    0.000    0.000 
#
# Total GULP energy -356702.798636 kJ/mol
# GULP energy per Si atom -5573.481229 kJ/mol
# Density = 1.886375 g / cm^3
# Si number density = 18.906779 Si / 1000 Ang^3
#
#
#
# Elastic Constant Matrix: (Units=GPa)
#
#
# Indices 1 2 3 4 5 6 
#
# 1 32.1043 2.9513 26.0770 0.0000 0.0000 0.0000
# 2 2.9513 60.3478 37.3650 0.0000 0.0000 0.0000
# 3 26.0770 37.3650 130.3545 0.0000 0.0000 0.0000
# 4 0.0000 0.0000 0.0000 30.7167 0.0000 0.0000
# 5 0.0000 0.0000 0.0000 0.0000 22.9138 0.0000
# 6 0.0000 0.0000 0.0000 0.0000 0.0000 21.0393
#
#
#
# Elastic Compliance Matrix: (Units=1/GPa)
#
#
# Indices 1 2 3 4 5 6 
#
# 1 0.037771 0.003442 -0.008543 0.000000 0.000000 0.000000
# 2 0.003442 0.020460 -0.006553 0.000000 0.000000 0.000000
# 3 -0.008543 -0.006553 0.011259 0.000000 0.000000 0.000000
# 4 0.000000 0.000000 0.000000 0.032556 0.000000 0.000000
# 5 0.000000 0.000000 0.000000 0.000000 0.043642 0.000000
# 6 0.000000 0.000000 0.000000 0.000000 0.000000 0.047530
#
#
# Mechanical properties :
#
#
# Convention : Reuss Voigt Hill
#
# Bulk Modulus (GPa) = 21.65348 39.51035 30.58191
# Shear Modulus (GPa) = 21.55932 25.36152 23.46042
#
# Velocity S-wave (km/s) = 3.38049 3.66648 3.52639
# Velocity P-wave (km/s) = 5.16861 6.23434 5.72632
#
# Compressibility (1/GPa) = 0.04618195
#
# Stress axis : x y z
#
# Youngs Moduli (GPa) = 26.47543 48.87648 88.82009
#
# Poissons Ratio (x) = -0.16824 0.75875
# Poissons Ratio (y) = -0.09113 0.58205
# Poissons Ratio (z) = 0.22617 0.32030
#
# Static dielectric constant tensor:
#      x y z
#    x 1.676640 0.000000 0.000000 
#    y 0.000000 1.780060 0.000000 
#    z 0.000000 0.000000 1.697840 
# 
# From -- ./inp_files/32368.got.cif
#   From: 2010.05.17/outbox.cif.g08.bks.cpg/sg48_17_cif.got.tgz:32368.got - 2010.06.03 20:39:00.
