data_PCOD9390413
_publ_section_title
;
Structure prediction by ZEFSAII (Michael W. Deem and Ramdas Pophale) SiO2 
 PCOD9390413
Probable space group: P N N N
;
_chemical_formula_sum "Si O2"
_cell_formula_units_Z 34
_cell_length_a 20.446283
_cell_length_b 13.117226
_cell_length_c 4.839792
_cell_angle_alpha 90.000000
_cell_angle_beta 90.000000
_cell_angle_gamma 90.000000
_cell_volume 1298.025027
_symmetry_space_group_name_H-M "P N N N"
_symmetry_group_IT_number 48
_space_group.IT_coordinate_system_code '2'
_symmetry_cell_setting 'orthorhombic'
loop_
_space_group_symop_operation_xyz
x,y,z
1/2-x,1/2-y,z
x,1/2-y,1/2-z
1/2-x,y,1/2-z
-x,-y,-z
1/2+x,1/2+y,-z
-x,1/2+y,1/2+z
1/2+x,-y,1/2+z
loop_
_atom_site_type_symbol
_atom_site_label
_atom_site_fract_x
_atom_site_fract_y
_atom_site_fract_z
Si Si1 0.134936 0.630050 0.235708
Si Si2 0.570822 0.860680 0.116923
Si Si3 0.156858 0.415513 0.387328
Si Si4 0.048749 0.630231 0.740811
Si Si5 0.250000 0.250000 0.250000
O O1 0.156118 0.750000 0.250000
O O2 0.177011 0.533181 0.334577
O O3 0.068858 0.616884 0.422717
O O4 0.113334 0.610954 0.922715
O O5 0.556780 0.750000 0.250000
O O6 0.598683 0.917998 0.385498
O O7 0.628846 0.867188 0.896114
O O8 0.513039 0.903718 0.921976
O O9 0.211449 0.331359 0.446399
O O10 0.036767 0.750000 0.750000
#
# Coordination Sequence:
#
# PCOD9390413 Si02
#       5
#     8   8   8   8   2
#     4  10  22  41  63 100 136 180 215 273 340 417
#     4  12  22  40  63 103 135 182 224 277 337 417
#     4  12  26  42  70  91 134 179 233 290 342 390
#     4  10  20  37  65  97 145 176 215 267 336 418
#     4  12  28  54  66 102 128 182 240 308 336 392
#
# _framework density 26.193638
#
# number of rings (size 3 to 8) (size 9 to 14) (size 15 to 20)
#    0.000    0.941    2.353    6.353    0.000    7.529 
#    0.000    0.588    0.000    0.000    0.000    8.235 
#    0.000    0.000    0.000    0.000    0.000    0.000 
#
# Total GULP energy -189496.354460 kJ/mol
# GULP energy per Si atom -5573.422190 kJ/mol
# Density = 2.613402 g / cm^3
# Si number density = 26.193638 Si / 1000 Ang^3
#
#
#
# Elastic Constant Matrix: (Units=GPa)
#
#
# Indices 1 2 3 4 5 6 
#
# 1 34.2940 35.1633 -10.8038 0.0000 0.0000 0.0000
# 2 35.1633 226.2138 7.2766 0.0000 0.0000 0.0000
# 3 -10.8038 7.2766 129.2698 0.0000 0.0000 0.0000
# 4 0.0000 0.0000 0.0000 58.1881 0.0000 0.0000
# 5 0.0000 0.0000 0.0000 0.0000 96.4213 0.0000
# 6 0.0000 0.0000 0.0000 0.0000 0.0000 -25.9339
#
#
#
# Elastic Compliance Matrix: (Units=1/GPa)
#
#
# Indices 1 2 3 4 5 6 
#
# 1 0.036069 -0.005714 0.003336 0.000000 0.000000 0.000000
# 2 -0.005714 0.005334 -0.000778 0.000000 0.000000 0.000000
# 3 0.003336 -0.000778 0.008058 0.000000 0.000000 0.000000
# 4 0.000000 0.000000 0.000000 0.017186 0.000000 0.000000
# 5 0.000000 0.000000 0.000000 0.000000 0.010371 0.000000
# 6 0.000000 0.000000 0.000000 0.000000 0.000000 -0.038560
#
#
# Mechanical properties :
#
#
# Convention : Reuss Voigt Hill
#
# Bulk Modulus (GPa) = 23.17481 50.33887 36.75684
# Shear Modulus (GPa) = 84.52556 49.61120 67.06838
#
# Velocity S-wave (km/s) = 5.68679 4.35675 5.06561
# Velocity P-wave (km/s) = 7.21014 6.67593 6.94817
#
# Compressibility (1/GPa) = 0.04315029
#
# Stress axis : x y z
#
# Youngs Moduli (GPa) = 27.72429 187.48279 124.09466
#
# Poissons Ratio (x) = 1.07129 -0.41400
# Poissons Ratio (y) = 0.15842 0.09652
# Poissons Ratio (z) = -0.09249 0.14582
#
# Static dielectric constant tensor:
#      x y z
#    x 2.157920 0.000000 0.000000 
#    y 0.000000 2.196190 0.000000 
#    z 0.000000 0.000000 2.043000 
# 
# From -- ./inp_files/4973.got.cif
#   From: 2010.05.17/outbox.cif.g08.bks.cpg/sg48_3_cif.got.tgz:4973.got - 2010.06.03 20:39:00.
