data_PCOD9390053
_publ_section_title
;
Structure prediction by ZEFSAII (Michael W. Deem and Ramdas Pophale) SiO2 
 PCOD9390053
Probable space group: P N N N
;
_chemical_formula_sum "Si O2"
_cell_formula_units_Z 48
_cell_length_a 5.156349
_cell_length_b 13.657262
_cell_length_c 33.694525
_cell_angle_alpha 90.000000
_cell_angle_beta 90.000000
_cell_angle_gamma 90.000000
_cell_volume 2372.822674
_symmetry_space_group_name_H-M "P N N N"
_symmetry_group_IT_number 48
_space_group.IT_coordinate_system_code '2'
_symmetry_cell_setting 'orthorhombic'
loop_
_space_group_symop_operation_xyz
x,y,z
1/2-x,1/2-y,z
x,1/2-y,1/2-z
1/2-x,y,1/2-z
-x,-y,-z
1/2+x,1/2+y,-z
-x,1/2+y,1/2+z
1/2+x,-y,1/2+z
loop_
_atom_site_type_symbol
_atom_site_label
_atom_site_fract_x
_atom_site_fract_y
_atom_site_fract_z
Si Si1 0.832173 0.071811 0.648758
Si Si2 0.813606 0.863507 0.101006
Si Si3 0.746266 0.984070 0.472834
Si Si4 0.307809 0.854875 0.906393
Si Si5 0.006643 0.639787 0.231774
Si Si6 0.193912 0.356940 0.354046
O O1 0.583593 0.109884 0.623550
O O2 0.934579 0.138331 0.685289
O O3 0.081267 0.073025 0.620287
O O4 0.762128 0.962789 0.664578
O O5 0.750000 0.750000 0.107943
O O6 0.798257 0.886937 0.054040
O O7 0.751737 0.065477 0.438850
O O8 0.500000 0.000000 0.500000
O O9 0.000000 0.000000 0.500000
O O10 0.250000 0.750000 0.925092
O O11 0.601519 0.856267 0.890714
O O12 0.100320 0.861569 0.870136
O O13 0.003278 0.750000 0.250000
O O14 0.250000 0.585842 0.250000
O O15 0.750000 0.593638 0.250000
O O16 0.250000 0.250000 0.334311
#
# Coordination Sequence:
#
# PCOD9390053 Si02
#       6
#     8   8   8   8   8   8
#     4  12  22  42  68  91 136 177 206 284 324 389
#     4  12  27  41  63  97 128 175 230 261 341 400
#     4  12  24  40  61  83 127 168 215 278 329 402
#     4  10  20  37  59  87 114 152 211 270 322 386
#     4  10  23  38  59  94 135 166 218 246 319 395
#     4  10  19  36  64  93 118 151 217 271 315 375
#
# _framework density 20.229071999999999
#
# number of rings (size 3 to 8) (size 9 to 14) (size 15 to 20)
#    0.000    1.000    3.333    3.500    7.000    1.333 
#    0.000    0.000    0.000    0.500    0.000    1.167 
#    0.000    0.000    0.000    0.000    0.000    0.000 
#
# Total GULP energy -267420.099919 kJ/mol
# GULP energy per Si atom -5571.252082 kJ/mol
# Density = 2.018303 g / cm^3
# Si number density = 20.229072 Si / 1000 Ang^3
#
#
#
# Elastic Constant Matrix: (Units=GPa)
#
#
# Indices 1 2 3 4 5 6 
#
# 1 175.8719 5.3527 49.8301 0.0000 0.0000 0.0000
# 2 5.3527 107.3582 23.6913 0.0000 0.0000 0.0000
# 3 49.8301 23.6913 100.4171 0.0000 0.0000 0.0000
# 4 0.0000 0.0000 0.0000 33.9117 0.0000 0.0000
# 5 0.0000 0.0000 0.0000 0.0000 28.6956 0.0000
# 6 0.0000 0.0000 0.0000 0.0000 0.0000 17.6944
#
#
#
# Elastic Compliance Matrix: (Units=1/GPa)
#
#
# Indices 1 2 3 4 5 6 
#
# 1 0.006634 0.000417 -0.003390 0.000000 0.000000 0.000000
# 2 0.000417 0.009852 -0.002532 0.000000 0.000000 0.000000
# 3 -0.003390 -0.002532 0.012238 0.000000 0.000000 0.000000
# 4 0.000000 0.000000 0.000000 0.029488 0.000000 0.000000
# 5 0.000000 0.000000 0.000000 0.000000 0.034848 0.000000
# 6 0.000000 0.000000 0.000000 0.000000 0.000000 0.056515
#
#
# Mechanical properties :
#
#
# Convention : Reuss Voigt Hill
#
# Bulk Modulus (GPa) = 56.44841 60.15503 58.30172
# Shear Modulus (GPa) = 30.03172 36.37857 33.20514
#
# Velocity S-wave (km/s) = 3.85721 4.24527 4.05588
# Velocity P-wave (km/s) = 6.91394 7.33698 7.12860
#
# Compressibility (1/GPa) = 0.01771529
#
# Stress axis : x y z
#
# Youngs Moduli (GPa) = 150.74170 101.49744 81.71151
#
# Poissons Ratio (x) = -0.04237 0.27704
# Poissons Ratio (y) = -0.06292 0.20686
# Poissons Ratio (z) = 0.51108 0.25695
#
# Static dielectric constant tensor:
#      x y z
#    x 1.740430 0.000000 0.000000 
#    y 0.000000 1.839450 0.000000 
#    z 0.000000 0.000000 1.827410 
# 
# From -- ./inp_files/37092.got.cif
#   From: 2010.05.17/outbox.cif.g08.bks.cpg/sg48_19_cif.got.tgz:37092.got - 2010.06.03 20:39:00.
