data_PCOD9390142
_publ_section_title
;
Structure prediction by ZEFSAII (Michael W. Deem and Ramdas Pophale) SiO2 
 PCOD9390142
Probable space group: P N N N
;
_chemical_formula_sum "Si O2"
_cell_formula_units_Z 38
_cell_length_a 5.271652
_cell_length_b 16.932442
_cell_length_c 15.880016
_cell_angle_alpha 90.000000
_cell_angle_beta 90.000000
_cell_angle_gamma 90.000000
_cell_volume 1417.481063
_symmetry_space_group_name_H-M "P N N N"
_symmetry_group_IT_number 48
_space_group.IT_coordinate_system_code '2'
_symmetry_cell_setting 'orthorhombic'
loop_
_space_group_symop_operation_xyz
x,y,z
1/2-x,1/2-y,z
x,1/2-y,1/2-z
1/2-x,y,1/2-z
-x,-y,-z
1/2+x,1/2+y,-z
-x,1/2+y,1/2+z
1/2+x,-y,1/2+z
loop_
_atom_site_type_symbol
_atom_site_label
_atom_site_fract_x
_atom_site_fract_y
_atom_site_fract_z
Si Si1 0.250000 0.383996 0.750000
Si Si2 0.250000 0.250000 0.250000
Si Si3 0.096333 0.368254 0.566166
Si Si4 0.299829 0.474851 0.076616
Si Si5 0.750000 0.011159 0.750000
Si Si6 0.658011 0.364891 0.160594
Si Si7 0.750000 0.250000 0.031467
O O1 0.230564 0.347226 0.655027
O O2 0.506001 0.433682 0.755366
O O3 0.431625 0.305149 0.191732
O O4 0.274735 0.422190 0.503637
O O5 0.860922 0.431984 0.572767
O O6 0.970753 0.291490 0.522639
O O7 0.174951 0.462173 0.166878
O O8 0.569354 0.436493 0.103281
O O9 0.750000 0.393233 0.250000
O O10 0.837853 0.316561 0.098023
#
# Coordination Sequence:
#
# PCOD9390142 Si02
#       7
#     4   2   8   8   4   8   4
#     4  10  22  42  70  99 144 189 256 310 370 417
#     4  12  20  36  56 106 146 200 230 280 390 478
#     4   9  20  39  69 103 146 192 253 311 369 447
#     4   9  20  38  64 106 141 192 239 303 375 444
#     4  10  21  40  68 106 147 190 236 312 373 448
#     4  11  21  37  63  96 149 196 234 300 377 463
#     4  10  19  42  66  95 148 196 248 306 376 456
#
# _framework density 26.808115999999998
#
# number of rings (size 3 to 8) (size 9 to 14) (size 15 to 20)
#    0.000    2.105    2.105    0.632    5.895    0.842 
#    0.000    8.421    0.000   15.158    0.000    5.895 
#    6.316    0.000    0.000    0.000    0.000    0.000 
#
# Total GULP energy -211598.405910 kJ/mol
# GULP energy per Si atom -5568.379103 kJ/mol
# Density = 2.674710 g / cm^3
# Si number density = 26.808116 Si / 1000 Ang^3
#
#
#
# Elastic Constant Matrix: (Units=GPa)
#
#
# Indices 1 2 3 4 5 6 
#
# 1 84.0756 35.1331 34.8146 0.0000 0.0000 0.0000
# 2 35.1331 101.3666 38.1281 0.0000 0.0000 0.0000
# 3 34.8146 38.1281 235.6921 0.0000 0.0000 0.0000
# 4 0.0000 0.0000 0.0000 32.5101 0.0000 0.0000
# 5 0.0000 0.0000 0.0000 0.0000 48.0845 0.0000
# 6 0.0000 0.0000 0.0000 0.0000 0.0000 27.0327
#
#
#
# Elastic Compliance Matrix: (Units=1/GPa)
#
#
# Indices 1 2 3 4 5 6 
#
# 1 0.014329 -0.004440 -0.001398 0.000000 0.000000 0.000000
# 2 -0.004440 0.011880 -0.001266 0.000000 0.000000 0.000000
# 3 -0.001398 -0.001266 0.004654 0.000000 0.000000 0.000000
# 4 0.000000 0.000000 0.000000 0.030760 0.000000 0.000000
# 5 0.000000 0.000000 0.000000 0.000000 0.020797 0.000000
# 6 0.000000 0.000000 0.000000 0.000000 0.000000 0.036992
#
#
# Mechanical properties :
#
#
# Convention : Reuss Voigt Hill
#
# Bulk Modulus (GPa) = 60.04533 70.80954 65.42743
# Shear Modulus (GPa) = 35.92677 42.39602 39.16139
#
# Velocity S-wave (km/s) = 3.66477 3.98107 3.82619
# Velocity P-wave (km/s) = 6.35250 6.89947 6.63163
#
# Compressibility (1/GPa) = 0.01665408
#
# Stress axis : x y z
#
# Youngs Moduli (GPa) = 69.79097 84.17260 214.86172
#
# Poissons Ratio (x) = 0.37375 0.30042
# Poissons Ratio (y) = 0.30989 0.27202
# Poissons Ratio (z) = 0.09758 0.10656
#
# Static dielectric constant tensor:
#      x y z
#    x 2.328100 0.000000 0.000000 
#    y 0.000000 2.119090 0.000000 
#    z 0.000000 0.000000 2.349760 
# 
# From -- ./inp_files/29344.got.cif
#   From: 2010.05.17/outbox.cif.g08.bks.cpg/sg48_15_cif.got.tgz:29344.got - 2010.06.03 20:39:00.
