data_PCOD9390896
_publ_section_title
;
Structure prediction by ZEFSAII (Michael W. Deem and Ramdas Pophale) SiO2 
 PCOD9390896
Probable space group: P N N N
;
_chemical_formula_sum "Si O2"
_cell_formula_units_Z 58
_cell_length_a 6.289077
_cell_length_b 16.153733
_cell_length_c 26.747816
_cell_angle_alpha 90.000000
_cell_angle_beta 90.000000
_cell_angle_gamma 90.000000
_cell_volume 2717.366013
_symmetry_space_group_name_H-M "P N N N"
_symmetry_group_IT_number 48
_space_group.IT_coordinate_system_code '2'
_symmetry_cell_setting 'orthorhombic'
loop_
_space_group_symop_operation_xyz
x,y,z
1/2-x,1/2-y,z
x,1/2-y,1/2-z
1/2-x,y,1/2-z
-x,-y,-z
1/2+x,1/2+y,-z
-x,1/2+y,1/2+z
1/2+x,-y,1/2+z
loop_
_atom_site_type_symbol
_atom_site_label
_atom_site_fract_x
_atom_site_fract_y
_atom_site_fract_z
Si Si1 0.998223 0.959753 0.250191
Si Si2 0.580754 0.465814 0.926663
Si Si3 0.846301 0.337881 0.988952
Si Si4 0.413286 0.630258 0.796375
Si Si5 0.538634 0.477445 0.639454
Si Si6 0.302746 0.157777 0.911299
Si Si7 0.250000 0.250000 0.250000
Si Si8 0.227260 0.894417 0.908001
O O1 0.250000 0.922961 0.250000
O O2 0.001301 0.002316 0.304350
O O3 0.750000 0.919379 0.250000
O O4 0.981228 0.034069 0.210606
O O5 0.723212 0.477284 0.878129
O O6 0.402275 0.398447 0.915809
O O7 0.469846 0.554768 0.932835
O O8 0.728897 0.420441 0.967592
O O9 0.750000 0.250000 0.970378
O O10 0.824763 0.338593 0.048483
O O11 0.078405 0.342148 0.964704
O O12 0.250000 0.645968 0.750000
O O13 0.607075 0.691102 0.784684
O O14 0.332506 0.641867 0.853475
O O15 0.453291 0.385252 0.629337
O O16 0.405450 0.537146 0.603987
O O17 0.250000 0.250000 0.896730
#
# Coordination Sequence:
#
# PCOD9390896 Si02
#       8
#     8   8   8   8   8   8   2   8
#     4  11  21  40  69  97 133 175 223 280 339 406
#     4  10  22  39  65  93 126 166 218 277 331 400
#     4  11  23  40  61  91 132 176 215 269 337 408
#     4  11  23  42  64  89 130 171 225 280 342 405
#     4  10  22  37  67 100 123 168 223 280 336 405
#     4  10  21  41  66  92 129 170 215 266 340 415
#     4  12  26  40  64  90 128 180 228 288 342 416
#     4  11  23  41  63  95 126 169 225 280 330 399
#
# _framework density 21.344197999999999
#
# number of rings (size 3 to 8) (size 9 to 14) (size 15 to 20)
#    0.000    1.379    4.828    1.448    1.931    7.172 
#    0.000    1.379    1.517    0.414    0.000    0.000 
#    0.000    0.000    0.000    0.000    0.000    0.000 
#
# Total GULP energy -323030.742871 kJ/mol
# GULP energy per Si atom -5569.495567 kJ/mol
# Density = 2.129562 g / cm^3
# Si number density = 21.344198 Si / 1000 Ang^3
#
#
#
# Elastic Constant Matrix: (Units=GPa)
#
#
# Indices 1 2 3 4 5 6 
#
# 1 121.8836 24.5499 23.1268 0.0000 0.0000 0.0000
# 2 24.5499 47.8721 13.9647 0.0000 0.0000 0.0000
# 3 23.1268 13.9647 99.0193 0.0000 0.0000 0.0000
# 4 0.0000 0.0000 0.0000 2.3929 0.0000 0.0000
# 5 0.0000 0.0000 0.0000 0.0000 24.0902 0.0000
# 6 0.0000 0.0000 0.0000 0.0000 0.0000 9.7473
#
#
#
# Elastic Compliance Matrix: (Units=1/GPa)
#
#
# Indices 1 2 3 4 5 6 
#
# 1 0.009380 -0.004350 -0.001577 0.000000 0.000000 0.000000
# 2 -0.004350 0.023803 -0.002341 0.000000 0.000000 0.000000
# 3 -0.001577 -0.002341 0.010798 0.000000 0.000000 0.000000
# 4 0.000000 0.000000 0.000000 0.417900 0.000000 0.000000
# 5 0.000000 0.000000 0.000000 0.000000 0.041511 0.000000
# 6 0.000000 0.000000 0.000000 0.000000 0.000000 0.102593
#
#
# Mechanical properties :
#
#
# Convention : Reuss Voigt Hill
#
# Bulk Modulus (GPa) = 36.43832 43.56200 40.00016
# Shear Modulus (GPa) = 7.91555 21.05497 14.48526
#
# Velocity S-wave (km/s) = 1.92784 3.14419 2.60792
# Velocity P-wave (km/s) = 4.69726 5.79955 5.27727
#
# Compressibility (1/GPa) = 0.02744363
#
# Stress axis : x y z
#
# Youngs Moduli (GPa) = 106.60917 42.01194 92.61348
#
# Poissons Ratio (x) = 0.18276 0.14608
# Poissons Ratio (y) = 0.46377 0.21680
# Poissons Ratio (z) = 0.16815 0.09834
#
# Static dielectric constant tensor:
#      x y z
#    x 1.872500 0.000000 0.000000 
#    y 0.000000 1.782560 0.000000 
#    z 0.000000 0.000000 1.777930 
# 
# From -- ./inp_files/6616.got.cif
#   From: 2010.05.17/outbox.cif.g08.bks.cpg/sg48_4_cif.got.tgz:6616.got - 2010.06.03 20:39:00.
