data_PCOD9390975
_publ_section_title
;
Structure prediction by ZEFSAII (Michael W. Deem and Ramdas Pophale) SiO2 
 PCOD9390975
Probable space group: P N N N
;
_chemical_formula_sum "Si O2"
_cell_formula_units_Z 34
_cell_length_a 14.176523
_cell_length_b 4.990276
_cell_length_c 24.063812
_cell_angle_alpha 90.000000
_cell_angle_beta 90.000000
_cell_angle_gamma 90.000000
_cell_volume 1702.388665
_symmetry_space_group_name_H-M "P N N N"
_symmetry_group_IT_number 48
_space_group.IT_coordinate_system_code '2'
_symmetry_cell_setting 'orthorhombic'
loop_
_space_group_symop_operation_xyz
x,y,z
1/2-x,1/2-y,z
x,1/2-y,1/2-z
1/2-x,y,1/2-z
-x,-y,-z
1/2+x,1/2+y,-z
-x,1/2+y,1/2+z
1/2+x,-y,1/2+z
loop_
_atom_site_type_symbol
_atom_site_label
_atom_site_fract_x
_atom_site_fract_y
_atom_site_fract_z
Si Si1 0.750000 0.250000 0.750000
Si Si2 0.683722 0.487714 0.080063
Si Si3 0.519333 0.971439 0.634182
Si Si4 0.067817 0.544160 0.201922
Si Si5 0.683701 0.494908 0.951123
O O1 0.820717 0.436056 0.785066
O O2 0.750000 0.750000 0.083649
O O3 0.588060 0.477174 0.114786
O O4 0.750000 0.250000 0.099795
O O5 0.657400 0.436983 0.015304
O O6 0.537852 0.756764 0.684739
O O7 0.593661 0.921718 0.585056
O O8 0.544388 0.275859 0.649450
O O9 0.026690 0.750000 0.250000
O O10 0.750000 0.750000 0.952042
O O11 0.750000 0.250000 0.930339
#
# Coordination Sequence:
#
# PCOD9390975 Si02
#       5
#     2   8   8   8   8
#     4   8  24  42  56  90 130 158 184 258 316 378
#     4  10  22  41  60  86 124 162 206 259 303 343
#     4  12  22  38  64  89 118 166 209 240 300 380
#     4  10  24  38  60  87 125 152 197 245 308 368
#     4  10  22  35  57  92 128 160 199 250 301 367
#
# _framework density 19.971938999999999
#
# number of rings (size 3 to 8) (size 9 to 14) (size 15 to 20)
#    0.706    0.941    0.000    4.235    4.941    0.941 
#    0.000    9.412    0.000   10.588    0.000    0.000 
#    0.000    0.000    0.000    0.000    0.000    0.000 
#
# Total GULP energy -189306.264434 kJ/mol
# GULP energy per Si atom -5567.831307 kJ/mol
# Density = 1.992648 g / cm^3
# Si number density = 19.971939 Si / 1000 Ang^3
#
#
#
# Elastic Constant Matrix: (Units=GPa)
#
#
# Indices 1 2 3 4 5 6 
#
# 1 136.0786 33.1817 47.4193 0.0000 0.0000 0.0000
# 2 33.1817 116.9257 11.2069 0.0000 0.0000 0.0000
# 3 47.4193 11.2069 38.7108 0.0000 0.0000 0.0000
# 4 0.0000 0.0000 0.0000 22.1710 0.0000 0.0000
# 5 0.0000 0.0000 0.0000 0.0000 4.1789 0.0000
# 6 0.0000 0.0000 0.0000 0.0000 0.0000 -86.6846
#
#
#
# Elastic Compliance Matrix: (Units=1/GPa)
#
#
# Indices 1 2 3 4 5 6 
#
# 1 0.013394 -0.002292 -0.015743 0.000000 0.000000 0.000000
# 2 -0.002292 0.009189 0.000147 0.000000 0.000000 0.000000
# 3 -0.015743 0.000147 0.045075 0.000000 0.000000 0.000000
# 4 0.000000 0.000000 0.000000 0.045104 0.000000 0.000000
# 5 0.000000 0.000000 0.000000 0.000000 0.239296 0.000000
# 6 0.000000 0.000000 0.000000 0.000000 0.000000 -0.011536
#
#
# Mechanical properties :
#
#
# Convention : Reuss Voigt Hill
#
# Bulk Modulus (GPa) = 31.36600 52.81453 42.09027
# Shear Modulus (GPa) = 12.92245 1.26020 7.09132
#
# Velocity S-wave (km/s) = 2.54644 0.79521 1.88636
# Velocity P-wave (km/s) = 4.93811 5.22924 5.08576
#
# Compressibility (1/GPa) = 0.03188165
#
# Stress axis : x y z
#
# Youngs Moduli (GPa) = 74.66270 108.82887 22.18540
#
# Poissons Ratio (x) = 0.24943 0.34927
# Poissons Ratio (y) = 0.17112 -0.00327
# Poissons Ratio (z) = 1.17542 -0.01604
#
# Static dielectric constant tensor:
#      x y z
#    x 1.459170 0.000000 0.000000 
#    y 0.000000 1.679590 0.000000 
#    z 0.000000 0.000000 1.838730 
# 
# From -- ./inp_files/36146.got.cif
#   From: 2010.05.17/outbox.cif.g08.bks.cpg/sg48_19_cif.got.tgz:36146.got - 2010.06.03 20:39:00.
