data_PCOD9390724
_publ_section_title
;
Structure prediction by ZEFSAII (Michael W. Deem and Ramdas Pophale) SiO2 
 PCOD9390724
Probable space group: P N N N
;
_chemical_formula_sum "Si O2"
_cell_formula_units_Z 48
_cell_length_a 8.762337
_cell_length_b 18.010436
_cell_length_c 15.315966
_cell_angle_alpha 90.000000
_cell_angle_beta 90.000000
_cell_angle_gamma 90.000000
_cell_volume 2417.066350
_symmetry_space_group_name_H-M "P N N N"
_symmetry_group_IT_number 48
_space_group.IT_coordinate_system_code '2'
_symmetry_cell_setting 'orthorhombic'
loop_
_space_group_symop_operation_xyz
x,y,z
1/2-x,1/2-y,z
x,1/2-y,1/2-z
1/2-x,y,1/2-z
-x,-y,-z
1/2+x,1/2+y,-z
-x,1/2+y,1/2+z
1/2+x,-y,1/2+z
loop_
_atom_site_type_symbol
_atom_site_label
_atom_site_fract_x
_atom_site_fract_y
_atom_site_fract_z
Si Si1 0.185936 0.393712 0.344098
Si Si2 0.887051 0.471469 0.920123
Si Si3 0.673092 0.107676 0.338227
Si Si4 0.187191 0.670309 0.476558
Si Si5 0.811613 0.944625 0.343149
Si Si6 0.827750 0.673460 0.471932
O O1 0.250000 0.370478 0.250000
O O2 0.279179 0.464337 0.381534
O O3 0.196486 0.336227 0.424142
O O4 0.006520 0.408339 0.330100
O O5 0.006737 0.447613 0.846096
O O6 0.784292 0.400403 0.944163
O O7 0.000000 0.500000 0.000000
O O8 0.750000 0.136355 0.250000
O O9 0.697160 0.162253 0.418618
O O10 0.751462 0.028326 0.356761
O O11 0.250000 0.750000 0.447966
O O12 0.008111 0.667341 0.453959
O O13 0.750000 0.918548 0.250000
O O14 0.752246 0.892926 0.420227
O O15 0.750000 0.750000 0.443919
#
# Coordination Sequence:
#
# PCOD9390724 Si02
#       6
#     8   8   8   8   8   8
#     4  11  23  38  65  96 125 167 220 270 327 395
#     4  12  22  40  67  95 131 169 218 278 325 394
#     4  10  21  38  60  91 127 165 217 272 324 388
#     4  11  24  39  62  90 125 174 217 263 335 402
#     4  11  22  39  66  92 125 169 217 268 327 387
#     4  11  24  42  62  90 133 173 216 271 336 399
#
# _framework density 19.858784
#
# number of rings (size 3 to 8) (size 9 to 14) (size 15 to 20)
#    0.000    1.000    3.333    4.000    0.000    3.667 
#    0.000    3.333    0.000    3.500    0.000    0.000 
#    0.000    0.000    0.000    0.000    0.000    0.000 
#
# Total GULP energy -268085.008683 kJ/mol
# GULP energy per Si atom -5585.104348 kJ/mol
# Density = 1.981358 g / cm^3
# Si number density = 19.858784 Si / 1000 Ang^3
#
#
#
# Elastic Constant Matrix: (Units=GPa)
#
#
# Indices 1 2 3 4 5 6 
#
# 1 133.8233 36.2378 29.4207 0.0000 0.0000 0.0000
# 2 36.2378 49.2997 -2.8943 0.0000 0.0000 0.0000
# 3 29.4207 -2.8943 58.2319 0.0000 0.0000 0.0000
# 4 0.0000 0.0000 0.0000 9.4541 0.0000 0.0000
# 5 0.0000 0.0000 0.0000 0.0000 39.2946 0.0000
# 6 0.0000 0.0000 0.0000 0.0000 0.0000 22.5312
#
#
#
# Elastic Compliance Matrix: (Units=1/GPa)
#
#
# Indices 1 2 3 4 5 6 
#
# 1 0.011106 -0.008517 -0.006034 0.000000 0.000000 0.000000
# 2 -0.008517 0.026876 0.005639 0.000000 0.000000 0.000000
# 3 -0.006034 0.005639 0.020502 0.000000 0.000000 0.000000
# 4 0.000000 0.000000 0.000000 0.105775 0.000000 0.000000
# 5 0.000000 0.000000 0.000000 0.000000 0.025449 0.000000
# 6 0.000000 0.000000 0.000000 0.000000 0.000000 0.044383
#
#
# Mechanical properties :
#
#
# Convention : Reuss Voigt Hill
#
# Bulk Modulus (GPa) = 24.59542 40.76482 32.68012
# Shear Modulus (GPa) = 18.83471 26.16202 22.49836
#
# Velocity S-wave (km/s) = 3.08300 3.63354 3.36954
# Velocity P-wave (km/s) = 5.00852 6.17863 5.62409
#
# Compressibility (1/GPa) = 0.04065797
#
# Stress axis : x y z
#
# Youngs Moduli (GPa) = 90.04491 37.20810 48.77647
#
# Poissons Ratio (x) = 0.31692 0.29433
# Poissons Ratio (y) = 0.76695 -0.27505
# Poissons Ratio (z) = 0.54335 -0.20982
#
# Static dielectric constant tensor:
#      x y z
#    x 1.701870 0.000000 0.000000 
#    y 0.000000 1.678530 0.000000 
#    z 0.000000 0.000000 1.736820 
# 
# From -- ./inp_files/12756.got.cif
#   From: 2010.05.17/outbox.cif.g08.bks.cpg/sg48_7_cif.got.tgz:12756.got - 2010.06.03 20:39:00.
