data_PCOD9390790
_publ_section_title
;
Structure prediction by ZEFSAII (Michael W. Deem and Ramdas Pophale) SiO2 
 PCOD9390790
Probable space group: P N N N
;
_chemical_formula_sum "Si O2"
_cell_formula_units_Z 52
_cell_length_a 25.225690
_cell_length_b 8.720656
_cell_length_c 11.768012
_cell_angle_alpha 90.000000
_cell_angle_beta 90.000000
_cell_angle_gamma 90.000000
_cell_volume 2588.780999
_symmetry_space_group_name_H-M "P N N N"
_symmetry_group_IT_number 48
_space_group.IT_coordinate_system_code '2'
_symmetry_cell_setting 'orthorhombic'
loop_
_space_group_symop_operation_xyz
x,y,z
1/2-x,1/2-y,z
x,1/2-y,1/2-z
1/2-x,y,1/2-z
-x,-y,-z
1/2+x,1/2+y,-z
-x,1/2+y,1/2+z
1/2+x,-y,1/2+z
loop_
_atom_site_type_symbol
_atom_site_label
_atom_site_fract_x
_atom_site_fract_y
_atom_site_fract_z
Si Si1 0.600085 0.396190 0.460517
Si Si2 0.615141 0.449431 0.122547
Si Si3 0.822794 0.585880 0.193244
Si Si4 0.482081 0.927839 0.782847
Si Si5 0.101226 0.468873 0.191206
Si Si6 0.750000 0.750000 0.466823
Si Si7 0.857885 0.653967 0.588437
O O1 0.611974 0.226355 0.415315
O O2 0.637706 0.521477 0.401794
O O3 0.542014 0.435611 0.409888
O O4 0.609633 0.406137 0.594129
O O5 0.666593 0.471259 0.202729
O O6 0.563703 0.489424 0.199200
O O7 0.617327 0.561681 0.015921
O O8 0.837123 0.750000 0.250000
O O9 0.769730 0.618814 0.121574
O O10 0.486897 0.750000 0.750000
O O11 0.540688 0.991940 0.769689
O O12 0.139445 0.453147 0.299461
O O13 0.109191 0.305156 0.125698
O O14 0.799485 0.702018 0.544987
#
# Coordination Sequence:
#
# PCOD9390790 Si02
#       7
#     8   8   8   8   8   4   8
#     4  10  21  39  63  93 134 168 200 262 328 387
#     4  10  22  39  63  97 132 162 202 276 327 394
#     4  11  20  38  68  93 122 157 213 274 321 372
#     4   9  18  36  62  90 130 167 206 258 319 374
#     4  11  21  41  62  91 127 176 217 257 302 390
#     4  12  23  41  68 100 118 171 221 292 312 368
#     4  11  24  39  66  90 128 167 230 264 310 376
#
# _framework density 20.086673999999999
#
# number of rings (size 3 to 8) (size 9 to 14) (size 15 to 20)
#    0.000    1.538    4.615    2.077    0.000    2.462 
#    0.000    0.769   13.538    0.000    8.000    0.000 
#    0.000    0.000    0.000    0.000    0.000    0.000 
#
# Total GULP energy -289787.809684 kJ/mol
# GULP energy per Si atom -5572.842494 kJ/mol
# Density = 2.004096 g / cm^3
# Si number density = 20.086674 Si / 1000 Ang^3
#
#
#
# Elastic Constant Matrix: (Units=GPa)
#
#
# Indices 1 2 3 4 5 6 
#
# 1 116.3122 40.3958 56.7258 0.0000 0.0000 0.0000
# 2 40.3958 39.9648 33.6863 0.0000 0.0000 0.0000
# 3 56.7258 33.6863 153.3191 0.0000 0.0000 0.0000
# 4 0.0000 0.0000 0.0000 35.9302 0.0000 0.0000
# 5 0.0000 0.0000 0.0000 0.0000 35.6861 0.0000
# 6 0.0000 0.0000 0.0000 0.0000 0.0000 22.4852
#
#
#
# Elastic Compliance Matrix: (Units=1/GPa)
#
#
# Indices 1 2 3 4 5 6 
#
# 1 0.014013 -0.012020 -0.002544 0.000000 0.000000 0.000000
# 2 -0.012020 0.041020 -0.004565 0.000000 0.000000 0.000000
# 3 -0.002544 -0.004565 0.008467 0.000000 0.000000 0.000000
# 4 0.000000 0.000000 0.000000 0.027832 0.000000 0.000000
# 5 0.000000 0.000000 0.000000 0.000000 0.028022 0.000000
# 6 0.000000 0.000000 0.000000 0.000000 0.000000 0.044474
#
#
# Mechanical properties :
#
#
# Convention : Reuss Voigt Hill
#
# Bulk Modulus (GPa) = 39.61770 63.46800 51.54285
# Shear Modulus (GPa) = 23.75326 30.73951 27.24638
#
# Velocity S-wave (km/s) = 3.44254 3.91620 3.68698
# Velocity P-wave (km/s) = 5.96386 7.21904 6.62126
#
# Compressibility (1/GPa) = 0.02524124
#
# Stress axis : x y z
#
# Youngs Moduli (GPa) = 71.36456 24.37858 118.11247
#
# Poissons Ratio (x) = 0.29302 0.30042
# Poissons Ratio (y) = 0.85778 0.53924
# Poissons Ratio (z) = 0.18152 0.11130
#
# Static dielectric constant tensor:
#      x y z
#    x 1.742100 0.000000 0.000000 
#    y 0.000000 1.713870 0.000000 
#    z 0.000000 0.000000 1.752910 
# 
# From -- ./inp_files/23624.got.cif
#   From: 2010.05.17/outbox.cif.g08.bks.cpg/sg48_12_cif.got.tgz:23624.got - 2010.06.03 20:39:00.
