data_PCOD9390322
_publ_section_title
;
Structure prediction by ZEFSAII (Michael W. Deem and Ramdas Pophale) SiO2 
 PCOD9390322
Probable space group: P N N N
;
_chemical_formula_sum "Si O2"
_cell_formula_units_Z 40
_cell_length_a 7.809071
_cell_length_b 11.775235
_cell_length_c 21.147439
_cell_angle_alpha 90.000000
_cell_angle_beta 90.000000
_cell_angle_gamma 90.000000
_cell_volume 1944.584123
_symmetry_space_group_name_H-M "P N N N"
_symmetry_group_IT_number 48
_space_group.IT_coordinate_system_code '2'
_symmetry_cell_setting 'orthorhombic'
loop_
_space_group_symop_operation_xyz
x,y,z
1/2-x,1/2-y,z
x,1/2-y,1/2-z
1/2-x,y,1/2-z
-x,-y,-z
1/2+x,1/2+y,-z
-x,1/2+y,1/2+z
1/2+x,-y,1/2+z
loop_
_atom_site_type_symbol
_atom_site_label
_atom_site_fract_x
_atom_site_fract_y
_atom_site_fract_z
Si Si1 0.329562 0.624603 0.686317
Si Si2 0.259738 0.508853 0.945224
Si Si3 0.868209 0.399516 0.572340
Si Si4 0.142736 0.515509 0.186761
Si Si5 0.574114 0.814455 0.114762
O O1 0.250000 0.750000 0.686250
O O2 0.250000 0.569255 0.750000
O O3 0.274704 0.574430 0.619394
O O4 0.533635 0.601248 0.689489
O O5 0.449431 0.458710 0.939295
O O6 0.128370 0.402741 0.940849
O O7 0.260816 0.584922 0.007882
O O8 0.768578 0.466614 0.627395
O O9 0.929627 0.274167 0.593068
O O10 0.250000 0.531771 0.250000
O O11 0.000663 0.612696 0.172802
O O12 0.750000 0.750000 0.131520
#
# Coordination Sequence:
#
# PCOD9390322 Si02
#       5
#     8   8   8   8   8
#     4  10  22  41  61  83 115 155 195 240 305 366
#     4   9  20  38  59  84 123 163 194 245 306 356
#     4  10  20  36  59  90 121 154 205 252 293 354
#     4  11  23  39  61  88 119 153 202 255 296 353
#     4   9  20  38  58  86 124 162 199 245 305 363
#
# _framework density 20.569951
#
# number of rings (size 3 to 8) (size 9 to 14) (size 15 to 20)
#    0.000    2.200    0.000    1.800    0.000    8.000 
#    0.000   16.000    0.000    0.000    0.000    0.000 
#    0.000    0.000    0.000    0.000    0.000    0.000 
#
# Total GULP energy -222961.707109 kJ/mol
# GULP energy per Si atom -5574.042678 kJ/mol
# Density = 2.052313 g / cm^3
# Si number density = 20.569951 Si / 1000 Ang^3
#
#
#
# Elastic Constant Matrix: (Units=GPa)
#
#
# Indices 1 2 3 4 5 6 
#
# 1 141.4584 58.8528 55.3717 0.0000 0.0000 0.0000
# 2 58.8528 88.1182 41.2700 0.0000 0.0000 0.0000
# 3 55.3717 41.2700 154.2584 0.0000 0.0000 0.0000
# 4 0.0000 0.0000 0.0000 30.6443 0.0000 0.0000
# 5 0.0000 0.0000 0.0000 0.0000 27.6157 0.0000
# 6 0.0000 0.0000 0.0000 0.0000 0.0000 156.9127
#
#
#
# Elastic Compliance Matrix: (Units=1/GPa)
#
#
# Indices 1 2 3 4 5 6 
#
# 1 0.010371 -0.005926 -0.002137 0.000000 0.000000 0.000000
# 2 -0.005926 0.016360 -0.002250 0.000000 0.000000 0.000000
# 3 -0.002137 -0.002250 0.007852 0.000000 0.000000 0.000000
# 4 0.000000 0.000000 0.000000 0.032633 0.000000 0.000000
# 5 0.000000 0.000000 0.000000 0.000000 0.036211 0.000000
# 6 0.000000 0.000000 0.000000 0.000000 0.000000 0.006373
#
#
# Mechanical properties :
#
#
# Convention : Reuss Voigt Hill
#
# Bulk Modulus (GPa) = 71.64931 77.20266 74.42598
# Shear Modulus (GPa) = 37.01570 58.25723 47.63647
#
# Velocity S-wave (km/s) = 4.24666 5.32757 4.81753
# Velocity P-wave (km/s) = 7.67809 8.68661 8.19788
#
# Compressibility (1/GPa) = 0.01395687
#
# Stress axis : x y z
#
# Youngs Moduli (GPa) = 96.42051 61.12557 127.35963
#
# Poissons Ratio (x) = 0.36221 0.27222
# Poissons Ratio (y) = 0.57136 0.28653
# Poissons Ratio (z) = 0.20609 0.13752
#
# Static dielectric constant tensor:
#      x y z
#    x 1.767830 0.000000 0.000000 
#    y 0.000000 1.821970 0.000000 
#    z 0.000000 0.000000 1.701540 
# 
# From -- ./inp_files/30022.got.cif
#   From: 2010.05.17/outbox.cif.g08.bks.cpg/sg48_16_cif.got.tgz:30022.got - 2010.06.03 20:39:00.
