data_PCOD9390785
_publ_section_title
;
Structure prediction by ZEFSAII (Michael W. Deem and Ramdas Pophale) SiO2 
 PCOD9390785
Probable space group: P N N N
;
_chemical_formula_sum "Si O2"
_cell_formula_units_Z 28
_cell_length_a 10.220033
_cell_length_b 15.502273
_cell_length_c 8.104510
_cell_angle_alpha 90.000000
_cell_angle_beta 90.000000
_cell_angle_gamma 90.000000
_cell_volume 1284.027843
_symmetry_space_group_name_H-M "P N N N"
_symmetry_group_IT_number 48
_space_group.IT_coordinate_system_code '2'
_symmetry_cell_setting 'orthorhombic'
loop_
_space_group_symop_operation_xyz
x,y,z
1/2-x,1/2-y,z
x,1/2-y,1/2-z
1/2-x,y,1/2-z
-x,-y,-z
1/2+x,1/2+y,-z
-x,1/2+y,1/2+z
1/2+x,-y,1/2+z
loop_
_atom_site_type_symbol
_atom_site_label
_atom_site_fract_x
_atom_site_fract_y
_atom_site_fract_z
Si Si1 0.404097 0.248546 0.948274
Si Si2 0.995435 0.580021 0.623172
Si Si3 0.915427 0.085107 0.463859
Si Si4 0.250000 0.515756 0.250000
O O1 0.250000 0.250000 0.999930
O O2 0.404402 0.250000 0.750000
O O3 0.473170 0.332244 0.025281
O O4 0.491374 0.166532 0.998509
O O5 0.865017 0.551157 0.716270
O O6 0.000000 0.500000 0.500000
O O7 0.104244 0.585803 0.766038
O O8 0.794067 0.074624 0.592381
O O9 0.000000 0.000000 0.500000
#
# Coordination Sequence:
#
# PCOD9390785 Si02
#       4
#     8   8   8   4
#     4  11  22  38  64  95 126 166 218 272 327 396
#     4  11  23  40  63  93 127 168 215 266 331 402
#     4  10  21  39  62  92 127 167 214 269 333 395
#     4  10  22  42  66  90 130 172 214 278 336 398
#
# _framework density 21.806380999999998
#
# number of rings (size 3 to 8) (size 9 to 14) (size 15 to 20)
#    0.000    1.429    0.000    7.714    0.000    4.571 
#    0.000    6.429    0.000    6.857    0.000    0.000 
#    0.000    0.000    0.000    0.000    0.000    0.000 
#
# Total GULP energy -156144.083944 kJ/mol
# GULP energy per Si atom -5576.574427 kJ/mol
# Density = 2.175675 g / cm^3
# Si number density = 21.806381 Si / 1000 Ang^3
#
#
#
# Elastic Constant Matrix: (Units=GPa)
#
#
# Indices 1 2 3 4 5 6 
#
# 1 94.0194 44.5910 49.1915 0.0000 0.0000 0.0000
# 2 44.5910 201.7965 69.3625 0.0000 0.0000 0.0000
# 3 49.1915 69.3625 169.3385 0.0000 0.0000 0.0000
# 4 0.0000 0.0000 0.0000 47.5250 0.0000 0.0000
# 5 0.0000 0.0000 0.0000 0.0000 28.8187 0.0000
# 6 0.0000 0.0000 0.0000 0.0000 0.0000 33.0355
#
#
#
# Elastic Compliance Matrix: (Units=1/GPa)
#
#
# Indices 1 2 3 4 5 6 
#
# 1 0.013109 -0.001848 -0.003051 0.000000 0.000000 0.000000
# 2 -0.001848 0.006028 -0.001932 0.000000 0.000000 0.000000
# 3 -0.003051 -0.001932 0.007583 0.000000 0.000000 0.000000
# 4 0.000000 0.000000 0.000000 0.021042 0.000000 0.000000
# 5 0.000000 0.000000 0.000000 0.000000 0.034700 0.000000
# 6 0.000000 0.000000 0.000000 0.000000 0.000000 0.030270
#
#
# Mechanical properties :
#
#
# Convention : Reuss Voigt Hill
#
# Bulk Modulus (GPa) = 76.58520 87.93823 82.26172
# Shear Modulus (GPa) = 38.24185 42.00982 40.12583
#
# Velocity S-wave (km/s) = 4.19226 4.39394 4.29429
# Velocity P-wave (km/s) = 7.65704 8.13368 7.89895
#
# Compressibility (1/GPa) = 0.01305735
#
# Stress axis : x y z
#
# Youngs Moduli (GPa) = 76.28415 165.89221 131.87141
#
# Poissons Ratio (x) = 0.30656 0.40235
# Poissons Ratio (y) = 0.14097 0.25482
# Poissons Ratio (z) = 0.23275 0.32056
#
# Static dielectric constant tensor:
#      x y z
#    x 1.755890 0.000000 0.000000 
#    y 0.000000 1.711970 0.000000 
#    z 0.000000 0.000000 1.830010 
# 
# From -- ./inp_files/9974.got.cif
#   From: 2010.05.17/outbox.cif.g08.bks.cpg/sg48_5_cif.got.tgz:9974.got - 2010.06.03 20:39:00.
