data_PCOD9390665
_publ_section_title
;
Structure prediction by ZEFSAII (Michael W. Deem and Ramdas Pophale) SiO2 
 PCOD9390665
Probable space group: P N N N
;
_chemical_formula_sum "Si O2"
_cell_formula_units_Z 26
_cell_length_a 6.720818
_cell_length_b 6.481936
_cell_length_c 29.580956
_cell_angle_alpha 90.000000
_cell_angle_beta 90.000000
_cell_angle_gamma 90.000000
_cell_volume 1288.662168
_symmetry_space_group_name_H-M "P N N N"
_symmetry_group_IT_number 48
_space_group.IT_coordinate_system_code '2'
_symmetry_cell_setting 'orthorhombic'
loop_
_space_group_symop_operation_xyz
x,y,z
1/2-x,1/2-y,z
x,1/2-y,1/2-z
1/2-x,y,1/2-z
-x,-y,-z
1/2+x,1/2+y,-z
-x,1/2+y,1/2+z
1/2+x,-y,1/2+z
loop_
_atom_site_type_symbol
_atom_site_label
_atom_site_fract_x
_atom_site_fract_y
_atom_site_fract_z
Si Si1 0.250000 0.750000 0.750000
Si Si2 0.051320 0.125761 0.704615
Si Si3 0.750000 0.250000 0.632480
Si Si4 0.250000 0.750000 0.510981
Si Si5 0.371780 0.062597 0.437446
O O1 0.383557 0.600052 0.719855
O O2 0.250000 0.250000 0.689667
O O3 0.985459 0.250000 0.750000
O O4 0.889896 0.121649 0.665724
O O5 0.890871 0.388385 0.600449
O O6 0.259257 0.552303 0.476809
O O7 0.432909 0.830291 0.541493
O O8 0.250000 0.250000 0.417091
#
# Coordination Sequence:
#
# PCOD9390665 Si02
#       5
#     2   8   4   4   8
#     4   8  18  40  68  82 106 166 202 230 290 344
#     4   9  20  39  59  83 116 152 191 237 287 346
#     4  11  23  36  57  92 121 146 190 244 294 347
#     4   9  20  40  58  80 113 155 200 239 286 349
#     4  10  21  36  59  85 114 154 195 239 292 347
#
# _framework density 20.175964
#
# number of rings (size 3 to 8) (size 9 to 14) (size 15 to 20)
#    0.000    2.769    0.000    1.385    0.000    7.385 
#    0.000   10.769    0.000    0.000    0.000    0.000 
#    0.000    0.000    0.000    0.000    0.000    0.000 
#
# Total GULP energy -144740.663165 kJ/mol
# GULP energy per Si atom -5566.948583 kJ/mol
# Density = 2.013004 g / cm^3
# Si number density = 20.175964 Si / 1000 Ang^3
#
#
#
# Elastic Constant Matrix: (Units=GPa)
#
#
# Indices 1 2 3 4 5 6 
#
# 1 78.2123 50.2741 52.2627 0.0000 0.0000 0.0000
# 2 50.2741 133.9436 47.2907 0.0000 0.0000 0.0000
# 3 52.2627 47.2907 102.5318 0.0000 0.0000 0.0000
# 4 0.0000 0.0000 0.0000 -16.2552 0.0000 0.0000
# 5 0.0000 0.0000 0.0000 0.0000 -13.8355 0.0000
# 6 0.0000 0.0000 0.0000 0.0000 0.0000 21.7628
#
#
#
# Elastic Compliance Matrix: (Units=1/GPa)
#
#
# Indices 1 2 3 4 5 6 
#
# 1 0.021995 -0.005133 -0.008844 0.000000 0.000000 0.000000
# 2 -0.005133 0.010116 -0.002049 0.000000 0.000000 0.000000
# 3 -0.008844 -0.002049 0.015206 0.000000 0.000000 0.000000
# 4 0.000000 0.000000 0.000000 -0.061519 0.000000 0.000000
# 5 0.000000 0.000000 0.000000 0.000000 -0.072278 0.000000
# 6 0.000000 0.000000 0.000000 0.000000 0.000000 0.045950
#
#
# Mechanical properties :
#
#
# Convention : Reuss Voigt Hill
#
# Bulk Modulus (GPa) = 65.51093 68.26031 66.88562
# Shear Modulus (GPa) = -1475.09654 9.32510 -732.88572
#
# Velocity S-wave (km/s) = -27.06849 2.15219 -19.07971
# Velocity P-wave (km/s) = 30.73104 6.33102 21.26400
#
# Compressibility (1/GPa) = 0.01526463
#
# Stress axis : x y z
#
# Youngs Moduli (GPa) = 45.46563 98.85311 65.76303
#
# Poissons Ratio (x) = 0.50742 0.58158
# Poissons Ratio (y) = 0.23338 0.13477
# Poissons Ratio (z) = 0.40208 0.20259
#
# Static dielectric constant tensor:
#      x y z
#    x 1.733890 0.000000 0.000000 
#    y 0.000000 1.697030 0.000000 
#    z 0.000000 0.000000 1.707670 
# 
# From -- ./inp_files/992.got.cif
#   From: 2010.05.17/outbox.cif.g08.bks.cpg/sg48_1_cif.got.tgz:992.got - 2010.06.03 20:39:00.
