data_PCOD9390777
_publ_section_title
;
Structure prediction by ZEFSAII (Michael W. Deem and Ramdas Pophale) SiO2 
 PCOD9390777
Probable space group: P N N N
;
_chemical_formula_sum "Si O2"
_cell_formula_units_Z 64
_cell_length_a 11.743698
_cell_length_b 31.146630
_cell_length_c 9.277043
_cell_angle_alpha 90.000000
_cell_angle_beta 90.000000
_cell_angle_gamma 90.000000
_cell_volume 3393.325399
_symmetry_space_group_name_H-M "P N N N"
_symmetry_group_IT_number 48
_space_group.IT_coordinate_system_code '2'
_symmetry_cell_setting 'orthorhombic'
loop_
_space_group_symop_operation_xyz
x,y,z
1/2-x,1/2-y,z
x,1/2-y,1/2-z
1/2-x,y,1/2-z
-x,-y,-z
1/2+x,1/2+y,-z
-x,1/2+y,1/2+z
1/2+x,-y,1/2+z
loop_
_atom_site_type_symbol
_atom_site_label
_atom_site_fract_x
_atom_site_fract_y
_atom_site_fract_z
Si Si1 0.592143 0.962010 0.978264
Si Si2 0.693093 0.012851 0.451505
Si Si3 0.115787 0.202218 0.432073
Si Si4 0.494575 0.619865 0.046826
Si Si5 0.993171 0.873969 0.387235
Si Si6 0.033955 0.036761 0.154913
Si Si7 0.111592 0.201020 0.092169
Si Si8 0.759297 0.401321 0.917337
O O1 0.712913 0.975970 0.046383
O O2 0.593064 0.954183 0.806361
O O3 0.553084 0.917815 0.046264
O O4 0.500000 0.000000 0.000000
O O5 0.607457 0.001159 0.582899
O O6 0.598525 0.021459 0.328284
O O7 0.761031 0.056196 0.485751
O O8 0.064291 0.167201 0.539355
O O9 0.087163 0.196349 0.262850
O O10 0.079563 0.251363 0.462853
O O11 0.252811 0.198595 0.434049
O O12 0.523506 0.619986 0.216216
O O13 0.357449 0.621680 0.040451
O O14 0.531306 0.577680 0.954098
O O15 0.550112 0.662058 0.983214
O O16 0.127610 0.873473 0.424383
O O17 0.750000 0.415468 0.750000
#
# Coordination Sequence:
#
# PCOD9390777 Si02
#       8
#     8   8   8   8   8   8   8   8
#     4  12  24  37  57  85 119 155 199 252 295 339
#     4  10  21  39  60  76 110 158 208 239 290 346
#     4   9  20  39  66  87 117 147 190 234 289 363
#     4  10  22  39  61  83 116 155 197 239 291 354
#     4  11  23  38  57  90 117 150 196 248 288 340
#     4  10  23  39  59  81 111 162 201 245 294 354
#     4   9  19  41  64  88 114 155 183 228 302 360
#     4   9  18  37  57  76 113 157 194 233 287 343
#
# _framework density 18.860554
#
# number of rings (size 3 to 8) (size 9 to 14) (size 15 to 20)
#    0.000    2.000    1.250    2.625    7.000    1.500 
#    0.000    3.750    0.000    3.750    0.000    0.000 
#    0.000    0.000    0.000    0.000    0.000    0.000 
#
# Total GULP energy -357062.490935 kJ/mol
# GULP energy per Si atom -5579.101421 kJ/mol
# Density = 1.881763 g / cm^3
# Si number density = 18.860554 Si / 1000 Ang^3
#
#
#
# Elastic Constant Matrix: (Units=GPa)
#
#
# Indices 1 2 3 4 5 6 
#
# 1 37.5728 27.8737 24.4024 0.0000 0.0000 0.0000
# 2 27.8737 116.0946 61.8386 0.0000 0.0000 0.0000
# 3 24.4024 61.8386 81.6131 0.0000 0.0000 0.0000
# 4 0.0000 0.0000 0.0000 34.2716 0.0000 0.0000
# 5 0.0000 0.0000 0.0000 0.0000 20.8554 0.0000
# 6 0.0000 0.0000 0.0000 0.0000 0.0000 33.5584
#
#
#
# Elastic Compliance Matrix: (Units=1/GPa)
#
#
# Indices 1 2 3 4 5 6 
#
# 1 0.034477 -0.004673 -0.006768 0.000000 0.000000 0.000000
# 2 -0.004673 0.015076 -0.010026 0.000000 0.000000 0.000000
# 3 -0.006768 -0.010026 0.021873 0.000000 0.000000 0.000000
# 4 0.000000 0.000000 0.000000 0.029179 0.000000 0.000000
# 5 0.000000 0.000000 0.000000 0.000000 0.047949 0.000000
# 6 0.000000 0.000000 0.000000 0.000000 0.000000 0.029799
#
#
# Mechanical properties :
#
#
# Convention : Reuss Voigt Hill
#
# Bulk Modulus (GPa) = 35.09659 51.50111 43.29885
# Shear Modulus (GPa) = 21.66523 25.81481 23.74002
#
# Velocity S-wave (km/s) = 3.39293 3.70363 3.55168
# Velocity P-wave (km/s) = 5.83080 6.75683 6.31082
#
# Compressibility (1/GPa) = 0.02849279
#
# Stress axis : x y z
#
# Youngs Moduli (GPa) = 29.00468 66.33076 45.71766
#
# Poissons Ratio (x) = 0.30994 0.30943
# Poissons Ratio (y) = 0.13553 0.45837
# Poissons Ratio (z) = 0.19631 0.66503
#
# Static dielectric constant tensor:
#      x y z
#    x 1.677750 0.000000 0.000000 
#    y 0.000000 1.624930 0.000000 
#    z 0.000000 0.000000 1.692830 
# 
# From -- ./inp_files/11587.got.cif
#   From: 2010.05.17/outbox.cif.g08.bks.cpg/sg48_6_cif.got.tgz:11587.got - 2010.06.03 20:39:00.
