data_PCOD9390189
_publ_section_title
;
Structure prediction by ZEFSAII (Michael W. Deem and Ramdas Pophale) SiO2 
 PCOD9390189
Probable space group: P N N N
;
_chemical_formula_sum "Si O2"
_cell_formula_units_Z 32
_cell_length_a 10.149037
_cell_length_b 7.117008
_cell_length_c 20.417756
_cell_angle_alpha 90.000000
_cell_angle_beta 90.000000
_cell_angle_gamma 90.000000
_cell_volume 1474.790391
_symmetry_space_group_name_H-M "P N N N"
_symmetry_group_IT_number 48
_space_group.IT_coordinate_system_code '2'
_symmetry_cell_setting 'orthorhombic'
loop_
_space_group_symop_operation_xyz
x,y,z
1/2-x,1/2-y,z
x,1/2-y,1/2-z
1/2-x,y,1/2-z
-x,-y,-z
1/2+x,1/2+y,-z
-x,1/2+y,1/2+z
1/2+x,-y,1/2+z
loop_
_atom_site_type_symbol
_atom_site_label
_atom_site_fract_x
_atom_site_fract_y
_atom_site_fract_z
Si Si1 0.437443 0.017875 0.080525
Si Si2 0.218764 0.974957 0.175019
Si Si3 0.707592 0.448691 0.453543
Si Si4 0.985808 0.922849 0.075553
O O1 0.337237 0.067902 0.135908
O O2 0.474790 0.796299 0.078853
O O3 0.580121 0.108617 0.088632
O O4 0.357634 0.061614 0.013706
O O5 0.250000 0.750000 0.171913
O O6 0.250000 0.026415 0.250000
O O7 0.083805 0.004448 0.132301
O O8 0.750000 0.250000 0.484017
O O9 0.828506 0.543529 0.416124
O O10 0.000000 0.000000 0.000000
#
# Coordination Sequence:
#
# PCOD9390189 Si02
#       4
#     8   8   8   8
#     4  10  20  33  54  82 111 140 185 225 288 329
#     4   9  18  35  58  81 109 144 186 232 277 336
#     4  11  20  33  52  83 109 142 180 231 279 323
#     4  11  18  33  55  84 112 138 181 234 280 331
#
# _framework density 21.697997000000001
#
# number of rings (size 3 to 8) (size 9 to 14) (size 15 to 20)
#    0.000    1.750    5.000    1.500    0.000    0.000 
#    0.000    2.500    0.000   10.500    0.000    0.000 
#    0.000    0.000    0.000    0.000    0.000    0.000 
#
# Total GULP energy -178150.155822 kJ/mol
# GULP energy per Si atom -5567.192369 kJ/mol
# Density = 2.164861 g / cm^3
# Si number density = 21.697997 Si / 1000 Ang^3
#
#
#
# Elastic Constant Matrix: (Units=GPa)
#
#
# Indices 1 2 3 4 5 6 
#
# 1 238.6715 18.3653 102.7827 0.0000 0.0000 0.0000
# 2 18.3653 64.6518 6.3389 0.0000 0.0000 0.0000
# 3 102.7827 6.3389 149.4231 0.0000 0.0000 0.0000
# 4 0.0000 0.0000 0.0000 16.3017 0.0000 0.0000
# 5 0.0000 0.0000 0.0000 0.0000 27.9343 0.0000
# 6 0.0000 0.0000 0.0000 0.0000 0.0000 35.6499
#
#
#
# Elastic Compliance Matrix: (Units=1/GPa)
#
#
# Indices 1 2 3 4 5 6 
#
# 1 0.006063 -0.001319 -0.004115 0.000000 0.000000 0.000000
# 2 -0.001319 0.015819 0.000236 0.000000 0.000000 0.000000
# 3 -0.004115 0.000236 0.009513 0.000000 0.000000 0.000000
# 4 0.000000 0.000000 0.000000 0.061343 0.000000 0.000000
# 5 0.000000 0.000000 0.000000 0.000000 0.035798 0.000000
# 6 0.000000 0.000000 0.000000 0.000000 0.000000 0.028051
#
#
# Mechanical properties :
#
#
# Convention : Reuss Voigt Hill
#
# Bulk Modulus (GPa) = 47.61906 78.63559 63.12733
# Shear Modulus (GPa) = 28.73852 37.66115 33.19984
#
# Velocity S-wave (km/s) = 3.64329 4.17069 3.91588
# Velocity P-wave (km/s) = 6.30016 7.71443 7.04289
#
# Compressibility (1/GPa) = 0.02099999
#
# Stress axis : x y z
#
# Youngs Moduli (GPa) = 164.92451 63.21520 105.12119
#
# Poissons Ratio (x) = 0.08338 0.43256
# Poissons Ratio (y) = 0.21753 -0.02483
# Poissons Ratio (z) = 0.67864 -0.01493
#
# Static dielectric constant tensor:
#      x y z
#    x 1.961380 0.000000 0.000000 
#    y 0.000000 1.905090 0.000000 
#    z 0.000000 0.000000 1.829510 
# 
# From -- ./inp_files/8657.got.cif
#   From: 2010.05.17/outbox.cif.g08.bks.cpg/sg48_5_cif.got.tgz:8657.got - 2010.06.03 20:39:00.
