data_PCOD9390315
_publ_section_title
;
Structure prediction by ZEFSAII (Michael W. Deem and Ramdas Pophale) SiO2 
 PCOD9390315
Probable space group: P N N N
;
_chemical_formula_sum "Si O2"
_cell_formula_units_Z 56
_cell_length_a 33.314221
_cell_length_b 13.978812
_cell_length_c 6.487399
_cell_angle_alpha 90.000000
_cell_angle_beta 90.000000
_cell_angle_gamma 90.000000
_cell_volume 3021.137809
_symmetry_space_group_name_H-M "P N N N"
_symmetry_group_IT_number 48
_space_group.IT_coordinate_system_code '2'
_symmetry_cell_setting 'orthorhombic'
loop_
_space_group_symop_operation_xyz
x,y,z
1/2-x,1/2-y,z
x,1/2-y,1/2-z
1/2-x,y,1/2-z
-x,-y,-z
1/2+x,1/2+y,-z
-x,1/2+y,1/2+z
1/2+x,-y,1/2+z
loop_
_atom_site_type_symbol
_atom_site_label
_atom_site_fract_x
_atom_site_fract_y
_atom_site_fract_z
Si Si1 0.162449 0.350652 0.151991
Si Si2 0.511977 0.929409 0.187410
Si Si3 0.428554 0.157379 0.111578
Si Si4 0.941696 0.020466 0.927143
Si Si5 0.294158 0.861703 0.198965
Si Si6 0.351555 0.515681 0.024958
Si Si7 0.205762 0.494098 0.853699
O O1 0.175860 0.250000 0.250000
O O2 0.118469 0.338735 0.044619
O O3 0.151836 0.419383 0.342211
O O4 0.194491 0.407632 0.011192
O O5 0.470624 0.904918 0.307620
O O6 0.536896 0.984106 0.365093
O O7 0.540991 0.852515 0.079716
O O8 0.500000 0.000000 0.000000
O O9 0.436442 0.250000 0.250000
O O10 0.435915 0.066892 0.264007
O O11 0.897115 0.050233 0.988901
O O12 0.294056 0.750000 0.250000
O O13 0.250000 0.900749 0.250000
O O14 0.326600 0.907606 0.346751
O O15 0.299510 0.904147 0.971312
O O16 0.328899 0.494728 0.815280
O O17 0.250000 0.486103 0.750000
#
# Coordination Sequence:
#
# PCOD9390315 Si02
#       7
#     8   8   8   8   8   8   8
#     4   9  20  36  55  82 122 154 189 236 277 330
#     4   9  17  31  52  77 106 141 188 225 273 333
#     4   9  17  31  53  82 107 144 189 233 272 319
#     4   9  18  32  54  80 106 147 180 224 280 340
#     4  10  21  39  61  85 110 137 182 245 291 335
#     4  10  20  36  58  84 115 146 189 231 289 344
#     4  11  21  36  59  84 110 149 192 233 289 348
#
# _framework density 18.536064
#
# number of rings (size 3 to 8) (size 9 to 14) (size 15 to 20)
#    0.000    2.429    1.429    0.857    0.000    2.857 
#    0.000    6.429    9.429    0.000    0.000    0.000 
#    0.000    0.000    0.000    0.000    0.000    0.000 
#
# Total GULP energy -311763.298763 kJ/mol
# GULP energy per Si atom -5567.201764 kJ/mol
# Density = 1.849387 g / cm^3
# Si number density = 18.536064 Si / 1000 Ang^3
#
#
#
# Elastic Constant Matrix: (Units=GPa)
#
#
# Indices 1 2 3 4 5 6 
#
# 1 132.9603 39.6186 59.2412 0.0000 0.0000 0.0000
# 2 39.6186 62.0308 24.7971 0.0000 0.0000 0.0000
# 3 59.2412 24.7971 91.8970 0.0000 0.0000 0.0000
# 4 0.0000 0.0000 0.0000 -33.9452 0.0000 0.0000
# 5 0.0000 0.0000 0.0000 0.0000 10.7284 0.0000
# 6 0.0000 0.0000 0.0000 0.0000 0.0000 15.2662
#
#
#
# Elastic Compliance Matrix: (Units=1/GPa)
#
#
# Indices 1 2 3 4 5 6 
#
# 1 0.011809 -0.005043 -0.006252 0.000000 0.000000 0.000000
# 2 -0.005043 0.020224 -0.002206 0.000000 0.000000 0.000000
# 3 -0.006252 -0.002206 0.015507 0.000000 0.000000 0.000000
# 4 0.000000 0.000000 0.000000 -0.029459 0.000000 0.000000
# 5 0.000000 0.000000 0.000000 0.000000 0.093211 0.000000
# 6 0.000000 0.000000 0.000000 0.000000 0.000000 0.065504
#
#
# Mechanical properties :
#
#
# Convention : Reuss Voigt Hill
#
# Bulk Modulus (GPa) = 48.69002 59.35576 54.02289
# Shear Modulus (GPa) = 23.73659 9.29197 16.51428
#
# Velocity S-wave (km/s) = 3.58238 2.24138 2.98808
# Velocity P-wave (km/s) = 6.59060 6.22814 6.41193
#
# Compressibility (1/GPa) = 0.02053809
#
# Stress axis : x y z
#
# Youngs Moduli (GPa) = 84.67791 49.44615 64.48536
#
# Poissons Ratio (x) = 0.24937 0.40317
# Poissons Ratio (y) = 0.42706 0.14226
# Poissons Ratio (z) = 0.52941 0.10908
#
# Static dielectric constant tensor:
#      x y z
#    x 1.600180 0.000000 0.000000 
#    y 0.000000 1.983220 0.000000 
#    z 0.000000 0.000000 1.671840 
# 
# From -- ./inp_files/7047.got.cif
#   From: 2010.05.17/outbox.cif.g08.bks.cpg/sg48_4_cif.got.tgz:7047.got - 2010.06.03 20:39:00.
