data_PCOD9390190
_publ_section_title
;
Structure prediction by ZEFSAII (Michael W. Deem and Ramdas Pophale) SiO2 
 PCOD9390190
Probable space group: P N N N
;
_chemical_formula_sum "Si O2"
_cell_formula_units_Z 34
_cell_length_a 4.932477
_cell_length_b 13.352181
_cell_length_c 25.898107
_cell_angle_alpha 90.000000
_cell_angle_beta 90.000000
_cell_angle_gamma 90.000000
_cell_volume 1705.631863
_symmetry_space_group_name_H-M "P N N N"
_symmetry_group_IT_number 48
_space_group.IT_coordinate_system_code '2'
_symmetry_cell_setting 'orthorhombic'
loop_
_space_group_symop_operation_xyz
x,y,z
1/2-x,1/2-y,z
x,1/2-y,1/2-z
1/2-x,y,1/2-z
-x,-y,-z
1/2+x,1/2+y,-z
-x,1/2+y,1/2+z
1/2+x,-y,1/2+z
loop_
_atom_site_type_symbol
_atom_site_label
_atom_site_fract_x
_atom_site_fract_y
_atom_site_fract_z
Si Si1 0.008360 0.821013 0.913092
Si Si2 0.490713 0.820984 0.468721
Si Si3 0.412148 0.538620 0.124333
Si Si4 0.250000 0.750000 0.250000
Si Si5 0.115214 0.353361 0.835467
O O1 0.250000 0.750000 0.893624
O O2 0.750000 0.750000 0.914967
O O3 0.076363 0.852363 0.972455
O O4 0.936799 0.920209 0.881544
O O5 0.250000 0.750000 0.449375
O O6 0.517896 0.911691 0.429138
O O7 0.750000 0.750000 0.471472
O O8 0.619877 0.577270 0.168253
O O9 0.112649 0.583863 0.133506
O O10 0.449045 0.815393 0.214101
O O11 0.250000 0.250000 0.857559
#
# Coordination Sequence:
#
# PCOD9390190 Si02
#       5
#     8   8   8   2   8
#     4  10  22  39  55  82 125 169 212 255 287 319
#     4  10  20  33  54  83 124 164 199 251 295 344
#     4  12  22  36  61  90 118 164 213 240 290 366
#     4  12  26  44  62  92 140 140 174 244 338 384
#     4  12  24  39  62  91 126 152 180 242 311 390
#
# _framework density 19.933959999999999
#
# number of rings (size 3 to 8) (size 9 to 14) (size 15 to 20)
#    0.000    0.941    2.353    6.000    0.000    0.000 
#    0.000    9.412    0.000    0.000    0.000   12.353 
#    0.000    0.000    0.000    0.000    0.000    0.000 
#
# Total GULP energy -189775.340519 kJ/mol
# GULP energy per Si atom -5581.627662 kJ/mol
# Density = 1.988859 g / cm^3
# Si number density = 19.933960 Si / 1000 Ang^3
#
#
#
# Elastic Constant Matrix: (Units=GPa)
#
#
# Indices 1 2 3 4 5 6 
#
# 1 138.6756 54.0529 11.7104 0.0000 0.0000 0.0000
# 2 54.0529 145.4683 40.8625 0.0000 0.0000 0.0000
# 3 11.7104 40.8625 42.4945 0.0000 0.0000 0.0000
# 4 0.0000 0.0000 0.0000 24.7534 0.0000 0.0000
# 5 0.0000 0.0000 0.0000 0.0000 38.5328 0.0000
# 6 0.0000 0.0000 0.0000 0.0000 0.0000 29.7603
#
#
#
# Elastic Compliance Matrix: (Units=1/GPa)
#
#
# Indices 1 2 3 4 5 6 
#
# 1 0.008460 -0.003410 0.000947 0.000000 0.000000 0.000000
# 2 -0.003410 0.010793 -0.009439 0.000000 0.000000 0.000000
# 3 0.000947 -0.009439 0.032347 0.000000 0.000000 0.000000
# 4 0.000000 0.000000 0.000000 0.040399 0.000000 0.000000
# 5 0.000000 0.000000 0.000000 0.000000 0.025952 0.000000
# 6 0.000000 0.000000 0.000000 0.000000 0.000000 0.033602
#
#
# Mechanical properties :
#
#
# Convention : Reuss Voigt Hill
#
# Bulk Modulus (GPa) = 35.97326 59.98779 47.98053
# Shear Modulus (GPa) = 27.08262 33.27680 30.17971
#
# Velocity S-wave (km/s) = 3.68994 4.09020 3.89522
# Velocity P-wave (km/s) = 6.01994 7.24327 6.65975
#
# Compressibility (1/GPa) = 0.02779842
#
# Stress axis : x y z
#
# Youngs Moduli (GPa) = 118.20180 92.65581 30.91440
#
# Poissons Ratio (x) = 0.31593 -0.02929
# Poissons Ratio (y) = 0.40303 0.29179
# Poissons Ratio (z) = -0.11198 0.87453
#
# Static dielectric constant tensor:
#      x y z
#    x 1.596140 0.000000 0.000000 
#    y 0.000000 1.681040 0.000000 
#    z 0.000000 0.000000 1.759720 
# 
# From -- ./inp_files/6907.got.cif
#   From: 2010.05.17/outbox.cif.g08.bks.cpg/sg48_4_cif.got.tgz:6907.got - 2010.06.03 20:39:00.
