data_PCOD9390063
_publ_section_title
;
Structure prediction by ZEFSAII (Michael W. Deem and Ramdas Pophale) SiO2 
 PCOD9390063
Probable space group: P N N N
;
_chemical_formula_sum "Si O2"
_cell_formula_units_Z 48
_cell_length_a 13.439917
_cell_length_b 11.003880
_cell_length_c 14.653676
_cell_angle_alpha 90.000000
_cell_angle_beta 90.000000
_cell_angle_gamma 90.000000
_cell_volume 2167.150224
_symmetry_space_group_name_H-M "P N N N"
_symmetry_group_IT_number 48
_space_group.IT_coordinate_system_code '2'
_symmetry_cell_setting 'orthorhombic'
loop_
_space_group_symop_operation_xyz
x,y,z
1/2-x,1/2-y,z
x,1/2-y,1/2-z
1/2-x,y,1/2-z
-x,-y,-z
1/2+x,1/2+y,-z
-x,1/2+y,1/2+z
1/2+x,-y,1/2+z
loop_
_atom_site_type_symbol
_atom_site_label
_atom_site_fract_x
_atom_site_fract_y
_atom_site_fract_z
Si Si1 0.791142 0.122115 0.388502
Si Si2 0.003389 0.476715 0.106371
Si Si3 0.991513 0.241830 0.853939
Si Si4 0.799157 0.871360 0.107801
Si Si5 0.227850 0.115550 0.393669
Si Si6 0.796887 0.134994 0.906693
O O1 0.750000 0.250000 0.354193
O O2 0.765244 0.123992 0.498280
O O3 0.908057 0.104973 0.369844
O O4 0.735139 0.001084 0.354671
O O5 0.986012 0.615521 0.135952
O O6 0.111992 0.418684 0.123146
O O7 0.000000 0.500000 0.000000
O O8 0.955609 0.250000 0.750000
O O9 0.086156 0.157460 0.874220
O O10 0.908420 0.182256 0.919002
O O11 0.750000 0.750000 0.147296
O O12 0.762696 0.875412 0.001095
O O13 0.250000 0.250000 0.356569
O O14 0.288605 0.996546 0.360454
O O15 0.750000 0.250000 0.855800
#
# Coordination Sequence:
#
# PCOD9390063 Si02
#       6
#     8   8   8   8   8   8
#     4  10  20  33  63  96 124 160 209 283 329 371
#     4  12  18  39  64  90 130 168 216 272 340 379
#     4  12  26  40  64  96 134 178 216 265 333 420
#     4  10  19  37  58  92 122 163 214 260 320 381
#     4  10  20  33  63  96 124 160 209 283 329 371
#     4  10  19  37  58  92 122 163 214 260 320 381
#
# _framework density 22.148904000000002
#
# number of rings (size 3 to 8) (size 9 to 14) (size 15 to 20)
#    0.000    1.333    6.667    2.000    0.000    4.667 
#    0.000    0.000    0.000    6.000    0.000    0.000 
#    0.000    0.000    0.000    0.000    0.000    0.000 
#
# Total GULP energy -267273.645561 kJ/mol
# GULP energy per Si atom -5568.200949 kJ/mol
# Density = 2.209849 g / cm^3
# Si number density = 22.148904 Si / 1000 Ang^3
#
#
#
# Elastic Constant Matrix: (Units=GPa)
#
#
# Indices 1 2 3 4 5 6 
#
# 1 160.0417 52.7493 -11.5403 0.0000 0.0000 0.0000
# 2 52.7493 226.3531 0.7592 0.0000 0.0000 0.0000
# 3 -11.5403 0.7592 57.4618 0.0000 0.0000 0.0000
# 4 0.0000 0.0000 0.0000 248.8666 0.0000 0.0000
# 5 0.0000 0.0000 0.0000 0.0000 35.7976 0.0000
# 6 0.0000 0.0000 0.0000 0.0000 0.0000 52.7405
#
#
#
# Elastic Compliance Matrix: (Units=1/GPa)
#
#
# Indices 1 2 3 4 5 6 
#
# 1 0.006879 -0.001608 0.001403 0.000000 0.000000 0.000000
# 2 -0.001608 0.004794 -0.000386 0.000000 0.000000 0.000000
# 3 0.001403 -0.000386 0.017690 0.000000 0.000000 0.000000
# 4 0.000000 0.000000 0.000000 0.004018 0.000000 0.000000
# 5 0.000000 0.000000 0.000000 0.000000 0.027935 0.000000
# 6 0.000000 0.000000 0.000000 0.000000 0.000000 0.018961
#
#
# Mechanical properties :
#
#
# Convention : Reuss Voigt Hill
#
# Bulk Modulus (GPa) = 35.48548 58.64367 47.06458
# Shear Modulus (GPa) = 55.03394 94.27347 74.65371
#
# Velocity S-wave (km/s) = 4.99011 6.53115 5.81193
# Velocity P-wave (km/s) = 7.01838 9.13285 8.14453
#
# Compressibility (1/GPa) = 0.02818054
#
# Stress axis : x y z
#
# Youngs Moduli (GPa) = 145.35957 208.59938 56.52997
#
# Poissons Ratio (x) = 0.33541 -0.07930
# Poissons Ratio (y) = 0.23372 0.02184
# Poissons Ratio (z) = -0.20392 0.08057
#
# Static dielectric constant tensor:
#      x y z
#    x 2.333510 0.000000 0.000000 
#    y 0.000000 1.780740 0.000000 
#    z 0.000000 0.000000 1.787260 
# 
# From -- ./inp_files/31017.got.cif
#   From: 2010.05.17/outbox.cif.g08.bks.cpg/sg48_16_cif.got.tgz:31017.got - 2010.06.03 20:39:00.
