data_PCOD9390261
_publ_section_title
;
Structure prediction by ZEFSAII (Michael W. Deem and Ramdas Pophale) SiO2 
 PCOD9390261
Probable space group: P N N N
;
_chemical_formula_sum "Si O2"
_cell_formula_units_Z 36
_cell_length_a 21.549206
_cell_length_b 10.758266
_cell_length_c 8.056882
_cell_angle_alpha 90.000000
_cell_angle_beta 90.000000
_cell_angle_gamma 90.000000
_cell_volume 1867.843795
_symmetry_space_group_name_H-M "P N N N"
_symmetry_group_IT_number 48
_space_group.IT_coordinate_system_code '2'
_symmetry_cell_setting 'orthorhombic'
loop_
_space_group_symop_operation_xyz
x,y,z
1/2-x,1/2-y,z
x,1/2-y,1/2-z
1/2-x,y,1/2-z
-x,-y,-z
1/2+x,1/2+y,-z
-x,1/2+y,1/2+z
1/2+x,-y,1/2+z
loop_
_atom_site_type_symbol
_atom_site_label
_atom_site_fract_x
_atom_site_fract_y
_atom_site_fract_z
Si Si1 0.681421 0.099817 0.045513
Si Si2 0.549597 0.104683 0.542652
Si Si3 0.489972 0.250000 0.250000
Si Si4 0.941911 0.004065 0.622865
Si Si5 0.817597 0.106299 0.055049
O O1 0.750893 0.057244 0.995527
O O2 0.678857 0.247324 0.008412
O O3 0.679530 0.093384 0.245731
O O4 0.623485 0.030360 0.965331
O O5 0.533471 0.212938 0.409084
O O6 0.618798 0.053062 0.512527
O O7 0.500000 0.000000 0.500000
O O8 0.546631 0.112004 0.741170
O O9 0.447686 0.368502 0.292504
O O10 0.000000 0.000000 0.500000
#
# Coordination Sequence:
#
# PCOD9390261 Si02
#       5
#     8   8   4   8   8
#     4   9  18  32  55  82 110 142 173 223 283 335
#     4  10  20  35  56  78 108 145 181 228 277 332
#     4  10  22  38  54  80 114 148 188 236 288 342
#     4  11  22  35  55  83 112 147 190 232 284 347
#     4   9  17  33  54  81 113 138 173 224 280 332
#
# _framework density 19.27356
#
# number of rings (size 3 to 8) (size 9 to 14) (size 15 to 20)
#    0.000    2.222    0.000    6.667    0.000    4.444 
#    0.000    2.222    0.000   10.667    0.000   12.444 
#    0.000    0.000    0.000    0.000    0.000    0.000 
#
# Total GULP energy -200575.147915 kJ/mol
# GULP energy per Si atom -5571.531887 kJ/mol
# Density = 1.922969 g / cm^3
# Si number density = 19.273560 Si / 1000 Ang^3
#
#
#
# Elastic Constant Matrix: (Units=GPa)
#
#
# Indices 1 2 3 4 5 6 
#
# 1 214.4214 48.8546 67.0586 0.0000 0.0000 0.0000
# 2 48.8546 77.1146 35.7285 0.0000 0.0000 0.0000
# 3 67.0586 35.7285 95.5518 0.0000 0.0000 0.0000
# 4 0.0000 0.0000 0.0000 29.7713 0.0000 0.0000
# 5 0.0000 0.0000 0.0000 0.0000 38.2091 0.0000
# 6 0.0000 0.0000 0.0000 0.0000 0.0000 30.6894
#
#
#
# Elastic Compliance Matrix: (Units=1/GPa)
#
#
# Indices 1 2 3 4 5 6 
#
# 1 0.006310 -0.002353 -0.003548 0.000000 0.000000 0.000000
# 2 -0.002353 0.016563 -0.004541 0.000000 0.000000 0.000000
# 3 -0.003548 -0.004541 0.014654 0.000000 0.000000 0.000000
# 4 0.000000 0.000000 0.000000 0.033589 0.000000 0.000000
# 5 0.000000 0.000000 0.000000 0.000000 0.026172 0.000000
# 6 0.000000 0.000000 0.000000 0.000000 0.000000 0.032585
#
#
# Mechanical properties :
#
#
# Convention : Reuss Voigt Hill
#
# Bulk Modulus (GPa) = 60.09570 76.70790 68.40180
# Shear Modulus (GPa) = 31.98881 35.43035 33.70958
#
# Velocity S-wave (km/s) = 4.07839 4.29218 4.18665
# Velocity P-wave (km/s) = 7.30929 8.02806 7.67709
#
# Compressibility (1/GPa) = 0.01664012
#
# Stress axis : x y z
#
# Youngs Moduli (GPa) = 158.48961 60.37610 68.24199
#
# Poissons Ratio (x) = 0.14209 0.24213
# Poissons Ratio (y) = 0.37299 0.30992
# Poissons Ratio (z) = 0.56234 0.27420
#
# Static dielectric constant tensor:
#      x y z
#    x 1.674520 0.000000 0.000000 
#    y 0.000000 1.682130 0.000000 
#    z 0.000000 0.000000 1.761270 
# 
# From -- ./inp_files/10885.got.cif
#   From: 2010.05.17/outbox.cif.g08.bks.cpg/sg48_6_cif.got.tgz:10885.got - 2010.06.03 20:39:00.
