data_PCOD9390240
_publ_section_title
;
Structure prediction by ZEFSAII (Michael W. Deem and Ramdas Pophale) SiO2 
 PCOD9390240
Probable space group: P N N N
;
_chemical_formula_sum "Si O2"
_cell_formula_units_Z 32
_cell_length_a 10.689388
_cell_length_b 12.225500
_cell_length_c 8.976878
_cell_angle_alpha 90.000000
_cell_angle_beta 90.000000
_cell_angle_gamma 90.000000
_cell_volume 1173.126362
_symmetry_space_group_name_H-M "P N N N"
_symmetry_group_IT_number 48
_space_group.IT_coordinate_system_code '2'
_symmetry_cell_setting 'orthorhombic'
loop_
_space_group_symop_operation_xyz
x,y,z
1/2-x,1/2-y,z
x,1/2-y,1/2-z
1/2-x,y,1/2-z
-x,-y,-z
1/2+x,1/2+y,-z
-x,1/2+y,1/2+z
1/2+x,-y,1/2+z
loop_
_atom_site_type_symbol
_atom_site_label
_atom_site_fract_x
_atom_site_fract_y
_atom_site_fract_z
Si Si1 0.295089 0.001804 0.469253
Si Si2 0.128184 0.795486 0.418392
Si Si3 0.530077 0.500135 0.242593
Si Si4 0.406862 0.154233 0.025347
O O1 0.176882 0.922984 0.431368
O O2 0.353298 0.988336 0.632009
O O3 0.408522 0.978136 0.358994
O O4 0.236785 0.124724 0.448544
O O5 0.250000 0.750000 0.501014
O O6 0.128532 0.750000 0.250000
O O7 0.999712 0.746657 0.488646
O O8 0.486606 0.396931 0.339740
O O9 0.565623 0.592296 0.365669
#
# Coordination Sequence:
#
# PCOD9390240 Si02
#       4
#     8   8   8   8
#     4  11  21  38  64 101 129 174 225 286 327 416
#     4  11  22  36  61  90 135 168 218 275 356 397
#     4  10  20  34  64  94 131 163 226 273 331 388
#     4  11  21  37  64  98 132 168 225 281 330 408
#
# _framework density 27.277539999999998
#
# number of rings (size 3 to 8) (size 9 to 14) (size 15 to 20)
#    0.000    1.250    5.000    4.500    0.000    0.000 
#    0.000    2.500    0.000   27.000    0.000   17.500 
#    0.000    0.000    0.000    0.000    0.000    0.000 
#
# Total GULP energy -178180.698288 kJ/mol
# GULP energy per Si atom -5568.146821 kJ/mol
# Density = 2.721545 g / cm^3
# Si number density = 27.277540 Si / 1000 Ang^3
#
#
#
# Elastic Constant Matrix: (Units=GPa)
#
#
# Indices 1 2 3 4 5 6 
#
# 1 171.1078 17.8672 44.3604 0.0000 0.0000 0.0000
# 2 17.8672 47.3975 4.2412 0.0000 0.0000 0.0000
# 3 44.3604 4.2412 154.6488 0.0000 0.0000 0.0000
# 4 0.0000 0.0000 0.0000 24.9118 0.0000 0.0000
# 5 0.0000 0.0000 0.0000 0.0000 63.3889 0.0000
# 6 0.0000 0.0000 0.0000 0.0000 0.0000 20.5501
#
#
#
# Elastic Compliance Matrix: (Units=1/GPa)
#
#
# Indices 1 2 3 4 5 6 
#
# 1 0.006557 -0.002309 -0.001817 0.000000 0.000000 0.000000
# 2 -0.002309 0.021963 0.000060 0.000000 0.000000 0.000000
# 3 -0.001817 0.000060 0.006986 0.000000 0.000000 0.000000
# 4 0.000000 0.000000 0.000000 0.040142 0.000000 0.000000
# 5 0.000000 0.000000 0.000000 0.000000 0.015776 0.000000
# 6 0.000000 0.000000 0.000000 0.000000 0.000000 0.048662
#
#
# Mechanical properties :
#
#
# Convention : Reuss Voigt Hill
#
# Bulk Modulus (GPa) = 36.53246 56.23240 46.38243
# Shear Modulus (GPa) = 31.77801 42.21586 36.99694
#
# Velocity S-wave (km/s) = 3.41690 3.93828 3.68681
# Velocity P-wave (km/s) = 5.38413 6.42959 5.92995
#
# Compressibility (1/GPa) = 0.02737291
#
# Stress axis : x y z
#
# Youngs Moduli (GPa) = 152.51947 45.53074 143.14489
#
# Poissons Ratio (x) = 0.10513 0.26015
# Poissons Ratio (y) = 0.35216 -0.00859
# Poissons Ratio (z) = 0.27719 -0.00273
#
# Static dielectric constant tensor:
#      x y z
#    x 2.944460 0.000000 0.000000 
#    y 0.000000 2.747080 0.000000 
#    z 0.000000 0.000000 2.138430 
# 
# From -- ./inp_files/10151.got.cif
#   From: 2010.05.17/outbox.cif.g08.bks.cpg/sg48_6_cif.got.tgz:10151.got - 2010.06.03 20:39:00.
