data_PCOD9390779
_publ_section_title
;
Structure prediction by ZEFSAII (Michael W. Deem and Ramdas Pophale) SiO2 
 PCOD9390779
Probable space group: P N N N
;
_chemical_formula_sum "Si O2"
_cell_formula_units_Z 22
_cell_length_a 4.858494
_cell_length_b 12.905238
_cell_length_c 17.720817
_cell_angle_alpha 90.000000
_cell_angle_beta 90.000000
_cell_angle_gamma 90.000000
_cell_volume 1111.095605
_symmetry_space_group_name_H-M "P N N N"
_symmetry_group_IT_number 48
_space_group.IT_coordinate_system_code '2'
_symmetry_cell_setting 'orthorhombic'
loop_
_space_group_symop_operation_xyz
x,y,z
1/2-x,1/2-y,z
x,1/2-y,1/2-z
1/2-x,y,1/2-z
-x,-y,-z
1/2+x,1/2+y,-z
-x,1/2+y,1/2+z
1/2+x,-y,1/2+z
loop_
_atom_site_type_symbol
_atom_site_label
_atom_site_fract_x
_atom_site_fract_y
_atom_site_fract_z
Si Si1 0.710283 0.493747 0.401928
Si Si2 0.750000 0.601297 0.250000
Si Si3 0.250000 0.750000 0.250000
Si Si4 0.780251 0.871923 0.955338
O O1 0.821179 0.532500 0.322262
O O2 0.701223 0.589503 0.460546
O O3 0.416712 0.437757 0.400104
O O4 0.912873 0.409740 0.438998
O O5 0.485278 0.668519 0.278727
O O6 0.750000 0.750000 0.947133
#
# Coordination Sequence:
#
# PCOD9390779 Si02
#       4
#     8   4   2   8
#     4  10  22  39  60  86 121 152 198 248 292 341
#     4  11  22  42  57  92 120 154 195 254 289 362
#     4  10  24  34  60  90 118 154 192 228 332 330
#     4  10  21  39  60  86 116 161 197 241 289 355
#
# _framework density 19.800274999999999
#
# number of rings (size 3 to 8) (size 9 to 14) (size 15 to 20)
#    0.000    1.818    0.000    3.273    5.091    0.000 
#    0.000    5.455    0.000    0.000    0.000    0.000 
#    0.000    0.000    0.000    0.000    0.000    0.000 
#
# Total GULP energy -122471.938535 kJ/mol
# GULP energy per Si atom -5566.906297 kJ/mol
# Density = 1.975521 g / cm^3
# Si number density = 19.800275 Si / 1000 Ang^3
#
#
#
# Elastic Constant Matrix: (Units=GPa)
#
#
# Indices 1 2 3 4 5 6 
#
# 1 84.1524 0.1413 -7.9396 0.0000 0.0000 0.0000
# 2 0.1413 85.5908 34.9438 0.0000 0.0000 0.0000
# 3 -7.9396 34.9438 72.7729 0.0000 0.0000 0.0000
# 4 0.0000 0.0000 0.0000 -31.9837 0.0000 0.0000
# 5 0.0000 0.0000 0.0000 0.0000 18.2866 0.0000
# 6 0.0000 0.0000 0.0000 0.0000 0.0000 23.6515
#
#
#
# Elastic Compliance Matrix: (Units=1/GPa)
#
#
# Indices 1 2 3 4 5 6 
#
# 1 0.012040 -0.000692 0.001646 0.000000 0.000000 0.000000
# 2 -0.000692 0.014572 -0.007073 0.000000 0.000000 0.000000
# 3 0.001646 -0.007073 0.017317 0.000000 0.000000 0.000000
# 4 0.000000 0.000000 0.000000 -0.031266 0.000000 0.000000
# 5 0.000000 0.000000 0.000000 0.000000 0.054685 0.000000
# 6 0.000000 0.000000 0.000000 0.000000 0.000000 0.042281
#
#
# Mechanical properties :
#
#
# Convention : Reuss Voigt Hill
#
# Bulk Modulus (GPa) = 31.55429 32.97855 32.26642
# Shear Modulus (GPa) = 37.75583 16.34890 27.05236
#
# Velocity S-wave (km/s) = 4.37147 2.87660 3.70031
# Velocity P-wave (km/s) = 6.43821 5.26544 5.88113
#
# Compressibility (1/GPa) = 0.03169141
#
# Stress axis : x y z
#
# Youngs Moduli (GPa) = 83.05896 68.62395 57.74653
#
# Poissons Ratio (x) = 0.04747 -0.09503
# Poissons Ratio (y) = 0.05746 0.40842
# Poissons Ratio (z) = -0.13669 0.48535
#
# Static dielectric constant tensor:
#      x y z
#    x 1.700930 0.000000 0.000000 
#    y 0.000000 1.686390 0.000000 
#    z 0.000000 0.000000 1.661290 
# 
# From -- ./inp_files/17152.got.cif
#   From: 2010.05.17/outbox.cif.g08.bks.cpg/sg48_9_cif.got.tgz:17152.got - 2010.06.03 20:39:00.
