data_PCOD9390222
_publ_section_title
;
Structure prediction by ZEFSAII (Michael W. Deem and Ramdas Pophale) SiO2 
 PCOD9390222
Probable space group: P N N N
;
_chemical_formula_sum "Si O2"
_cell_formula_units_Z 48
_cell_length_a 13.544757
_cell_length_b 21.422075
_cell_length_c 7.951569
_cell_angle_alpha 90.000000
_cell_angle_beta 90.000000
_cell_angle_gamma 90.000000
_cell_volume 2307.201818
_symmetry_space_group_name_H-M "P N N N"
_symmetry_group_IT_number 48
_space_group.IT_coordinate_system_code '2'
_symmetry_cell_setting 'orthorhombic'
loop_
_space_group_symop_operation_xyz
x,y,z
1/2-x,1/2-y,z
x,1/2-y,1/2-z
1/2-x,y,1/2-z
-x,-y,-z
1/2+x,1/2+y,-z
-x,1/2+y,1/2+z
1/2+x,-y,1/2+z
loop_
_atom_site_type_symbol
_atom_site_label
_atom_site_fract_x
_atom_site_fract_y
_atom_site_fract_z
Si Si1 0.135515 0.939492 0.929261
Si Si2 0.536718 0.637557 0.007047
Si Si3 0.631120 0.963994 0.720058
Si Si4 0.850104 0.485288 0.065624
Si Si5 0.133329 0.262712 0.054924
Si Si6 0.651585 0.623133 0.330972
O O1 0.253949 0.940877 0.949712
O O2 0.105200 0.960016 0.740202
O O3 0.077251 0.877113 0.974808
O O4 0.105933 0.991260 0.064908
O O5 0.593361 0.602925 0.850924
O O6 0.568064 0.709062 0.028927
O O7 0.574088 0.610069 0.183984
O O8 0.750000 0.959251 0.750000
O O9 0.595850 0.001335 0.888807
O O10 0.815045 0.556197 0.101133
O O11 0.250000 0.250000 0.033477
O O12 0.112609 0.250000 0.250000
O O13 0.114050 0.330547 0.975486
O O14 0.750000 0.652464 0.250000
#
# Coordination Sequence:
#
# PCOD9390222 Si02
#       6
#     8   8   8   8   8   8
#     4  10  21  38  55  89 122 157 203 254 306 361
#     4  12  23  36  58  86 124 161 206 257 295 371
#     4  10  20  34  56  83 120 160 196 242 301 368
#     4  10  20  39  63  83 125 164 203 244 326 370
#     4  11  25  38  56  81 116 165 210 239 295 372
#     4  12  20  37  57  82 118 170 202 243 308 378
#
# _framework density 20.804423
#
# number of rings (size 3 to 8) (size 9 to 14) (size 15 to 20)
#    0.000    1.167    5.000    3.000    2.333    0.667 
#    3.000    0.000    0.000    0.000    0.000    2.333 
#    0.000    0.000    0.000    0.000    0.000    0.000 
#
# Total GULP energy -267550.983257 kJ/mol
# GULP energy per Si atom -5573.978818 kJ/mol
# Density = 2.075707 g / cm^3
# Si number density = 20.804423 Si / 1000 Ang^3
#
#
#
# Elastic Constant Matrix: (Units=GPa)
#
#
# Indices 1 2 3 4 5 6 
#
# 1 67.2693 22.7268 26.7311 0.0000 0.0000 0.0000
# 2 22.7268 56.7452 2.7368 0.0000 0.0000 0.0000
# 3 26.7311 2.7368 135.8168 0.0000 0.0000 0.0000
# 4 0.0000 0.0000 0.0000 18.4196 0.0000 0.0000
# 5 0.0000 0.0000 0.0000 0.0000 20.2114 0.0000
# 6 0.0000 0.0000 0.0000 0.0000 0.0000 21.3554
#
#
#
# Elastic Compliance Matrix: (Units=1/GPa)
#
#
# Indices 1 2 3 4 5 6 
#
# 1 0.018753 -0.007340 -0.003543 0.000000 0.000000 0.000000
# 2 -0.007340 0.020513 0.001031 0.000000 0.000000 0.000000
# 3 -0.003543 0.001031 0.008039 0.000000 0.000000 0.000000
# 4 0.000000 0.000000 0.000000 0.054290 0.000000 0.000000
# 5 0.000000 0.000000 0.000000 0.000000 0.049477 0.000000
# 6 0.000000 0.000000 0.000000 0.000000 0.000000 0.046827
#
#
# Mechanical properties :
#
#
# Convention : Reuss Voigt Hill
#
# Bulk Modulus (GPa) = 36.22940 40.46894 38.34917
# Shear Modulus (GPa) = 22.04555 25.83972 23.94263
#
# Velocity S-wave (km/s) = 3.25877 3.52807 3.39609
# Velocity P-wave (km/s) = 5.62241 6.00755 5.81817
#
# Compressibility (1/GPa) = 0.02760189
#
# Stress axis : x y z
#
# Youngs Moduli (GPa) = 53.32381 48.75050 124.38712
#
# Poissons Ratio (x) = 0.35783 0.44071
# Poissons Ratio (y) = 0.39139 -0.12828
# Poissons Ratio (z) = 0.18893 -0.05028
#
# Static dielectric constant tensor:
#      x y z
#    x 1.793940 0.000000 0.000000 
#    y 0.000000 1.769020 0.000000 
#    z 0.000000 0.000000 1.877540 
# 
# From -- ./inp_files/12742.got.cif
#   From: 2010.05.17/outbox.cif.g08.bks.cpg/sg48_7_cif.got.tgz:12742.got - 2010.06.03 20:39:00.
