data_PCOD9390226
_publ_section_title
;
Structure prediction by ZEFSAII (Michael W. Deem and Ramdas Pophale) SiO2 
 PCOD9390226
Probable space group: P N N N
;
_chemical_formula_sum "Si O2"
_cell_formula_units_Z 40
_cell_length_a 10.936189
_cell_length_b 15.937801
_cell_length_c 11.485645
_cell_angle_alpha 90.000000
_cell_angle_beta 90.000000
_cell_angle_gamma 90.000000
_cell_volume 2001.934186
_symmetry_space_group_name_H-M "P N N N"
_symmetry_group_IT_number 48
_space_group.IT_coordinate_system_code '2'
_symmetry_cell_setting 'orthorhombic'
loop_
_space_group_symop_operation_xyz
x,y,z
1/2-x,1/2-y,z
x,1/2-y,1/2-z
1/2-x,y,1/2-z
-x,-y,-z
1/2+x,1/2+y,-z
-x,1/2+y,1/2+z
1/2+x,-y,1/2+z
loop_
_atom_site_type_symbol
_atom_site_label
_atom_site_fract_x
_atom_site_fract_y
_atom_site_fract_z
Si Si1 0.331359 0.005559 0.076964
Si Si2 0.986682 0.631886 0.072315
Si Si3 0.622444 0.906120 0.310147
Si Si4 0.379581 0.209029 0.464264
Si Si5 0.572010 0.546711 0.832890
O O1 0.187161 0.010471 0.094195
O O2 0.389854 0.039027 0.197892
O O3 0.382922 0.912596 0.058725
O O4 0.388552 0.064648 0.978518
O O5 0.955541 0.640006 0.208606
O O6 0.968344 0.715951 0.000585
O O7 0.750000 0.929214 0.250000
O O8 0.643465 0.843783 0.417391
O O9 0.545487 0.987854 0.348063
O O10 0.250000 0.250000 0.425961
O O11 0.434188 0.143090 0.372717
#
# Coordination Sequence:
#
# PCOD9390226 Si02
#       5
#     8   8   8   8   8
#     4   9  19  38  55  80 118 157 192 247 311 368
#     4  10  20  34  57  84 116 151 197 249 308 351
#     4  11  21  35  57  85 120 156 198 246 303 368
#     4  12  21  34  57  91 117 148 206 260 297 353
#     4  10  21  36  57  84 118 156 202 243 307 369
#
# _framework density 19.980677
#
# number of rings (size 3 to 8) (size 9 to 14) (size 15 to 20)
#    0.000    1.600    4.000    1.200    0.000    0.800 
#    0.000    1.000    0.000    4.800    0.000   12.600 
#    0.000    0.000    0.000    0.000    0.000    0.000 
#
# Total GULP energy -223452.473594 kJ/mol
# GULP energy per Si atom -5586.311840 kJ/mol
# Density = 1.993520 g / cm^3
# Si number density = 19.980677 Si / 1000 Ang^3
#
#
#
# Elastic Constant Matrix: (Units=GPa)
#
#
# Indices 1 2 3 4 5 6 
#
# 1 47.8853 43.9040 6.3258 0.0000 0.0000 0.0000
# 2 43.9040 139.7747 21.1562 0.0000 0.0000 0.0000
# 3 6.3258 21.1562 49.1829 0.0000 0.0000 0.0000
# 4 0.0000 0.0000 0.0000 35.4006 0.0000 0.0000
# 5 0.0000 0.0000 0.0000 0.0000 21.6851 0.0000
# 6 0.0000 0.0000 0.0000 0.0000 0.0000 28.9167
#
#
#
# Elastic Compliance Matrix: (Units=1/GPa)
#
#
# Indices 1 2 3 4 5 6 
#
# 1 0.029332 -0.009244 0.000204 0.000000 0.000000 0.000000
# 2 -0.009244 0.010566 -0.003356 0.000000 0.000000 0.000000
# 3 0.000204 -0.003356 0.021750 0.000000 0.000000 0.000000
# 4 0.000000 0.000000 0.000000 0.028248 0.000000 0.000000
# 5 0.000000 0.000000 0.000000 0.000000 0.046115 0.000000
# 6 0.000000 0.000000 0.000000 0.000000 0.000000 0.034582
#
#
# Mechanical properties :
#
#
# Convention : Reuss Voigt Hill
#
# Bulk Modulus (GPa) = 27.13357 42.17945 34.65651
# Shear Modulus (GPa) = 24.07667 28.23095 26.15381
#
# Velocity S-wave (km/s) = 3.47507 3.76295 3.62187
# Velocity P-wave (km/s) = 5.45077 6.32738 5.90536
#
# Compressibility (1/GPa) = 0.03685471
#
# Stress axis : x y z
#
# Youngs Moduli (GPa) = 34.09261 94.64343 45.97775
#
# Poissons Ratio (x) = 0.87490 -0.00937
# Poissons Ratio (y) = 0.31516 0.15430
# Poissons Ratio (z) = -0.00695 0.31762
#
# Static dielectric constant tensor:
#      x y z
#    x 1.714410 0.000000 0.000000 
#    y 0.000000 1.704580 0.000000 
#    z 0.000000 0.000000 1.747770 
# 
# From -- ./inp_files/19773.got.cif
#   From: 2010.05.17/outbox.cif.g08.bks.cpg/sg48_10_cif.got.tgz:19773.got - 2010.06.03 20:39:00.
