data_PCOD9390166
_publ_section_title
;
Structure prediction by ZEFSAII (Michael W. Deem and Ramdas Pophale) SiO2 
 PCOD9390166
Probable space group: P N N N
;
_chemical_formula_sum "Si O2"
_cell_formula_units_Z 48
_cell_length_a 25.789224
_cell_length_b 16.612205
_cell_length_c 5.304302
_cell_angle_alpha 90.000000
_cell_angle_beta 90.000000
_cell_angle_gamma 90.000000
_cell_volume 2272.447187
_symmetry_space_group_name_H-M "P N N N"
_symmetry_group_IT_number 48
_space_group.IT_coordinate_system_code '2'
_symmetry_cell_setting 'orthorhombic'
loop_
_space_group_symop_operation_xyz
x,y,z
1/2-x,1/2-y,z
x,1/2-y,1/2-z
1/2-x,y,1/2-z
-x,-y,-z
1/2+x,1/2+y,-z
-x,1/2+y,1/2+z
1/2+x,-y,1/2+z
loop_
_atom_site_type_symbol
_atom_site_label
_atom_site_fract_x
_atom_site_fract_y
_atom_site_fract_z
Si Si1 0.590873 0.791925 0.501070
Si Si2 0.802646 0.076680 0.846153
Si Si3 0.024884 0.721512 0.001408
Si Si4 0.410038 0.020701 0.384390
Si Si5 0.560153 0.059721 0.113722
Si Si6 0.831944 0.340917 0.151016
O O1 0.612753 0.750000 0.750000
O O2 0.529339 0.769605 0.495602
O O3 0.595164 0.887100 0.531387
O O4 0.612521 0.750000 0.250000
O O5 0.750000 0.034320 0.750000
O O6 0.809813 0.145291 0.630132
O O7 0.853134 0.019357 0.855873
O O8 0.801414 0.113132 0.125491
O O9 0.052071 0.750000 0.750000
O O10 0.018757 0.626526 0.975788
O O11 0.054264 0.750000 0.250000
O O12 0.442506 0.976706 0.607150
O O13 0.435039 0.004680 0.110529
O O14 0.612952 0.112753 0.126237
O O15 0.834276 0.250000 0.250000
#
# Coordination Sequence:
#
# PCOD9390166 Si02
#       6
#     8   8   8   8   8   8
#     4  10  21  39  58  81 109 142 183 230 285 332
#     4  10  21  35  53  80 109 142 182 225 274 324
#     4  10  20  35  53  77 109 146 185 230 275 318
#     4  10  21  38  58  80 108 145 184 226 278 337
#     4  10  20  35  55  79 109 146 187 225 271 325
#     4  10  20  32  51  78 111 148 181 218 265 324
#
# _framework density 21.122603000000002
#
# number of rings (size 3 to 8) (size 9 to 14) (size 15 to 20)
#    0.000    2.000    0.000    3.500    0.000    4.667 
#    0.000   20.000    0.000    0.500    0.000    1.167 
#    0.000    0.000    0.000    0.000    0.000    0.000 
#
# Total GULP energy -267823.108706 kJ/mol
# GULP energy per Si atom -5579.648098 kJ/mol
# Density = 2.107453 g / cm^3
# Si number density = 21.122603 Si / 1000 Ang^3
#
#
#
# Elastic Constant Matrix: (Units=GPa)
#
#
# Indices 1 2 3 4 5 6 
#
# 1 60.2570 39.0522 27.9844 0.0000 0.0000 0.0000
# 2 39.0522 141.4766 65.9226 0.0000 0.0000 0.0000
# 3 27.9844 65.9226 192.0725 0.0000 0.0000 0.0000
# 4 0.0000 0.0000 0.0000 37.4609 0.0000 0.0000
# 5 0.0000 0.0000 0.0000 0.0000 8.3802 0.0000
# 6 0.0000 0.0000 0.0000 0.0000 0.0000 9.3359
#
#
#
# Elastic Compliance Matrix: (Units=1/GPa)
#
#
# Indices 1 2 3 4 5 6 
#
# 1 0.020457 -0.005069 -0.001241 0.000000 0.000000 0.000000
# 2 -0.005069 0.009670 -0.002580 0.000000 0.000000 0.000000
# 3 -0.001241 -0.002580 0.006273 0.000000 0.000000 0.000000
# 4 0.000000 0.000000 0.000000 0.026695 0.000000 0.000000
# 5 0.000000 0.000000 0.000000 0.000000 0.119328 0.000000
# 6 0.000000 0.000000 0.000000 0.000000 0.000000 0.107114
#
#
# Mechanical properties :
#
#
# Convention : Reuss Voigt Hill
#
# Bulk Modulus (GPa) = 53.70648 73.30273 63.50460
# Shear Modulus (GPa) = 15.94784 28.42518 22.18651
#
# Velocity S-wave (km/s) = 2.75073 3.67239 3.24445
# Velocity P-wave (km/s) = 5.96406 7.26366 6.64570
#
# Compressibility (1/GPa) = 0.01861973
#
# Stress axis : x y z
#
# Youngs Moduli (GPa) = 48.88365 103.41555 159.41889
#
# Poissons Ratio (x) = 0.52416 0.19782
# Poissons Ratio (y) = 0.24777 0.41136
# Poissons Ratio (z) = 0.06066 0.26685
#
# Static dielectric constant tensor:
#      x y z
#    x 1.843660 0.000000 0.000000 
#    y 0.000000 1.763270 0.000000 
#    z 0.000000 0.000000 1.827120 
# 
# From -- ./inp_files/7001.got.cif
#   From: 2010.05.17/outbox.cif.g08.bks.cpg/sg48_4_cif.got.tgz:7001.got - 2010.06.03 20:39:00.
