data_PCOD9390447
_publ_section_title
;
Structure prediction by ZEFSAII (Michael W. Deem and Ramdas Pophale) SiO2 
 PCOD9390447
Probable space group: P N N N
;
_chemical_formula_sum "Si O2"
_cell_formula_units_Z 48
_cell_length_a 27.001305
_cell_length_b 5.964917
_cell_length_c 14.188897
_cell_angle_alpha 90.000000
_cell_angle_beta 90.000000
_cell_angle_gamma 90.000000
_cell_volume 2285.271458
_symmetry_space_group_name_H-M "P N N N"
_symmetry_group_IT_number 48
_space_group.IT_coordinate_system_code '2'
_symmetry_cell_setting 'orthorhombic'
loop_
_space_group_symop_operation_xyz
x,y,z
1/2-x,1/2-y,z
x,1/2-y,1/2-z
1/2-x,y,1/2-z
-x,-y,-z
1/2+x,1/2+y,-z
-x,1/2+y,1/2+z
1/2+x,-y,1/2+z
loop_
_atom_site_type_symbol
_atom_site_label
_atom_site_fract_x
_atom_site_fract_y
_atom_site_fract_z
Si Si1 0.806679 0.672435 0.854457
Si Si2 0.127968 0.075693 0.997607
Si Si3 0.233415 0.000026 0.640060
Si Si4 0.119666 0.813901 0.354987
Si Si5 0.442163 0.042302 0.995734
Si Si6 0.370258 0.794738 0.858137
O O1 0.750000 0.750000 0.856497
O O2 0.825757 0.750000 0.750000
O O3 0.832228 0.774929 0.947000
O O4 0.824401 0.414325 0.858081
O O5 0.078847 0.212897 0.971335
O O6 0.115648 0.896739 0.077989
O O7 0.146668 0.936784 0.907923
O O8 0.250000 0.750000 0.600543
O O9 0.250000 0.994743 0.750000
O O10 0.173921 0.975342 0.634878
O O11 0.250000 0.250000 0.605157
O O12 0.106825 0.750000 0.250000
O O13 0.082641 0.990961 0.402505
O O14 0.500000 0.000000 0.000000
O O15 0.416316 0.883004 0.918372
O O16 0.381468 0.750000 0.750000
#
# Coordination Sequence:
#
# PCOD9390447 Si02
#       6
#     8   8   8   8   8   8
#     4  10  20  38  62  97 136 182 234 284 343 420
#     4  10  23  43  66  93 141 175 227 294 352 428
#     4  10  21  40  67  98 141 194 243 283 350 423
#     4  10  20  41  67  93 130 180 224 281 360 422
#     4  10  25  47  67 100 134 174 238 307 368 435
#     4  11  24  45  65 102 142 191 238 297 359 445
#
# _framework density 21.004069999999999
#
# number of rings (size 3 to 8) (size 9 to 14) (size 15 to 20)
#    0.000    1.833    3.333    0.000    2.333    4.000 
#   15.000    0.833    0.000    0.000    0.000    0.000 
#    0.000    0.000    0.000    0.000    0.000    0.000 
#
# Total GULP energy -267634.615523 kJ/mol
# GULP energy per Si atom -5575.721157 kJ/mol
# Density = 2.095626 g / cm^3
# Si number density = 21.004070 Si / 1000 Ang^3
#
#
#
# Elastic Constant Matrix: (Units=GPa)
#
#
# Indices 1 2 3 4 5 6 
#
# 1 149.3247 39.4313 40.0767 0.0000 0.0000 0.0000
# 2 39.4313 112.7099 38.3693 0.0000 0.0000 0.0000
# 3 40.0767 38.3693 148.3354 0.0000 0.0000 0.0000
# 4 0.0000 0.0000 0.0000 26.8033 0.0000 0.0000
# 5 0.0000 0.0000 0.0000 0.0000 20.5423 0.0000
# 6 0.0000 0.0000 0.0000 0.0000 0.0000 25.1164
#
#
#
# Elastic Compliance Matrix: (Units=1/GPa)
#
#
# Indices 1 2 3 4 5 6 
#
# 1 0.007676 -0.002171 -0.001512 0.000000 0.000000 0.000000
# 2 -0.002171 0.010343 -0.002089 0.000000 0.000000 0.000000
# 3 -0.001512 -0.002089 0.007690 0.000000 0.000000 0.000000
# 4 0.000000 0.000000 0.000000 0.037309 0.000000 0.000000
# 5 0.000000 0.000000 0.000000 0.000000 0.048680 0.000000
# 6 0.000000 0.000000 0.000000 0.000000 0.000000 0.039815
#
#
# Mechanical properties :
#
#
# Convention : Reuss Voigt Hill
#
# Bulk Modulus (GPa) = 70.59432 71.79161 71.19297
# Shear Modulus (GPa) = 29.80129 33.99193 31.89661
#
# Velocity S-wave (km/s) = 3.77083 4.02724 3.90114
# Velocity P-wave (km/s) = 7.25546 7.47522 7.36616
#
# Compressibility (1/GPa) = 0.01416544
#
# Stress axis : x y z
#
# Youngs Moduli (GPa) = 130.27818 96.68553 130.03191
#
# Poissons Ratio (x) = 0.20986 0.19666
# Poissons Ratio (y) = 0.28277 0.27162
# Poissons Ratio (z) = 0.19703 0.20197
#
# Static dielectric constant tensor:
#      x y z
#    x 1.760270 0.000000 0.000000 
#    y 0.000000 1.886560 0.000000 
#    z 0.000000 0.000000 1.743850 
# 
# From -- ./inp_files/28756.got.cif
#   From: 2010.05.17/outbox.cif.g08.bks.cpg/sg48_15_cif.got.tgz:28756.got - 2010.06.03 20:39:00.
