data_PCOD9390147
_publ_section_title
;
Structure prediction by ZEFSAII (Michael W. Deem and Ramdas Pophale) SiO2 
 PCOD9390147
Probable space group: P N N N
;
_chemical_formula_sum "Si O2"
_cell_formula_units_Z 64
_cell_length_a 8.681193
_cell_length_b 16.233977
_cell_length_c 30.238865
_cell_angle_alpha 90.000000
_cell_angle_beta 90.000000
_cell_angle_gamma 90.000000
_cell_volume 4261.571938
_symmetry_space_group_name_H-M "P N N N"
_symmetry_group_IT_number 48
_space_group.IT_coordinate_system_code '2'
_symmetry_cell_setting 'orthorhombic'
loop_
_space_group_symop_operation_xyz
x,y,z
1/2-x,1/2-y,z
x,1/2-y,1/2-z
1/2-x,y,1/2-z
-x,-y,-z
1/2+x,1/2+y,-z
-x,1/2+y,1/2+z
1/2+x,-y,1/2+z
loop_
_atom_site_type_symbol
_atom_site_label
_atom_site_fract_x
_atom_site_fract_y
_atom_site_fract_z
Si Si1 0.946901 0.544628 0.545309
Si Si2 0.442444 0.087471 0.889039
Si Si3 0.560123 0.151365 0.699478
Si Si4 0.338462 0.673534 0.989098
Si Si5 0.862735 0.475895 0.967190
Si Si6 0.919277 0.759645 0.059203
Si Si7 0.590777 0.925120 0.384029
Si Si8 0.569221 0.344568 0.698831
O O1 0.764328 0.547290 0.538513
O O2 0.000000 0.500000 0.500000
O O3 0.047539 0.626587 0.544162
O O4 0.989613 0.487912 0.587014
O O5 0.561952 0.039072 0.919499
O O6 0.442758 0.176681 0.913198
O O7 0.270288 0.050917 0.888232
O O8 0.493564 0.101467 0.839000
O O9 0.473392 0.092924 0.664896
O O10 0.523884 0.248418 0.691996
O O11 0.745628 0.147441 0.694314
O O12 0.525917 0.133286 0.750885
O O13 0.250000 0.750000 0.967827
O O14 0.226922 0.605114 0.012890
O O15 0.445680 0.717380 0.025834
O O16 0.000000 0.500000 0.000000
O O17 0.750000 0.750000 0.037533
O O18 0.915798 0.836401 0.092308
#
# Coordination Sequence:
#
# PCOD9390147 Si02
#       8
#     8   8   8   8   8   8   8   8
#     4  10  20  33  48  63  91 119 159 200 244 285
#     4  11  20  29  46  67  92 122 168 199 238 281
#     4   9  18  30  43  60  91 120 163 199 246 268
#     4  11  21  34  50  68  91 126 160 204 245 288
#     4  11  22  33  48  69  94 124 160 202 239 288
#     4  10  20  29  44  69  91 124 166 204 239 282
#     4  11  19  32  45  64  93 127 156 209 243 287
#     4   9  18  29  43  64  85 123 161 207 230 282
#
# _framework density 15.017932
#
# number of rings (size 3 to 8) (size 9 to 14) (size 15 to 20)
#    0.000    1.750    5.000    3.000    1.750    0.500 
#    0.000    1.250    0.000    0.000    0.000    0.000 
#    0.000    0.000    0.000    9.000    0.000   38.750 
#
# Total GULP energy -356566.343201 kJ/mol
# GULP energy per Si atom -5571.349113 kJ/mol
# Density = 1.498375 g / cm^3
# Si number density = 15.017932 Si / 1000 Ang^3
#
#
#
# Elastic Constant Matrix: (Units=GPa)
#
#
# Indices 1 2 3 4 5 6 
#
# 1 88.2143 29.9973 38.5223 0.0000 0.0000 0.0000
# 2 29.9973 39.4308 18.5372 0.0000 0.0000 0.0000
# 3 38.5223 18.5372 76.3138 0.0000 0.0000 0.0000
# 4 0.0000 0.0000 0.0000 20.4691 0.0000 0.0000
# 5 0.0000 0.0000 0.0000 0.0000 26.4501 0.0000
# 6 0.0000 0.0000 0.0000 0.0000 0.0000 27.1268
#
#
#
# Elastic Compliance Matrix: (Units=1/GPa)
#
#
# Indices 1 2 3 4 5 6 
#
# 1 0.017677 -0.010446 -0.006386 0.000000 0.000000 0.000000
# 2 -0.010446 0.034803 -0.003181 0.000000 0.000000 0.000000
# 3 -0.006386 -0.003181 0.017100 0.000000 0.000000 0.000000
# 4 0.000000 0.000000 0.000000 0.048854 0.000000 0.000000
# 5 0.000000 0.000000 0.000000 0.000000 0.037807 0.000000
# 6 0.000000 0.000000 0.000000 0.000000 0.000000 0.036864
#
#
# Mechanical properties :
#
#
# Convention : Reuss Voigt Hill
#
# Bulk Modulus (GPa) = 33.83541 42.00804 37.92173
# Shear Modulus (GPa) = 20.57775 22.60266 21.59020
#
# Velocity S-wave (km/s) = 3.70565 3.88370 3.79572
# Velocity P-wave (km/s) = 6.39438 6.93855 6.67201
#
# Compressibility (1/GPa) = 0.02955483
#
# Stress axis : x y z
#
# Youngs Moduli (GPa) = 56.57194 28.73317 58.47995
#
# Poissons Ratio (x) = 0.30014 0.37343
# Poissons Ratio (y) = 0.59093 0.18603
# Poissons Ratio (z) = 0.36125 0.09140
#
# Static dielectric constant tensor:
#      x y z
#    x 1.558980 0.000000 0.000000 
#    y 0.000000 1.499170 0.000000 
#    z 0.000000 0.000000 1.488080 
# 
# From -- ./inp_files/16510.got.cif
#   From: 2010.05.17/outbox.cif.g08.bks.cpg/sg48_9_cif.got.tgz:16510.got - 2010.06.03 20:39:00.
