data_PCOD9390532
_publ_section_title
;
Structure prediction by ZEFSAII (Michael W. Deem and Ramdas Pophale) SiO2 
 PCOD9390532
Probable space group: P N N N
;
_chemical_formula_sum "Si O2"
_cell_formula_units_Z 30
_cell_length_a 13.043478
_cell_length_b 8.407393
_cell_length_c 11.099087
_cell_angle_alpha 90.000000
_cell_angle_beta 90.000000
_cell_angle_gamma 90.000000
_cell_volume 1217.144145
_symmetry_space_group_name_H-M "P N N N"
_symmetry_group_IT_number 48
_space_group.IT_coordinate_system_code '2'
_symmetry_cell_setting 'orthorhombic'
loop_
_space_group_symop_operation_xyz
x,y,z
1/2-x,1/2-y,z
x,1/2-y,1/2-z
1/2-x,y,1/2-z
-x,-y,-z
1/2+x,1/2+y,-z
-x,1/2+y,1/2+z
1/2+x,-y,1/2+z
loop_
_atom_site_type_symbol
_atom_site_label
_atom_site_fract_x
_atom_site_fract_y
_atom_site_fract_z
Si Si1 0.408339 0.494954 0.345812
Si Si2 0.059205 0.013806 0.873439
Si Si3 0.111600 0.663392 0.926901
Si Si4 0.750000 0.750000 0.750000
Si Si5 0.250000 0.049590 0.750000
O O1 0.469136 0.540495 0.224264
O O2 0.369282 0.636592 0.431326
O O3 0.494604 0.390500 0.411993
O O4 0.319235 0.369916 0.324689
O O5 0.112981 0.839391 0.874472
O O6 0.157495 0.122497 0.835636
O O7 0.000000 0.000000 0.000000
O O8 0.181750 0.546798 0.848148
#
# Coordination Sequence:
#
# PCOD9390532 Si02
#       5
#     8   8   8   2   4
#     4  10  22  37  63  89 124 160 218 268 331 402
#     4  11  22  39  62  92 129 175 222 277 336 413
#     4  10  20  40  61  89 123 170 214 272 327 409
#     4  12  20  40  64  94 124 168 212 272 340 402
#     4  10  21  40  64  89 128 177 218 267 350 407
#
# _framework density 24.647860999999999
#
# number of rings (size 3 to 8) (size 9 to 14) (size 15 to 20)
#    0.000    1.600    2.667    4.000    3.733    1.067 
#    0.000    0.000    0.000   15.200    0.000    0.000 
#    0.000    0.000    0.000    0.000    0.000    0.000 
#
# Total GULP energy -167208.676577 kJ/mol
# GULP energy per Si atom -5573.622553 kJ/mol
# Density = 2.459176 g / cm^3
# Si number density = 24.647861 Si / 1000 Ang^3
#
#
#
# Elastic Constant Matrix: (Units=GPa)
#
#
# Indices 1 2 3 4 5 6 
#
# 1 165.9407 15.6774 54.8096 0.0000 0.0000 0.0000
# 2 15.6774 57.2243 17.9927 0.0000 0.0000 0.0000
# 3 54.8096 17.9927 171.3249 0.0000 0.0000 0.0000
# 4 0.0000 0.0000 0.0000 29.6509 0.0000 0.0000
# 5 0.0000 0.0000 0.0000 0.0000 -11.7864 0.0000
# 6 0.0000 0.0000 0.0000 0.0000 0.0000 5.1920
#
#
#
# Elastic Compliance Matrix: (Units=1/GPa)
#
#
# Indices 1 2 3 4 5 6 
#
# 1 0.006820 -0.001223 -0.002053 0.000000 0.000000 0.000000
# 2 -0.001223 0.018291 -0.001530 0.000000 0.000000 0.000000
# 3 -0.002053 -0.001530 0.006654 0.000000 0.000000 0.000000
# 4 0.000000 0.000000 0.000000 0.033726 0.000000 0.000000
# 5 0.000000 0.000000 0.000000 0.000000 -0.084844 0.000000
# 6 0.000000 0.000000 0.000000 0.000000 0.000000 0.192603
#
#
# Mechanical properties :
#
#
# Convention : Reuss Voigt Hill
#
# Bulk Modulus (GPa) = 45.13934 63.49435 54.31685
# Shear Modulus (GPa) = 26.28167 25.01198 25.64683
#
# Velocity S-wave (km/s) = 3.26895 3.18901 3.22922
# Velocity P-wave (km/s) = 5.70977 6.27505 5.99907
#
# Compressibility (1/GPa) = 0.02215362
#
# Stress axis : x y z
#
# Youngs Moduli (GPa) = 146.62733 54.67140 150.27555
#
# Poissons Ratio (x) = 0.06685 0.30858
# Poissons Ratio (y) = 0.17930 0.22988
# Poissons Ratio (z) = 0.30109 0.08363
#
# Static dielectric constant tensor:
#      x y z
#    x 2.022140 0.000000 0.000000 
#    y 0.000000 2.119530 0.000000 
#    z 0.000000 0.000000 2.265160 
# 
# From -- ./inp_files/10175.got.cif
#   From: 2010.05.17/outbox.cif.g08.bks.cpg/sg48_6_cif.got.tgz:10175.got - 2010.06.03 20:39:00.
