data_PCOD9390994
_publ_section_title
;
Structure prediction by ZEFSAII (Michael W. Deem and Ramdas Pophale) SiO2 
 PCOD9390994
Probable space group: P N N N
;
_chemical_formula_sum "Si O2"
_cell_formula_units_Z 48
_cell_length_a 11.641820
_cell_length_b 21.693173
_cell_length_c 9.788627
_cell_angle_alpha 90.000000
_cell_angle_beta 90.000000
_cell_angle_gamma 90.000000
_cell_volume 2472.098321
_symmetry_space_group_name_H-M "P N N N"
_symmetry_group_IT_number 48
_space_group.IT_coordinate_system_code '2'
_symmetry_cell_setting 'orthorhombic'
loop_
_space_group_symop_operation_xyz
x,y,z
1/2-x,1/2-y,z
x,1/2-y,1/2-z
1/2-x,y,1/2-z
-x,-y,-z
1/2+x,1/2+y,-z
-x,1/2+y,1/2+z
1/2+x,-y,1/2+z
loop_
_atom_site_type_symbol
_atom_site_label
_atom_site_fract_x
_atom_site_fract_y
_atom_site_fract_z
Si Si1 0.422081 0.611659 0.503400
Si Si2 0.161316 0.627279 0.476896
Si Si3 0.886228 0.040547 0.223666
Si Si4 0.129063 0.215182 0.880538
Si Si5 0.937609 0.246606 0.086853
Si Si6 0.535778 0.595965 0.224348
O O1 0.289905 0.602825 0.455962
O O2 0.438490 0.570843 0.639324
O O3 0.426509 0.683669 0.538060
O O4 0.514316 0.598607 0.386250
O O5 0.103983 0.587710 0.598612
O O6 0.155648 0.697689 0.530579
O O7 0.081999 0.619125 0.345547
O O8 0.750000 0.033219 0.250000
O O9 0.937481 0.974295 0.189085
O O10 0.250000 0.250000 0.897559
O O11 0.071006 0.250000 0.750000
O O12 0.129822 0.144064 0.833346
O O13 0.054696 0.221962 0.016691
O O14 0.937278 0.250000 0.250000
#
# Coordination Sequence:
#
# PCOD9390994 Si02
#       6
#     8   8   8   8   8   8
#     4  11  21  37  57  89 115 145 193 230 284 339
#     4  10  22  37  58  86 115 149 186 234 284 340
#     4  10  22  37  58  83 112 153 192 226 281 342
#     4  10  22  39  59  85 113 145 192 234 280 331
#     4  11  21  37  62  85 114 149 184 237 289 336
#     4  11  22  38  60  82 116 153 186 239 280 335
#
# _framework density 19.416702999999998
#
# number of rings (size 3 to 8) (size 9 to 14) (size 15 to 20)
#    0.000    1.500    3.333    2.000    2.333    1.000 
#    0.000    1.667    0.000    2.000    0.000    0.000 
#    0.000    0.000    0.000    0.000    0.000    0.000 
#
# Total GULP energy -267896.199689 kJ/mol
# GULP energy per Si atom -5581.170827 kJ/mol
# Density = 1.937251 g / cm^3
# Si number density = 19.416703 Si / 1000 Ang^3
#
#
#
# Elastic Constant Matrix: (Units=GPa)
#
#
# Indices 1 2 3 4 5 6 
#
# 1 37.5882 2.6443 0.8286 0.0000 0.0000 0.0000
# 2 2.6443 132.1042 5.1812 0.0000 0.0000 0.0000
# 3 0.8286 5.1812 55.8396 0.0000 0.0000 0.0000
# 4 0.0000 0.0000 0.0000 26.7723 0.0000 0.0000
# 5 0.0000 0.0000 0.0000 0.0000 11.4057 0.0000
# 6 0.0000 0.0000 0.0000 0.0000 0.0000 21.1459
#
#
#
# Elastic Compliance Matrix: (Units=1/GPa)
#
#
# Indices 1 2 3 4 5 6 
#
# 1 0.026648 -0.000520 -0.000347 0.000000 0.000000 0.000000
# 2 -0.000520 0.007608 -0.000698 0.000000 0.000000 0.000000
# 3 -0.000347 -0.000698 0.017978 0.000000 0.000000 0.000000
# 4 0.000000 0.000000 0.000000 0.037352 0.000000 0.000000
# 5 0.000000 0.000000 0.000000 0.000000 0.087675 0.000000
# 6 0.000000 0.000000 0.000000 0.000000 0.000000 0.047291
#
#
# Mechanical properties :
#
#
# Convention : Reuss Voigt Hill
#
# Bulk Modulus (GPa) = 20.36497 26.98224 23.67361
# Shear Modulus (GPa) = 20.48758 26.32331 23.40544
#
# Velocity S-wave (km/s) = 3.25183 3.68598 3.47569
# Velocity P-wave (km/s) = 4.96089 5.66055 5.32223
#
# Compressibility (1/GPa) = 0.04910392
#
# Stress axis : x y z
#
# Youngs Moduli (GPa) = 37.52581 131.44805 55.62244
#
# Poissons Ratio (x) = 0.06833 0.01931
# Poissons Ratio (y) = 0.01951 0.03883
# Poissons Ratio (z) = 0.01303 0.09177
#
# Static dielectric constant tensor:
#      x y z
#    x 1.693380 0.000000 0.000000 
#    y 0.000000 1.673140 0.000000 
#    z 0.000000 0.000000 1.666700 
# 
# From -- ./inp_files/12745.got.cif
#   From: 2010.05.17/outbox.cif.g08.bks.cpg/sg48_7_cif.got.tgz:12745.got - 2010.06.03 20:39:00.
