data_PCOD9390784
_publ_section_title
;
Structure prediction by ZEFSAII (Michael W. Deem and Ramdas Pophale) SiO2 
 PCOD9390784
Probable space group: P N N N
;
_chemical_formula_sum "Si O2"
_cell_formula_units_Z 64
_cell_length_a 7.340579
_cell_length_b 11.023298
_cell_length_c 33.138679
_cell_angle_alpha 90.000000
_cell_angle_beta 90.000000
_cell_angle_gamma 90.000000
_cell_volume 2681.495406
_symmetry_space_group_name_H-M "P N N N"
_symmetry_group_IT_number 48
_space_group.IT_coordinate_system_code '2'
_symmetry_cell_setting 'orthorhombic'
loop_
_space_group_symop_operation_xyz
x,y,z
1/2-x,1/2-y,z
x,1/2-y,1/2-z
1/2-x,y,1/2-z
-x,-y,-z
1/2+x,1/2+y,-z
-x,1/2+y,1/2+z
1/2+x,-y,1/2+z
loop_
_atom_site_type_symbol
_atom_site_label
_atom_site_fract_x
_atom_site_fract_y
_atom_site_fract_z
Si Si1 0.980209 0.496315 0.928708
Si Si2 0.471902 0.755836 0.465428
Si Si3 0.969555 0.755846 0.702636
Si Si4 0.539935 0.607946 0.254788
Si Si5 0.927196 0.989786 0.336016
Si Si6 0.566432 0.481619 0.914396
Si Si7 0.486427 0.494663 0.826569
Si Si8 0.458288 0.266782 0.057408
O O1 0.044084 0.378216 0.953458
O O2 0.762152 0.497564 0.935447
O O3 0.047462 0.633253 0.937737
O O4 0.011096 0.473705 0.881440
O O5 0.250000 0.750000 0.465829
O O6 0.521314 0.862437 0.433955
O O7 0.537880 0.790979 0.509748
O O8 0.750000 0.750000 0.701869
O O9 0.024984 0.750000 0.750000
O O10 0.042648 0.872769 0.679362
O O11 0.032507 0.637767 0.679149
O O12 0.542794 0.750000 0.250000
O O13 0.750000 0.560650 0.250000
O O14 0.475072 0.580473 0.299623
O O15 0.440379 0.550787 0.216451
O O16 0.717308 0.947237 0.334429
O O17 0.595227 0.464438 0.866719
O O18 0.468129 0.611422 0.921136
O O19 0.250000 0.250000 0.072820
#
# Coordination Sequence:
#
# PCOD9390784 Si02
#       8
#     8   8   8   8   8   8   8   8
#     4  10  22  39  58  86 122 157 192 243 301 356
#     4  10  22  39  61  87 120 154 192 245 300 356
#     4  11  22  37  58  82 114 153 193 240 299 354
#     4   9  20  37  55  80 118 157 194 245 300 339
#     4  11  22  37  61  88 117 154 200 249 290 345
#     4  10  22  39  58  86 122 157 192 243 301 356
#     4  11  22  37  61  88 117 154 200 249 290 345
#     4  10  21  39  62  84 113 152 194 240 298 361
#
# _framework density 23.867280999999998
#
# number of rings (size 3 to 8) (size 9 to 14) (size 15 to 20)
#    0.000    1.750    1.250    2.625    1.750    3.500 
#    0.000    0.000    0.000    3.000    0.000    0.000 
#    0.000    0.000    0.000    0.000    0.000    0.000 
#
# Total GULP energy -357574.953424 kJ/mol
# GULP energy per Si atom -5587.108647 kJ/mol
# Density = 2.381296 g / cm^3
# Si number density = 23.867281 Si / 1000 Ang^3
#
#
#
# Elastic Constant Matrix: (Units=GPa)
#
#
# Indices 1 2 3 4 5 6 
#
# 1 55.6076 -27.9109 -31.6930 0.0000 0.0000 0.0000
# 2 -27.9109 77.4518 13.6303 0.0000 0.0000 0.0000
# 3 -31.6930 13.6303 113.9271 0.0000 0.0000 0.0000
# 4 0.0000 0.0000 0.0000 14.6958 0.0000 0.0000
# 5 0.0000 0.0000 0.0000 0.0000 -6.0522 0.0000
# 6 0.0000 0.0000 0.0000 0.0000 0.0000 -30.6439
#
#
#
# Elastic Compliance Matrix: (Units=1/GPa)
#
#
# Indices 1 2 3 4 5 6 
#
# 1 0.025563 0.008132 0.006138 0.000000 0.000000 0.000000
# 2 0.008132 0.015776 0.000375 0.000000 0.000000 0.000000
# 3 0.006138 0.000375 0.010440 0.000000 0.000000 0.000000
# 4 0.000000 0.000000 0.000000 0.068047 0.000000 0.000000
# 5 0.000000 0.000000 0.000000 0.000000 -0.165228 0.000000
# 6 0.000000 0.000000 0.000000 0.000000 0.000000 -0.032633
#
#
# Mechanical properties :
#
#
# Convention : Reuss Voigt Hill
#
# Bulk Modulus (GPa) = 12.33509 17.22658 14.78083
# Shear Modulus (GPa) = -62.26503 15.13059 -23.56722
#
# Velocity S-wave (km/s) = -5.11319 2.52056 -3.14575
# Velocity P-wave (km/s) = 5.44795 3.96287 2.64347
#
# Compressibility (1/GPa) = 0.08106955
#
# Stress axis : x y z
#
# Youngs Moduli (GPa) = 39.11857 63.38850 95.78217
#
# Poissons Ratio (x) = -0.51547 -0.58796
# Poissons Ratio (y) = -0.31811 -0.03589
# Poissons Ratio (z) = -0.24013 -0.02375
#
# Static dielectric constant tensor:
#      x y z
#    x 2.000720 0.000000 0.000000 
#    y 0.000000 2.281310 0.000000 
#    z 0.000000 0.000000 1.870810 
# 
# From -- ./inp_files/11569.got.cif
#   From: 2010.05.17/outbox.cif.g08.bks.cpg/sg48_6_cif.got.tgz:11569.got - 2010.06.03 20:39:00.
