data_PCOD9390295
_publ_section_title
;
Structure prediction by ZEFSAII (Michael W. Deem and Ramdas Pophale) SiO2 
 PCOD9390295
Probable space group: P N N N
;
_chemical_formula_sum "Si O2"
_cell_formula_units_Z 28
_cell_length_a 11.237542
_cell_length_b 15.862546
_cell_length_c 7.638975
_cell_angle_alpha 90.000000
_cell_angle_beta 90.000000
_cell_angle_gamma 90.000000
_cell_volume 1361.693333
_symmetry_space_group_name_H-M "P N N N"
_symmetry_group_IT_number 48
_space_group.IT_coordinate_system_code '2'
_symmetry_cell_setting 'orthorhombic'
loop_
_space_group_symop_operation_xyz
x,y,z
1/2-x,1/2-y,z
x,1/2-y,1/2-z
1/2-x,y,1/2-z
-x,-y,-z
1/2+x,1/2+y,-z
-x,1/2+y,1/2+z
1/2+x,-y,1/2+z
loop_
_atom_site_type_symbol
_atom_site_label
_atom_site_fract_x
_atom_site_fract_y
_atom_site_fract_z
Si Si1 0.443191 0.250000 0.750000
Si Si2 0.130033 0.068980 0.833014
Si Si3 0.886443 0.224391 0.051807
Si Si4 0.871776 0.047646 0.856431
O O1 0.370822 0.330829 0.810272
O O2 0.529693 0.271201 0.587279
O O3 0.250000 0.032602 0.750000
O O4 0.999761 0.042684 0.759293
O O5 0.135808 0.037259 0.031456
O O6 0.750000 0.250000 0.027393
O O7 0.919325 0.250000 0.250000
O O8 0.889756 0.126071 0.992547
O O9 0.750000 0.060824 0.750000
#
# Coordination Sequence:
#
# PCOD9390295 Si02
#       4
#     4   8   8   8
#     4  10  20  42  58  88 129 170 209 264 315 382
#     4  10  22  40  64  89 128 165 214 254 318 387
#     4  10  20  35  62  93 125 164 214 265 322 378
#     4  10  22  42  62  96 128 163 215 268 318 375
#
# _framework density 20.562633999999999
#
# number of rings (size 3 to 8) (size 9 to 14) (size 15 to 20)
#    0.000    2.000    0.000    4.286    4.000    1.143 
#   15.429    0.000    0.000    0.000    0.000    0.000 
#    0.000    0.000    0.000    0.000    0.000    0.000 
#
# Total GULP energy -155962.293792 kJ/mol
# GULP energy per Si atom -5570.081921 kJ/mol
# Density = 2.051583 g / cm^3
# Si number density = 20.562634 Si / 1000 Ang^3
#
#
#
# Elastic Constant Matrix: (Units=GPa)
#
#
# Indices 1 2 3 4 5 6 
#
# 1 163.1156 18.6335 58.9246 0.0000 0.0000 0.0000
# 2 18.6335 92.9293 45.8579 0.0000 0.0000 0.0000
# 3 58.9246 45.8579 94.6997 0.0000 0.0000 0.0000
# 4 0.0000 0.0000 0.0000 36.3476 0.0000 0.0000
# 5 0.0000 0.0000 0.0000 0.0000 -0.7414 0.0000
# 6 0.0000 0.0000 0.0000 0.0000 0.0000 -0.8271
#
#
#
# Elastic Compliance Matrix: (Units=1/GPa)
#
#
# Indices 1 2 3 4 5 6 
#
# 1 0.007996 0.001119 -0.005517 0.000000 0.000000 0.000000
# 2 0.001119 0.014296 -0.007619 0.000000 0.000000 0.000000
# 3 -0.005517 -0.007619 0.017682 0.000000 0.000000 0.000000
# 4 0.000000 0.000000 0.000000 0.027512 0.000000 0.000000
# 5 0.000000 0.000000 0.000000 0.000000 -1.348870 0.000000
# 6 0.000000 0.000000 0.000000 0.000000 0.000000 -1.209004
#
#
# Mechanical properties :
#
#
# Convention : Reuss Voigt Hill
#
# Bulk Modulus (GPa) = 62.73578 66.39740 64.56659
# Shear Modulus (GPa) = -2.03166 22.11106 10.03970
#
# Velocity S-wave (km/s) = -0.99508 3.28274 2.21203
# Velocity P-wave (km/s) = 5.40884 6.83586 6.16379
#
# Compressibility (1/GPa) = 0.01593987
#
# Stress axis : x y z
#
# Youngs Moduli (GPa) = 125.06517 69.94764 56.55356
#
# Poissons Ratio (x) = -0.07830 0.31202
# Poissons Ratio (y) = -0.13999 0.43091
# Poissons Ratio (z) = 0.69002 0.53296
#
# Static dielectric constant tensor:
#      x y z
#    x 1.795080 0.000000 0.000000 
#    y 0.000000 1.775280 0.000000 
#    z 0.000000 0.000000 1.748220 
# 
# From -- ./inp_files/10430.got.cif
#   From: 2010.05.17/outbox.cif.g08.bks.cpg/sg48_6_cif.got.tgz:10430.got - 2010.06.03 20:39:00.
