data_PCOD9390311
_publ_section_title
;
Structure prediction by ZEFSAII (Michael W. Deem and Ramdas Pophale) SiO2 
 PCOD9390311
Probable space group: P N N N
;
_chemical_formula_sum "Si O2"
_cell_formula_units_Z 64
_cell_length_a 11.987486
_cell_length_b 31.786770
_cell_length_c 8.988495
_cell_angle_alpha 90.000000
_cell_angle_beta 90.000000
_cell_angle_gamma 90.000000
_cell_volume 3425.007238
_symmetry_space_group_name_H-M "P N N N"
_symmetry_group_IT_number 48
_space_group.IT_coordinate_system_code '2'
_symmetry_cell_setting 'orthorhombic'
loop_
_space_group_symop_operation_xyz
x,y,z
1/2-x,1/2-y,z
x,1/2-y,1/2-z
1/2-x,y,1/2-z
-x,-y,-z
1/2+x,1/2+y,-z
-x,1/2+y,1/2+z
1/2+x,-y,1/2+z
loop_
_atom_site_type_symbol
_atom_site_label
_atom_site_fract_x
_atom_site_fract_y
_atom_site_fract_z
Si Si1 0.535778 0.345045 0.441063
Si Si2 0.253335 0.874173 0.084477
Si Si3 0.510080 0.977761 0.728113
Si Si4 0.385351 0.743076 0.421821
Si Si5 0.643379 0.311301 0.150790
Si Si6 0.150650 0.095347 0.369323
Si Si7 0.826902 0.975117 0.393819
Si Si8 0.164218 0.535144 0.460746
O O1 0.621779 0.377827 0.518511
O O2 0.566772 0.302068 0.528514
O O3 0.568458 0.335143 0.270757
O O4 0.412035 0.363725 0.433685
O O5 0.250000 0.855074 0.250000
O O6 0.189399 0.918193 0.092048
O O7 0.191705 0.844002 0.968522
O O8 0.557198 0.934717 0.793897
O O9 0.422333 0.965842 0.598501
O O10 0.447131 0.009692 0.838601
O O11 0.611235 0.004305 0.659839
O O12 0.250000 0.750000 0.423530
O O13 0.419599 0.750000 0.250000
O O14 0.417584 0.775689 0.553627
O O15 0.750000 0.296149 0.250000
O O16 0.250000 0.102799 0.250000
O O17 0.186864 0.065991 0.506380
O O18 0.750000 0.969376 0.250000
O O19 0.777471 0.014340 0.483611
#
# Coordination Sequence:
#
# PCOD9390311 Si02
#       8
#     8   8   8   8   8   8   8   8
#     4  11  24  37  60  92 120 166 198 242 314 374
#     4  11  22  32  53  90 124 155 200 256 302 369
#     4  10  21  38  58  80 113 163 212 260 312 361
#     4  11  20  37  63  93 129 155 185 233 311 401
#     4  10  20  36  57  87 128 159 188 235 308 384
#     4  12  24  41  60  84 122 162 219 263 303 363
#     4  10  22  40  60  82 113 162 210 267 317 365
#     4  10  21  36  56  84 115 156 211 261 312 350
#
# _framework density 18.686091999999999
#
# number of rings (size 3 to 8) (size 9 to 14) (size 15 to 20)
#    0.000    1.375    3.750    3.000    3.500    3.500 
#    0.000    0.000    0.000    1.500    0.000    0.875 
#    0.000    0.000    0.000    0.000    0.000    0.000 
#
# Total GULP energy -357131.860751 kJ/mol
# GULP energy per Si atom -5580.185324 kJ/mol
# Density = 1.864356 g / cm^3
# Si number density = 18.686092 Si / 1000 Ang^3
#
#
#
# Elastic Constant Matrix: (Units=GPa)
#
#
# Indices 1 2 3 4 5 6 
#
# 1 37.9534 16.3765 20.9918 0.0000 0.0000 0.0000
# 2 16.3765 78.3133 28.5439 0.0000 0.0000 0.0000
# 3 20.9918 28.5439 118.0036 0.0000 0.0000 0.0000
# 4 0.0000 0.0000 0.0000 12.4258 0.0000 0.0000
# 5 0.0000 0.0000 0.0000 0.0000 21.8251 0.0000
# 6 0.0000 0.0000 0.0000 0.0000 0.0000 4.1851
#
#
#
# Elastic Compliance Matrix: (Units=1/GPa)
#
#
# Indices 1 2 3 4 5 6 
#
# 1 0.030834 -0.004879 -0.004305 0.000000 0.000000 0.000000
# 2 -0.004879 0.014776 -0.002706 0.000000 0.000000 0.000000
# 3 -0.004305 -0.002706 0.009895 0.000000 0.000000 0.000000
# 4 0.000000 0.000000 0.000000 0.080478 0.000000 0.000000
# 5 0.000000 0.000000 0.000000 0.000000 0.045819 0.000000
# 6 0.000000 0.000000 0.000000 0.000000 0.000000 0.238944
#
#
# Mechanical properties :
#
#
# Convention : Reuss Voigt Hill
#
# Bulk Modulus (GPa) = 31.52109 40.67720 36.09915
# Shear Modulus (GPa) = 10.98659 18.91105 14.94882
#
# Velocity S-wave (km/s) = 2.42741 3.18471 2.83149
# Velocity P-wave (km/s) = 4.97612 5.94467 5.48183
#
# Compressibility (1/GPa) = 0.03172479
#
# Stress axis : x y z
#
# Youngs Moduli (GPa) = 32.43134 67.67807 101.06361
#
# Poissons Ratio (x) = 0.33019 0.43508
# Poissons Ratio (y) = 0.15823 0.27350
# Poissons Ratio (z) = 0.13962 0.18315
#
# Static dielectric constant tensor:
#      x y z
#    x 1.640820 0.000000 0.000000 
#    y 0.000000 1.651980 0.000000 
#    z 0.000000 0.000000 1.692560 
# 
# From -- ./inp_files/11582.got.cif
#   From: 2010.05.17/outbox.cif.g08.bks.cpg/sg48_6_cif.got.tgz:11582.got - 2010.06.03 20:39:00.
