data_PCOD9390717
_publ_section_title
;
Structure prediction by ZEFSAII (Michael W. Deem and Ramdas Pophale) SiO2 
 PCOD9390717
Probable space group: P N N N
;
_chemical_formula_sum "Si O2"
_cell_formula_units_Z 34
_cell_length_a 11.309113
_cell_length_b 5.760554
_cell_length_c 22.811988
_cell_angle_alpha 90.000000
_cell_angle_beta 90.000000
_cell_angle_gamma 90.000000
_cell_volume 1486.127019
_symmetry_space_group_name_H-M "P N N N"
_symmetry_group_IT_number 48
_space_group.IT_coordinate_system_code '2'
_symmetry_cell_setting 'orthorhombic'
loop_
_space_group_symop_operation_xyz
x,y,z
1/2-x,1/2-y,z
x,1/2-y,1/2-z
1/2-x,y,1/2-z
-x,-y,-z
1/2+x,1/2+y,-z
-x,1/2+y,1/2+z
1/2+x,-y,1/2+z
loop_
_atom_site_type_symbol
_atom_site_label
_atom_site_fract_x
_atom_site_fract_y
_atom_site_fract_z
Si Si1 0.750000 0.750000 0.558149
Si Si2 0.750000 0.250000 0.087679
Si Si3 0.293898 0.000796 0.331962
Si Si4 0.094440 0.143650 0.536218
Si Si5 0.570423 0.549390 0.151973
Si Si6 0.250000 0.250000 0.750000
O O1 0.740363 0.533475 0.602131
O O2 0.859574 0.695772 0.516512
O O3 0.799607 0.466893 0.052161
O O4 0.638035 0.327608 0.126017
O O5 0.250000 0.750000 0.310870
O O6 0.436118 0.999598 0.329993
O O7 0.250000 0.250000 0.307379
O O8 0.064249 0.269365 0.597122
O O9 0.000000 0.000000 0.500000
O O10 0.657439 0.627808 0.204790
#
# Coordination Sequence:
#
# PCOD9390717 Si02
#       6
#     4   4   8   8   8   2
#     4  10  21  38  60 105 143 199 236 294 366 454
#     4  12  24  43  68 112 152 199 262 320 406 462
#     4  10  25  44  72 108 151 199 254 311 385 464
#     4  12  24  39  67 105 152 197 248 311 387 471
#     4  12  26  48  72 108 154 195 266 323 392 479
#     4  12  26  54  78 108 146 198 264 340 402 466
#
# _framework density 22.878259
#
# number of rings (size 3 to 8) (size 9 to 14) (size 15 to 20)
#    0.706    0.000    4.706    2.824    8.235    2.353 
#    0.000    0.588    0.000    1.412    0.000    0.000 
#    0.000    0.000    0.000    0.000    0.000    0.000 
#
# Total GULP energy -189353.654191 kJ/mol
# GULP energy per Si atom -5569.225123 kJ/mol
# Density = 2.282619 g / cm^3
# Si number density = 22.878259 Si / 1000 Ang^3
#
#
#
# Elastic Constant Matrix: (Units=GPa)
#
#
# Indices 1 2 3 4 5 6 
#
# 1 175.8165 58.3742 44.3366 0.0000 0.0000 0.0000
# 2 58.3742 131.8125 47.4478 0.0000 0.0000 0.0000
# 3 44.3366 47.4478 149.1555 0.0000 0.0000 0.0000
# 4 0.0000 0.0000 0.0000 26.8724 0.0000 0.0000
# 5 0.0000 0.0000 0.0000 0.0000 48.5746 0.0000
# 6 0.0000 0.0000 0.0000 0.0000 0.0000 50.3082
#
#
#
# Elastic Compliance Matrix: (Units=1/GPa)
#
#
# Indices 1 2 3 4 5 6 
#
# 1 0.006857 -0.002601 -0.001211 0.000000 0.000000 0.000000
# 2 -0.002601 0.009554 -0.002266 0.000000 0.000000 0.000000
# 3 -0.001211 -0.002266 0.007785 0.000000 0.000000 0.000000
# 4 0.000000 0.000000 0.000000 0.037213 0.000000 0.000000
# 5 0.000000 0.000000 0.000000 0.000000 0.020587 0.000000
# 6 0.000000 0.000000 0.000000 0.000000 0.000000 0.019877
#
#
# Mechanical properties :
#
#
# Convention : Reuss Voigt Hill
#
# Bulk Modulus (GPa) = 83.05306 84.12242 83.58774
# Shear Modulus (GPa) = 42.35791 45.59277 43.97534
#
# Velocity S-wave (km/s) = 4.30751 4.46897 4.38898
# Velocity P-wave (km/s) = 7.81796 7.96733 7.89300
#
# Compressibility (1/GPa) = 0.01204049
#
# Stress axis : x y z
#
# Youngs Moduli (GPa) = 145.84611 104.66846 128.44845
#
# Poissons Ratio (x) = 0.27220 0.15553
# Poissons Ratio (y) = 0.37929 0.29109
# Poissons Ratio (z) = 0.17660 0.23720
#
# Static dielectric constant tensor:
#      x y z
#    x 1.851080 0.000000 0.000000 
#    y 0.000000 1.958640 0.000000 
#    z 0.000000 0.000000 2.004170 
# 
# From -- ./inp_files/5689.got.cif
#   From: 2010.05.17/outbox.cif.g08.bks.cpg/sg48_3_cif.got.tgz:5689.got - 2010.06.03 20:39:00.
