data_PCOD9390025
_publ_section_title
;
Structure prediction by ZEFSAII (Michael W. Deem and Ramdas Pophale) SiO2 
 PCOD9390025
Probable space group: P N N N
;
_chemical_formula_sum "Si O2"
_cell_formula_units_Z 56
_cell_length_a 15.611400
_cell_length_b 13.512576
_cell_length_c 13.262345
_cell_angle_alpha 90.000000
_cell_angle_beta 90.000000
_cell_angle_gamma 90.000000
_cell_volume 2797.694714
_symmetry_space_group_name_H-M "P N N N"
_symmetry_group_IT_number 48
_space_group.IT_coordinate_system_code '2'
_symmetry_cell_setting 'orthorhombic'
loop_
_space_group_symop_operation_xyz
x,y,z
1/2-x,1/2-y,z
x,1/2-y,1/2-z
1/2-x,y,1/2-z
-x,-y,-z
1/2+x,1/2+y,-z
-x,1/2+y,1/2+z
1/2+x,-y,1/2+z
loop_
_atom_site_type_symbol
_atom_site_label
_atom_site_fract_x
_atom_site_fract_y
_atom_site_fract_z
Si Si1 0.049690 0.953660 0.862755
Si Si2 0.568940 0.854712 0.467642
Si Si3 0.568999 0.637651 0.715073
Si Si4 0.479694 0.135804 0.975748
Si Si5 0.781406 0.862776 0.877680
Si Si6 0.731738 0.134261 0.364672
Si Si7 0.649982 0.492534 0.508828
O O1 0.133204 0.889149 0.879378
O O2 0.985900 0.910527 0.946774
O O3 0.003111 0.933349 0.758855
O O4 0.070415 0.068226 0.877109
O O5 0.527828 0.749065 0.442888
O O6 0.660232 0.848451 0.522489
O O7 0.552104 0.750000 0.750000
O O8 0.549006 0.637874 0.595386
O O9 0.656654 0.612561 0.780682
O O10 0.400648 0.069778 0.937246
O O11 0.570360 0.080167 0.956620
O O12 0.750000 0.750000 0.859840
O O13 0.709742 0.944923 0.911199
O O14 0.750000 0.250000 0.374785
O O15 0.750000 0.103985 0.250000
O O16 0.787096 0.074273 0.444167
#
# Coordination Sequence:
#
# PCOD9390025 Si02
#       7
#     8   8   8   8   8   8   8
#     4  10  20  33  56  85 127 155 201 253 320 383
#     4  10  19  36  57  85 120 168 203 251 319 394
#     4  11  21  36  62  95 125 160 212 274 325 375
#     4  11  22  39  61  88 126 169 211 265 323 391
#     4  11  20  37  61  96 124 157 209 276 323 374
#     4  11  23  36  58  88 118 151 197 262 320 382
#     4  11  23  38  59  90 127 163 207 263 328 387
#
# _framework density 20.016480000000001
#
# number of rings (size 3 to 8) (size 9 to 14) (size 15 to 20)
#    0.000    1.286    5.714    1.714    2.000    2.000 
#    0.000    0.000    0.000   12.429    3.714    0.000 
#    0.000    0.000    0.000    0.000    0.000    0.000 
#
# Total GULP energy -311951.757440 kJ/mol
# GULP energy per Si atom -5570.567097 kJ/mol
# Density = 1.997092 g / cm^3
# Si number density = 20.016480 Si / 1000 Ang^3
#
#
#
# Elastic Constant Matrix: (Units=GPa)
#
#
# Indices 1 2 3 4 5 6 
#
# 1 117.7238 43.3689 33.0788 0.0000 0.0000 0.0000
# 2 43.3689 113.1614 30.5258 0.0000 0.0000 0.0000
# 3 33.0788 30.5258 53.1095 0.0000 0.0000 0.0000
# 4 0.0000 0.0000 0.0000 29.1379 0.0000 0.0000
# 5 0.0000 0.0000 0.0000 0.0000 -0.1505 0.0000
# 6 0.0000 0.0000 0.0000 0.0000 0.0000 40.5930
#
#
#
# Elastic Compliance Matrix: (Units=1/GPa)
#
#
# Indices 1 2 3 4 5 6 
#
# 1 0.010999 -0.002802 -0.005240 0.000000 0.000000 0.000000
# 2 -0.002802 0.011172 -0.004676 0.000000 0.000000 0.000000
# 3 -0.005240 -0.004676 0.024781 0.000000 0.000000 0.000000
# 4 0.000000 0.000000 0.000000 0.034320 0.000000 0.000000
# 5 0.000000 0.000000 0.000000 0.000000 -6.644127 0.000000
# 6 0.000000 0.000000 0.000000 0.000000 0.000000 0.024635
#
#
# Mechanical properties :
#
#
# Convention : Reuss Voigt Hill
#
# Bulk Modulus (GPa) = 46.47903 55.32685 50.90294
# Shear Modulus (GPa) = -0.76857 25.71751 12.47447
#
# Velocity S-wave (km/s) = -0.62032 3.58832 2.49913
# Velocity P-wave (km/s) = 4.77051 6.69841 5.81491
#
# Compressibility (1/GPa) = 0.02151508
#
# Stress axis : x y z
#
# Youngs Moduli (GPa) = 90.91681 89.50797 40.35393
#
# Poissons Ratio (x) = 0.25078 0.21147
# Poissons Ratio (y) = 0.25473 0.18871
# Poissons Ratio (z) = 0.47643 0.41857
#
# Static dielectric constant tensor:
#      x y z
#    x 1.651500 0.000000 0.000000 
#    y 0.000000 1.725640 0.000000 
#    z 0.000000 0.000000 1.768370 
# 
# From -- ./inp_files/27393.got.cif
#   From: 2010.05.17/outbox.cif.g08.bks.cpg/sg48_14_cif.got.tgz:27393.got - 2010.06.03 20:39:00.
