data_PCOD9390988
_publ_section_title
;
Structure prediction by ZEFSAII (Michael W. Deem and Ramdas Pophale) SiO2 
 PCOD9390988
Probable space group: P N N N
;
_chemical_formula_sum "Si O2"
_cell_formula_units_Z 32
_cell_length_a 9.170687
_cell_length_b 8.181277
_cell_length_c 17.590500
_cell_angle_alpha 90.000000
_cell_angle_beta 90.000000
_cell_angle_gamma 90.000000
_cell_volume 1319.778814
_symmetry_space_group_name_H-M "P N N N"
_symmetry_group_IT_number 48
_space_group.IT_coordinate_system_code '2'
_symmetry_cell_setting 'orthorhombic'
loop_
_space_group_symop_operation_xyz
x,y,z
1/2-x,1/2-y,z
x,1/2-y,1/2-z
1/2-x,y,1/2-z
-x,-y,-z
1/2+x,1/2+y,-z
-x,1/2+y,1/2+z
1/2+x,-y,1/2+z
loop_
_atom_site_type_symbol
_atom_site_label
_atom_site_fract_x
_atom_site_fract_y
_atom_site_fract_z
Si Si1 0.893262 0.863700 0.086257
Si Si2 0.050472 0.686783 0.665172
Si Si3 0.979754 0.984875 0.410410
Si Si4 0.308663 0.481281 0.080905
O O1 0.884639 0.674439 0.111384
O O2 0.820981 0.905464 0.004444
O O3 0.873602 0.014602 0.144435
O O4 0.071302 0.874978 0.072930
O O5 0.065282 0.750000 0.750000
O O6 0.886590 0.642982 0.638794
O O7 0.089168 0.844230 0.615306
O O8 0.150431 0.976183 0.386905
O O9 0.000000 0.000000 0.500000
#
# Coordination Sequence:
#
# PCOD9390988 Si02
#       4
#     8   8   8   8
#     4   9  20  36  55  83 111 150 198 236 282 353
#     4  10  22  37  55  85 121 147 184 247 300 349
#     4  12  20  33  61  85 112 158 190 236 301 339
#     4   9  19  37  54  85 116 140 197 243 277 352
#
# _framework density 24.246485
#
# number of rings (size 3 to 8) (size 9 to 14) (size 15 to 20)
#    1.500    0.500    2.500    1.500    0.000    3.000 
#    0.000    0.000    5.500    3.000    0.000    3.500 
#    0.000    0.000    0.000    0.000    0.000    0.000 
#
# Total GULP energy -178349.534645 kJ/mol
# GULP energy per Si atom -5573.422958 kJ/mol
# Density = 2.419130 g / cm^3
# Si number density = 24.246485 Si / 1000 Ang^3
#
#
#
# Elastic Constant Matrix: (Units=GPa)
#
#
# Indices 1 2 3 4 5 6 
#
# 1 83.2731 29.2569 4.7792 0.0000 0.0000 0.0000
# 2 29.2569 242.4559 87.0492 0.0000 0.0000 0.0000
# 3 4.7792 87.0492 119.7920 0.0000 0.0000 0.0000
# 4 0.0000 0.0000 0.0000 -26.7335 0.0000 0.0000
# 5 0.0000 0.0000 0.0000 0.0000 -8.4340 0.0000
# 6 0.0000 0.0000 0.0000 0.0000 0.0000 61.7850
#
#
#
# Elastic Compliance Matrix: (Units=1/GPa)
#
#
# Indices 1 2 3 4 5 6 
#
# 1 0.012599 -0.001813 0.000815 0.000000 0.000000 0.000000
# 2 -0.001813 0.005841 -0.004172 0.000000 0.000000 0.000000
# 3 0.000815 -0.004172 0.011347 0.000000 0.000000 0.000000
# 4 0.000000 0.000000 0.000000 -0.037406 0.000000 0.000000
# 5 0.000000 0.000000 0.000000 0.000000 -0.118568 0.000000
# 6 0.000000 0.000000 0.000000 0.000000 0.000000 0.016185
#
#
# Mechanical properties :
#
#
# Convention : Reuss Voigt Hill
#
# Bulk Modulus (GPa) = 51.42350 76.41018 63.91684
# Shear Modulus (GPa) = -53.66041 26.95254 -13.35393
#
# Velocity S-wave (km/s) = -4.70949 3.33769 -2.34937
# Velocity P-wave (km/s) = 2.88403 6.81439 4.36568
#
# Compressibility (1/GPa) = 0.01944636
#
# Stress axis : x y z
#
# Youngs Moduli (GPa) = 79.37246 171.19797 88.12765
#
# Poissons Ratio (x) = 0.31034 -0.07179
# Poissons Ratio (y) = 0.14388 0.36769
# Poissons Ratio (z) = -0.06466 0.71429
#
# Static dielectric constant tensor:
#      x y z
#    x 4.782760 0.000000 0.000000 
#    y 0.000000 1.992710 0.000000 
#    z 0.000000 0.000000 1.812920 
# 
# From -- ./inp_files/30794.got.cif
#   From: 2010.05.17/outbox.cif.g08.bks.cpg/sg48_16_cif.got.tgz:30794.got - 2010.06.03 20:39:00.
