data_PCOD9390526
_publ_section_title
;
Structure prediction by ZEFSAII (Michael W. Deem and Ramdas Pophale) SiO2 
 PCOD9390526
Probable space group: P N N N
;
_chemical_formula_sum "Si O2"
_cell_formula_units_Z 42
_cell_length_a 17.700120
_cell_length_b 6.982004
_cell_length_c 19.711388
_cell_angle_alpha 90.000000
_cell_angle_beta 90.000000
_cell_angle_gamma 90.000000
_cell_volume 2435.978836
_symmetry_space_group_name_H-M "P N N N"
_symmetry_group_IT_number 48
_space_group.IT_coordinate_system_code '2'
_symmetry_cell_setting 'orthorhombic'
loop_
_space_group_symop_operation_xyz
x,y,z
1/2-x,1/2-y,z
x,1/2-y,1/2-z
1/2-x,y,1/2-z
-x,-y,-z
1/2+x,1/2+y,-z
-x,1/2+y,1/2+z
1/2+x,-y,1/2+z
loop_
_atom_site_type_symbol
_atom_site_label
_atom_site_fract_x
_atom_site_fract_y
_atom_site_fract_z
Si Si1 0.477461 0.745623 0.173275
Si Si2 0.750000 0.750000 0.750000
Si Si3 0.171068 0.146044 0.474270
Si Si4 0.973741 0.601601 0.570144
Si Si5 0.053959 0.977881 0.566434
Si Si6 0.687491 0.414483 0.659540
O O1 0.507680 0.750000 0.250000
O O2 0.469734 0.546202 0.132353
O O3 0.393612 0.831884 0.177246
O O4 0.525949 0.881831 0.124641
O O5 0.703357 0.604923 0.703037
O O6 0.250000 0.250000 0.487334
O O7 0.106899 0.293318 0.444683
O O8 0.134857 0.043325 0.539435
O O9 0.185348 0.984622 0.417808
O O10 0.000000 0.500000 0.500000
O O11 0.036840 0.761118 0.587012
O O12 0.000000 0.000000 0.500000
O O13 0.750000 0.250000 0.670017
#
# Coordination Sequence:
#
# PCOD9390526 Si02
#       6
#     8   2   8   8   8   8
#     4  12  24  36  61  90 122 162 206 253 308 363
#     4  12  26  40  48  82 136 176 196 246 304 378
#     4  11  21  38  63  88 118 161 212 251 304 366
#     4  11  20  40  63  85 124 159 197 256 305 360
#     4  10  20  40  58  84 119 156 208 254 298 364
#     4  12  24  39  54  85 128 168 203 249 299 371
#
# _framework density 17.241527999999999
#
# number of rings (size 3 to 8) (size 9 to 14) (size 15 to 20)
#    0.000    0.762    8.571    2.571    2.667    0.762 
#    0.000    0.000    0.000    0.571    0.000    0.000 
#    5.714    0.000    0.000    0.000    0.000    0.000 
#
# Total GULP energy -234434.058638 kJ/mol
# GULP energy per Si atom -5581.763301 kJ/mol
# Density = 1.720229 g / cm^3
# Si number density = 17.241528 Si / 1000 Ang^3
#
#
#
# Elastic Constant Matrix: (Units=GPa)
#
#
# Indices 1 2 3 4 5 6 
#
# 1 78.9669 46.0461 51.5324 0.0000 0.0000 0.0000
# 2 46.0461 135.4025 61.2684 0.0000 0.0000 0.0000
# 3 51.5324 61.2684 120.5790 0.0000 0.0000 0.0000
# 4 0.0000 0.0000 0.0000 2.6110 0.0000 0.0000
# 5 0.0000 0.0000 0.0000 0.0000 69.4764 0.0000
# 6 0.0000 0.0000 0.0000 0.0000 0.0000 -48.4671
#
#
#
# Elastic Compliance Matrix: (Units=1/GPa)
#
#
# Indices 1 2 3 4 5 6 
#
# 1 0.018811 -0.003583 -0.006219 0.000000 0.000000 0.000000
# 2 -0.003583 0.010273 -0.003689 0.000000 0.000000 0.000000
# 3 -0.006219 -0.003689 0.012825 0.000000 0.000000 0.000000
# 4 0.000000 0.000000 0.000000 0.382990 0.000000 0.000000
# 5 0.000000 0.000000 0.000000 0.000000 0.014393 0.000000
# 6 0.000000 0.000000 0.000000 0.000000 0.000000 -0.020633
#
#
# Mechanical properties :
#
#
# Convention : Reuss Voigt Hill
#
# Bulk Modulus (GPa) = 66.98595 72.51580 69.75088
# Shear Modulus (GPa) = 11.09589 16.46416 13.78002
#
# Velocity S-wave (km/s) = 2.53959 3.09352 2.83014
# Velocity P-wave (km/s) = 6.89458 7.41012 7.15700
#
# Compressibility (1/GPa) = 0.01492850
#
# Stress axis : x y z
#
# Youngs Moduli (GPa) = 53.16007 97.34323 77.97124
#
# Poissons Ratio (x) = 0.34880 0.48488
# Poissons Ratio (y) = 0.19048 0.28760
# Poissons Ratio (z) = 0.33059 0.35905
#
# Static dielectric constant tensor:
#      x y z
#    x 1.589340 0.000000 0.000000 
#    y 0.000000 1.613660 0.000000 
#    z 0.000000 0.000000 1.620450 
# 
# From -- ./inp_files/34623.got.cif
#   From: 2010.05.17/outbox.cif.g08.bks.cpg/sg48_18_cif.got.tgz:34623.got - 2010.06.03 20:39:00.
