data_PCOD9390239
_publ_section_title
;
Structure prediction by ZEFSAII (Michael W. Deem and Ramdas Pophale) SiO2 
 PCOD9390239
Probable space group: P N N N
;
_chemical_formula_sum "Si O2"
_cell_formula_units_Z 30
_cell_length_a 10.102721
_cell_length_b 17.647050
_cell_length_c 7.550084
_cell_angle_alpha 90.000000
_cell_angle_beta 90.000000
_cell_angle_gamma 90.000000
_cell_volume 1346.053307
_symmetry_space_group_name_H-M "P N N N"
_symmetry_group_IT_number 48
_space_group.IT_coordinate_system_code '2'
_symmetry_cell_setting 'orthorhombic'
loop_
_space_group_symop_operation_xyz
x,y,z
1/2-x,1/2-y,z
x,1/2-y,1/2-z
1/2-x,y,1/2-z
-x,-y,-z
1/2+x,1/2+y,-z
-x,1/2+y,1/2+z
1/2+x,-y,1/2+z
loop_
_atom_site_type_symbol
_atom_site_label
_atom_site_fract_x
_atom_site_fract_y
_atom_site_fract_z
Si Si1 0.083427 0.845117 0.955343
Si Si2 0.750000 0.750000 0.750000
Si Si3 0.250000 0.565187 0.750000
Si Si4 0.505437 0.681145 0.556313
Si Si5 0.100055 0.084455 0.755307
O O1 0.222889 0.888052 0.932839
O O2 0.053033 0.842079 0.745378
O O3 0.069911 0.757294 0.009988
O O4 0.978292 0.891814 0.068707
O O5 0.653482 0.704511 0.619624
O O6 0.371642 0.504792 0.739288
O O7 0.519133 0.619087 0.406706
O O8 0.250000 0.117812 0.750000
#
# Coordination Sequence:
#
# PCOD9390239 Si02
#       5
#     8   2   4   8   8
#     4  10  21  40  58  87 122 162 205 260 317 386
#     4   8  16  32  54  94 120 150 204 278 318 374
#     4  10  24  39  59  86 132 168 200 260 334 382
#     4  10  20  34  64  87 116 158 215 261 319 376
#     4  10  21  37  62  91 122 159 210 266 321 381
#
# _framework density 22.287378
#
# number of rings (size 3 to 8) (size 9 to 14) (size 15 to 20)
#    0.800    1.600    0.000    4.800    0.000    4.267 
#    0.000    4.000    0.000    6.400    0.000    0.000 
#    0.000    0.000    0.000    0.000    0.000    0.000 
#
# Total GULP energy -167091.911187 kJ/mol
# GULP energy per Si atom -5569.730373 kJ/mol
# Density = 2.223665 g / cm^3
# Si number density = 22.287378 Si / 1000 Ang^3
#
#
#
# Elastic Constant Matrix: (Units=GPa)
#
#
# Indices 1 2 3 4 5 6 
#
# 1 68.5004 11.2411 31.7578 0.0000 0.0000 0.0000
# 2 11.2411 115.8782 23.0781 0.0000 0.0000 0.0000
# 3 31.7578 23.0781 65.0380 0.0000 0.0000 0.0000
# 4 0.0000 0.0000 0.0000 -48.5619 0.0000 0.0000
# 5 0.0000 0.0000 0.0000 0.0000 43.2908 0.0000
# 6 0.0000 0.0000 0.0000 0.0000 0.0000 8.3612
#
#
#
# Elastic Compliance Matrix: (Units=1/GPa)
#
#
# Indices 1 2 3 4 5 6 
#
# 1 0.018870 0.000005 -0.009216 0.000000 0.000000 0.000000
# 2 0.000005 0.009286 -0.003297 0.000000 0.000000 0.000000
# 3 -0.009216 -0.003297 0.021046 0.000000 0.000000 0.000000
# 4 0.000000 0.000000 0.000000 -0.020592 0.000000 0.000000
# 5 0.000000 0.000000 0.000000 0.000000 0.023100 0.000000
# 6 0.000000 0.000000 0.000000 0.000000 0.000000 0.119601
#
#
# Mechanical properties :
#
#
# Convention : Reuss Voigt Hill
#
# Bulk Modulus (GPa) = 41.34796 42.39675 41.87236
# Shear Modulus (GPa) = 24.46317 12.84066 18.65191
#
# Velocity S-wave (km/s) = 3.31664 2.40290 2.89603
# Velocity P-wave (km/s) = 5.76708 5.17326 5.47822
#
# Compressibility (1/GPa) = 0.02418499
#
# Stress axis : x y z
#
# Youngs Moduli (GPa) = 52.99325 107.68913 47.51539
#
# Poissons Ratio (x) = -0.00052 0.43790
# Poissons Ratio (y) = -0.00026 0.15668
# Poissons Ratio (z) = 0.48839 0.35510
#
# Static dielectric constant tensor:
#      x y z
#    x 2.069010 0.000000 0.000000 
#    y 0.000000 2.080690 0.000000 
#    z 0.000000 0.000000 1.893800 
# 
# From -- ./inp_files/10486.got.cif
#   From: 2010.05.17/outbox.cif.g08.bks.cpg/sg48_6_cif.got.tgz:10486.got - 2010.06.03 20:39:00.
