data_PCOD9390895
_publ_section_title
;
Structure prediction by ZEFSAII (Michael W. Deem and Ramdas Pophale) SiO2 
 PCOD9390895
Probable space group: P N N N
;
_chemical_formula_sum "Si O2"
_cell_formula_units_Z 48
_cell_length_a 14.467369
_cell_length_b 7.765776
_cell_length_c 16.667606
_cell_angle_alpha 90.000000
_cell_angle_beta 90.000000
_cell_angle_gamma 90.000000
_cell_volume 1872.611317
_symmetry_space_group_name_H-M "P N N N"
_symmetry_group_IT_number 48
_space_group.IT_coordinate_system_code '2'
_symmetry_cell_setting 'orthorhombic'
loop_
_space_group_symop_operation_xyz
x,y,z
1/2-x,1/2-y,z
x,1/2-y,1/2-z
1/2-x,y,1/2-z
-x,-y,-z
1/2+x,1/2+y,-z
-x,1/2+y,1/2+z
1/2+x,-y,1/2+z
loop_
_atom_site_type_symbol
_atom_site_label
_atom_site_fract_x
_atom_site_fract_y
_atom_site_fract_z
Si Si1 0.186603 0.418673 0.385400
Si Si2 0.940734 0.019769 0.409871
Si Si3 0.369378 0.609212 0.429019
Si Si4 0.462784 0.890588 0.320600
Si Si5 0.624029 0.623755 0.065118
Si Si6 0.776726 0.448902 0.166641
O O1 0.250000 0.250000 0.373169
O O2 0.268532 0.555115 0.404216
O O3 0.115612 0.461397 0.312588
O O4 0.129353 0.407411 0.469769
O O5 0.907488 0.823649 0.427773
O O6 0.049770 0.031518 0.409773
O O7 0.889061 0.134125 0.476636
O O8 0.888091 0.056250 0.329466
O O9 0.404227 0.771555 0.381400
O O10 0.484347 0.750000 0.250000
O O11 0.550402 0.957515 0.371681
O O12 0.722775 0.558178 0.099027
O O13 0.750000 0.250000 0.160567
O O14 0.750000 0.531039 0.250000
#
# Coordination Sequence:
#
# PCOD9390895 Si02
#       6
#     8   8   8   8   8   8
#     4  12  23  44  73 111 139 188 250 308 363 442
#     4  10  21  41  66 102 136 187 242 289 363 428
#     4  10  22  40  69  96 140 185 238 299 346 435
#     4  11  28  47  72 107 146 200 246 300 376 442
#     4  11  23  44  74 105 143 184 248 301 368 443
#     4  11  25  39  64 105 146 185 233 300 375 437
#
# _framework density 25.632656000000001
#
# number of rings (size 3 to 8) (size 9 to 14) (size 15 to 20)
#    0.000    1.167    3.333    1.500    7.000    3.333 
#    0.000    1.667    0.000    0.000    0.000    0.000 
#    0.000    0.000    0.000    0.000    0.000    0.000 
#
# Total GULP energy -267666.764439 kJ/mol
# GULP energy per Si atom -5576.390926 kJ/mol
# Density = 2.557431 g / cm^3
# Si number density = 25.632656 Si / 1000 Ang^3
#
#
#
# Elastic Constant Matrix: (Units=GPa)
#
#
# Indices 1 2 3 4 5 6 
#
# 1 177.9624 1.3478 25.4788 0.0000 0.0000 0.0000
# 2 1.3478 67.1522 3.5002 0.0000 0.0000 0.0000
# 3 25.4788 3.5002 44.1628 0.0000 0.0000 0.0000
# 4 0.0000 0.0000 0.0000 4.5756 0.0000 0.0000
# 5 0.0000 0.0000 0.0000 0.0000 16.0809 0.0000
# 6 0.0000 0.0000 0.0000 0.0000 0.0000 27.2879
#
#
#
# Elastic Compliance Matrix: (Units=1/GPa)
#
#
# Indices 1 2 3 4 5 6 
#
# 1 0.006125 0.000062 -0.003539 0.000000 0.000000 0.000000
# 2 0.000062 0.014954 -0.001221 0.000000 0.000000 0.000000
# 3 -0.003539 -0.001221 0.024782 0.000000 0.000000 0.000000
# 4 0.000000 0.000000 0.000000 0.218549 0.000000 0.000000
# 5 0.000000 0.000000 0.000000 0.000000 0.062186 0.000000
# 6 0.000000 0.000000 0.000000 0.000000 0.000000 0.036646
#
#
# Mechanical properties :
#
#
# Convention : Reuss Voigt Hill
#
# Bulk Modulus (GPa) = 27.42336 38.88122 33.15229
# Shear Modulus (GPa) = 12.99398 26.85226 19.92312
#
# Velocity S-wave (km/s) = 2.25396 3.24015 2.79095
# Velocity P-wave (km/s) = 4.18277 5.40367 4.83194
#
# Compressibility (1/GPa) = 0.03646526
#
# Stress axis : x y z
#
# Youngs Moduli (GPa) = 163.25616 66.87205 40.35214
#
# Poissons Ratio (x) = -0.00411 0.14280
# Poissons Ratio (y) = -0.01004 0.04926
# Poissons Ratio (z) = 0.57772 0.08163
#
# Static dielectric constant tensor:
#      x y z
#    x 2.103010 0.000000 0.000000 
#    y 0.000000 2.193460 0.000000 
#    z 0.000000 0.000000 2.112730 
# 
# From -- ./inp_files/31561.got.cif
#   From: 2010.05.17/outbox.cif.g08.bks.cpg/sg48_16_cif.got.tgz:31561.got - 2010.06.03 20:39:00.
