data_PCOD9390741
_publ_section_title
;
Structure prediction by ZEFSAII (Michael W. Deem and Ramdas Pophale) SiO2 
 PCOD9390741
Probable space group: P N N N
;
_chemical_formula_sum "Si O2"
_cell_formula_units_Z 64
_cell_length_a 24.070842
_cell_length_b 14.256464
_cell_length_c 8.178179
_cell_angle_alpha 90.000000
_cell_angle_beta 90.000000
_cell_angle_gamma 90.000000
_cell_volume 2806.465552
_symmetry_space_group_name_H-M "P N N N"
_symmetry_group_IT_number 48
_space_group.IT_coordinate_system_code '2'
_symmetry_cell_setting 'orthorhombic'
loop_
_space_group_symop_operation_xyz
x,y,z
1/2-x,1/2-y,z
x,1/2-y,1/2-z
1/2-x,y,1/2-z
-x,-y,-z
1/2+x,1/2+y,-z
-x,1/2+y,1/2+z
1/2+x,-y,1/2+z
loop_
_atom_site_type_symbol
_atom_site_label
_atom_site_fract_x
_atom_site_fract_y
_atom_site_fract_z
Si Si1 0.367258 0.794461 0.990627
Si Si2 0.285253 0.467780 0.996409
Si Si3 0.641156 0.391605 0.836411
Si Si4 0.171491 0.973560 0.640912
Si Si5 0.593169 0.634117 0.391734
Si Si6 0.007100 0.832120 0.615940
Si Si7 0.372486 0.176813 0.516178
Si Si8 0.541839 0.532564 0.859713
O O1 0.358040 0.684614 0.017595
O O2 0.354073 0.839423 0.166101
O O3 0.331958 0.861702 0.873736
O O4 0.430704 0.811454 0.939457
O O5 0.314314 0.501276 0.826792
O O6 0.220765 0.482259 0.967005
O O7 0.311597 0.365154 0.015462
O O8 0.310249 0.534404 0.134285
O O9 0.582938 0.446315 0.830303
O O10 0.115775 0.028691 0.585071
O O11 0.531847 0.658595 0.455818
O O12 0.627222 0.711266 0.497239
O O13 0.605853 0.655483 0.201720
O O14 0.993935 0.750000 0.750000
O O15 0.995028 0.928647 0.711755
O O16 0.416530 0.117521 0.410147
O O17 0.500000 0.500000 0.000000
#
# Coordination Sequence:
#
# PCOD9390741 Si02
#       8
#     8   8   8   8   8   8   8   8
#     4  11  26  41  62  92 123 168 214 259 307 388
#     4   9  21  42  65  92 127 161 208 269 318 376
#     4  10  24  43  61  88 126 164 210 258 316 369
#     4  10  22  40  65  95 122 165 216 260 319 371
#     4  10  21  38  62  93 129 165 205 255 305 388
#     4  12  25  39  62  94 130 165 210 261 321 383
#     4   9  20  38  62  93 127 163 206 250 313 380
#     4  11  23  38  61  87 123 168 200 251 315 374
#
# _framework density 22.804483999999999
#
# number of rings (size 3 to 8) (size 9 to 14) (size 15 to 20)
#    0.000    1.750    1.250    1.500    8.750    3.500 
#    0.000    5.000    0.000    0.000    0.000    0.000 
#    0.000    0.000    0.000    0.000    0.000    0.000 
#
# Total GULP energy -357428.090780 kJ/mol
# GULP energy per Si atom -5584.813918 kJ/mol
# Density = 2.275258 g / cm^3
# Si number density = 22.804484 Si / 1000 Ang^3
#
#
#
# Elastic Constant Matrix: (Units=GPa)
#
#
# Indices 1 2 3 4 5 6 
#
# 1 47.3364 -16.2697 5.1302 0.0000 0.0000 0.0000
# 2 -16.2697 71.1673 3.8868 0.0000 0.0000 0.0000
# 3 5.1302 3.8868 40.7161 0.0000 0.0000 0.0000
# 4 0.0000 0.0000 0.0000 24.1011 0.0000 0.0000
# 5 0.0000 0.0000 0.0000 0.0000 17.8821 0.0000
# 6 0.0000 0.0000 0.0000 0.0000 0.0000 9.4852
#
#
#
# Elastic Compliance Matrix: (Units=1/GPa)
#
#
# Indices 1 2 3 4 5 6 
#
# 1 0.023407 0.005541 -0.003478 0.000000 0.000000 0.000000
# 2 0.005541 0.015437 -0.002172 0.000000 0.000000 0.000000
# 3 -0.003478 -0.002172 0.025206 0.000000 0.000000 0.000000
# 4 0.000000 0.000000 0.000000 0.041492 0.000000 0.000000
# 5 0.000000 0.000000 0.000000 0.000000 0.055922 0.000000
# 6 0.000000 0.000000 0.000000 0.000000 0.000000 0.105427
#
#
# Mechanical properties :
#
#
# Convention : Reuss Voigt Hill
#
# Bulk Modulus (GPa) = 15.66622 16.07937 15.87280
# Shear Modulus (GPa) = 17.33791 21.39185 19.36488
#
# Velocity S-wave (km/s) = 2.76032 3.06609 2.91721
# Velocity P-wave (km/s) = 4.12842 4.42728 4.28046
#
# Compressibility (1/GPa) = 0.06383162
#
# Stress axis : x y z
#
# Youngs Moduli (GPa) = 42.72257 64.78040 39.67328
#
# Poissons Ratio (x) = -0.35895 0.13799
# Poissons Ratio (y) = -0.23673 0.08616
# Poissons Ratio (z) = 0.14860 0.14069
#
# Static dielectric constant tensor:
#      x y z
#    x 1.828270 0.000000 0.000000 
#    y 0.000000 1.889420 0.000000 
#    z 0.000000 0.000000 1.876180 
# 
# From -- ./inp_files/16033.got.cif
#   From: 2010.05.17/outbox.cif.g08.bks.cpg/sg48_9_cif.got.tgz:16033.got - 2010.06.03 20:39:00.
