data_PCOD9390377
_publ_section_title
;
Structure prediction by ZEFSAII (Michael W. Deem and Ramdas Pophale) SiO2 
 PCOD9390377
Probable space group: P N N N
;
_chemical_formula_sum "Si O2"
_cell_formula_units_Z 56
_cell_length_a 20.842580
_cell_length_b 10.637255
_cell_length_c 12.208685
_cell_angle_alpha 90.000000
_cell_angle_beta 90.000000
_cell_angle_gamma 90.000000
_cell_volume 2706.761160
_symmetry_space_group_name_H-M "P N N N"
_symmetry_group_IT_number 48
_space_group.IT_coordinate_system_code '2'
_symmetry_cell_setting 'orthorhombic'
loop_
_space_group_symop_operation_xyz
x,y,z
1/2-x,1/2-y,z
x,1/2-y,1/2-z
1/2-x,y,1/2-z
-x,-y,-z
1/2+x,1/2+y,-z
-x,1/2+y,1/2+z
1/2+x,-y,1/2+z
loop_
_atom_site_type_symbol
_atom_site_label
_atom_site_fract_x
_atom_site_fract_y
_atom_site_fract_z
Si Si1 0.376898 0.497698 0.223500
Si Si2 0.163566 0.850329 0.418818
Si Si3 0.200085 0.566028 0.477466
Si Si4 0.922494 0.020080 0.412504
Si Si5 0.995015 0.569550 0.613818
Si Si6 0.636797 0.109772 0.295588
Si Si7 0.442079 0.345670 0.402917
O O1 0.347513 0.610807 0.294049
O O2 0.334972 0.478519 0.113245
O O3 0.449608 0.521923 0.184430
O O4 0.388107 0.390659 0.316635
O O5 0.177727 0.705887 0.441482
O O6 0.223870 0.931810 0.461562
O O7 0.102775 0.888451 0.491420
O O8 0.180762 0.559128 0.605579
O O9 0.873154 0.026094 0.312495
O O10 0.991693 0.076757 0.379645
O O11 0.926381 0.887086 0.473295
O O12 0.956302 0.699891 0.608045
O O13 0.000000 0.500000 0.500000
O O14 0.065147 0.608725 0.654049
O O15 0.653889 0.250000 0.250000
#
# Coordination Sequence:
#
# PCOD9390377 Si02
#       7
#     8   8   8   8   8   8   8
#     4  11  21  36  60  84 124 164 197 251 309 363
#     4  10  22  38  57  91 128 165 204 255 314 373
#     4  11  22  37  59  91 130 162 208 259 311 373
#     4  10  20  37  60  86 124 165 198 250 309 372
#     4  12  22  38  62  95 126 159 204 261 310 378
#     4  12  20  37  60  90 129 158 205 253 314 377
#     4  10  21  38  61  87 124 162 202 249 311 377
#
# _framework density 20.688934
#
# number of rings (size 3 to 8) (size 9 to 14) (size 15 to 20)
#    0.000    1.143    5.714    1.286    0.000    1.714 
#    2.571    0.714    0.000   14.571    0.000    0.000 
#    8.571    0.000    0.000    0.000    0.000    0.000 
#
# Total GULP energy -312307.852049 kJ/mol
# GULP energy per Si atom -5576.925929 kJ/mol
# Density = 2.064185 g / cm^3
# Si number density = 20.688934 Si / 1000 Ang^3
#
#
#
# Elastic Constant Matrix: (Units=GPa)
#
#
# Indices 1 2 3 4 5 6 
#
# 1 60.5850 6.8612 22.2807 0.0000 0.0000 0.0000
# 2 6.8612 28.1016 10.7892 0.0000 0.0000 0.0000
# 3 22.2807 10.7892 143.0858 0.0000 0.0000 0.0000
# 4 0.0000 0.0000 0.0000 26.2694 0.0000 0.0000
# 5 0.0000 0.0000 0.0000 0.0000 31.5059 0.0000
# 6 0.0000 0.0000 0.0000 0.0000 0.0000 18.6459
#
#
#
# Elastic Compliance Matrix: (Units=1/GPa)
#
#
# Indices 1 2 3 4 5 6 
#
# 1 0.017815 -0.003383 -0.002519 0.000000 0.000000 0.000000
# 2 -0.003383 0.037288 -0.002285 0.000000 0.000000 0.000000
# 3 -0.002519 -0.002285 0.007553 0.000000 0.000000 0.000000
# 4 0.000000 0.000000 0.000000 0.038067 0.000000 0.000000
# 5 0.000000 0.000000 0.000000 0.000000 0.031740 0.000000
# 6 0.000000 0.000000 0.000000 0.000000 0.000000 0.053631
#
#
# Mechanical properties :
#
#
# Convention : Reuss Voigt Hill
#
# Bulk Modulus (GPa) = 21.60586 34.62607 28.11596
# Shear Modulus (GPa) = 22.94669 28.07364 25.51017
#
# Velocity S-wave (km/s) = 3.33397 3.68766 3.51527
# Velocity P-wave (km/s) = 5.02855 5.90802 5.48594
#
# Compressibility (1/GPa) = 0.04628373
#
# Stress axis : x y z
#
# Youngs Moduli (GPa) = 56.13177 26.81808 132.39133
#
# Poissons Ratio (x) = 0.09071 0.33350
# Poissons Ratio (y) = 0.18987 0.30251
# Poissons Ratio (z) = 0.14140 0.06128
#
# Static dielectric constant tensor:
#      x y z
#    x 1.763910 0.000000 0.000000 
#    y 0.000000 1.758260 0.000000 
#    z 0.000000 0.000000 1.814500 
# 
# From -- ./inp_files/22881.got.cif
#   From: 2010.05.17/outbox.cif.g08.bks.cpg/sg48_12_cif.got.tgz:22881.got - 2010.06.03 20:39:00.
