data_PCOD9390757
_publ_section_title
;
Structure prediction by ZEFSAII (Michael W. Deem and Ramdas Pophale) SiO2 
 PCOD9390757
Probable space group: P N N N
;
_chemical_formula_sum "Si O2"
_cell_formula_units_Z 54
_cell_length_a 13.402976
_cell_length_b 13.719919
_cell_length_c 13.807605
_cell_angle_alpha 90.000000
_cell_angle_beta 90.000000
_cell_angle_gamma 90.000000
_cell_volume 2539.049348
_symmetry_space_group_name_H-M "P N N N"
_symmetry_group_IT_number 48
_space_group.IT_coordinate_system_code '2'
_symmetry_cell_setting 'orthorhombic'
loop_
_space_group_symop_operation_xyz
x,y,z
1/2-x,1/2-y,z
x,1/2-y,1/2-z
1/2-x,y,1/2-z
-x,-y,-z
1/2+x,1/2+y,-z
-x,1/2+y,1/2+z
1/2+x,-y,1/2+z
loop_
_atom_site_type_symbol
_atom_site_label
_atom_site_fract_x
_atom_site_fract_y
_atom_site_fract_z
Si Si1 0.750000 0.250000 0.250000
Si Si2 0.424159 0.449393 0.076636
Si Si3 0.250000 0.750000 0.076889
Si Si4 0.195965 0.434442 0.026177
Si Si5 0.555608 0.733525 0.542263
Si Si6 0.637824 0.035976 0.779434
Si Si7 0.046036 0.770619 0.348422
Si Si8 0.856158 0.378666 0.084618
O O1 0.810845 0.324890 0.179545
O O2 0.314497 0.448999 0.028158
O O3 0.443976 0.334761 0.099184
O O4 0.416414 0.501255 0.181528
O O5 0.500000 0.500000 0.000000
O O6 0.154687 0.779791 0.139937
O O7 0.207320 0.668212 0.004771
O O8 0.156159 0.324677 0.020154
O O9 0.158885 0.459733 0.135144
O O10 0.151958 0.506648 0.942614
O O11 0.515126 0.763844 0.437809
O O12 0.469757 0.659078 0.578402
O O13 0.750000 0.067580 0.750000
O O14 0.574646 0.117182 0.835647
O O15 0.991238 0.750000 0.250000
#
# Coordination Sequence:
#
# PCOD9390757 Si02
#       8
#     2   8   4   8   8   8   8   8
#     4  10  24  40  62 108 150 180 246 292 358 416
#     4  11  26  42  68  99 140 172 231 290 357 406
#     4   9  17  31  59  92 126 154 209 287 342 380
#     4  11  23  45  68  94 137 180 228 282 346 422
#     4  11  24  43  64  96 133 188 221 283 344 423
#     4  10  21  38  64  99 127 171 220 280 341 404
#     4  11  20  32  62  93 129 163 224 275 343 397
#     4  10  22  39  66  95 136 179 228 286 351 417
#
# _framework density 21.267803000000001
#
# number of rings (size 3 to 8) (size 9 to 14) (size 15 to 20)
#    0.000    1.481    2.963    2.889    8.296    1.778 
#    0.000    3.704    0.000    2.667    0.000    0.000 
#    0.000    0.000    0.000    0.000    0.000    0.000 
#
# Total GULP energy -300902.679658 kJ/mol
# GULP energy per Si atom -5572.271846 kJ/mol
# Density = 2.121940 g / cm^3
# Si number density = 21.267803 Si / 1000 Ang^3
#
#
#
# Elastic Constant Matrix: (Units=GPa)
#
#
# Indices 1 2 3 4 5 6 
#
# 1 85.7310 39.5337 30.0850 0.0000 0.0000 0.0000
# 2 39.5337 95.7400 13.7921 0.0000 0.0000 0.0000
# 3 30.0850 13.7921 96.4075 0.0000 0.0000 0.0000
# 4 0.0000 0.0000 0.0000 27.9225 0.0000 0.0000
# 5 0.0000 0.0000 0.0000 0.0000 0.5998 0.0000
# 6 0.0000 0.0000 0.0000 0.0000 0.0000 30.5140
#
#
#
# Elastic Compliance Matrix: (Units=1/GPa)
#
#
# Indices 1 2 3 4 5 6 
#
# 1 0.015846 -0.005954 -0.004093 0.000000 0.000000 0.000000
# 2 -0.005954 0.012902 0.000012 0.000000 0.000000 0.000000
# 3 -0.004093 0.000012 0.011648 0.000000 0.000000 0.000000
# 4 0.000000 0.000000 0.000000 0.035813 0.000000 0.000000
# 5 0.000000 0.000000 0.000000 0.000000 1.667159 0.000000
# 6 0.000000 0.000000 0.000000 0.000000 0.000000 0.032772
#
#
# Mechanical properties :
#
#
# Convention : Reuss Voigt Hill
#
# Bulk Modulus (GPa) = 49.19655 49.41115 49.30385
# Shear Modulus (GPa) = 2.77318 24.77177 13.77248
#
# Velocity S-wave (km/s) = 1.14314 3.41655 2.54751
# Velocity P-wave (km/s) = 4.99245 6.23274 5.64675
#
# Compressibility (1/GPa) = 0.02032663
#
# Stress axis : x y z
#
# Youngs Moduli (GPa) = 63.10626 77.50948 85.84986
#
# Poissons Ratio (x) = 0.46147 0.35141
# Poissons Ratio (y) = 0.37572 -0.00105
# Poissons Ratio (z) = 0.25831 -0.00095
#
# Static dielectric constant tensor:
#      x y z
#    x 1.799230 0.000000 0.000000 
#    y 0.000000 2.254340 0.000000 
#    z 0.000000 0.000000 1.744700 
# 
# From -- ./inp_files/26571.got.cif
#   From: 2010.05.17/outbox.cif.g08.bks.cpg/sg48_14_cif.got.tgz:26571.got - 2010.06.03 20:39:00.
