data_PCOD9390878
_publ_section_title
;
Structure prediction by ZEFSAII (Michael W. Deem and Ramdas Pophale) SiO2 
 PCOD9390878
Probable space group: P N N N
;
_chemical_formula_sum "Si O2"
_cell_formula_units_Z 58
_cell_length_a 10.255668
_cell_length_b 33.701169
_cell_length_c 7.620896
_cell_angle_alpha 90.000000
_cell_angle_beta 90.000000
_cell_angle_gamma 90.000000
_cell_volume 2633.995046
_symmetry_space_group_name_H-M "P N N N"
_symmetry_group_IT_number 48
_space_group.IT_coordinate_system_code '2'
_symmetry_cell_setting 'orthorhombic'
loop_
_space_group_symop_operation_xyz
x,y,z
1/2-x,1/2-y,z
x,1/2-y,1/2-z
1/2-x,y,1/2-z
-x,-y,-z
1/2+x,1/2+y,-z
-x,1/2+y,1/2+z
1/2+x,-y,1/2+z
loop_
_atom_site_type_symbol
_atom_site_label
_atom_site_fract_x
_atom_site_fract_y
_atom_site_fract_z
Si Si1 0.844528 0.964688 0.888632
Si Si2 0.718975 0.885723 0.041342
Si Si3 0.556761 0.672399 0.031826
Si Si4 0.197041 0.874492 0.947930
Si Si5 0.033663 0.658664 0.067647
Si Si6 0.750000 0.250000 0.250000
Si Si7 0.551636 0.249217 0.959386
Si Si8 0.366890 0.541744 0.885617
O O1 0.750000 0.984707 0.750000
O O2 0.986165 0.952948 0.815345
O O3 0.769120 0.926001 0.955314
O O4 0.864631 0.998000 0.034007
O O5 0.750000 0.890153 0.250000
O O6 0.571057 0.873162 0.996824
O O7 0.811785 0.849672 0.982787
O O8 0.517893 0.664457 0.234786
O O9 0.565692 0.719867 0.020619
O O10 0.433867 0.651366 0.940844
O O11 0.250000 0.875865 0.750000
O O12 0.158729 0.919287 0.005546
O O13 0.317932 0.856433 0.056404
O O14 0.030482 0.703395 0.990369
O O15 0.653065 0.232503 0.398595
O O16 0.591526 0.250000 0.750000
O O17 0.250000 0.542206 0.750000
#
# Coordination Sequence:
#
# PCOD9390878 Si02
#       8
#     8   8   8   8   8   2   8   8
#     4  11  24  43  67  95 127 164 204 262 315 372
#     4  10  22  42  66  93 123 172 209 259 324 389
#     4  10  21  41  63  88 129 164 215 266 319 380
#     4  11  23  38  61  92 126 163 205 265 311 375
#     4  10  23  39  63  92 126 166 217 260 322 379
#     4  12  22  36  64  88 128 172 222 258 356 370
#     4  10  23  40  59  94 130 172 223 278 322 395
#     4  10  24  45  63  93 129 164 209 254 312 383
#
# _framework density 22.019784000000001
#
# number of rings (size 3 to 8) (size 9 to 14) (size 15 to 20)
#    0.000    1.655    1.379    1.862    7.724    4.414 
#    2.483    2.759    0.000    0.828    0.000    0.000 
#    0.000    0.000    0.000    0.000    0.000    0.000 
#
# Total GULP energy -323234.472268 kJ/mol
# GULP energy per Si atom -5573.008143 kJ/mol
# Density = 2.196967 g / cm^3
# Si number density = 22.019784 Si / 1000 Ang^3
#
#
#
# Elastic Constant Matrix: (Units=GPa)
#
#
# Indices 1 2 3 4 5 6 
#
# 1 93.9631 15.8421 11.9398 0.0000 0.0000 0.0000
# 2 15.8421 95.1849 4.7736 0.0000 0.0000 0.0000
# 3 11.9398 4.7736 39.8468 0.0000 0.0000 0.0000
# 4 0.0000 0.0000 0.0000 7.8812 0.0000 0.0000
# 5 0.0000 0.0000 0.0000 0.0000 22.8636 0.0000
# 6 0.0000 0.0000 0.0000 0.0000 0.0000 6.4937
#
#
#
# Elastic Compliance Matrix: (Units=1/GPa)
#
#
# Indices 1 2 3 4 5 6 
#
# 1 0.011339 -0.001727 -0.003191 0.000000 0.000000 0.000000
# 2 -0.001727 0.010832 -0.000780 0.000000 0.000000 0.000000
# 3 -0.003191 -0.000780 0.026146 0.000000 0.000000 0.000000
# 4 0.000000 0.000000 0.000000 0.126884 0.000000 0.000000
# 5 0.000000 0.000000 0.000000 0.000000 0.043738 0.000000
# 6 0.000000 0.000000 0.000000 0.000000 0.000000 0.153995
#
#
# Mechanical properties :
#
#
# Convention : Reuss Voigt Hill
#
# Bulk Modulus (GPa) = 27.08490 32.67843 29.88166
# Shear Modulus (GPa) = 12.60598 20.54366 16.57482
#
# Velocity S-wave (km/s) = 2.39526 3.05776 2.74656
# Velocity P-wave (km/s) = 4.46952 5.22869 4.86394
#
# Compressibility (1/GPa) = 0.03692095
#
# Stress axis : x y z
#
# Youngs Moduli (GPa) = 88.19018 92.31511 38.24730
#
# Poissons Ratio (x) = 0.15945 0.12204
# Poissons Ratio (y) = 0.15232 0.02984
# Poissons Ratio (z) = 0.28139 0.07202
#
# Static dielectric constant tensor:
#      x y z
#    x 2.157950 0.000000 0.000000 
#    y 0.000000 1.851320 0.000000 
#    z 0.000000 0.000000 1.957310 
# 
# From -- ./inp_files/11541.got.cif
#   From: 2010.05.17/outbox.cif.g08.bks.cpg/sg48_6_cif.got.tgz:11541.got - 2010.06.03 20:39:00.
