data_PCOD9390219
_publ_section_title
;
Structure prediction by ZEFSAII (Michael W. Deem and Ramdas Pophale) SiO2 
 PCOD9390219
Probable space group: P N N N
;
_chemical_formula_sum "Si O2"
_cell_formula_units_Z 40
_cell_length_a 22.360055
_cell_length_b 4.859004
_cell_length_c 20.114833
_cell_angle_alpha 90.000000
_cell_angle_beta 90.000000
_cell_angle_gamma 90.000000
_cell_volume 2185.428263
_symmetry_space_group_name_H-M "P N N N"
_symmetry_group_IT_number 48
_space_group.IT_coordinate_system_code '2'
_symmetry_cell_setting 'orthorhombic'
loop_
_space_group_symop_operation_xyz
x,y,z
1/2-x,1/2-y,z
x,1/2-y,1/2-z
1/2-x,y,1/2-z
-x,-y,-z
1/2+x,1/2+y,-z
-x,1/2+y,1/2+z
1/2+x,-y,1/2+z
loop_
_atom_site_type_symbol
_atom_site_label
_atom_site_fract_x
_atom_site_fract_y
_atom_site_fract_z
Si Si1 0.991068 0.510839 0.794959
Si Si2 0.179842 0.702185 0.097656
Si Si3 0.417439 0.738417 0.505657
Si Si4 0.965357 0.779065 0.077021
Si Si5 0.133440 0.294136 0.325807
O O1 0.970430 0.250000 0.750000
O O2 0.029579 0.367905 0.852279
O O3 0.934672 0.678519 0.825761
O O4 0.021071 0.750000 0.750000
O O5 0.250000 0.750000 0.095809
O O6 0.168145 0.393817 0.121964
O O7 0.146343 0.897271 0.151352
O O8 0.146597 0.757661 0.028188
O O9 0.467026 0.819818 0.450033
O O10 0.432980 0.430046 0.526791
O O11 0.430969 0.935297 0.568089
O O12 0.154252 0.250000 0.250000
#
# Coordination Sequence:
#
# PCOD9390219 Si02
#       5
#     8   8   8   8   8
#     4  11  21  34  55  81 111 139 174 222 273 323
#     4  12  24  38  53  73 106 142 190 232 259 302
#     4  10  21  34  53  77 101 137 182 217 269 313
#     4  10  20  34  56  76 104 136 173 221 264 334
#     4  11  23  36  52  73 104 147 188 226 257 301
#
# _framework density 18.303048
#
# number of rings (size 3 to 8) (size 9 to 14) (size 15 to 20)
#    0.000    1.200    2.000    6.000    5.600    2.400 
#    0.000    0.000    0.000    0.000    0.000    0.000 
#    0.000   12.000    0.000    0.000    0.000    0.000 
#
# Total GULP energy -223373.197797 kJ/mol
# GULP energy per Si atom -5584.329945 kJ/mol
# Density = 1.826139 g / cm^3
# Si number density = 18.303048 Si / 1000 Ang^3
#
#
#
# Elastic Constant Matrix: (Units=GPa)
#
#
# Indices 1 2 3 4 5 6 
#
# 1 38.4975 -0.7647 30.8440 0.0000 0.0000 0.0000
# 2 -0.7647 70.4961 9.7425 0.0000 0.0000 0.0000
# 3 30.8440 9.7425 66.4543 0.0000 0.0000 0.0000
# 4 0.0000 0.0000 0.0000 38.4229 0.0000 0.0000
# 5 0.0000 0.0000 0.0000 0.0000 12.5777 0.0000
# 6 0.0000 0.0000 0.0000 0.0000 0.0000 10.2890
#
#
#
# Elastic Compliance Matrix: (Units=1/GPa)
#
#
# Indices 1 2 3 4 5 6 
#
# 1 0.042058 0.003219 -0.019993 0.000000 0.000000 0.000000
# 2 0.003219 0.014725 -0.003653 0.000000 0.000000 0.000000
# 3 -0.019993 -0.003653 0.024863 0.000000 0.000000 0.000000
# 4 0.000000 0.000000 0.000000 0.026026 0.000000 0.000000
# 5 0.000000 0.000000 0.000000 0.000000 0.079506 0.000000
# 6 0.000000 0.000000 0.000000 0.000000 0.000000 0.097191
#
#
# Mechanical properties :
#
#
# Convention : Reuss Voigt Hill
#
# Bulk Modulus (GPa) = 24.51410 28.34350 26.42880
# Shear Modulus (GPa) = 14.75715 21.29965 18.02840
#
# Velocity S-wave (km/s) = 2.84257 3.41504 3.14187
# Velocity P-wave (km/s) = 4.91895 5.57398 5.25668
#
# Compressibility (1/GPa) = 0.04079285
#
# Stress axis : x y z
#
# Youngs Moduli (GPa) = 23.77691 67.91211 40.22081
#
# Poissons Ratio (x) = -0.21862 0.80411
# Poissons Ratio (y) = -0.07654 0.14692
# Poissons Ratio (z) = 0.47536 0.24807
#
# Static dielectric constant tensor:
#      x y z
#    x 1.605080 0.000000 0.000000 
#    y 0.000000 1.649720 0.000000 
#    z 0.000000 0.000000 1.674040 
# 
# From -- ./inp_files/4184.got.cif
#   From: 2010.05.17/outbox.cif.g08.bks.cpg/sg48_3_cif.got.tgz:4184.got - 2010.06.03 20:39:00.
