data_PCOD9390250
_publ_section_title
;
Structure prediction by ZEFSAII (Michael W. Deem and Ramdas Pophale) SiO2 
 PCOD9390250
Probable space group: P N N N
;
_chemical_formula_sum "Si O2"
_cell_formula_units_Z 52
_cell_length_a 8.869527
_cell_length_b 14.223307
_cell_length_c 23.769570
_cell_angle_alpha 90.000000
_cell_angle_beta 90.000000
_cell_angle_gamma 90.000000
_cell_volume 2998.626464
_symmetry_space_group_name_H-M "P N N N"
_symmetry_group_IT_number 48
_space_group.IT_coordinate_system_code '2'
_symmetry_cell_setting 'orthorhombic'
loop_
_space_group_symop_operation_xyz
x,y,z
1/2-x,1/2-y,z
x,1/2-y,1/2-z
1/2-x,y,1/2-z
-x,-y,-z
1/2+x,1/2+y,-z
-x,1/2+y,1/2+z
1/2+x,-y,1/2+z
loop_
_atom_site_type_symbol
_atom_site_label
_atom_site_fract_x
_atom_site_fract_y
_atom_site_fract_z
Si Si1 0.947217 0.090490 0.353124
Si Si2 0.797819 0.908312 0.888871
Si Si3 0.405856 0.587668 0.524412
Si Si4 0.250000 0.582669 0.750000
Si Si5 0.500896 0.792148 0.693018
Si Si6 0.403212 0.223399 0.496110
Si Si7 0.903288 0.431593 0.540250
O O1 0.861534 0.068453 0.410878
O O2 0.868053 0.042921 0.298035
O O3 0.123805 0.074841 0.370792
O O4 0.945657 0.202495 0.341895
O O5 0.880099 0.854535 0.839166
O O6 0.839506 0.840582 0.943166
O O7 0.870551 0.008464 0.904263
O O8 0.500000 0.500000 0.500000
O O9 0.503042 0.684204 0.522267
O O10 0.256058 0.592416 0.487917
O O11 0.359963 0.645563 0.788156
O O12 0.568264 0.750000 0.750000
O O13 0.250000 0.250000 0.526697
O O14 0.503477 0.163351 0.538415
O O15 0.000000 0.500000 0.500000
#
# Coordination Sequence:
#
# PCOD9390250 Si02
#       7
#     8   8   8   4   8   8   8
#     4  11  20  34  52  75 114 151 202 236 287 344
#     4  11  20  37  55  79 116 162 193 239 290 359
#     4  12  21  35  58  82 115 160 200 250 295 354
#     4  10  25  34  48  84 110 157 210 239 284 342
#     4  10  20  35  53  78 112 155 198 230 281 343
#     4  11  20  37  54  82 114 156 202 240 298 353
#     4  10  23  35  51  83 112 156 204 234 293 359
#
# _framework density 17.341272
#
# number of rings (size 3 to 8) (size 9 to 14) (size 15 to 20)
#    0.000    1.231    4.615    3.923    4.308    5.538 
#    0.000    0.000    0.000    0.000    0.000    0.000 
#    0.000    6.154    3.692    0.000    0.000    0.000 
#
# Total GULP energy -289510.712897 kJ/mol
# GULP energy per Si atom -5567.513710 kJ/mol
# Density = 1.730180 g / cm^3
# Si number density = 17.341272 Si / 1000 Ang^3
#
#
#
# Elastic Constant Matrix: (Units=GPa)
#
#
# Indices 1 2 3 4 5 6 
#
# 1 94.4473 31.1475 21.5023 0.0000 0.0000 0.0000
# 2 31.1475 61.4827 33.4716 0.0000 0.0000 0.0000
# 3 21.5023 33.4716 85.6716 0.0000 0.0000 0.0000
# 4 0.0000 0.0000 0.0000 20.6466 0.0000 0.0000
# 5 0.0000 0.0000 0.0000 0.0000 32.1222 0.0000
# 6 0.0000 0.0000 0.0000 0.0000 0.0000 -58.1722
#
#
#
# Elastic Compliance Matrix: (Units=1/GPa)
#
#
# Indices 1 2 3 4 5 6 
#
# 1 0.012761 -0.005997 -0.000860 0.000000 0.000000 0.000000
# 2 -0.005997 0.023477 -0.007667 0.000000 0.000000 0.000000
# 3 -0.000860 -0.007667 0.014884 0.000000 0.000000 0.000000
# 4 0.000000 0.000000 0.000000 0.048434 0.000000 0.000000
# 5 0.000000 0.000000 0.000000 0.000000 0.031131 0.000000
# 6 0.000000 0.000000 0.000000 0.000000 0.000000 -0.017190
#
#
# Mechanical properties :
#
#
# Convention : Reuss Voigt Hill
#
# Bulk Modulus (GPa) = 45.30199 45.98271 45.64235
# Shear Modulus (GPa) = 33.35489 9.28466 21.31978
#
# Velocity S-wave (km/s) = 4.39046 2.31640 3.51012
# Velocity P-wave (km/s) = 7.20292 5.80760 6.54256
#
# Compressibility (1/GPa) = 0.02207409
#
# Stress axis : x y z
#
# Youngs Moduli (GPa) = 78.36150 42.59516 67.18677
#
# Poissons Ratio (x) = 0.25543 0.05778
# Poissons Ratio (y) = 0.46992 0.51514
# Poissons Ratio (z) = 0.06739 0.32659
#
# Static dielectric constant tensor:
#      x y z
#    x 1.695930 0.000000 0.000000 
#    y 0.000000 1.631270 0.000000 
#    z 0.000000 0.000000 1.635960 
# 
# From -- ./inp_files/25702.got.cif
#   From: 2010.05.17/outbox.cif.g08.bks.cpg/sg48_13_cif.got.tgz:25702.got - 2010.06.03 20:39:00.
