data_PCOD9390292
_publ_section_title
;
Structure prediction by ZEFSAII (Michael W. Deem and Ramdas Pophale) SiO2 
 PCOD9390292
Probable space group: P N N N
;
_chemical_formula_sum "Si O2"
_cell_formula_units_Z 52
_cell_length_a 16.652061
_cell_length_b 23.138600
_cell_length_c 5.057538
_cell_angle_alpha 90.000000
_cell_angle_beta 90.000000
_cell_angle_gamma 90.000000
_cell_volume 1948.696594
_symmetry_space_group_name_H-M "P N N N"
_symmetry_group_IT_number 48
_space_group.IT_coordinate_system_code '2'
_symmetry_cell_setting 'orthorhombic'
loop_
_space_group_symop_operation_xyz
x,y,z
1/2-x,1/2-y,z
x,1/2-y,1/2-z
1/2-x,y,1/2-z
-x,-y,-z
1/2+x,1/2+y,-z
-x,1/2+y,1/2+z
1/2+x,-y,1/2+z
loop_
_atom_site_type_symbol
_atom_site_label
_atom_site_fract_x
_atom_site_fract_y
_atom_site_fract_z
Si Si1 0.895282 0.312878 0.799076
Si Si2 0.250000 0.366318 0.250000
Si Si3 0.133614 0.308168 0.915975
Si Si4 0.657044 0.574079 0.141375
Si Si5 0.333627 0.568787 0.179531
Si Si6 0.079239 0.540508 0.814756
Si Si7 0.502570 0.343261 0.204978
O O1 0.862157 0.250000 0.750000
O O2 0.835150 0.364905 0.759545
O O3 0.966501 0.324433 0.583297
O O4 0.931159 0.319407 0.089348
O O5 0.277767 0.322448 0.475042
O O6 0.179002 0.409107 0.340801
O O7 0.124722 0.250000 0.750000
O O8 0.120144 0.366542 0.749049
O O9 0.076699 0.314046 0.173707
O O10 0.750000 0.562849 0.250000
O O11 0.592968 0.524829 0.213289
O O12 0.250000 0.540077 0.250000
O O13 0.401862 0.542187 0.373194
O O14 0.350225 0.566840 0.869794
O O15 0.008848 0.586346 0.744244
#
# Coordination Sequence:
#
# PCOD9390292 Si02
#       7
#     8   4   8   8   8   8   8
#     4  10  21  39  62  92 134 177 230 286 339 413
#     4  10  26  47  68 100 136 174 239 294 364 434
#     4  11  26  46  71  98 135 183 235 298 366 425
#     4  10  23  41  67 100 136 184 226 289 359 421
#     4  10  20  35  61  96 135 180 227 281 344 411
#     4  10  22  39  66 100 138 177 229 283 341 421
#     4  10  23  43  66 100 132 178 231 282 348 415
#
# _framework density 26.684502999999999
#
# number of rings (size 3 to 8) (size 9 to 14) (size 15 to 20)
#    0.000    1.846    0.000    2.308    7.538    4.923 
#    0.000    1.538    0.000    5.538    0.000    0.000 
#    0.000    0.000    0.000    0.000    0.000    0.000 
#
# Total GULP energy -290601.038819 kJ/mol
# GULP energy per Si atom -5588.481516 kJ/mol
# Density = 2.662377 g / cm^3
# Si number density = 26.684503 Si / 1000 Ang^3
#
#
#
# Elastic Constant Matrix: (Units=GPa)
#
#
# Indices 1 2 3 4 5 6 
#
# 1 73.0503 23.1038 19.6067 0.0000 0.0000 0.0000
# 2 23.1038 212.0956 27.0514 0.0000 0.0000 0.0000
# 3 19.6067 27.0514 95.2303 0.0000 0.0000 0.0000
# 4 0.0000 0.0000 0.0000 33.5573 0.0000 0.0000
# 5 0.0000 0.0000 0.0000 0.0000 16.6818 0.0000
# 6 0.0000 0.0000 0.0000 0.0000 0.0000 11.2738
#
#
#
# Elastic Compliance Matrix: (Units=1/GPa)
#
#
# Indices 1 2 3 4 5 6 
#
# 1 0.014813 -0.001271 -0.002689 0.000000 0.000000 0.000000
# 2 -0.001271 0.005001 -0.001159 0.000000 0.000000 0.000000
# 3 -0.002689 -0.001159 0.011384 0.000000 0.000000 0.000000
# 4 0.000000 0.000000 0.000000 0.029800 0.000000 0.000000
# 5 0.000000 0.000000 0.000000 0.000000 0.059945 0.000000
# 6 0.000000 0.000000 0.000000 0.000000 0.000000 0.088702
#
#
# Mechanical properties :
#
#
# Convention : Reuss Voigt Hill
#
# Bulk Modulus (GPa) = 47.70856 57.76666 52.73761
# Shear Modulus (GPa) = 22.03924 33.01020 27.52472
#
# Velocity S-wave (km/s) = 2.87700 3.52099 3.21516
# Velocity P-wave (km/s) = 5.38087 6.18263 5.79563
#
# Compressibility (1/GPa) = 0.02096060
#
# Stress axis : x y z
#
# Youngs Moduli (GPa) = 67.50945 199.95643 87.84500
#
# Poissons Ratio (x) = 0.25407 0.23620
# Poissons Ratio (y) = 0.08578 0.10181
# Poissons Ratio (z) = 0.18152 0.23175
#
# Static dielectric constant tensor:
#      x y z
#    x 2.106010 0.000000 0.000000 
#    y 0.000000 2.074940 0.000000 
#    z 0.000000 0.000000 2.129820 
# 
# From -- ./inp_files/5262.got.cif
#   From: 2010.05.17/outbox.cif.g08.bks.cpg/sg48_3_cif.got.tgz:5262.got - 2010.06.03 20:39:00.
