data_PCOD9390694
_publ_section_title
;
Structure prediction by ZEFSAII (Michael W. Deem and Ramdas Pophale) SiO2 
 PCOD9390694
Probable space group: P N N N
;
_chemical_formula_sum "Si O2"
_cell_formula_units_Z 48
_cell_length_a 9.371944
_cell_length_b 7.394428
_cell_length_c 28.531101
_cell_angle_alpha 90.000000
_cell_angle_beta 90.000000
_cell_angle_gamma 90.000000
_cell_volume 1977.210011
_symmetry_space_group_name_H-M "P N N N"
_symmetry_group_IT_number 48
_space_group.IT_coordinate_system_code '2'
_symmetry_cell_setting 'orthorhombic'
loop_
_space_group_symop_operation_xyz
x,y,z
1/2-x,1/2-y,z
x,1/2-y,1/2-z
1/2-x,y,1/2-z
-x,-y,-z
1/2+x,1/2+y,-z
-x,1/2+y,1/2+z
1/2+x,-y,1/2+z
loop_
_atom_site_type_symbol
_atom_site_label
_atom_site_fract_x
_atom_site_fract_y
_atom_site_fract_z
Si Si1 0.241672 0.008632 0.005531
Si Si2 0.589264 0.528738 0.744327
Si Si3 0.491500 0.138992 0.569478
Si Si4 0.009701 0.569886 0.943038
Si Si5 0.604987 0.992265 0.328950
Si Si6 0.085765 0.588992 0.839715
O O1 0.362177 0.127826 0.033138
O O2 0.135809 0.933389 0.045089
O O3 0.141149 0.077298 0.963325
O O4 0.359738 0.886603 0.977583
O O5 0.593369 0.750000 0.750000
O O6 0.750000 0.465309 0.750000
O O7 0.483290 0.439272 0.782632
O O8 0.534186 0.498390 0.691782
O O9 0.494514 0.355115 0.566786
O O10 0.468643 0.071236 0.622625
O O11 0.041220 0.639935 0.892153
O O12 0.774705 0.962719 0.335866
O O13 0.608377 0.209208 0.321098
#
# Coordination Sequence:
#
# PCOD9390694 Si02
#       6
#     8   8   8   8   8   8
#     4  10  24  40  58  86 122 164 200 246 298 362
#     4   9  19  37  60  87 120 156 199 246 298 359
#     4  11  23  41  63  89 122 161 203 251 303 357
#     4  11  23  41  63  89 122 161 203 251 303 357
#     4  10  21  37  60  89 121 158 199 246 299 358
#     4  10  21  37  60  89 121 158 199 246 299 358
#
# _framework density 24.276631999999999
#
# number of rings (size 3 to 8) (size 9 to 14) (size 15 to 20)
#    0.000    1.833    1.667    1.500    2.333   10.000 
#    0.000    0.833    0.000    3.000    0.000    0.000 
#    0.000    0.000    0.000    0.000    0.000    0.000 
#
# Total GULP energy -268036.486765 kJ/mol
# GULP energy per Si atom -5584.093474 kJ/mol
# Density = 2.422138 g / cm^3
# Si number density = 24.276632 Si / 1000 Ang^3
#
#
#
# Elastic Constant Matrix: (Units=GPa)
#
#
# Indices 1 2 3 4 5 6 
#
# 1 182.0077 -6.4390 66.2338 0.0000 0.0000 0.0000
# 2 -6.4390 62.1091 -30.2216 0.0000 0.0000 0.0000
# 3 66.2338 -30.2216 119.3468 0.0000 0.0000 0.0000
# 4 0.0000 0.0000 0.0000 25.4222 0.0000 0.0000
# 5 0.0000 0.0000 0.0000 0.0000 32.4684 0.0000
# 6 0.0000 0.0000 0.0000 0.0000 0.0000 19.1644
#
#
#
# Elastic Compliance Matrix: (Units=1/GPa)
#
#
# Indices 1 2 3 4 5 6 
#
# 1 0.006979 -0.001324 -0.004208 0.000000 0.000000 0.000000
# 2 -0.001324 0.018615 0.005449 0.000000 0.000000 0.000000
# 3 -0.004208 0.005449 0.012094 0.000000 0.000000 0.000000
# 4 0.000000 0.000000 0.000000 0.039336 0.000000 0.000000
# 5 0.000000 0.000000 0.000000 0.000000 0.030799 0.000000
# 6 0.000000 0.000000 0.000000 0.000000 0.000000 0.052180
#
#
# Mechanical properties :
#
#
# Convention : Reuss Voigt Hill
#
# Bulk Modulus (GPa) = 26.65270 46.95668 36.80469
# Shear Modulus (GPa) = 28.95570 37.67032 33.31301
#
# Velocity S-wave (km/s) = 3.45735 3.94345 3.70837
# Velocity P-wave (km/s) = 5.19040 6.33393 5.79047
#
# Compressibility (1/GPa) = 0.03751966
#
# Stress axis : x y z
#
# Youngs Moduli (GPa) = 143.28917 53.72113 82.68421
#
# Poissons Ratio (x) = 0.07114 0.34797
# Poissons Ratio (y) = 0.18975 -0.45051
# Poissons Ratio (z) = 0.60302 -0.29271
#
# Static dielectric constant tensor:
#      x y z
#    x 1.967040 0.000000 0.000000 
#    y 0.000000 2.115040 0.000000 
#    z 0.000000 0.000000 1.902760 
# 
# From -- ./inp_files/9467.got.cif
#   From: 2010.05.17/outbox.cif.g08.bks.cpg/sg48_5_cif.got.tgz:9467.got - 2010.06.03 20:39:00.
