data_PCOD9390939
_publ_section_title
;
Structure prediction by ZEFSAII (Michael W. Deem and Ramdas Pophale) SiO2 
 PCOD9390939
Probable space group: P N N N
;
_chemical_formula_sum "Si O2"
_cell_formula_units_Z 32
_cell_length_a 8.916745
_cell_length_b 29.444490
_cell_length_c 5.032950
_cell_angle_alpha 90.000000
_cell_angle_beta 90.000000
_cell_angle_gamma 90.000000
_cell_volume 1321.396035
_symmetry_space_group_name_H-M "P N N N"
_symmetry_group_IT_number 48
_space_group.IT_coordinate_system_code '2'
_symmetry_cell_setting 'orthorhombic'
loop_
_space_group_symop_operation_xyz
x,y,z
1/2-x,1/2-y,z
x,1/2-y,1/2-z
1/2-x,y,1/2-z
-x,-y,-z
1/2+x,1/2+y,-z
-x,1/2+y,1/2+z
1/2+x,-y,1/2+z
loop_
_atom_site_type_symbol
_atom_site_label
_atom_site_fract_x
_atom_site_fract_y
_atom_site_fract_z
Si Si1 0.500937 0.872283 0.583897
Si Si2 0.750000 0.750000 0.250000
Si Si3 0.750000 0.604626 0.250000
Si Si4 0.530307 0.188343 0.910743
Si Si5 0.083745 0.457968 0.131999
Si Si6 0.250000 0.750000 0.750000
O O1 0.670528 0.868387 0.479982
O O2 0.425274 0.840035 0.357419
O O3 0.490349 0.926746 0.656125
O O4 0.478906 0.849224 0.862427
O O5 0.627029 0.783844 0.114005
O O6 0.624510 0.574267 0.385454
O O7 0.645941 0.222720 0.044541
O O8 0.250000 0.469658 0.250000
O O9 0.000000 0.500000 0.000000
#
# Coordination Sequence:
#
# PCOD9390939 Si02
#       6
#     8   2   4   8   8   2
#     4  11  24  43  77 110 149 208 259 330 379 489
#     4  12  30  44  88 118 142 208 272 346 364 518
#     4  10  21  42  75 111 150 202 254 338 384 455
#     4  12  28  50  78 113 160 204 281 320 423 468
#     4  10  23  44  76 117 160 204 259 329 404 475
#     4  12  32  56  74 118 174 224 244 364 420 492
#
# _framework density 24.216811
#
# number of rings (size 3 to 8) (size 9 to 14) (size 15 to 20)
#    0.000    1.000    2.500    2.250    7.000   14.000 
#    0.000    3.750    0.000    0.000    0.000    0.000 
#    0.000    0.000    0.000    0.000    0.000    0.000 
#
# Total GULP energy -178329.945971 kJ/mol
# GULP energy per Si atom -5572.810812 kJ/mol
# Density = 2.416169 g / cm^3
# Si number density = 24.216811 Si / 1000 Ang^3
#
#
#
# Elastic Constant Matrix: (Units=GPa)
#
#
# Indices 1 2 3 4 5 6 
#
# 1 114.1748 88.6698 46.0333 0.0000 0.0000 0.0000
# 2 88.6698 160.4912 70.6164 0.0000 0.0000 0.0000
# 3 46.0333 70.6164 166.8315 0.0000 0.0000 0.0000
# 4 0.0000 0.0000 0.0000 22.6424 0.0000 0.0000
# 5 0.0000 0.0000 0.0000 0.0000 34.0465 0.0000
# 6 0.0000 0.0000 0.0000 0.0000 0.0000 -13.2873
#
#
#
# Elastic Compliance Matrix: (Units=1/GPa)
#
#
# Indices 1 2 3 4 5 6 
#
# 1 0.015427 -0.008172 -0.000798 0.000000 0.000000 0.000000
# 2 -0.008172 0.011986 -0.002819 0.000000 0.000000 0.000000
# 3 -0.000798 -0.002819 0.007407 0.000000 0.000000 0.000000
# 4 0.000000 0.000000 0.000000 0.044165 0.000000 0.000000
# 5 0.000000 0.000000 0.000000 0.000000 0.029372 0.000000
# 6 0.000000 0.000000 0.000000 0.000000 0.000000 -0.075260
#
#
# Mechanical properties :
#
#
# Convention : Reuss Voigt Hill
#
# Bulk Modulus (GPa) = 88.94071 94.68183 91.81127
# Shear Modulus (GPa) = 82.75272 24.42554 53.58913
#
# Velocity S-wave (km/s) = 5.85199 3.17932 4.70924
# Velocity P-wave (km/s) = 9.08117 7.25671 8.21972
#
# Compressibility (1/GPa) = 0.01124344
#
# Stress axis : x y z
#
# Youngs Moduli (GPa) = 64.82284 83.43020 135.00454
#
# Poissons Ratio (x) = 0.68181 0.10767
# Poissons Ratio (y) = 0.52974 0.38052
# Poissons Ratio (z) = 0.05170 0.23515
#
# Static dielectric constant tensor:
#      x y z
#    x 2.016620 0.000000 0.000000 
#    y 0.000000 2.056060 0.000000 
#    z 0.000000 0.000000 1.710270 
# 
# From -- ./inp_files/1191.got.cif
#   From: 2010.05.17/outbox.cif.g08.bks.cpg/sg48_1_cif.got.tgz:1191.got - 2010.06.03 20:39:00.
