data_PCOD9390588
_publ_section_title
;
Structure prediction by ZEFSAII (Michael W. Deem and Ramdas Pophale) SiO2 
 PCOD9390588
Probable space group: P N N N
;
_chemical_formula_sum "Si O2"
_cell_formula_units_Z 54
_cell_length_a 10.967502
_cell_length_b 13.405673
_cell_length_c 14.866729
_cell_angle_alpha 90.000000
_cell_angle_beta 90.000000
_cell_angle_gamma 90.000000
_cell_volume 2185.806780
_symmetry_space_group_name_H-M "P N N N"
_symmetry_group_IT_number 48
_space_group.IT_coordinate_system_code '2'
_symmetry_cell_setting 'orthorhombic'
loop_
_space_group_symop_operation_xyz
x,y,z
1/2-x,1/2-y,z
x,1/2-y,1/2-z
1/2-x,y,1/2-z
-x,-y,-z
1/2+x,1/2+y,-z
-x,1/2+y,1/2+z
1/2+x,-y,1/2+z
loop_
_atom_site_type_symbol
_atom_site_label
_atom_site_fract_x
_atom_site_fract_y
_atom_site_fract_z
Si Si1 0.224571 0.422585 0.844354
Si Si2 0.750000 0.250000 0.750000
Si Si3 0.750000 0.750000 0.008834
Si Si4 0.132811 0.905273 0.109802
Si Si5 0.982041 0.232905 0.020052
Si Si6 0.473282 0.018701 0.226186
Si Si7 0.610503 0.442568 0.551951
Si Si8 0.356539 0.866012 0.682411
O O1 0.250000 0.367856 0.750000
O O2 0.235707 0.347525 0.926738
O O3 0.311598 0.521139 0.848650
O O4 0.087612 0.460947 0.822292
O O5 0.823057 0.179247 0.818518
O O6 0.623403 0.745606 0.955169
O O7 0.027038 0.858265 0.049553
O O8 0.077720 0.984773 0.177879
O O9 0.242173 0.934132 0.041005
O O10 0.932103 0.329228 0.966388
O O11 0.893327 0.204664 0.101540
O O12 0.378762 0.996508 0.148968
O O13 0.528213 0.124211 0.250548
O O14 0.500000 0.500000 0.500000
O O15 0.250000 0.841672 0.750000
#
# Coordination Sequence:
#
# PCOD9390588 Si02
#       8
#     8   2   4   8   8   8   8   8
#     4   9  19  36  60 100 146 195 243 305 376 461
#     4  12  20  40  64 106 134 182 244 312 386 472
#     4  12  23  36  64 110 153 192 242 310 394 446
#     4  12  23  41  71 102 148 192 253 313 397 463
#     4  12  25  43  68 108 149 197 250 323 382 475
#     4  10  20  43  67 100 140 190 237 315 378 461
#     4  12  26  43  69 100 147 190 253 323 391 452
#     4   9  23  44  72 103 148 201 267 306 390 468
#
# _framework density 24.704837000000001
#
# number of rings (size 3 to 8) (size 9 to 14) (size 15 to 20)
#    0.000    1.481    4.444    2.000    4.148    3.556 
#    0.000    0.741    0.000    0.000    0.000    3.111 
#    0.000    0.000    0.000    0.000    0.000    0.000 
#
# Total GULP energy -300928.164936 kJ/mol
# GULP energy per Si atom -5572.743795 kJ/mol
# Density = 2.464861 g / cm^3
# Si number density = 24.704837 Si / 1000 Ang^3
#
#
#
# Elastic Constant Matrix: (Units=GPa)
#
#
# Indices 1 2 3 4 5 6 
#
# 1 140.8812 24.1048 34.8147 0.0000 0.0000 0.0000
# 2 24.1048 87.7630 37.1347 0.0000 0.0000 0.0000
# 3 34.8147 37.1347 128.0969 0.0000 0.0000 0.0000
# 4 0.0000 0.0000 0.0000 29.1617 0.0000 0.0000
# 5 0.0000 0.0000 0.0000 0.0000 35.9627 0.0000
# 6 0.0000 0.0000 0.0000 0.0000 0.0000 -17.9022
#
#
#
# Elastic Compliance Matrix: (Units=1/GPa)
#
#
# Indices 1 2 3 4 5 6 
#
# 1 0.007760 -0.001412 -0.001700 0.000000 0.000000 0.000000
# 2 -0.001412 0.013244 -0.003456 0.000000 0.000000 0.000000
# 3 -0.001700 -0.003456 0.009270 0.000000 0.000000 0.000000
# 4 0.000000 0.000000 0.000000 0.034291 0.000000 0.000000
# 5 0.000000 0.000000 0.000000 0.000000 0.027807 0.000000
# 6 0.000000 0.000000 0.000000 0.000000 0.000000 -0.055859
#
#
# Mechanical properties :
#
#
# Convention : Reuss Voigt Hill
#
# Bulk Modulus (GPa) = 58.34441 60.98325 59.66383
# Shear Modulus (GPa) = 90.31515 26.82357 58.56936
#
# Velocity S-wave (km/s) = 6.05285 3.29866 4.87433
# Velocity P-wave (km/s) = 8.51571 6.26471 7.47542
#
# Compressibility (1/GPa) = 0.01713960
#
# Stress axis : x y z
#
# Youngs Moduli (GPa) = 128.86919 75.50381 107.87134
#
# Poissons Ratio (x) = 0.10662 0.18334
# Poissons Ratio (y) = 0.18198 0.37277
# Poissons Ratio (z) = 0.21903 0.26092
#
# Static dielectric constant tensor:
#      x y z
#    x 2.176070 0.000000 0.000000 
#    y 0.000000 2.006420 0.000000 
#    z 0.000000 0.000000 2.133930 
# 
# From -- ./inp_files/26554.got.cif
#   From: 2010.05.17/outbox.cif.g08.bks.cpg/sg48_14_cif.got.tgz:26554.got - 2010.06.03 20:39:00.
