data_PCOD9390904
_publ_section_title
;
Structure prediction by ZEFSAII (Michael W. Deem and Ramdas Pophale) SiO2 
 PCOD9390904
Probable space group: P N N N
;
_chemical_formula_sum "Si O2"
_cell_formula_units_Z 34
_cell_length_a 11.631903
_cell_length_b 8.582408
_cell_length_c 16.944132
_cell_angle_alpha 90.000000
_cell_angle_beta 90.000000
_cell_angle_gamma 90.000000
_cell_volume 1691.528247
_symmetry_space_group_name_H-M "P N N N"
_symmetry_group_IT_number 48
_space_group.IT_coordinate_system_code '2'
_symmetry_cell_setting 'orthorhombic'
loop_
_space_group_symop_operation_xyz
x,y,z
1/2-x,1/2-y,z
x,1/2-y,1/2-z
1/2-x,y,1/2-z
-x,-y,-z
1/2+x,1/2+y,-z
-x,1/2+y,1/2+z
1/2+x,-y,1/2+z
loop_
_atom_site_type_symbol
_atom_site_label
_atom_site_fract_x
_atom_site_fract_y
_atom_site_fract_z
Si Si1 0.384530 0.914008 0.026419
Si Si2 0.244372 0.084602 0.899206
Si Si3 0.766929 0.934633 0.838406
Si Si4 0.750000 0.750000 0.250000
Si Si5 0.518209 0.419029 0.917082
O O1 0.424152 0.745670 0.058518
O O2 0.321794 0.993177 0.099872
O O3 0.500000 0.000000 0.000000
O O4 0.298519 0.946970 0.951347
O O5 0.250000 0.250000 0.947475
O O6 0.304831 0.130918 0.815576
O O7 0.109199 0.073664 0.880048
O O8 0.750000 0.750000 0.838794
O O9 0.750000 0.994412 0.750000
O O10 0.892716 0.984481 0.865969
O O11 0.500000 0.500000 0.000000
#
# Coordination Sequence:
#
# PCOD9390904 Si02
#       5
#     8   8   8   2   8
#     4  12  22  40  70  98 132 182 221 279 342 406
#     4  10  21  41  66  97 135 170 225 275 338 404
#     4  11  26  46  66  99 142 178 230 290 338 397
#     4   8  20  40  64 102 132 168 214 284 324 418
#     4  12  24  40  69  99 136 179 227 274 339 411
#
# _framework density 20.100165000000001
#
# number of rings (size 3 to 8) (size 9 to 14) (size 15 to 20)
#    0.706    0.235    4.706    2.824    0.000    5.647 
#    0.000    0.000    0.000    1.412    0.000    0.000 
#    0.000    0.000    0.000    0.000    0.000    0.000 
#
# Total GULP energy -189277.005332 kJ/mol
# GULP energy per Si atom -5566.970745 kJ/mol
# Density = 2.005442 g / cm^3
# Si number density = 20.100165 Si / 1000 Ang^3
#
#
#
# Elastic Constant Matrix: (Units=GPa)
#
#
# Indices 1 2 3 4 5 6 
#
# 1 159.9454 42.2043 51.7911 0.0000 0.0000 0.0000
# 2 42.2043 69.1269 21.9699 0.0000 0.0000 0.0000
# 3 51.7911 21.9699 145.9154 0.0000 0.0000 0.0000
# 4 0.0000 0.0000 0.0000 9.9226 0.0000 0.0000
# 5 0.0000 0.0000 0.0000 0.0000 21.6179 0.0000
# 6 0.0000 0.0000 0.0000 0.0000 0.0000 34.6388
#
#
#
# Elastic Compliance Matrix: (Units=1/GPa)
#
#
# Indices 1 2 3 4 5 6 
#
# 1 0.008092 -0.004230 -0.002235 0.000000 0.000000 0.000000
# 2 -0.004230 0.017404 -0.001119 0.000000 0.000000 0.000000
# 3 -0.002235 -0.001119 0.007815 0.000000 0.000000 0.000000
# 4 0.000000 0.000000 0.000000 0.100780 0.000000 0.000000
# 5 0.000000 0.000000 0.000000 0.000000 0.046258 0.000000
# 6 0.000000 0.000000 0.000000 0.000000 0.000000 0.028869
#
#
# Mechanical properties :
#
#
# Convention : Reuss Voigt Hill
#
# Bulk Modulus (GPa) = 55.11840 67.43534 61.27687
# Shear Modulus (GPa) = 21.69806 30.50403 26.10104
#
# Velocity S-wave (km/s) = 3.28913 3.89987 3.60745
# Velocity P-wave (km/s) = 6.47348 7.34174 6.92124
#
# Compressibility (1/GPa) = 0.01814276
#
# Stress axis : x y z
#
# Youngs Moduli (GPa) = 123.57711 57.45670 127.95609
#
# Poissons Ratio (x) = 0.24305 0.28602
# Poissons Ratio (y) = 0.52274 0.14319
# Poissons Ratio (z) = 0.27623 0.06430
#
# Static dielectric constant tensor:
#      x y z
#    x 1.874310 0.000000 0.000000 
#    y 0.000000 1.749800 0.000000 
#    z 0.000000 0.000000 1.718820 
# 
# From -- ./inp_files/30810.got.cif
#   From: 2010.05.17/outbox.cif.g08.bks.cpg/sg48_16_cif.got.tgz:30810.got - 2010.06.03 20:39:00.
