data_PCOD9390252
_publ_section_title
;
Structure prediction by ZEFSAII (Michael W. Deem and Ramdas Pophale) SiO2 
 PCOD9390252
Probable space group: P N N N
;
_chemical_formula_sum "Si O2"
_cell_formula_units_Z 56
_cell_length_a 17.166908
_cell_length_b 11.901052
_cell_length_c 13.878855
_cell_angle_alpha 90.000000
_cell_angle_beta 90.000000
_cell_angle_gamma 90.000000
_cell_volume 2835.509267
_symmetry_space_group_name_H-M "P N N N"
_symmetry_group_IT_number 48
_space_group.IT_coordinate_system_code '2'
_symmetry_cell_setting 'orthorhombic'
loop_
_space_group_symop_operation_xyz
x,y,z
1/2-x,1/2-y,z
x,1/2-y,1/2-z
1/2-x,y,1/2-z
-x,-y,-z
1/2+x,1/2+y,-z
-x,1/2+y,1/2+z
1/2+x,-y,1/2+z
loop_
_atom_site_type_symbol
_atom_site_label
_atom_site_fract_x
_atom_site_fract_y
_atom_site_fract_z
Si Si1 0.251166 0.532894 0.523237
Si Si2 0.488072 0.515264 0.842186
Si Si3 0.526816 0.924526 0.144674
Si Si4 0.398627 0.104621 0.488358
Si Si5 0.650777 0.179026 0.344157
Si Si6 0.092327 0.631714 0.985583
Si Si7 0.173806 0.193772 0.603544
O O1 0.169925 0.489397 0.478674
O O2 0.224095 0.615792 0.608902
O O3 0.323133 0.594726 0.472217
O O4 0.291358 0.419465 0.559266
O O5 0.514361 0.457284 0.743973
O O6 0.456726 0.430897 0.924670
O O7 0.411434 0.585048 0.814758
O O8 0.551254 0.596520 0.891537
O O9 0.601603 0.846945 0.166858
O O10 0.558435 0.035582 0.087364
O O11 0.470067 0.861257 0.070580
O O12 0.359705 0.221316 0.521802
O O13 0.667135 0.250000 0.250000
O O14 0.609518 0.256644 0.424878
O O15 0.250000 0.250000 0.648464
#
# Coordination Sequence:
#
# PCOD9390252 Si02
#       7
#     8   8   8   8   8   8   8
#     4   9  20  35  54  82 113 152 195 244 305 362
#     4  10  20  36  57  87 112 152 202 248 299 367
#     4  10  20  35  54  82 115 150 199 245 301 365
#     4   9  19  37  59  79 115 153 197 251 297 362
#     4  11  20  35  56  85 117 154 197 248 310 378
#     4  10  20  35  53  79 117 155 188 246 305 365
#     4   9  18  37  57  81 115 159 192 242 300 367
#
# _framework density 19.749538000000001
#
# number of rings (size 3 to 8) (size 9 to 14) (size 15 to 20)
#    0.000    2.286    1.429    1.286    0.000    1.714 
#    2.571    6.429    0.000    0.000    0.000    7.000 
#    0.000    0.000    0.000    0.000    0.000    0.000 
#
# Total GULP energy -312184.178276 kJ/mol
# GULP energy per Si atom -5574.717469 kJ/mol
# Density = 1.970459 g / cm^3
# Si number density = 19.749538 Si / 1000 Ang^3
#
#
#
# Elastic Constant Matrix: (Units=GPa)
#
#
# Indices 1 2 3 4 5 6 
#
# 1 76.5835 22.4130 39.0555 0.0000 0.0000 0.0000
# 2 22.4130 75.1292 27.2133 0.0000 0.0000 0.0000
# 3 39.0555 27.2133 88.0430 0.0000 0.0000 0.0000
# 4 0.0000 0.0000 0.0000 5.7757 0.0000 0.0000
# 5 0.0000 0.0000 0.0000 0.0000 -1.2224 0.0000
# 6 0.0000 0.0000 0.0000 0.0000 0.0000 36.9548
#
#
#
# Elastic Compliance Matrix: (Units=1/GPa)
#
#
# Indices 1 2 3 4 5 6 
#
# 1 0.017344 -0.002688 -0.006863 0.000000 0.000000 0.000000
# 2 -0.002688 0.015405 -0.003569 0.000000 0.000000 0.000000
# 3 -0.006863 -0.003569 0.015506 0.000000 0.000000 0.000000
# 4 0.000000 0.000000 0.000000 0.173140 0.000000 0.000000
# 5 0.000000 0.000000 0.000000 0.000000 -0.818031 0.000000
# 6 0.000000 0.000000 0.000000 0.000000 0.000000 0.027060
#
#
# Mechanical properties :
#
#
# Convention : Reuss Voigt Hill
#
# Bulk Modulus (GPa) = 45.42473 46.34657 45.88565
# Shear Modulus (GPa) = -9.32840 18.37321 4.52240
#
# Velocity S-wave (km/s) = -2.17569 3.05341 1.51488
# Velocity P-wave (km/s) = 4.09131 5.99576 5.13264
#
# Compressibility (1/GPa) = 0.02201444
#
# Stress axis : x y z
#
# Youngs Moduli (GPa) = 57.65575 64.91313 64.49281
#
# Poissons Ratio (x) = 0.17451 0.44261
# Poissons Ratio (y) = 0.15500 0.23018
# Poissons Ratio (z) = 0.39569 0.23168
#
# Static dielectric constant tensor:
#      x y z
#    x 1.752320 0.000000 0.000000 
#    y 0.000000 1.748730 0.000000 
#    z 0.000000 0.000000 1.650340 
# 
# From -- ./inp_files/27313.got.cif
#   From: 2010.05.17/outbox.cif.g08.bks.cpg/sg48_14_cif.got.tgz:27313.got - 2010.06.03 20:39:00.
