data_PCOD9390561
_publ_section_title
;
Structure prediction by ZEFSAII (Michael W. Deem and Ramdas Pophale) SiO2 
 PCOD9390561
Probable space group: P N N N
;
_chemical_formula_sum "Si O2"
_cell_formula_units_Z 44
_cell_length_a 6.450771
_cell_length_b 25.439023
_cell_length_c 14.372203
_cell_angle_alpha 90.000000
_cell_angle_beta 90.000000
_cell_angle_gamma 90.000000
_cell_volume 2358.497366
_symmetry_space_group_name_H-M "P N N N"
_symmetry_group_IT_number 48
_space_group.IT_coordinate_system_code '2'
_symmetry_cell_setting 'orthorhombic'
loop_
_space_group_symop_operation_xyz
x,y,z
1/2-x,1/2-y,z
x,1/2-y,1/2-z
1/2-x,y,1/2-z
-x,-y,-z
1/2+x,1/2+y,-z
-x,1/2+y,1/2+z
1/2+x,-y,1/2+z
loop_
_atom_site_type_symbol
_atom_site_label
_atom_site_fract_x
_atom_site_fract_y
_atom_site_fract_z
Si Si1 0.486846 0.937713 0.997933
Si Si2 0.231117 0.367595 0.141398
Si Si3 0.575125 0.283158 0.434811
Si Si4 0.888937 0.129873 0.002230
Si Si5 0.750000 0.750000 0.424752
Si Si6 0.747883 0.867424 0.358405
O O1 0.605906 0.914218 0.908642
O O2 0.246302 0.922526 0.990924
O O3 0.595663 0.905115 0.083312
O O4 0.500000 0.000000 0.000000
O O5 0.250000 0.375885 0.250000
O O6 0.449216 0.363568 0.087175
O O7 0.094515 0.315177 0.122771
O O8 0.750000 0.250000 0.381594
O O9 0.710698 0.325853 0.491324
O O10 0.448099 0.247046 0.506824
O O11 0.025733 0.127594 0.909316
O O12 0.788024 0.804431 0.370784
O O13 0.750000 0.880527 0.250000
#
# Coordination Sequence:
#
# PCOD9390561 Si02
#       6
#     8   8   8   8   4   8
#     4  10  23  45  65  92 127 170 211 263 335 380
#     4  10  22  41  63  93 125 161 221 268 315 387
#     4  11  19  36  64  85 124 176 207 252 325 379
#     4  10  20  41  65  82 131 164 200 269 317 374
#     4  12  19  40  61  90 132 170 207 266 319 390
#     4  11  23  39  64  99 129 162 219 260 314 396
#
# _framework density 18.655947999999999
#
# number of rings (size 3 to 8) (size 9 to 14) (size 15 to 20)
#    0.000    1.455    7.273    0.273    0.000    6.545 
#    6.545    6.818    0.000    0.000    0.000    0.000 
#    0.000    0.000    0.000    0.000    0.000    0.000 
#
# Total GULP energy -245225.241759 kJ/mol
# GULP energy per Si atom -5573.300949 kJ/mol
# Density = 1.861349 g / cm^3
# Si number density = 18.655948 Si / 1000 Ang^3
#
#
#
# Elastic Constant Matrix: (Units=GPa)
#
#
# Indices 1 2 3 4 5 6 
#
# 1 119.8123 41.2732 58.7035 0.0000 0.0000 0.0000
# 2 41.2732 122.8728 44.0388 0.0000 0.0000 0.0000
# 3 58.7035 44.0388 169.2139 0.0000 0.0000 0.0000
# 4 0.0000 0.0000 0.0000 10.0057 0.0000 0.0000
# 5 0.0000 0.0000 0.0000 0.0000 5.4599 0.0000
# 6 0.0000 0.0000 0.0000 0.0000 0.0000 27.9388
#
#
#
# Elastic Compliance Matrix: (Units=1/GPa)
#
#
# Indices 1 2 3 4 5 6 
#
# 1 0.010709 -0.002499 -0.003065 0.000000 0.000000 0.000000
# 2 -0.002499 0.009559 -0.001621 0.000000 0.000000 0.000000
# 3 -0.003065 -0.001621 0.007395 0.000000 0.000000 0.000000
# 4 0.000000 0.000000 0.000000 0.099943 0.000000 0.000000
# 5 0.000000 0.000000 0.000000 0.000000 0.183155 0.000000
# 6 0.000000 0.000000 0.000000 0.000000 0.000000 0.035793
#
#
# Mechanical properties :
#
#
# Convention : Reuss Voigt Hill
#
# Bulk Modulus (GPa) = 75.22402 77.77000 76.49701
# Shear Modulus (GPa) = 13.68542 26.53977 20.11259
#
# Velocity S-wave (km/s) = 2.71139 3.77582 3.28697
# Velocity P-wave (km/s) = 7.08600 7.79654 7.44974
#
# Compressibility (1/GPa) = 0.01329363
#
# Stress axis : x y z
#
# Youngs Moduli (GPa) = 93.38152 104.61631 135.23094
#
# Poissons Ratio (x) = 0.26140 0.41445
# Poissons Ratio (y) = 0.23333 0.21919
# Poissons Ratio (z) = 0.28619 0.16957
#
# Static dielectric constant tensor:
#      x y z
#    x 1.664330 0.000000 0.000000 
#    y 0.000000 1.728670 0.000000 
#    z 0.000000 0.000000 1.624610 
# 
# From -- ./inp_files/24374.got.cif
#   From: 2010.05.17/outbox.cif.g08.bks.cpg/sg48_13_cif.got.tgz:24374.got - 2010.06.03 20:39:00.
