data_PCOD9390027
_publ_section_title
;
Structure prediction by ZEFSAII (Michael W. Deem and Ramdas Pophale) SiO2 
 PCOD9390027
Probable space group: P N N N
;
_chemical_formula_sum "Si O2"
_cell_formula_units_Z 56
_cell_length_a 9.004581
_cell_length_b 16.080674
_cell_length_c 17.806447
_cell_angle_alpha 90.000000
_cell_angle_beta 90.000000
_cell_angle_gamma 90.000000
_cell_volume 2578.368746
_symmetry_space_group_name_H-M "P N N N"
_symmetry_group_IT_number 48
_space_group.IT_coordinate_system_code '2'
_symmetry_cell_setting 'orthorhombic'
loop_
_space_group_symop_operation_xyz
x,y,z
1/2-x,1/2-y,z
x,1/2-y,1/2-z
1/2-x,y,1/2-z
-x,-y,-z
1/2+x,1/2+y,-z
-x,1/2+y,1/2+z
1/2+x,-y,1/2+z
loop_
_atom_site_type_symbol
_atom_site_label
_atom_site_fract_x
_atom_site_fract_y
_atom_site_fract_z
Si Si1 0.276817 0.364749 0.081527
Si Si2 0.538506 0.324229 0.475251
Si Si3 0.349928 0.624043 0.679972
Si Si4 0.493356 0.339161 0.943339
Si Si5 0.651012 0.980528 0.371127
Si Si6 0.603283 0.922952 0.719418
Si Si7 0.242772 0.543228 0.031834
O O1 0.408993 0.356649 0.021888
O O2 0.342413 0.350548 0.163230
O O3 0.130506 0.319504 0.053142
O O4 0.226747 0.461516 0.080589
O O5 0.640722 0.325671 0.398908
O O6 0.545853 0.254990 0.540585
O O7 0.589587 0.410977 0.512416
O O8 0.250000 0.656023 0.750000
O O9 0.290365 0.529078 0.665841
O O10 0.513692 0.615753 0.712085
O O11 0.643221 0.391229 0.933772
O O12 0.380129 0.381514 0.882165
O O13 0.511427 0.020964 0.328023
O O14 0.673248 0.013594 0.455856
O O15 0.750000 0.967216 0.750000
#
# Coordination Sequence:
#
# PCOD9390027 Si02
#       7
#     8   8   8   8   8   8   8
#     4  11  20  36  57  84 119 152 202 242 300 354
#     4  11  22  34  55  90 124 149 197 251 310 355
#     4   9  20  35  57  84 121 166 202 234 284 366
#     4  11  20  36  58  82 118 161 190 255 307 349
#     4   9  18  36  58  82 112 153 208 244 288 349
#     4  11  18  33  60  84 116 152 205 237 286 346
#     4  10  19  36  58  79 115 158 201 254 286 351
#
# _framework density 21.719158
#
# number of rings (size 3 to 8) (size 9 to 14) (size 15 to 20)
#    0.000    1.714    4.286    2.143    0.000    0.000 
#    0.000    0.714    3.143    0.000    0.000    2.000 
#    8.571    0.000    0.000    0.000    0.000    0.000 
#
# Total GULP energy -311755.109419 kJ/mol
# GULP energy per Si atom -5567.055525 kJ/mol
# Density = 2.166972 g / cm^3
# Si number density = 21.719158 Si / 1000 Ang^3
#
#
#
# Elastic Constant Matrix: (Units=GPa)
#
#
# Indices 1 2 3 4 5 6 
#
# 1 80.2341 11.4923 2.1516 0.0000 0.0000 0.0000
# 2 11.4923 94.6313 7.1980 0.0000 0.0000 0.0000
# 3 2.1516 7.1980 31.0664 0.0000 0.0000 0.0000
# 4 0.0000 0.0000 0.0000 19.7399 0.0000 0.0000
# 5 0.0000 0.0000 0.0000 0.0000 25.5587 0.0000
# 6 0.0000 0.0000 0.0000 0.0000 0.0000 27.4894
#
#
#
# Elastic Compliance Matrix: (Units=1/GPa)
#
#
# Indices 1 2 3 4 5 6 
#
# 1 0.012693 -0.001501 -0.000531 0.000000 0.000000 0.000000
# 2 -0.001501 0.010934 -0.002429 0.000000 0.000000 0.000000
# 3 -0.000531 -0.002429 0.032789 0.000000 0.000000 0.000000
# 4 0.000000 0.000000 0.000000 0.050659 0.000000 0.000000
# 5 0.000000 0.000000 0.000000 0.000000 0.039126 0.000000
# 6 0.000000 0.000000 0.000000 0.000000 0.000000 0.036378
#
#
# Mechanical properties :
#
#
# Convention : Reuss Voigt Hill
#
# Bulk Modulus (GPa) = 21.05604 27.51285 24.28444
# Shear Modulus (GPa) = 24.11583 26.89692 25.50638
#
# Velocity S-wave (km/s) = 3.33580 3.52290 3.43063
# Velocity P-wave (km/s) = 4.95505 5.40766 5.18630
#
# Compressibility (1/GPa) = 0.04749232
#
# Stress axis : x y z
#
# Youngs Moduli (GPa) = 78.78495 91.45440 30.49821
#
# Poissons Ratio (x) = 0.13728 0.01620
# Poissons Ratio (y) = 0.11826 0.07410
# Poissons Ratio (z) = 0.04186 0.22219
#
# Static dielectric constant tensor:
#      x y z
#    x 1.852680 0.000000 0.000000 
#    y 0.000000 1.870640 0.000000 
#    z 0.000000 0.000000 1.821050 
# 
# From -- ./inp_files/28359.got.cif
#   From: 2010.05.17/outbox.cif.g08.bks.cpg/sg48_15_cif.got.tgz:28359.got - 2010.06.03 20:39:00.
