data_PCOD9390050
_publ_section_title
;
Structure prediction by ZEFSAII (Michael W. Deem and Ramdas Pophale) SiO2 
 PCOD9390050
Probable space group: P N N N
;
_chemical_formula_sum "Si O2"
_cell_formula_units_Z 48
_cell_length_a 17.676443
_cell_length_b 9.211493
_cell_length_c 14.480555
_cell_angle_alpha 90.000000
_cell_angle_beta 90.000000
_cell_angle_gamma 90.000000
_cell_volume 2357.817089
_symmetry_space_group_name_H-M "P N N N"
_symmetry_group_IT_number 48
_space_group.IT_coordinate_system_code '2'
_symmetry_cell_setting 'orthorhombic'
loop_
_space_group_symop_operation_xyz
x,y,z
1/2-x,1/2-y,z
x,1/2-y,1/2-z
1/2-x,y,1/2-z
-x,-y,-z
1/2+x,1/2+y,-z
-x,1/2+y,1/2+z
1/2+x,-y,1/2+z
loop_
_atom_site_type_symbol
_atom_site_label
_atom_site_fract_x
_atom_site_fract_y
_atom_site_fract_z
Si Si1 0.567399 0.196628 0.527475
Si Si2 0.250000 0.013409 0.250000
Si Si3 0.225438 0.100657 0.927455
Si Si4 0.585757 0.642397 0.943007
Si Si5 0.699155 0.384231 0.561626
Si Si6 0.666660 0.178259 0.342946
Si Si7 0.620360 0.750000 0.750000
O O1 0.478430 0.207002 0.510110
O O2 0.614775 0.322485 0.578741
O O3 0.609297 0.202648 0.427601
O O4 0.576144 0.032988 0.567921
O O5 0.323873 0.113016 0.249322
O O6 0.240371 0.927082 0.343949
O O7 0.250000 0.250000 0.882264
O O8 0.185472 0.992562 0.855110
O O9 0.166784 0.150609 0.007726
O O10 0.289226 0.009225 0.984513
O O11 0.578674 0.727256 0.846704
O O12 0.750000 0.250000 0.528552
O O13 0.750000 0.250000 0.347336
O O14 0.633601 0.250000 0.250000
#
# Coordination Sequence:
#
# PCOD9390050 Si02
#       7
#     8   4   8   8   8   8   4
#     4  10  20  38  60  88 124 167 215 261 321 396
#     4  11  23  32  60  88 126 162 220 270 322 390
#     4  11  20  38  60  89 128 159 203 267 328 381
#     4  10  21  35  59  90 128 169 207 263 330 392
#     4  12  19  37  60  90 119 168 216 262 318 395
#     4  10  19  36  63  85 109 155 217 257 301 373
#     4  11  20  38  52  92 129 164 206 272 339 388
#
# _framework density 20.357813
#
# number of rings (size 3 to 8) (size 9 to 14) (size 15 to 20)
#    0.000    1.333    6.667    1.250    1.167    0.000 
#    0.000    5.000    0.000    0.000    0.000   14.000 
#    0.000    0.000    0.000    0.000    0.000    0.000 
#
# Total GULP energy -267339.541133 kJ/mol
# GULP energy per Si atom -5569.573774 kJ/mol
# Density = 2.031148 g / cm^3
# Si number density = 20.357813 Si / 1000 Ang^3
#
#
#
# Elastic Constant Matrix: (Units=GPa)
#
#
# Indices 1 2 3 4 5 6 
#
# 1 66.9728 13.2049 -4.6700 0.0000 0.0000 0.0000
# 2 13.2049 98.3086 40.6876 0.0000 0.0000 0.0000
# 3 -4.6700 40.6876 97.5936 0.0000 0.0000 0.0000
# 4 0.0000 0.0000 0.0000 23.8786 0.0000 0.0000
# 5 0.0000 0.0000 0.0000 0.0000 21.9938 0.0000
# 6 0.0000 0.0000 0.0000 0.0000 0.0000 26.2358
#
#
#
# Elastic Compliance Matrix: (Units=1/GPa)
#
#
# Indices 1 2 3 4 5 6 
#
# 1 0.015643 -0.002914 0.001963 0.000000 0.000000 0.000000
# 2 -0.002914 0.012836 -0.005491 0.000000 0.000000 0.000000
# 3 0.001963 -0.005491 0.012630 0.000000 0.000000 0.000000
# 4 0.000000 0.000000 0.000000 0.041879 0.000000 0.000000
# 5 0.000000 0.000000 0.000000 0.000000 0.045467 0.000000
# 6 0.000000 0.000000 0.000000 0.000000 0.000000 0.038116
#
#
# Mechanical properties :
#
#
# Convention : Reuss Voigt Hill
#
# Bulk Modulus (GPa) = 35.42839 40.14665 37.78752
# Shear Modulus (GPa) = 26.47445 28.66515 27.56980
#
# Velocity S-wave (km/s) = 3.61010 3.75649 3.68402
# Velocity P-wave (km/s) = 5.90065 6.21114 6.05789
#
# Compressibility (1/GPa) = 0.02822595
#
# Stress axis : x y z
#
# Youngs Moduli (GPa) = 63.92705 77.90620 79.17838
#
# Poissons Ratio (x) = 0.22700 -0.15545
# Poissons Ratio (y) = 0.18627 0.43476
# Poissons Ratio (z) = -0.12551 0.42777
#
# Static dielectric constant tensor:
#      x y z
#    x 1.788720 0.000000 0.000000 
#    y 0.000000 1.784650 0.000000 
#    z 0.000000 0.000000 1.883300 
# 
# From -- ./inp_files/27908.got.cif
#   From: 2010.05.17/outbox.cif.g08.bks.cpg/sg48_14_cif.got.tgz:27908.got - 2010.06.03 20:39:00.
