data_PCOD9390925
_publ_section_title
;
Structure prediction by ZEFSAII (Michael W. Deem and Ramdas Pophale) SiO2 
 PCOD9390925
Probable space group: P N N N
;
_chemical_formula_sum "Si O2"
_cell_formula_units_Z 64
_cell_length_a 22.417319
_cell_length_b 8.959094
_cell_length_c 14.781175
_cell_angle_alpha 90.000000
_cell_angle_beta 90.000000
_cell_angle_gamma 90.000000
_cell_volume 2968.634457
_symmetry_space_group_name_H-M "P N N N"
_symmetry_group_IT_number 48
_space_group.IT_coordinate_system_code '2'
_symmetry_cell_setting 'orthorhombic'
loop_
_space_group_symop_operation_xyz
x,y,z
1/2-x,1/2-y,z
x,1/2-y,1/2-z
1/2-x,y,1/2-z
-x,-y,-z
1/2+x,1/2+y,-z
-x,1/2+y,1/2+z
1/2+x,-y,1/2+z
loop_
_atom_site_type_symbol
_atom_site_label
_atom_site_fract_x
_atom_site_fract_y
_atom_site_fract_z
Si Si1 0.888148 0.876551 0.316276
Si Si2 0.094603 0.499852 0.116927
Si Si3 0.156682 0.933070 0.976828
Si Si4 0.446761 0.726307 0.533484
Si Si5 0.426438 0.217276 0.507492
Si Si6 0.514196 0.415910 0.288928
Si Si7 0.260771 0.427453 0.643190
Si Si8 0.680388 0.230335 0.849142
O O1 0.861741 0.750000 0.250000
O O2 0.924364 0.791463 0.393774
O O3 0.832018 0.956053 0.365053
O O4 0.932961 0.976823 0.256426
O O5 0.161052 0.561688 0.127774
O O6 0.052412 0.480843 0.204941
O O7 0.066914 0.633109 0.056421
O O8 0.092605 0.344992 0.063604
O O9 0.109503 0.819290 0.930789
O O10 0.119963 0.083680 0.993364
O O11 0.215909 0.974903 0.919217
O O12 0.165725 0.849295 0.072521
O O13 0.505703 0.824430 0.517177
O O14 0.465604 0.605487 0.607202
O O15 0.513722 0.250000 0.250000
O O16 0.250000 0.250000 0.623367
O O17 0.250000 0.456239 0.750000
O O18 0.750000 0.250000 0.840406
O O19 0.651523 0.250000 0.750000
#
# Coordination Sequence:
#
# PCOD9390925 Si02
#       8
#     8   8   8   8   8   8   8   8
#     4  12  23  39  64  93 137 183 219 278 340 399
#     4  10  21  44  65  86 130 174 206 267 346 399
#     4  11  24  38  69  98 125 175 227 279 327 412
#     4  10  21  42  60  90 130 171 215 267 335 396
#     4  11  20  39  66  95 127 173 220 269 333 404
#     4  11  24  38  63  94 129 173 222 273 337 401
#     4  11  22  39  60  92 139 181 226 275 334 399
#     4  10  25  46  68  93 125 165 216 278 345 410
#
# _framework density 21.558731999999999
#
# number of rings (size 3 to 8) (size 9 to 14) (size 15 to 20)
#    0.000    1.250    5.000    1.125    5.250    2.500 
#    0.000    0.000    0.000    1.500    0.000    0.000 
#    0.000    0.000    0.000    0.000    0.000    0.000 
#
# Total GULP energy -356915.908602 kJ/mol
# GULP energy per Si atom -5576.811072 kJ/mol
# Density = 2.150966 g / cm^3
# Si number density = 21.558732 Si / 1000 Ang^3
#
#
#
# Elastic Constant Matrix: (Units=GPa)
#
#
# Indices 1 2 3 4 5 6 
#
# 1 101.2382 41.2146 8.9176 0.0000 0.0000 0.0000
# 2 41.2146 100.8410 13.4945 0.0000 0.0000 0.0000
# 3 8.9176 13.4945 51.5967 0.0000 0.0000 0.0000
# 4 0.0000 0.0000 0.0000 0.1456 0.0000 0.0000
# 5 0.0000 0.0000 0.0000 0.0000 10.6985 0.0000
# 6 0.0000 0.0000 0.0000 0.0000 0.0000 39.7124
#
#
#
# Elastic Compliance Matrix: (Units=1/GPa)
#
#
# Indices 1 2 3 4 5 6 
#
# 1 0.011882 -0.004748 -0.000812 0.000000 0.000000 0.000000
# 2 -0.004748 0.012173 -0.002363 0.000000 0.000000 0.000000
# 3 -0.000812 -0.002363 0.020139 0.000000 0.000000 0.000000
# 4 0.000000 0.000000 0.000000 6.867273 0.000000 0.000000
# 5 0.000000 0.000000 0.000000 0.000000 0.093471 0.000000
# 6 0.000000 0.000000 0.000000 0.000000 0.000000 0.025181
#
#
# Mechanical properties :
#
#
# Convention : Reuss Voigt Hill
#
# Bulk Modulus (GPa) = 35.27437 42.32549 38.79993
# Shear Modulus (GPa) = 0.70868 22.78126 11.74497
#
# Velocity S-wave (km/s) = 0.57396 3.25423 2.33660
# Velocity P-wave (km/s) = 4.10326 5.81337 5.03150
#
# Compressibility (1/GPa) = 0.02834919
#
# Stress axis : x y z
#
# Youngs Moduli (GPa) = 84.16099 82.14739 49.65370
#
# Poissons Ratio (x) = 0.39000 0.04031
# Poissons Ratio (y) = 0.39956 0.11734
# Poissons Ratio (z) = 0.06833 0.19413
#
# Static dielectric constant tensor:
#      x y z
#    x 1.912440 0.000000 0.000000 
#    y 0.000000 1.804790 0.000000 
#    z 0.000000 0.000000 1.880670 
# 
# From -- ./inp_files/32220.got.cif
#   From: 2010.05.17/outbox.cif.g08.bks.cpg/sg48_17_cif.got.tgz:32220.got - 2010.06.03 20:39:00.
