data_PCOD9390091
_publ_section_title
;
Structure prediction by ZEFSAII (Michael W. Deem and Ramdas Pophale) SiO2 
 PCOD9390091
Probable space group: P N N N
;
_chemical_formula_sum "Si O2"
_cell_formula_units_Z 44
_cell_length_a 8.497147
_cell_length_b 25.319021
_cell_length_c 11.099293
_cell_angle_alpha 90.000000
_cell_angle_beta 90.000000
_cell_angle_gamma 90.000000
_cell_volume 2387.895717
_symmetry_space_group_name_H-M "P N N N"
_symmetry_group_IT_number 48
_space_group.IT_coordinate_system_code '2'
_symmetry_cell_setting 'orthorhombic'
loop_
_space_group_symop_operation_xyz
x,y,z
1/2-x,1/2-y,z
x,1/2-y,1/2-z
1/2-x,y,1/2-z
-x,-y,-z
1/2+x,1/2+y,-z
-x,1/2+y,1/2+z
1/2+x,-y,1/2+z
loop_
_atom_site_type_symbol
_atom_site_label
_atom_site_fract_x
_atom_site_fract_y
_atom_site_fract_z
Si Si1 0.058027 0.167921 0.062684
Si Si2 0.915206 0.226971 0.537021
Si Si3 0.750000 0.893887 0.750000
Si Si4 0.267087 0.632799 0.609414
Si Si5 0.837355 0.649263 0.124654
Si Si6 0.967394 0.559236 0.958609
O O1 0.125534 0.145754 0.187792
O O2 0.901649 0.132749 0.043918
O O3 0.200275 0.162053 0.970376
O O4 0.996990 0.227315 0.042107
O O5 0.750000 0.250000 0.588969
O O6 0.864553 0.180525 0.447641
O O7 0.037965 0.197984 0.626089
O O8 0.662147 0.928808 0.852947
O O9 0.250000 0.643455 0.750000
O O10 0.367584 0.580802 0.591247
O O11 0.750000 0.641296 0.250000
O O12 0.919804 0.596749 0.071510
O O13 0.000000 0.500000 0.000000
#
# Coordination Sequence:
#
# PCOD9390091 Si02
#       6
#     8   8   4   8   8   8
#     4  10  20  36  58  89 120 160 194 240 309 359
#     4   9  20  36  57  90 120 163 204 237 302 370
#     4  10  20  40  61  90 122 148 203 256 306 370
#     4  10  19  38  58  86 127 152 198 256 300 371
#     4  10  22  42  58  85 129 162 209 253 299 380
#     4  10  22  42  63  89 115 157 210 263 319 367
#
# _framework density 18.426265000000001
#
# number of rings (size 3 to 8) (size 9 to 14) (size 15 to 20)
#    0.000    2.182    1.818    0.545    0.000    5.455 
#    6.545   11.818    0.000    0.000    0.000    0.000 
#    0.000    0.000    0.000    0.000    0.000    0.000 
#
# Total GULP energy -245128.818804 kJ/mol
# GULP energy per Si atom -5571.109518 kJ/mol
# Density = 1.838433 g / cm^3
# Si number density = 18.426265 Si / 1000 Ang^3
#
#
#
# Elastic Constant Matrix: (Units=GPa)
#
#
# Indices 1 2 3 4 5 6 
#
# 1 100.6099 46.6507 21.5398 0.0000 0.0000 0.0000
# 2 46.6507 97.5109 24.9471 0.0000 0.0000 0.0000
# 3 21.5398 24.9471 67.7890 0.0000 0.0000 0.0000
# 4 0.0000 0.0000 0.0000 11.7775 0.0000 0.0000
# 5 0.0000 0.0000 0.0000 0.0000 22.9726 0.0000
# 6 0.0000 0.0000 0.0000 0.0000 0.0000 16.5222
#
#
#
# Elastic Compliance Matrix: (Units=1/GPa)
#
#
# Indices 1 2 3 4 5 6 
#
# 1 0.013023 -0.005709 -0.002037 0.000000 0.000000 0.000000
# 2 -0.005709 0.013824 -0.003273 0.000000 0.000000 0.000000
# 3 -0.002037 -0.003273 0.016603 0.000000 0.000000 0.000000
# 4 0.000000 0.000000 0.000000 0.084908 0.000000 0.000000
# 5 0.000000 0.000000 0.000000 0.000000 0.043530 0.000000
# 6 0.000000 0.000000 0.000000 0.000000 0.000000 0.060524
#
#
# Mechanical properties :
#
#
# Convention : Reuss Voigt Hill
#
# Bulk Modulus (GPa) = 46.70391 50.24277 48.47334
# Shear Modulus (GPa) = 19.11400 21.77262 20.44331
#
# Velocity S-wave (km/s) = 3.22425 3.44118 3.33448
# Velocity P-wave (km/s) = 6.26597 6.56621 6.41785
#
# Compressibility (1/GPa) = 0.02141148
#
# Stress axis : x y z
#
# Youngs Moduli (GPa) = 76.78921 72.33778 60.22829
#
# Poissons Ratio (x) = 0.41298 0.12268
# Poissons Ratio (y) = 0.43840 0.19715
# Poissons Ratio (z) = 0.15641 0.23679
#
# Static dielectric constant tensor:
#      x y z
#    x 1.694890 0.000000 0.000000 
#    y 0.000000 1.614540 0.000000 
#    z 0.000000 0.000000 1.647150 
# 
# From -- ./inp_files/18772.got.cif
#   From: 2010.05.17/outbox.cif.g08.bks.cpg/sg48_10_cif.got.tgz:18772.got - 2010.06.03 20:39:00.
