data_PCOD9390627
_publ_section_title
;
Structure prediction by ZEFSAII (Michael W. Deem and Ramdas Pophale) SiO2 
 PCOD9390627
Probable space group: P N N N
;
_chemical_formula_sum "Si O2"
_cell_formula_units_Z 48
_cell_length_a 5.475362
_cell_length_b 18.826248
_cell_length_c 22.327738
_cell_angle_alpha 90.000000
_cell_angle_beta 90.000000
_cell_angle_gamma 90.000000
_cell_volume 2301.554908
_symmetry_space_group_name_H-M "P N N N"
_symmetry_group_IT_number 48
_space_group.IT_coordinate_system_code '2'
_symmetry_cell_setting 'orthorhombic'
loop_
_space_group_symop_operation_xyz
x,y,z
1/2-x,1/2-y,z
x,1/2-y,1/2-z
1/2-x,y,1/2-z
-x,-y,-z
1/2+x,1/2+y,-z
-x,1/2+y,1/2+z
1/2+x,-y,1/2+z
loop_
_atom_site_type_symbol
_atom_site_label
_atom_site_fract_x
_atom_site_fract_y
_atom_site_fract_z
Si Si1 0.007728 0.649197 0.219653
Si Si2 0.021721 0.451628 0.592755
Si Si3 0.609779 0.681618 0.403636
Si Si4 0.187168 0.560818 0.983060
Si Si5 0.497355 0.006325 0.270028
Si Si6 0.002797 0.789935 0.539055
O O1 0.750000 0.672302 0.250000
O O2 0.062166 0.662455 0.150418
O O3 0.999808 0.564378 0.229000
O O4 0.250000 0.676194 0.250000
O O5 0.217909 0.387554 0.590492
O O6 0.118111 0.523225 0.560145
O O7 0.982546 0.476728 0.661488
O O8 0.813009 0.422447 0.547307
O O9 0.750000 0.750000 0.378834
O O10 0.510479 0.708076 0.466651
O O11 0.050468 0.626136 0.950576
O O12 0.000000 0.500000 0.000000
O O13 0.750000 0.043557 0.250000
O O14 0.250000 0.045688 0.250000
O O15 0.750000 0.750000 0.558176
O O16 0.250000 0.750000 0.558187
#
# Coordination Sequence:
#
# PCOD9390627 Si02
#       6
#     8   8   8   8   8   8
#     4  10  21  35  52  74 106 159 208 256 290 330
#     4  11  23  41  59  90 126 162 228 259 329 372
#     4  11  22  39  56  82 121 170 215 262 304 357
#     4  11  24  38  67  91 124 170 208 275 317 391
#     4  10  21  37  57  81 117 169 202 269 306 361
#     4  11  25  43  62  87 123 164 212 261 319 376
#
# _framework density 20.855467999999998
#
# number of rings (size 3 to 8) (size 9 to 14) (size 15 to 20)
#    0.000    1.333    5.000    2.000    9.333    3.000 
#    0.000    1.667    0.000    0.000    0.000    0.000 
#    0.000    0.667    2.000    0.000    0.000    0.000 
#
# Total GULP energy -267416.905498 kJ/mol
# GULP energy per Si atom -5571.185531 kJ/mol
# Density = 2.080800 g / cm^3
# Si number density = 20.855468 Si / 1000 Ang^3
#
#
#
# Elastic Constant Matrix: (Units=GPa)
#
#
# Indices 1 2 3 4 5 6 
#
# 1 141.5460 25.4041 3.4124 0.0000 0.0000 0.0000
# 2 25.4041 85.1681 -9.3159 0.0000 0.0000 0.0000
# 3 3.4124 -9.3159 56.5227 0.0000 0.0000 0.0000
# 4 0.0000 0.0000 0.0000 17.4029 0.0000 0.0000
# 5 0.0000 0.0000 0.0000 0.0000 27.7178 0.0000
# 6 0.0000 0.0000 0.0000 0.0000 0.0000 25.1388
#
#
#
# Elastic Compliance Matrix: (Units=1/GPa)
#
#
# Indices 1 2 3 4 5 6 
#
# 1 0.007503 -0.002330 -0.000837 0.000000 0.000000 0.000000
# 2 -0.002330 0.012680 0.002231 0.000000 0.000000 0.000000
# 3 -0.000837 0.002231 0.018110 0.000000 0.000000 0.000000
# 4 0.000000 0.000000 0.000000 0.057462 0.000000 0.000000
# 5 0.000000 0.000000 0.000000 0.000000 0.036078 0.000000
# 6 0.000000 0.000000 0.000000 0.000000 0.000000 0.039779
#
#
# Mechanical properties :
#
#
# Convention : Reuss Voigt Hill
#
# Bulk Modulus (GPa) = 27.45611 35.80421 31.63016
# Shear Modulus (GPa) = 26.93602 31.63430 29.28516
#
# Velocity S-wave (km/s) = 3.59772 3.89888 3.75133
# Velocity P-wave (km/s) = 5.51830 6.12155 5.82774
#
# Compressibility (1/GPa) = 0.03642176
#
# Stress axis : x y z
#
# Youngs Moduli (GPa) = 133.27778 78.86213 55.21758
#
# Poissons Ratio (x) = 0.18372 0.04621
# Poissons Ratio (y) = 0.31048 -0.12317
# Poissons Ratio (z) = 0.11154 -0.17591
#
# Static dielectric constant tensor:
#      x y z
#    x 1.927430 0.000000 0.000000 
#    y 0.000000 1.834670 0.000000 
#    z 0.000000 0.000000 1.772950 
# 
# From -- ./inp_files/35365.got.cif
#   From: 2010.05.17/outbox.cif.g08.bks.cpg/sg48_18_cif.got.tgz:35365.got - 2010.06.03 20:39:00.
