data_PCOD9390711
_publ_section_title
;
Structure prediction by ZEFSAII (Michael W. Deem and Ramdas Pophale) SiO2 
 PCOD9390711
Probable space group: P N N N
;
_chemical_formula_sum "Si O2"
_cell_formula_units_Z 56
_cell_length_a 8.209236
_cell_length_b 16.211265
_cell_length_c 20.414455
_cell_angle_alpha 90.000000
_cell_angle_beta 90.000000
_cell_angle_gamma 90.000000
_cell_volume 2716.798547
_symmetry_space_group_name_H-M "P N N N"
_symmetry_group_IT_number 48
_space_group.IT_coordinate_system_code '2'
_symmetry_cell_setting 'orthorhombic'
loop_
_space_group_symop_operation_xyz
x,y,z
1/2-x,1/2-y,z
x,1/2-y,1/2-z
1/2-x,y,1/2-z
-x,-y,-z
1/2+x,1/2+y,-z
-x,1/2+y,1/2+z
1/2+x,-y,1/2+z
loop_
_atom_site_type_symbol
_atom_site_label
_atom_site_fract_x
_atom_site_fract_y
_atom_site_fract_z
Si Si1 0.410564 0.489530 0.607617
Si Si2 0.022913 0.389087 0.007190
Si Si3 0.331360 0.664799 0.139290
Si Si4 0.910025 0.289834 0.490016
Si Si5 0.715853 0.996070 0.822369
Si Si6 0.296358 0.344279 0.826282
Si Si7 0.609884 0.559346 0.952422
O O1 0.519954 0.429751 0.561732
O O2 0.396259 0.569012 0.558795
O O3 0.529758 0.525841 0.661890
O O4 0.279105 0.424691 0.635960
O O5 0.209926 0.418743 0.019098
O O6 0.019344 0.291506 0.000478
O O7 0.250000 0.750000 0.158017
O O8 0.354599 0.670404 0.059768
O O9 0.225003 0.594327 0.172085
O O10 0.511515 0.652502 0.165915
O O11 0.750000 0.250000 0.458445
O O12 0.006023 0.357438 0.450120
O O13 0.750000 0.966019 0.750000
O O14 0.843802 0.970326 0.879346
O O15 0.250000 0.250000 0.849416
O O16 0.250000 0.350155 0.750000
O O17 0.500000 0.500000 0.000000
#
# Coordination Sequence:
#
# PCOD9390711 Si02
#       7
#     8   8   8   8   8   8   8
#     4  10  21  38  59  84 122 159 215 256 329 387
#     4  10  22  37  64  89 124 164 209 276 327 390
#     4  11  22  36  59  84 126 169 213 263 328 402
#     4  11  22  37  64  96 125 161 214 277 337 390
#     4  11  23  40  61  91 127 173 214 264 334 412
#     4  11  22  35  52  81 119 166 215 262 319 404
#     4  11  23  41  64  94 129 170 220 277 334 400
#
# _framework density 20.612496
#
# number of rings (size 3 to 8) (size 9 to 14) (size 15 to 20)
#    0.000    1.286    1.429    5.571    4.000    1.429 
#    0.000    0.000    0.000    6.857    0.000    4.000 
#    0.000    0.000    0.000    0.000    0.000    0.000 
#
# Total GULP energy -312105.548970 kJ/mol
# GULP energy per Si atom -5573.313374 kJ/mol
# Density = 2.056558 g / cm^3
# Si number density = 20.612496 Si / 1000 Ang^3
#
#
#
# Elastic Constant Matrix: (Units=GPa)
#
#
# Indices 1 2 3 4 5 6 
#
# 1 86.3112 11.4178 23.8118 0.0000 0.0000 0.0000
# 2 11.4178 80.4147 16.7890 0.0000 0.0000 0.0000
# 3 23.8118 16.7890 91.4276 0.0000 0.0000 0.0000
# 4 0.0000 0.0000 0.0000 13.2883 0.0000 0.0000
# 5 0.0000 0.0000 0.0000 0.0000 15.4898 0.0000
# 6 0.0000 0.0000 0.0000 0.0000 0.0000 19.6220
#
#
#
# Elastic Compliance Matrix: (Units=1/GPa)
#
#
# Indices 1 2 3 4 5 6 
#
# 1 0.012584 -0.001146 -0.003067 0.000000 0.000000 0.000000
# 2 -0.001146 0.013036 -0.002095 0.000000 0.000000 0.000000
# 3 -0.003067 -0.002095 0.012121 0.000000 0.000000 0.000000
# 4 0.000000 0.000000 0.000000 0.075254 0.000000 0.000000
# 5 0.000000 0.000000 0.000000 0.000000 0.064559 0.000000
# 6 0.000000 0.000000 0.000000 0.000000 0.000000 0.050963
#
#
# Mechanical properties :
#
#
# Convention : Reuss Voigt Hill
#
# Bulk Modulus (GPa) = 39.80313 40.24342 40.02328
# Shear Modulus (GPa) = 20.03943 23.42234 21.73089
#
# Velocity S-wave (km/s) = 3.12139 3.37459 3.25046
# Velocity P-wave (km/s) = 5.68708 5.89491 5.79193
#
# Compressibility (1/GPa) = 0.02512365
#
# Stress axis : x y z
#
# Youngs Moduli (GPa) = 79.46767 76.71214 82.50074
#
# Poissons Ratio (x) = 0.08794 0.25302
# Poissons Ratio (y) = 0.09110 0.17286
# Poissons Ratio (z) = 0.24372 0.16073
#
# Static dielectric constant tensor:
#      x y z
#    x 1.830770 0.000000 0.000000 
#    y 0.000000 1.820730 0.000000 
#    z 0.000000 0.000000 0.206990 
# 
# From -- ./inp_files/33579.got.cif
#   From: 2010.05.17/outbox.cif.g08.bks.cpg/sg48_17_cif.got.tgz:33579.got - 2010.06.03 20:39:00.
