data_PCOD9390210
_publ_section_title
;
Structure prediction by ZEFSAII (Michael W. Deem and Ramdas Pophale) SiO2 
 PCOD9390210
Probable space group: P N N N
;
_chemical_formula_sum "Si O2"
_cell_formula_units_Z 64
_cell_length_a 22.002949
_cell_length_b 8.904678
_cell_length_c 15.657459
_cell_angle_alpha 90.000000
_cell_angle_beta 90.000000
_cell_angle_gamma 90.000000
_cell_volume 3067.753038
_symmetry_space_group_name_H-M "P N N N"
_symmetry_group_IT_number 48
_space_group.IT_coordinate_system_code '2'
_symmetry_cell_setting 'orthorhombic'
loop_
_space_group_symop_operation_xyz
x,y,z
1/2-x,1/2-y,z
x,1/2-y,1/2-z
1/2-x,y,1/2-z
-x,-y,-z
1/2+x,1/2+y,-z
-x,1/2+y,1/2+z
1/2+x,-y,1/2+z
loop_
_atom_site_type_symbol
_atom_site_label
_atom_site_fract_x
_atom_site_fract_y
_atom_site_fract_z
Si Si1 0.542822 0.739848 0.349018
Si Si2 0.243660 0.918543 0.006892
Si Si3 0.816486 0.673632 0.931092
Si Si4 0.405590 0.403763 0.283970
Si Si5 0.864734 0.927137 0.048065
Si Si6 0.539855 0.349110 0.997191
Si Si7 0.984360 0.055438 0.405861
Si Si8 0.191400 0.590270 0.299372
O O1 0.528448 0.750000 0.250000
O O2 0.594543 0.860319 0.376122
O O3 0.484427 0.776336 0.409315
O O4 0.562788 0.568444 0.370840
O O5 0.250000 0.750000 0.975816
O O6 0.212086 0.905344 0.101881
O O7 0.304720 0.013376 0.024258
O O8 0.204225 0.018984 0.941865
O O9 0.750000 0.750000 0.921618
O O10 0.859276 0.787798 0.982621
O O11 0.849402 0.643664 0.843226
O O12 0.432978 0.250000 0.250000
O O13 0.458034 0.467306 0.343802
O O14 0.372502 0.505422 0.213441
O O15 0.894710 0.076346 0.007459
O O16 0.530904 0.229597 0.074404
O O17 0.500000 0.500000 0.000000
O O18 0.000000 0.000000 0.500000
O O19 0.184091 0.750000 0.250000
O O20 0.250000 0.520347 0.250000
#
# Coordination Sequence:
#
# PCOD9390210 Si02
#       8
#     8   8   8   8   8   8   8   8
#     4  10  22  40  63  85 118 154 205 265 320 367
#     4  11  21  36  60  87 124 167 203 250 300 380
#     4  10  20  34  53  80 117 154 200 241 293 374
#     4  12  23  32  55  83 117 162 203 245 311 351
#     4  10  22  38  59  86 112 160 200 252 314 376
#     4   9  19  39  61  83 123 152 204 264 303 368
#     4  10  23  40  58  85 118 159 211 257 303 383
#     4  11  21  36  51  82 130 164 203 243 293 361
#
# _framework density 20.862175000000001
#
# number of rings (size 3 to 8) (size 9 to 14) (size 15 to 20)
#    0.000    1.625    2.500    3.750    0.000    9.500 
#    0.000    0.000    0.000    3.375    0.000    0.875 
#    0.000    0.000    0.000    0.000    0.000    0.000 
#
# Total GULP energy -356578.611458 kJ/mol
# GULP energy per Si atom -5571.540804 kJ/mol
# Density = 2.081469 g / cm^3
# Si number density = 20.862175 Si / 1000 Ang^3
#
#
#
# Elastic Constant Matrix: (Units=GPa)
#
#
# Indices 1 2 3 4 5 6 
#
# 1 33.9013 12.2174 26.1799 0.0000 0.0000 0.0000
# 2 12.2174 133.8209 31.9480 0.0000 0.0000 0.0000
# 3 26.1799 31.9480 65.8037 0.0000 0.0000 0.0000
# 4 0.0000 0.0000 0.0000 24.5064 0.0000 0.0000
# 5 0.0000 0.0000 0.0000 0.0000 27.9401 0.0000
# 6 0.0000 0.0000 0.0000 0.0000 0.0000 30.6481
#
#
#
# Elastic Compliance Matrix: (Units=1/GPa)
#
#
# Indices 1 2 3 4 5 6 
#
# 1 0.042583 0.000177 -0.017028 0.000000 0.000000 0.000000
# 2 0.000177 0.008453 -0.004175 0.000000 0.000000 0.000000
# 3 -0.017028 -0.004175 0.023998 0.000000 0.000000 0.000000
# 4 0.000000 0.000000 0.000000 0.040806 0.000000 0.000000
# 5 0.000000 0.000000 0.000000 0.000000 0.035791 0.000000
# 6 0.000000 0.000000 0.000000 0.000000 0.000000 0.032628
#
#
# Mechanical properties :
#
#
# Convention : Reuss Voigt Hill
#
# Bulk Modulus (GPa) = 30.31752 41.57961 35.94856
# Shear Modulus (GPa) = 21.07008 27.49763 24.28386
#
# Velocity S-wave (km/s) = 3.18144 3.63445 3.41547
# Velocity P-wave (km/s) = 5.29710 6.13076 5.72911
#
# Compressibility (1/GPa) = 0.03298423
#
# Stress axis : x y z
#
# Youngs Moduli (GPa) = 23.48363 118.29966 41.67022
#
# Poissons Ratio (x) = -0.02099 0.70955
# Poissons Ratio (y) = -0.00417 0.17396
# Poissons Ratio (z) = 0.39987 0.49386
#
# Static dielectric constant tensor:
#      x y z
#    x 1.819030 0.000000 0.000000 
#    y 0.000000 1.916500 0.000000 
#    z 0.000000 0.000000 1.732050 
# 
# From -- ./inp_files/28623.got.cif
#   From: 2010.05.17/outbox.cif.g08.bks.cpg/sg48_15_cif.got.tgz:28623.got - 2010.06.03 20:39:00.
