data_PCOD9390747
_publ_section_title
;
Structure prediction by ZEFSAII (Michael W. Deem and Ramdas Pophale) SiO2 
 PCOD9390747
Probable space group: P N N N
;
_chemical_formula_sum "Si O2"
_cell_formula_units_Z 64
_cell_length_a 17.233765
_cell_length_b 12.549809
_cell_length_c 15.406606
_cell_angle_alpha 90.000000
_cell_angle_beta 90.000000
_cell_angle_gamma 90.000000
_cell_volume 3332.147819
_symmetry_space_group_name_H-M "P N N N"
_symmetry_group_IT_number 48
_space_group.IT_coordinate_system_code '2'
_symmetry_cell_setting 'orthorhombic'
loop_
_space_group_symop_operation_xyz
x,y,z
1/2-x,1/2-y,z
x,1/2-y,1/2-z
1/2-x,y,1/2-z
-x,-y,-z
1/2+x,1/2+y,-z
-x,1/2+y,1/2+z
1/2+x,-y,1/2+z
loop_
_atom_site_type_symbol
_atom_site_label
_atom_site_fract_x
_atom_site_fract_y
_atom_site_fract_z
Si Si1 0.930743 0.461351 0.403365
Si Si2 0.948430 0.726011 0.647748
Si Si3 0.644473 0.948350 0.578436
Si Si4 0.072059 0.823087 0.380973
Si Si5 0.455040 0.389931 0.488215
Si Si6 0.688403 0.023678 0.985585
Si Si7 0.945593 0.405054 0.691313
Si Si8 0.237639 0.877115 0.849409
O O1 0.911568 0.505384 0.500779
O O2 0.847726 0.418721 0.372490
O O3 0.986610 0.360078 0.382813
O O4 0.972562 0.556096 0.349268
O O5 0.941939 0.750000 0.750000
O O6 0.872730 0.675356 0.599501
O O7 0.968885 0.837617 0.604112
O O8 0.730703 0.985715 0.556009
O O9 0.615514 0.004363 0.666414
O O10 0.141322 0.886833 0.429508
O O11 0.087739 0.702160 0.352990
O O12 0.050502 0.885512 0.293307
O O13 0.996098 0.816402 0.441299
O O14 0.500000 0.500000 0.500000
O O15 0.366274 0.421409 0.496604
O O16 0.705549 0.071598 0.080037
O O17 0.250000 0.750000 0.856326
O O18 0.250000 0.907781 0.750000
#
# Coordination Sequence:
#
# PCOD9390747 Si02
#       8
#     8   8   8   8   8   8   8   8
#     4  10  22  39  67  87 131 164 210 260 322 386
#     4  11  24  39  66  94 122 167 218 265 314 381
#     4  10  22  42  61  89 126 171 213 248 330 387
#     4  10  22  38  63  91 125 158 217 257 319 369
#     4  10  23  38  60  87 125 160 204 258 319 367
#     4  10  24  39  62  87 130 167 196 264 321 376
#     4  10  21  38  63  93 118 167 211 259 303 392
#     4  10  24  39  61  95 124 160 205 259 322 384
#
# _framework density 19.206831999999999
#
# number of rings (size 3 to 8) (size 9 to 14) (size 15 to 20)
#    0.000    1.875    0.000    3.000   17.500    1.000 
#    0.000    1.875    0.000    0.000    0.000    0.000 
#    0.000    0.000    0.000    0.000    0.000    0.000 
#
# Total GULP energy -356599.072212 kJ/mol
# GULP energy per Si atom -5571.860503 kJ/mol
# Density = 1.916312 g / cm^3
# Si number density = 19.206832 Si / 1000 Ang^3
#
#
#
# Elastic Constant Matrix: (Units=GPa)
#
#
# Indices 1 2 3 4 5 6 
#
# 1 95.0088 24.6661 41.8878 0.0000 0.0000 0.0000
# 2 24.6661 75.2493 42.6241 0.0000 0.0000 0.0000
# 3 41.8878 42.6241 127.8122 0.0000 0.0000 0.0000
# 4 0.0000 0.0000 0.0000 33.0675 0.0000 0.0000
# 5 0.0000 0.0000 0.0000 0.0000 15.7725 0.0000
# 6 0.0000 0.0000 0.0000 0.0000 0.0000 26.5469
#
#
#
# Elastic Compliance Matrix: (Units=1/GPa)
#
#
# Indices 1 2 3 4 5 6 
#
# 1 0.012593 -0.002207 -0.003391 0.000000 0.000000 0.000000
# 2 -0.002207 0.016771 -0.004870 0.000000 0.000000 0.000000
# 3 -0.003391 -0.004870 0.010559 0.000000 0.000000 0.000000
# 4 0.000000 0.000000 0.000000 0.030241 0.000000 0.000000
# 5 0.000000 0.000000 0.000000 0.000000 0.063401 0.000000
# 6 0.000000 0.000000 0.000000 0.000000 0.000000 0.037669
#
#
# Mechanical properties :
#
#
# Convention : Reuss Voigt Hill
#
# Bulk Modulus (GPa) = 52.66509 57.38070 55.02290
# Shear Modulus (GPa) = 25.18882 27.67020 26.42951
#
# Velocity S-wave (km/s) = 3.62533 3.79970 3.71354
# Velocity P-wave (km/s) = 6.70846 7.01358 6.86272
#
# Compressibility (1/GPa) = 0.01898791
#
# Stress axis : x y z
#
# Youngs Moduli (GPa) = 79.40618 59.62682 94.70290
#
# Poissons Ratio (x) = 0.13160 0.32116
# Poissons Ratio (y) = 0.17526 0.46117
# Poissons Ratio (z) = 0.26928 0.29036
#
# Static dielectric constant tensor:
#      x y z
#    x 1.704930 0.000000 0.000000 
#    y 0.000000 1.743130 0.000000 
#    z 0.000000 0.000000 1.687880 
# 
# From -- ./inp_files/28054.got.cif
#   From: 2010.05.17/outbox.cif.g08.bks.cpg/sg48_15_cif.got.tgz:28054.got - 2010.06.03 20:39:00.
