data_PCOD9390807
_publ_section_title
;
Structure prediction by ZEFSAII (Michael W. Deem and Ramdas Pophale) SiO2 
 PCOD9390807
Probable space group: P N N N
;
_chemical_formula_sum "Si O2"
_cell_formula_units_Z 58
_cell_length_a 19.557428
_cell_length_b 8.829532
_cell_length_c 17.348405
_cell_angle_alpha 90.000000
_cell_angle_beta 90.000000
_cell_angle_gamma 90.000000
_cell_volume 2995.773517
_symmetry_space_group_name_H-M "P N N N"
_symmetry_group_IT_number 48
_space_group.IT_coordinate_system_code '2'
_symmetry_cell_setting 'orthorhombic'
loop_
_space_group_symop_operation_xyz
x,y,z
1/2-x,1/2-y,z
x,1/2-y,1/2-z
1/2-x,y,1/2-z
-x,-y,-z
1/2+x,1/2+y,-z
-x,1/2+y,1/2+z
1/2+x,-y,1/2+z
loop_
_atom_site_type_symbol
_atom_site_label
_atom_site_fract_x
_atom_site_fract_y
_atom_site_fract_z
Si Si1 0.175379 0.077287 0.219581
Si Si2 0.357156 0.128225 0.621910
Si Si3 0.826328 0.690527 0.556246
Si Si4 0.035173 0.358502 0.085432
Si Si5 0.504145 0.701390 0.408076
Si Si6 0.250000 0.250000 0.750000
Si Si7 0.954596 0.097494 0.791129
Si Si8 0.936043 0.352912 0.315280
O O1 0.163086 0.250000 0.250000
O O2 0.250000 0.035311 0.250000
O O3 0.169587 0.073545 0.126824
O O4 0.115464 0.965103 0.242635
O O5 0.334202 0.139807 0.532404
O O6 0.420763 0.248732 0.624200
O O7 0.301237 0.165085 0.688663
O O8 0.385316 0.958767 0.636651
O O9 0.750000 0.750000 0.563741
O O10 0.885104 0.811769 0.579844
O O11 0.022611 0.532191 0.109858
O O12 0.988077 0.253026 0.138069
O O13 0.010009 0.314812 0.999757
O O14 0.456516 0.840603 0.379549
O O15 0.975189 0.250000 0.750000
O O16 0.012130 0.973903 0.779215
O O17 0.901564 0.250000 0.250000
#
# Coordination Sequence:
#
# PCOD9390807 Si02
#       8
#     8   8   8   8   8   2   8   8
#     4  11  23  38  58  88 125 170 214 259 308 382
#     4  10  25  41  67  94 122 171 211 267 322 389
#     4  11  21  40  64  92 129 171 219 250 315 394
#     4  10  21  39  65  93 129 160 211 265 320 368
#     4   9  22  39  63  97 122 161 207 271 317 377
#     4  12  24  44  66  92 130 164 216 260 320 392
#     4  11  23  35  58  89 126 161 209 259 319 367
#     4  11  23  38  66  95 125 161 212 272 320 371
#
# _framework density 19.360610000000001
#
# number of rings (size 3 to 8) (size 9 to 14) (size 15 to 20)
#    0.000    1.517    3.448    1.241    9.655    1.931 
#    0.000    0.345    0.000    0.000    3.586    0.000 
#    0.000    0.000    0.000    0.000    0.000    0.000 
#
# Total GULP energy -322965.291299 kJ/mol
# GULP energy per Si atom -5568.367091 kJ/mol
# Density = 1.931654 g / cm^3
# Si number density = 19.360610 Si / 1000 Ang^3
#
#
#
# Elastic Constant Matrix: (Units=GPa)
#
#
# Indices 1 2 3 4 5 6 
#
# 1 65.2083 33.4543 26.5826 0.0000 0.0000 0.0000
# 2 33.4543 63.2569 22.3771 0.0000 0.0000 0.0000
# 3 26.5826 22.3771 100.6235 0.0000 0.0000 0.0000
# 4 0.0000 0.0000 0.0000 32.6729 0.0000 0.0000
# 5 0.0000 0.0000 0.0000 0.0000 28.4340 0.0000
# 6 0.0000 0.0000 0.0000 0.0000 0.0000 15.2885
#
#
#
# Elastic Compliance Matrix: (Units=1/GPa)
#
#
# Indices 1 2 3 4 5 6 
#
# 1 0.022139 -0.010463 -0.003522 0.000000 0.000000 0.000000
# 2 -0.010463 0.022103 -0.002151 0.000000 0.000000 0.000000
# 3 -0.003522 -0.002151 0.011347 0.000000 0.000000 0.000000
# 4 0.000000 0.000000 0.000000 0.030606 0.000000 0.000000
# 5 0.000000 0.000000 0.000000 0.000000 0.035169 0.000000
# 6 0.000000 0.000000 0.000000 0.000000 0.000000 0.065409
#
#
# Mechanical properties :
#
#
# Convention : Reuss Voigt Hill
#
# Bulk Modulus (GPa) = 42.88722 43.76851 43.32786
# Shear Modulus (GPa) = 22.04422 25.05740 23.55081
#
# Velocity S-wave (km/s) = 3.37799 3.60147 3.49152
# Velocity P-wave (km/s) = 6.11673 6.32061 6.21950
#
# Compressibility (1/GPa) = 0.02331697
#
# Stress axis : x y z
#
# Youngs Moduli (GPa) = 45.16942 45.24303 88.13006
#
# Poissons Ratio (x) = 0.47336 0.31039
# Poissons Ratio (y) = 0.47259 0.18960
# Poissons Ratio (z) = 0.15908 0.09733
#
# Static dielectric constant tensor:
#      x y z
#    x 1.693430 0.000000 0.000000 
#    y 0.000000 1.633420 0.000000 
#    z 0.000000 0.000000 1.880140 
# 
# From -- ./inp_files/32006.got.cif
#   From: 2010.05.17/outbox.cif.g08.bks.cpg/sg48_17_cif.got.tgz:32006.got - 2010.06.03 20:39:00.
