data_PCOD9390776
_publ_section_title
;
Structure prediction by ZEFSAII (Michael W. Deem and Ramdas Pophale) SiO2 
 PCOD9390776
Probable space group: P N N N
;
_chemical_formula_sum "Si O2"
_cell_formula_units_Z 24
_cell_length_a 5.245243
_cell_length_b 6.983259
_cell_length_c 24.217968
_cell_angle_alpha 90.000000
_cell_angle_beta 90.000000
_cell_angle_gamma 90.000000
_cell_volume 887.077295
_symmetry_space_group_name_H-M "P N N N"
_symmetry_group_IT_number 48
_space_group.IT_coordinate_system_code '2'
_symmetry_cell_setting 'orthorhombic'
loop_
_space_group_symop_operation_xyz
x,y,z
1/2-x,1/2-y,z
x,1/2-y,1/2-z
1/2-x,y,1/2-z
-x,-y,-z
1/2+x,1/2+y,-z
-x,1/2+y,1/2+z
1/2+x,-y,1/2+z
loop_
_atom_site_type_symbol
_atom_site_label
_atom_site_fract_x
_atom_site_fract_y
_atom_site_fract_z
Si Si1 0.498340 0.034559 0.274989
Si Si2 0.678852 0.023215 0.602560
Si Si3 0.324499 0.473962 0.554501
O O1 0.499257 0.250000 0.250000
O O2 0.750000 0.947787 0.250000
O O3 0.250000 0.943261 0.250000
O O4 0.460258 0.018390 0.340046
O O5 0.750000 0.250000 0.595854
O O6 0.465311 0.946546 0.558810
O O7 0.969980 0.947238 0.599366
O O8 0.250000 0.250000 0.562133
O O9 0.500000 0.500000 0.500000
#
# Coordination Sequence:
#
# PCOD9390776 Si02
#       3
#     8   8   8
#     4  10  21  39  59  88 130 162 215 270 326 400
#     4  10  21  39  63  86 126 174 215 268 341 400
#     4  10  21  40  61  92 126 166 224 282 332 409
#
# _framework density 27.055139
#
# number of rings (size 3 to 8) (size 9 to 14) (size 15 to 20)
#    0.000    2.000    0.000    3.000    0.000    0.667 
#   18.000    1.667    0.000    0.000    0.000    0.000 
#    0.000    0.000    0.000    0.000    0.000    0.000 
#
# Total GULP energy -133838.153782 kJ/mol
# GULP energy per Si atom -5576.589741 kJ/mol
# Density = 2.699356 g / cm^3
# Si number density = 27.055139 Si / 1000 Ang^3
#
#
#
# Elastic Constant Matrix: (Units=GPa)
#
#
# Indices 1 2 3 4 5 6 
#
# 1 335.2997 60.8057 98.4923 0.0000 0.0000 0.0000
# 2 60.8057 137.4138 -9.0514 0.0000 0.0000 0.0000
# 3 98.4923 -9.0514 160.6333 0.0000 0.0000 0.0000
# 4 0.0000 0.0000 0.0000 -21.5371 0.0000 0.0000
# 5 0.0000 0.0000 0.0000 0.0000 51.4305 0.0000
# 6 0.0000 0.0000 0.0000 0.0000 0.0000 -139.3569
#
#
#
# Elastic Compliance Matrix: (Units=1/GPa)
#
#
# Indices 1 2 3 4 5 6 
#
# 1 0.004120 -0.001997 -0.002638 0.000000 0.000000 0.000000
# 2 -0.001997 0.008272 0.001690 0.000000 0.000000 0.000000
# 3 -0.002638 0.001690 0.007938 0.000000 0.000000 0.000000
# 4 0.000000 0.000000 0.000000 -0.046432 0.000000 0.000000
# 5 0.000000 0.000000 0.000000 0.000000 0.019444 0.000000
# 6 0.000000 0.000000 0.000000 0.000000 0.000000 -0.007176
#
#
# Mechanical properties :
#
#
# Convention : Reuss Voigt Hill
#
# Bulk Modulus (GPa) = 69.24893 103.75999 86.50446
# Shear Modulus (GPa) = -1597.07853 10.31399 -793.38227
#
# Velocity S-wave (km/s) = -24.32255 1.95461 -17.14302
# Velocity P-wave (km/s) = 27.62483 6.59762 18.96843
#
# Compressibility (1/GPa) = 0.01444066
#
# Stress axis : x y z
#
# Youngs Moduli (GPa) = 242.74745 120.88734 125.97100
#
# Poissons Ratio (x) = 0.24137 0.33236
# Poissons Ratio (y) = 0.48469 -0.21294
# Poissons Ratio (z) = 0.64046 -0.20435
#
# Static dielectric constant tensor:
#      x y z
#    x 2.155060 0.000000 0.000000 
#    y 0.000000 2.151520 0.000000 
#    z 0.000000 0.000000 2.219420 
# 
# From -- ./inp_files/35089.got.cif
#   From: 2010.05.17/outbox.cif.g08.bks.cpg/sg48_18_cif.got.tgz:35089.got - 2010.06.03 20:39:00.
