data_PCOD9390571
_publ_section_title
;
Structure prediction by ZEFSAII (Michael W. Deem and Ramdas Pophale) SiO2 
 PCOD9390571
Probable space group: P N N N
;
_chemical_formula_sum "Si O2"
_cell_formula_units_Z 48
_cell_length_a 7.916049
_cell_length_b 14.921178
_cell_length_c 17.557295
_cell_angle_alpha 90.000000
_cell_angle_beta 90.000000
_cell_angle_gamma 90.000000
_cell_volume 2073.811084
_symmetry_space_group_name_H-M "P N N N"
_symmetry_group_IT_number 48
_space_group.IT_coordinate_system_code '2'
_symmetry_cell_setting 'orthorhombic'
loop_
_space_group_symop_operation_xyz
x,y,z
1/2-x,1/2-y,z
x,1/2-y,1/2-z
1/2-x,y,1/2-z
-x,-y,-z
1/2+x,1/2+y,-z
-x,1/2+y,1/2+z
1/2+x,-y,1/2+z
loop_
_atom_site_type_symbol
_atom_site_label
_atom_site_fract_x
_atom_site_fract_y
_atom_site_fract_z
Si Si1 0.358381 0.403222 0.672295
Si Si2 0.936098 0.779709 0.547625
Si Si3 0.546711 0.953616 0.420162
Si Si4 0.940496 0.372665 0.337164
Si Si5 0.465614 0.905283 0.828368
Si Si6 0.433861 0.753007 0.390242
O O1 0.250000 0.403363 0.750000
O O2 0.242293 0.431123 0.599710
O O3 0.483155 0.487913 0.678978
O O4 0.438981 0.306597 0.658890
O O5 0.750000 0.750000 0.521158
O O6 0.005310 0.701661 0.602833
O O7 0.933481 0.866402 0.600835
O O8 0.054042 0.791128 0.474501
O O9 0.468758 0.856895 0.406016
O O10 0.500000 0.000000 0.500000
O O11 0.493580 0.029810 0.360927
O O12 0.004085 0.357730 0.251709
O O13 0.735538 0.382231 0.338862
O O14 0.250000 0.750000 0.355568
#
# Coordination Sequence:
#
# PCOD9390571 Si02
#       6
#     8   8   8   8   8   8
#     4  11  24  50  77 104 139 195 244 293 367 438
#     4  12  25  40  66 105 148 190 234 294 364 428
#     4  11  22  43  75 101 141 182 234 298 363 425
#     4  10  20  41  68 101 139 184 233 287 361 429
#     4  10  21  42  71 103 136 189 234 290 362 432
#     4  12  28  46  70 108 143 187 244 300 358 427
#
# _framework density 23.145793000000001
#
# number of rings (size 3 to 8) (size 9 to 14) (size 15 to 20)
#    0.000    1.000    5.000    3.500    2.333    6.000 
#    0.000    1.667    0.000    0.000    0.000    0.000 
#    0.000    0.000    0.000    0.000    0.000    0.000 
#
# Total GULP energy -268338.413457 kJ/mol
# GULP energy per Si atom -5590.383614 kJ/mol
# Density = 2.309311 g / cm^3
# Si number density = 23.145793 Si / 1000 Ang^3
#
#
#
# Elastic Constant Matrix: (Units=GPa)
#
#
# Indices 1 2 3 4 5 6 
#
# 1 40.8318 18.1356 12.9268 0.0000 0.0000 0.0000
# 2 18.1356 155.1369 35.8869 0.0000 0.0000 0.0000
# 3 12.9268 35.8869 78.3302 0.0000 0.0000 0.0000
# 4 0.0000 0.0000 0.0000 41.9633 0.0000 0.0000
# 5 0.0000 0.0000 0.0000 0.0000 24.0493 0.0000
# 6 0.0000 0.0000 0.0000 0.0000 0.0000 21.9376
#
#
#
# Elastic Compliance Matrix: (Units=1/GPa)
#
#
# Indices 1 2 3 4 5 6 
#
# 1 0.026579 -0.002341 -0.003314 0.000000 0.000000 0.000000
# 2 -0.002341 0.007416 -0.003011 0.000000 0.000000 0.000000
# 3 -0.003314 -0.003011 0.014693 0.000000 0.000000 0.000000
# 4 0.000000 0.000000 0.000000 0.023830 0.000000 0.000000
# 5 0.000000 0.000000 0.000000 0.000000 0.041581 0.000000
# 6 0.000000 0.000000 0.000000 0.000000 0.000000 0.045584
#
#
# Mechanical properties :
#
#
# Convention : Reuss Voigt Hill
#
# Bulk Modulus (GPa) = 31.89124 45.35528 38.62326
# Shear Modulus (GPa) = 26.67116 31.41336 29.04226
#
# Velocity S-wave (km/s) = 3.39825 3.68801 3.54609
# Velocity P-wave (km/s) = 5.40424 6.14599 5.78701
#
# Compressibility (1/GPa) = 0.03135657
#
# Stress axis : x y z
#
# Youngs Moduli (GPa) = 37.62304 134.84089 68.05921
#
# Poissons Ratio (x) = 0.31560 0.22555
# Poissons Ratio (y) = 0.08806 0.20496
# Poissons Ratio (z) = 0.12469 0.40607
#
# Static dielectric constant tensor:
#      x y z
#    x 1.899910 0.000000 0.000000 
#    y 0.000000 1.879700 0.000000 
#    z 0.000000 0.000000 1.861410 
# 
# From -- ./inp_files/30245.got.cif
#   From: 2010.05.17/outbox.cif.g08.bks.cpg/sg48_16_cif.got.tgz:30245.got - 2010.06.03 20:39:00.
