data_PCOD9390360
_publ_section_title
;
Structure prediction by ZEFSAII (Michael W. Deem and Ramdas Pophale) SiO2 
 PCOD9390360
Probable space group: P N N N
;
_chemical_formula_sum "Si O2"
_cell_formula_units_Z 56
_cell_length_a 20.589119
_cell_length_b 9.611547
_cell_length_c 14.676112
_cell_angle_alpha 90.000000
_cell_angle_beta 90.000000
_cell_angle_gamma 90.000000
_cell_volume 2904.304014
_symmetry_space_group_name_H-M "P N N N"
_symmetry_group_IT_number 48
_space_group.IT_coordinate_system_code '2'
_symmetry_cell_setting 'orthorhombic'
loop_
_space_group_symop_operation_xyz
x,y,z
1/2-x,1/2-y,z
x,1/2-y,1/2-z
1/2-x,y,1/2-z
-x,-y,-z
1/2+x,1/2+y,-z
-x,1/2+y,1/2+z
1/2+x,-y,1/2+z
loop_
_atom_site_type_symbol
_atom_site_label
_atom_site_fract_x
_atom_site_fract_y
_atom_site_fract_z
Si Si1 0.023128 0.815931 0.658996
Si Si2 0.099948 0.488815 0.964093
Si Si3 0.462789 0.188558 0.509713
Si Si4 0.112063 0.457430 0.213370
Si Si5 0.860906 0.492968 0.583209
Si Si6 0.720916 0.593925 0.557947
Si Si7 0.927415 0.283454 0.881047
O O1 0.051286 0.750000 0.750000
O O2 0.010579 0.704707 0.577860
O O3 0.068373 0.941448 0.624066
O O4 0.951714 0.872803 0.684956
O O5 0.073309 0.335827 0.983687
O O6 0.176335 0.464140 0.975967
O O7 0.075043 0.594654 0.042208
O O8 0.410962 0.068480 0.486746
O O9 0.506551 0.194794 0.601412
O O10 0.128768 0.432888 0.318511
O O11 0.173032 0.423465 0.146551
O O12 0.089714 0.619630 0.204510
O O13 0.785908 0.506275 0.561393
O O14 0.874680 0.330839 0.595344
O O15 0.750000 0.750000 0.550227
#
# Coordination Sequence:
#
# PCOD9390360 Si02
#       7
#     8   8   8   8   8   8   8
#     4  11  18  33  59  84 109 146 204 249 295 344
#     4  10  20  37  58  78 114 157 196 248 295 353
#     4  11  18  35  57  79 112 150 196 248 295 354
#     4  11  21  34  52  79 121 159 194 242 294 361
#     4  12  23  33  52  85 120 156 198 239 299 363
#     4  11  22  36  55  82 119 165 203 234 292 373
#     4  10  21  36  52  77 116 158 192 243 298 354
#
# _framework density 19.281728000000001
#
# number of rings (size 3 to 8) (size 9 to 14) (size 15 to 20)
#    0.000    1.143    7.143    2.143    0.000    2.857 
#    0.000    2.857    0.000    0.000    0.000    8.000 
#    0.000    4.571    0.000    0.000    0.000    0.000 
#
# Total GULP energy -312081.491893 kJ/mol
# GULP energy per Si atom -5572.883784 kJ/mol
# Density = 1.923784 g / cm^3
# Si number density = 19.281728 Si / 1000 Ang^3
#
#
#
# Elastic Constant Matrix: (Units=GPa)
#
#
# Indices 1 2 3 4 5 6 
#
# 1 125.6621 27.4984 30.1291 0.0000 0.0000 0.0000
# 2 27.4984 78.0340 14.4292 0.0000 0.0000 0.0000
# 3 30.1291 14.4292 42.6002 0.0000 0.0000 0.0000
# 4 0.0000 0.0000 0.0000 26.1324 0.0000 0.0000
# 5 0.0000 0.0000 0.0000 0.0000 16.9914 0.0000
# 6 0.0000 0.0000 0.0000 0.0000 0.0000 35.2414
#
#
#
# Elastic Compliance Matrix: (Units=1/GPa)
#
#
# Indices 1 2 3 4 5 6 
#
# 1 0.009974 -0.002358 -0.006255 0.000000 0.000000 0.000000
# 2 -0.002358 0.014229 -0.003152 0.000000 0.000000 0.000000
# 3 -0.006255 -0.003152 0.028966 0.000000 0.000000 0.000000
# 4 0.000000 0.000000 0.000000 0.038267 0.000000 0.000000
# 5 0.000000 0.000000 0.000000 0.000000 0.058853 0.000000
# 6 0.000000 0.000000 0.000000 0.000000 0.000000 0.028376
#
#
# Mechanical properties :
#
#
# Convention : Reuss Voigt Hill
#
# Bulk Modulus (GPa) = 33.74040 43.37885 38.55962
# Shear Modulus (GPa) = 23.57682 27.28900 25.43291
#
# Velocity S-wave (km/s) = 3.50058 3.76610 3.63577
# Velocity P-wave (km/s) = 5.82026 6.43875 6.13730
#
# Compressibility (1/GPa) = 0.02963806
#
# Stress axis : x y z
#
# Youngs Moduli (GPa) = 100.26482 70.28085 34.52378
#
# Poissons Ratio (x) = 0.16572 0.21595
# Poissons Ratio (y) = 0.23642 0.10881
# Poissons Ratio (z) = 0.62717 0.22151
#
# Static dielectric constant tensor:
#      x y z
#    x 1.696770 0.000000 0.000000 
#    y 0.000000 1.729080 0.000000 
#    z 0.000000 0.000000 1.774760 
# 
# From -- ./inp_files/28369.got.cif
#   From: 2010.05.17/outbox.cif.g08.bks.cpg/sg48_15_cif.got.tgz:28369.got - 2010.06.03 20:39:00.
