data_PCOD9390095
_publ_section_title
;
Structure prediction by ZEFSAII (Michael W. Deem and Ramdas Pophale) SiO2 
 PCOD9390095
Probable space group: P N N N
;
_chemical_formula_sum "Si O2"
_cell_formula_units_Z 40
_cell_length_a 18.096436
_cell_length_b 7.583747
_cell_length_c 15.312318
_cell_angle_alpha 90.000000
_cell_angle_beta 90.000000
_cell_angle_gamma 90.000000
_cell_volume 2101.444028
_symmetry_space_group_name_H-M "P N N N"
_symmetry_group_IT_number 48
_space_group.IT_coordinate_system_code '2'
_symmetry_cell_setting 'orthorhombic'
loop_
_space_group_symop_operation_xyz
x,y,z
1/2-x,1/2-y,z
x,1/2-y,1/2-z
1/2-x,y,1/2-z
-x,-y,-z
1/2+x,1/2+y,-z
-x,1/2+y,1/2+z
1/2+x,-y,1/2+z
loop_
_atom_site_type_symbol
_atom_site_label
_atom_site_fract_x
_atom_site_fract_y
_atom_site_fract_z
Si Si1 0.284523 0.554242 0.840923
Si Si2 0.938449 0.750000 0.750000
Si Si3 0.109076 0.088856 0.423180
Si Si4 0.250000 0.250000 0.979125
Si Si5 0.048487 0.522474 0.632503
Si Si6 0.970721 0.251947 0.969255
O O1 0.250000 0.750000 0.858369
O O2 0.250000 0.492591 0.750000
O O3 0.269494 0.416180 0.917746
O O4 0.372141 0.548690 0.825402
O O5 0.893935 0.862976 0.678855
O O6 0.990045 0.624922 0.691513
O O7 0.180114 0.182266 0.464960
O O8 0.035500 0.162243 0.471889
O O9 0.095144 0.881700 0.441154
O O10 0.059626 0.603808 0.535058
O O11 0.013633 0.331559 0.613006
#
# Coordination Sequence:
#
# PCOD9390095 Si02
#       6
#     8   4   8   4   8   8
#     4  11  23  38  60  94 130 163 201 259 328 386
#     4  10  22  37  59  88 118 158 210 266 308 350
#     4  10  21  38  59  88 119 162 208 256 311 379
#     4  12  23  41  60  90 126 170 208 253 325 392
#     4  10  19  38  60  88 123 158 205 268 308 380
#     4   9  19  37  64  85 113 160 213 251 312 373
#
# _framework density 19.03453
#
# number of rings (size 3 to 8) (size 9 to 14) (size 15 to 20)
#    0.000    1.800    2.000    2.700    0.000    4.400 
#    3.600    0.000    0.000    0.000    0.000    0.000 
#    0.000    0.000    0.000    0.000    0.000    0.000 
#
# Total GULP energy -222876.728153 kJ/mol
# GULP energy per Si atom -5571.918204 kJ/mol
# Density = 1.899121 g / cm^3
# Si number density = 19.034530 Si / 1000 Ang^3
#
#
#
# Elastic Constant Matrix: (Units=GPa)
#
#
# Indices 1 2 3 4 5 6 
#
# 1 95.5790 29.3828 43.4179 0.0000 0.0000 0.0000
# 2 29.3828 78.6896 45.3231 0.0000 0.0000 0.0000
# 3 43.4179 45.3231 105.9736 0.0000 0.0000 0.0000
# 4 0.0000 0.0000 0.0000 19.2411 0.0000 0.0000
# 5 0.0000 0.0000 0.0000 0.0000 43.7894 0.0000
# 6 0.0000 0.0000 0.0000 0.0000 0.0000 22.4644
#
#
#
# Elastic Compliance Matrix: (Units=1/GPa)
#
#
# Indices 1 2 3 4 5 6 
#
# 1 0.013189 -0.002405 -0.004375 0.000000 0.000000 0.000000
# 2 -0.002405 0.017300 -0.006414 0.000000 0.000000 0.000000
# 3 -0.004375 -0.006414 0.013972 0.000000 0.000000 0.000000
# 4 0.000000 0.000000 0.000000 0.051972 0.000000 0.000000
# 5 0.000000 0.000000 0.000000 0.000000 0.022837 0.000000
# 6 0.000000 0.000000 0.000000 0.000000 0.000000 0.044515
#
#
# Mechanical properties :
#
#
# Convention : Reuss Voigt Hill
#
# Bulk Modulus (GPa) = 55.32857 57.38774 56.35816
# Shear Modulus (GPa) = 25.48454 27.90688 26.69571
#
# Velocity S-wave (km/s) = 3.66301 3.83315 3.74904
# Velocity P-wave (km/s) = 6.85717 7.05730 6.95795
#
# Compressibility (1/GPa) = 0.01807384
#
# Stress axis : x y z
#
# Youngs Moduli (GPa) = 75.81867 57.80254 71.57226
#
# Poissons Ratio (x) = 0.13901 0.31314
# Poissons Ratio (y) = 0.18234 0.45904
# Poissons Ratio (z) = 0.33172 0.37073
#
# Static dielectric constant tensor:
#      x y z
#    x 1.645290 0.000000 0.000000 
#    y 0.000000 1.756850 0.000000 
#    z 0.000000 0.000000 1.651800 
# 
# From -- ./inp_files/27085.got.cif
#   From: 2010.05.17/outbox.cif.g08.bks.cpg/sg48_14_cif.got.tgz:27085.got - 2010.06.03 20:39:00.
