data_PCOD9390508
_publ_section_title
;
Structure prediction by ZEFSAII (Michael W. Deem and Ramdas Pophale) SiO2 
 PCOD9390508
Probable space group: P N N N
;
_chemical_formula_sum "Si O2"
_cell_formula_units_Z 54
_cell_length_a 5.418047
_cell_length_b 32.740903
_cell_length_c 13.574829
_cell_angle_alpha 90.000000
_cell_angle_beta 90.000000
_cell_angle_gamma 90.000000
_cell_volume 2408.062690
_symmetry_space_group_name_H-M "P N N N"
_symmetry_group_IT_number 48
_space_group.IT_coordinate_system_code '2'
_symmetry_cell_setting 'orthorhombic'
loop_
_space_group_symop_operation_xyz
x,y,z
1/2-x,1/2-y,z
x,1/2-y,1/2-z
1/2-x,y,1/2-z
-x,-y,-z
1/2+x,1/2+y,-z
-x,1/2+y,1/2+z
1/2+x,-y,1/2+z
loop_
_atom_site_type_symbol
_atom_site_label
_atom_site_fract_x
_atom_site_fract_y
_atom_site_fract_z
Si Si1 0.502092 0.096502 0.315558
Si Si2 0.388524 0.145859 0.495055
Si Si3 0.257704 0.796070 0.106490
Si Si4 0.750000 0.360615 0.750000
Si Si5 0.502529 0.503499 0.813752
Si Si6 0.929857 0.711685 0.911626
Si Si7 0.750000 0.250000 0.250000
Si Si8 0.888994 0.582296 0.355301
O O1 0.250000 0.105145 0.250000
O O2 0.554812 0.122700 0.414522
O O3 0.750000 0.099339 0.250000
O O4 0.465445 0.049411 0.351515
O O5 0.511107 0.179863 0.568356
O O6 0.214781 0.170138 0.420633
O O7 0.265971 0.110118 0.560927
O O8 0.250000 0.750000 0.146742
O O9 0.391968 0.827248 0.182007
O O10 0.399510 0.789793 0.005884
O O11 0.627305 0.390940 0.827481
O O12 0.750000 0.494182 0.750000
O O13 0.457322 0.463959 0.882233
O O14 0.250000 0.505383 0.750000
O O15 0.750000 0.750000 0.920755
O O16 0.084764 0.720532 0.815526
O O17 0.750000 0.581758 0.250000
#
# Coordination Sequence:
#
# PCOD9390508 Si02
#       8
#     8   8   8   4   8   8   2   8
#     4  10  24  45  65  98 137 181 224 282 345 405
#     4  11  25  41  66  94 130 170 222 282 336 408
#     4  11  22  42  61  89 126 163 212 270 324 397
#     4  10  21  36  66  92 124 166 208 258 333 388
#     4   9  18  38  67  95 138 178 222 273 335 409
#     4  12  24  45  63  89 122 163 218 276 334 395
#     4  12  26  44  68  88 116 168 230 276 346 410
#     4  10  20  39  65 100 129 170 217 270 333 406
#
# _framework density 22.424664
#
# number of rings (size 3 to 8) (size 9 to 14) (size 15 to 20)
#    0.000    1.481    2.963    1.333    2.074    2.963 
#    1.333    0.000    0.000    7.111    0.000    0.000 
#    0.000    0.000    0.000    0.000    0.000    0.000 
#
# Total GULP energy -300757.025439 kJ/mol
# GULP energy per Si atom -5569.574545 kJ/mol
# Density = 2.237362 g / cm^3
# Si number density = 22.424664 Si / 1000 Ang^3
#
#
#
# Elastic Constant Matrix: (Units=GPa)
#
#
# Indices 1 2 3 4 5 6 
#
# 1 58.5311 8.9677 5.6699 0.0000 0.0000 0.0000
# 2 8.9677 114.5577 38.0731 0.0000 0.0000 0.0000
# 3 5.6699 38.0731 84.9691 0.0000 0.0000 0.0000
# 4 0.0000 0.0000 0.0000 42.2931 0.0000 0.0000
# 5 0.0000 0.0000 0.0000 0.0000 95.3587 0.0000
# 6 0.0000 0.0000 0.0000 0.0000 0.0000 11.8552
#
#
#
# Elastic Compliance Matrix: (Units=1/GPa)
#
#
# Indices 1 2 3 4 5 6 
#
# 1 0.017322 -0.001142 -0.000644 0.000000 0.000000 0.000000
# 2 -0.001142 0.010332 -0.004553 0.000000 0.000000 0.000000
# 3 -0.000644 -0.004553 0.013852 0.000000 0.000000 0.000000
# 4 0.000000 0.000000 0.000000 0.023645 0.000000 0.000000
# 5 0.000000 0.000000 0.000000 0.000000 0.010487 0.000000
# 6 0.000000 0.000000 0.000000 0.000000 0.000000 0.084351
#
#
# Mechanical properties :
#
#
# Convention : Reuss Voigt Hill
#
# Bulk Modulus (GPa) = 34.68910 40.38659 37.53785
# Shear Modulus (GPa) = 27.43078 43.59121 35.51100
#
# Velocity S-wave (km/s) = 3.50128 4.41375 3.98373
# Velocity P-wave (km/s) = 5.64341 6.63505 6.15922
#
# Compressibility (1/GPa) = 0.02882750
#
# Stress axis : x y z
#
# Youngs Moduli (GPa) = 57.72905 96.78753 72.19047
#
# Poissons Ratio (x) = 0.11052 0.04651
# Poissons Ratio (y) = 0.06592 0.32871
# Poissons Ratio (z) = 0.03719 0.44071
#
# Static dielectric constant tensor:
#      x y z
#    x 1.855550 0.000000 0.000000 
#    y 0.000000 1.654610 0.000000 
#    z 0.000000 0.000000 1.852230 
# 
# From -- ./inp_files/24568.got.cif
#   From: 2010.05.17/outbox.cif.g08.bks.cpg/sg48_13_cif.got.tgz:24568.got - 2010.06.03 20:39:00.
