data_PCOD9390622
_publ_section_title
;
Structure prediction by ZEFSAII (Michael W. Deem and Ramdas Pophale) SiO2 
 PCOD9390622
Probable space group: P N N N
;
_chemical_formula_sum "Si O2"
_cell_formula_units_Z 48
_cell_length_a 7.461094
_cell_length_b 31.764792
_cell_length_c 7.867709
_cell_angle_alpha 90.000000
_cell_angle_beta 90.000000
_cell_angle_gamma 90.000000
_cell_volume 1864.647812
_symmetry_space_group_name_H-M "P N N N"
_symmetry_group_IT_number 48
_space_group.IT_coordinate_system_code '2'
_symmetry_cell_setting 'orthorhombic'
loop_
_space_group_symop_operation_xyz
x,y,z
1/2-x,1/2-y,z
x,1/2-y,1/2-z
1/2-x,y,1/2-z
-x,-y,-z
1/2+x,1/2+y,-z
-x,1/2+y,1/2+z
1/2+x,-y,1/2+z
loop_
_atom_site_type_symbol
_atom_site_label
_atom_site_fract_x
_atom_site_fract_y
_atom_site_fract_z
Si Si1 0.570950 0.353938 0.953596
Si Si2 0.809130 0.619647 0.947161
Si Si3 0.236457 0.468089 0.457184
Si Si4 0.063968 0.193725 0.649994
Si Si5 0.677540 0.056680 0.556021
Si Si6 0.451850 0.765892 0.581728
O O1 0.576637 0.327250 0.779181
O O2 0.692065 0.394214 0.998650
O O3 0.372593 0.373201 0.948229
O O4 0.560324 0.315899 0.085021
O O5 0.750000 0.619817 0.750000
O O6 0.863383 0.571990 0.998261
O O7 0.927576 0.659386 0.997670
O O8 0.250000 0.470774 0.250000
O O9 0.275077 0.515332 0.523022
O O10 0.033731 0.456009 0.521683
O O11 0.250000 0.194716 0.750000
O O12 0.031275 0.239599 0.573494
O O13 0.750000 0.058681 0.750000
O O14 0.250000 0.750000 0.580389
O O15 0.546716 0.750000 0.750000
#
# Coordination Sequence:
#
# PCOD9390622 Si02
#       6
#     8   8   8   8   8   8
#     4  10  21  34  55  86 113 154 197 252 312 366
#     4   9  17  33  58  83 113 157 196 250 306 366
#     4   8  15  30  52  82 113 154 203 250 315 377
#     4  10  22  38  58  89 121 152 203 265 314 373
#     4   9  17  29  52  84 114 151 203 253 313 388
#     4  11  25  42  59  83 120 167 207 249 310 386
#
# _framework density 25.742127
#
# number of rings (size 3 to 8) (size 9 to 14) (size 15 to 20)
#    0.000    2.500    0.000    1.500    2.333    5.333 
#    0.000    4.167    0.000    9.000   30.333    0.000 
#    0.000    0.000    0.000    0.000    0.000    0.000 
#
# Total GULP energy -267432.350264 kJ/mol
# GULP energy per Si atom -5571.507297 kJ/mol
# Density = 2.568354 g / cm^3
# Si number density = 25.742127 Si / 1000 Ang^3
#
#
#
# Elastic Constant Matrix: (Units=GPa)
#
#
# Indices 1 2 3 4 5 6 
#
# 1 80.2409 16.1493 22.3512 0.0000 0.0000 0.0000
# 2 16.1493 272.0299 31.1308 0.0000 0.0000 0.0000
# 3 22.3512 31.1308 98.9141 0.0000 0.0000 0.0000
# 4 0.0000 0.0000 0.0000 39.5803 0.0000 0.0000
# 5 0.0000 0.0000 0.0000 0.0000 17.0058 0.0000
# 6 0.0000 0.0000 0.0000 0.0000 0.0000 95.8390
#
#
#
# Elastic Compliance Matrix: (Units=1/GPa)
#
#
# Indices 1 2 3 4 5 6 
#
# 1 0.013356 -0.000464 -0.002872 0.000000 0.000000 0.000000
# 2 -0.000464 0.003830 -0.001100 0.000000 0.000000 0.000000
# 3 -0.002872 -0.001100 0.011105 0.000000 0.000000 0.000000
# 4 0.000000 0.000000 0.000000 0.025265 0.000000 0.000000
# 5 0.000000 0.000000 0.000000 0.000000 0.058804 0.000000
# 6 0.000000 0.000000 0.000000 0.000000 0.000000 0.010434
#
#
# Mechanical properties :
#
#
# Convention : Reuss Voigt Hill
#
# Bulk Modulus (GPa) = 51.49981 65.60527 58.55254
# Shear Modulus (GPa) = 36.19549 55.92191 46.05870
#
# Velocity S-wave (km/s) = 3.75384 4.66595 4.23452
# Velocity P-wave (km/s) = 6.23201 7.38708 6.83399
#
# Compressibility (1/GPa) = 0.01941755
#
# Stress axis : x y z
#
# Youngs Moduli (GPa) = 74.87342 261.12730 90.04918
#
# Poissons Ratio (x) = 0.12122 0.25861
# Poissons Ratio (y) = 0.03476 0.09909
# Poissons Ratio (z) = 0.21503 0.28733
#
# Static dielectric constant tensor:
#      x y z
#    x 1.905050 0.000000 0.000000 
#    y 0.000000 2.169910 0.000000 
#    z 0.000000 0.000000 2.230460 
# 
# From -- ./inp_files/9487.got.cif
#   From: 2010.05.17/outbox.cif.g08.bks.cpg/sg48_5_cif.got.tgz:9487.got - 2010.06.03 20:39:00.
