data_PCOD9390933
_publ_section_title
;
Structure prediction by ZEFSAII (Michael W. Deem and Ramdas Pophale) SiO2 
 PCOD9390933
Probable space group: P N N N
;
_chemical_formula_sum "Si O2"
_cell_formula_units_Z 58
_cell_length_a 9.743367
_cell_length_b 17.126285
_cell_length_c 17.308283
_cell_angle_alpha 90.000000
_cell_angle_beta 90.000000
_cell_angle_gamma 90.000000
_cell_volume 2888.193031
_symmetry_space_group_name_H-M "P N N N"
_symmetry_group_IT_number 48
_space_group.IT_coordinate_system_code '2'
_symmetry_cell_setting 'orthorhombic'
loop_
_space_group_symop_operation_xyz
x,y,z
1/2-x,1/2-y,z
x,1/2-y,1/2-z
1/2-x,y,1/2-z
-x,-y,-z
1/2+x,1/2+y,-z
-x,1/2+y,1/2+z
1/2+x,-y,1/2+z
loop_
_atom_site_type_symbol
_atom_site_label
_atom_site_fract_x
_atom_site_fract_y
_atom_site_fract_z
Si Si1 0.882555 0.555786 0.107695
Si Si2 0.684926 0.064499 0.332831
Si Si3 0.354408 0.028190 0.065996
Si Si4 0.388661 0.370614 0.133129
Si Si5 0.023257 0.779994 0.009534
Si Si6 0.750000 0.750000 0.750000
Si Si7 0.700189 0.363623 0.484421
Si Si8 0.091783 0.274021 0.831480
O O1 0.740878 0.520765 0.141179
O O2 0.922516 0.633635 0.152607
O O3 0.001823 0.488676 0.109922
O O4 0.867011 0.572644 0.016267
O O5 0.750000 0.080593 0.250000
O O6 0.522759 0.081115 0.338455
O O7 0.753819 0.118814 0.397458
O O8 0.237640 0.071120 0.114527
O O9 0.320201 0.941657 0.033856
O O10 0.341005 0.306425 0.195453
O O11 0.433252 0.324900 0.054416
O O12 0.959033 0.770683 0.093057
O O13 0.166429 0.824090 0.020183
O O14 0.072043 0.694325 0.982186
O O15 0.250000 0.250000 0.826968
O O16 0.025519 0.250000 0.750000
#
# Coordination Sequence:
#
# PCOD9390933 Si02
#       8
#     8   8   8   8   8   2   8   8
#     4  10  22  40  69  96 133 176 226 278 336 412
#     4  10  24  42  67  96 132 174 223 281 343 393
#     4  10  21  42  72  97 130 179 232 275 342 402
#     4  11  27  44  68 100 136 180 223 293 338 415
#     4  10  21  42  68  95 135 180 217 274 349 400
#     4  12  32  44  62 108 142 162 238 284 360 396
#     4   9  20  41  69  99 126 173 234 267 332 428
#     4  11  24  39  61  98 133 172 224 276 335 405
#
# _framework density 20.081759000000002
#
# number of rings (size 3 to 8) (size 9 to 14) (size 15 to 20)
#    0.000    1.793    1.379    0.828    8.690    6.069 
#    0.000    1.379    0.000    0.000    0.000    0.000 
#    0.000    0.000    0.000    0.000    0.000    0.000 
#
# Total GULP energy -323555.669020 kJ/mol
# GULP energy per Si atom -5578.546018 kJ/mol
# Density = 2.003605 g / cm^3
# Si number density = 20.081759 Si / 1000 Ang^3
#
#
#
# Elastic Constant Matrix: (Units=GPa)
#
#
# Indices 1 2 3 4 5 6 
#
# 1 123.8067 51.7439 52.7437 0.0000 0.0000 0.0000
# 2 51.7439 90.4292 38.9827 0.0000 0.0000 0.0000
# 3 52.7437 38.9827 105.7820 0.0000 0.0000 0.0000
# 4 0.0000 0.0000 0.0000 85.3773 0.0000 0.0000
# 5 0.0000 0.0000 0.0000 0.0000 20.3256 0.0000
# 6 0.0000 0.0000 0.0000 0.0000 0.0000 30.5737
#
#
#
# Elastic Compliance Matrix: (Units=1/GPa)
#
#
# Indices 1 2 3 4 5 6 
#
# 1 0.011935 -0.005069 -0.004083 0.000000 0.000000 0.000000
# 2 -0.005069 0.015300 -0.003111 0.000000 0.000000 0.000000
# 3 -0.004083 -0.003111 0.012636 0.000000 0.000000 0.000000
# 4 0.000000 0.000000 0.000000 0.011713 0.000000 0.000000
# 5 0.000000 0.000000 0.000000 0.000000 0.049199 0.000000
# 6 0.000000 0.000000 0.000000 0.000000 0.000000 0.032708
#
#
# Mechanical properties :
#
#
# Convention : Reuss Voigt Hill
#
# Bulk Modulus (GPa) = 65.16809 67.43983 66.30396
# Shear Modulus (GPa) = 30.65023 39.02517 34.83770
#
# Velocity S-wave (km/s) = 3.91099 4.41309 4.16960
# Velocity P-wave (km/s) = 7.27436 7.72157 7.50130
#
# Compressibility (1/GPa) = 0.01534493
#
# Stress axis : x y z
#
# Youngs Moduli (GPa) = 83.78632 65.35930 79.14200
#
# Poissons Ratio (x) = 0.33132 0.32312
# Poissons Ratio (y) = 0.42474 0.24619
# Poissons Ratio (z) = 0.34208 0.20332
#
# Static dielectric constant tensor:
#      x y z
#    x 1.622940 0.000000 0.000000 
#    y 0.000000 1.762470 0.000000 
#    z 0.000000 0.000000 1.725500 
# 
# From -- ./inp_files/30486.got.cif
#   From: 2010.05.17/outbox.cif.g08.bks.cpg/sg48_16_cif.got.tgz:30486.got - 2010.06.03 20:39:00.
