data_PCOD9390129
_publ_section_title
;
Structure prediction by ZEFSAII (Michael W. Deem and Ramdas Pophale) SiO2 
 PCOD9390129
Probable space group: P N N N
;
_chemical_formula_sum "Si O2"
_cell_formula_units_Z 34
_cell_length_a 11.956447
_cell_length_b 14.229048
_cell_length_c 8.899734
_cell_angle_alpha 90.000000
_cell_angle_beta 90.000000
_cell_angle_gamma 90.000000
_cell_volume 1514.101584
_symmetry_space_group_name_H-M "P N N N"
_symmetry_group_IT_number 48
_space_group.IT_coordinate_system_code '2'
_symmetry_cell_setting 'orthorhombic'
loop_
_space_group_symop_operation_xyz
x,y,z
1/2-x,1/2-y,z
x,1/2-y,1/2-z
1/2-x,y,1/2-z
-x,-y,-z
1/2+x,1/2+y,-z
-x,1/2+y,1/2+z
1/2+x,-y,1/2+z
loop_
_atom_site_type_symbol
_atom_site_label
_atom_site_fract_x
_atom_site_fract_y
_atom_site_fract_z
Si Si1 0.845139 0.111762 0.852008
Si Si2 0.254731 0.082705 0.494174
Si Si3 0.250000 0.250000 0.250000
Si Si4 0.623363 0.156669 0.316856
Si Si5 0.575659 0.947586 0.240092
O O1 0.750000 0.153041 0.750000
O O2 0.955481 0.097741 0.754368
O O3 0.870608 0.166391 0.004820
O O4 0.798051 0.010959 0.910493
O O5 0.241149 0.167745 0.381078
O O6 0.346759 0.095628 0.627110
O O7 0.139753 0.063450 0.583735
O O8 0.568366 0.250000 0.250000
O O9 0.750000 0.149088 0.250000
O O10 0.565298 0.058900 0.276280
#
# Coordination Sequence:
#
# PCOD9390129 Si02
#       5
#     8   8   2   8   8
#     4  11  22  43  68  98 138 185 227 271 349 412
#     4  10  21  43  69 100 132 176 223 292 336 412
#     4  12  24  42  72 108 132 158 252 288 340 412
#     4  10  19  39  70  99 133 178 225 285 334 405
#     4  10  21  43  71  93 142 186 219 273 362 404
#
# _framework density 22.455562
#
# number of rings (size 3 to 8) (size 9 to 14) (size 15 to 20)
#    0.000    1.647    5.882    2.824    0.000    2.824 
#    8.471    2.353   25.882    0.000    0.000    0.000 
#    0.000    0.000    0.000    0.000    0.000    0.000 
#
# Total GULP energy -189771.985520 kJ/mol
# GULP energy per Si atom -5581.528986 kJ/mol
# Density = 2.240445 g / cm^3
# Si number density = 22.455562 Si / 1000 Ang^3
#
#
#
# Elastic Constant Matrix: (Units=GPa)
#
#
# Indices 1 2 3 4 5 6 
#
# 1 129.6905 8.1497 46.6597 0.0000 0.0000 0.0000
# 2 8.1497 142.5669 47.7064 0.0000 0.0000 0.0000
# 3 46.6597 47.7064 122.8854 0.0000 0.0000 0.0000
# 4 0.0000 0.0000 0.0000 23.1348 0.0000 0.0000
# 5 0.0000 0.0000 0.0000 0.0000 17.7084 0.0000
# 6 0.0000 0.0000 0.0000 0.0000 0.0000 -9.2389
#
#
#
# Elastic Compliance Matrix: (Units=1/GPa)
#
#
# Indices 1 2 3 4 5 6 
#
# 1 0.008995 0.000723 -0.003696 0.000000 0.000000 0.000000
# 2 0.000723 0.008120 -0.003427 0.000000 0.000000 0.000000
# 3 -0.003696 -0.003427 0.010871 0.000000 0.000000 0.000000
# 4 0.000000 0.000000 0.000000 0.043225 0.000000 0.000000
# 5 0.000000 0.000000 0.000000 0.000000 0.056470 0.000000
# 6 0.000000 0.000000 0.000000 0.000000 0.000000 -0.108238
#
#
# Mechanical properties :
#
#
# Convention : Reuss Voigt Hill
#
# Bulk Modulus (GPa) = 65.85006 66.68605 66.26806
# Shear Modulus (GPa) = 134.03238 25.82933 79.93086
#
# Velocity S-wave (km/s) = 7.73417 3.39520 5.97264
# Velocity P-wave (km/s) = 10.44724 6.71798 8.78283
#
# Compressibility (1/GPa) = 0.01518601
#
# Stress axis : x y z
#
# Youngs Moduli (GPa) = 111.17336 123.15969 91.98588
#
# Poissons Ratio (x) = -0.08899 0.33997
# Poissons Ratio (y) = -0.08033 0.31519
# Poissons Ratio (z) = 0.41089 0.42201
#
# Static dielectric constant tensor:
#      x y z
#    x 1.840780 0.000000 0.000000 
#    y 0.000000 1.831890 0.000000 
#    z 0.000000 0.000000 1.808850 
# 
# From -- ./inp_files/10314.got.cif
#   From: 2010.05.17/outbox.cif.g08.bks.cpg/sg48_6_cif.got.tgz:10314.got - 2010.06.03 20:39:00.
