data_PCOD9390267
_publ_section_title
;
Structure prediction by ZEFSAII (Michael W. Deem and Ramdas Pophale) SiO2 
 PCOD9390267
Probable space group: P N N N
;
_chemical_formula_sum "Si O2"
_cell_formula_units_Z 64
_cell_length_a 18.703636
_cell_length_b 14.385530
_cell_length_c 13.009834
_cell_angle_alpha 90.000000
_cell_angle_beta 90.000000
_cell_angle_gamma 90.000000
_cell_volume 3500.448271
_symmetry_space_group_name_H-M "P N N N"
_symmetry_group_IT_number 48
_space_group.IT_coordinate_system_code '2'
_symmetry_cell_setting 'orthorhombic'
loop_
_space_group_symop_operation_xyz
x,y,z
1/2-x,1/2-y,z
x,1/2-y,1/2-z
1/2-x,y,1/2-z
-x,-y,-z
1/2+x,1/2+y,-z
-x,1/2+y,1/2+z
1/2+x,-y,1/2+z
loop_
_atom_site_type_symbol
_atom_site_label
_atom_site_fract_x
_atom_site_fract_y
_atom_site_fract_z
Si Si1 0.423648 0.242313 0.369887
Si Si2 0.252007 0.993091 0.362699
Si Si3 0.697948 0.660643 0.509153
Si Si4 0.521944 0.244523 0.940811
Si Si5 0.178162 0.703956 0.136153
Si Si6 0.098947 0.466863 0.412769
Si Si7 0.601446 0.655957 0.314066
Si Si8 0.461251 0.056704 0.634462
O O1 0.438210 0.250000 0.250000
O O2 0.365602 0.315324 0.411163
O O3 0.493036 0.253462 0.442612
O O4 0.388344 0.141847 0.393485
O O5 0.250000 0.038824 0.250000
O O6 0.199566 0.904843 0.358273
O O7 0.233849 0.067543 0.449424
O O8 0.335016 0.968966 0.382153
O O9 0.750000 0.750000 0.504379
O O10 0.662425 0.644257 0.398316
O O11 0.604711 0.222747 0.923477
O O12 0.472699 0.173236 0.875768
O O13 0.498634 0.344907 0.895343
O O14 0.250000 0.750000 0.090181
O O15 0.169779 0.750000 0.250000
O O16 0.080221 0.477202 0.533145
O O17 0.027992 0.489861 0.348360
O O18 0.616488 0.750000 0.250000
O O19 0.588714 0.575518 0.231234
#
# Coordination Sequence:
#
# PCOD9390267 Si02
#       8
#     8   8   8   8   8   8   8   8
#     4  10  20  39  57  80 114 161 197 237 298 360
#     4  12  24  36  57  85 121 158 191 241 308 358
#     4  11  23  38  56  88 125 158 201 244 299 368
#     4   9  19  35  59  85 114 145 196 253 293 345
#     4  11  21  38  60  90 116 148 196 247 307 358
#     4  10  20  35  56  85 114 152 202 239 287 356
#     4   9  19  36  59  86 117 159 196 244 305 341
#     4   9  18  35  61  84 112 150 202 251 285 349
#
# _framework density 18.283372
#
# number of rings (size 3 to 8) (size 9 to 14) (size 15 to 20)
#    0.000    1.875    2.500    3.375    1.750    0.250 
#    2.250    1.250    0.000    0.375    3.250    0.000 
#    0.000    0.000    0.000    0.000    0.000    0.000 
#
# Total GULP energy -356999.377719 kJ/mol
# GULP energy per Si atom -5578.115277 kJ/mol
# Density = 1.824176 g / cm^3
# Si number density = 18.283372 Si / 1000 Ang^3
#
#
#
# Elastic Constant Matrix: (Units=GPa)
#
#
# Indices 1 2 3 4 5 6 
#
# 1 108.0162 20.1477 56.1215 0.0000 0.0000 0.0000
# 2 20.1477 44.1175 19.0333 0.0000 0.0000 0.0000
# 3 56.1215 19.0333 118.7353 0.0000 0.0000 0.0000
# 4 0.0000 0.0000 0.0000 16.8831 0.0000 0.0000
# 5 0.0000 0.0000 0.0000 0.0000 15.2260 0.0000
# 6 0.0000 0.0000 0.0000 0.0000 0.0000 20.5159
#
#
#
# Elastic Compliance Matrix: (Units=1/GPa)
#
#
# Indices 1 2 3 4 5 6 
#
# 1 0.012745 -0.003461 -0.005469 0.000000 0.000000 0.000000
# 2 -0.003461 0.025291 -0.002418 0.000000 0.000000 0.000000
# 3 -0.005469 -0.002418 0.011395 0.000000 0.000000 0.000000
# 4 0.000000 0.000000 0.000000 0.059231 0.000000 0.000000
# 5 0.000000 0.000000 0.000000 0.000000 0.065677 0.000000
# 6 0.000000 0.000000 0.000000 0.000000 0.000000 0.048743
#
#
# Mechanical properties :
#
#
# Convention : Reuss Voigt Hill
#
# Bulk Modulus (GPa) = 37.40613 51.27491 44.34052
# Shear Modulus (GPa) = 19.63177 22.22943 20.93060
#
# Velocity S-wave (km/s) = 3.28037 3.49066 3.38714
# Velocity P-wave (km/s) = 5.90350 6.65971 6.29297
#
# Compressibility (1/GPa) = 0.02673359
#
# Stress axis : x y z
#
# Youngs Moduli (GPa) = 78.46172 39.54044 87.75881
#
# Poissons Ratio (x) = 0.13684 0.47998
# Poissons Ratio (y) = 0.27155 0.21222
# Poissons Ratio (z) = 0.42913 0.09562
#
# Static dielectric constant tensor:
#      x y z
#    x 1.643720 0.000000 0.000000 
#    y 0.000000 1.665540 0.000000 
#    z 0.000000 0.000000 1.620970 
# 
# From -- ./inp_files/22353.got.cif
#   From: 2010.05.17/outbox.cif.g08.bks.cpg/sg48_12_cif.got.tgz:22353.got - 2010.06.03 20:39:00.
