data_PCOD9390529
_publ_section_title
;
Structure prediction by ZEFSAII (Michael W. Deem and Ramdas Pophale) SiO2 
 PCOD9390529
Probable space group: P N N N
;
_chemical_formula_sum "Si O2"
_cell_formula_units_Z 60
_cell_length_a 25.004395
_cell_length_b 5.499237
_cell_length_c 19.483689
_cell_angle_alpha 90.000000
_cell_angle_beta 90.000000
_cell_angle_gamma 90.000000
_cell_volume 2679.106490
_symmetry_space_group_name_H-M "P N N N"
_symmetry_group_IT_number 48
_space_group.IT_coordinate_system_code '2'
_symmetry_cell_setting 'orthorhombic'
loop_
_space_group_symop_operation_xyz
x,y,z
1/2-x,1/2-y,z
x,1/2-y,1/2-z
1/2-x,y,1/2-z
-x,-y,-z
1/2+x,1/2+y,-z
-x,1/2+y,1/2+z
1/2+x,-y,1/2+z
loop_
_atom_site_type_symbol
_atom_site_label
_atom_site_fract_x
_atom_site_fract_y
_atom_site_fract_z
Si Si1 0.801269 0.112438 0.101622
Si Si2 0.432471 0.964177 0.433676
Si Si3 0.645898 0.834278 0.913556
Si Si4 0.888809 0.998113 0.207253
Si Si5 0.750000 0.750000 0.989474
Si Si6 0.018060 0.771051 0.634646
Si Si7 0.930354 0.091068 0.682865
Si Si8 0.397763 0.606643 0.541958
O O1 0.750000 0.250000 0.132518
O O2 0.838803 0.970167 0.155006
O O3 0.840997 0.319517 0.072853
O O4 0.779831 0.941724 0.039772
O O5 0.374499 0.058857 0.407732
O O6 0.477049 0.166831 0.422032
O O7 0.448650 0.758195 0.380252
O O8 0.422130 0.850055 0.507228
O O9 0.623784 0.966741 0.846107
O O10 0.705907 0.864210 0.938606
O O11 0.612140 0.924933 0.980109
O O12 0.878314 0.250000 0.250000
O O13 0.943342 0.067834 0.167190
O O14 0.894361 0.750000 0.250000
O O15 0.059792 0.959146 0.599891
O O16 0.978205 0.897836 0.688048
O O17 0.923025 0.250000 0.750000
#
# Coordination Sequence:
#
# PCOD9390529 Si02
#       8
#     8   8   8   8   4   8   8   8
#     4  11  24  43  72 101 133 187 232 306 361 428
#     4  10  21  37  62  95 132 174 216 285 346 417
#     4  10  22  38  66 100 130 176 221 302 353 435
#     4  11  29  49  68 102 151 192 253 299 349 426
#     4  12  22  42  75  97 132 170 244 290 390 426
#     4  10  24  38  66  93 133 186 228 281 349 419
#     4  10  24  43  65  95 135 185 233 279 353 436
#     4  10  20  40  59  99 134 164 226 286 352 415
#
# _framework density 22.395527000000001
#
# number of rings (size 3 to 8) (size 9 to 14) (size 15 to 20)
#    0.000    1.600    2.667    0.400    5.600    7.733 
#    0.000    0.000    0.000    2.400    0.000    0.000 
#    0.000    0.000    0.000    0.000    0.000    0.000 
#
# Total GULP energy -335087.173848 kJ/mol
# GULP energy per Si atom -5584.786231 kJ/mol
# Density = 2.234455 g / cm^3
# Si number density = 22.395527 Si / 1000 Ang^3
#
#
#
# Elastic Constant Matrix: (Units=GPa)
#
#
# Indices 1 2 3 4 5 6 
#
# 1 160.8361 42.4979 75.4171 0.0000 0.0000 0.0000
# 2 42.4979 62.4057 31.1910 0.0000 0.0000 0.0000
# 3 75.4171 31.1910 83.1525 0.0000 0.0000 0.0000
# 4 0.0000 0.0000 0.0000 38.1751 0.0000 0.0000
# 5 0.0000 0.0000 0.0000 0.0000 26.2193 0.0000
# 6 0.0000 0.0000 0.0000 0.0000 0.0000 16.8927
#
#
#
# Elastic Compliance Matrix: (Units=1/GPa)
#
#
# Indices 1 2 3 4 5 6 
#
# 1 0.011305 -0.003168 -0.009065 0.000000 0.000000 0.000000
# 2 -0.003168 0.020609 -0.004857 0.000000 0.000000 0.000000
# 3 -0.009065 -0.004857 0.022070 0.000000 0.000000 0.000000
# 4 0.000000 0.000000 0.000000 0.026195 0.000000 0.000000
# 5 0.000000 0.000000 0.000000 0.000000 0.038140 0.000000
# 6 0.000000 0.000000 0.000000 0.000000 0.000000 0.059197
#
#
# Mechanical properties :
#
#
# Convention : Reuss Voigt Hill
#
# Bulk Modulus (GPa) = 50.49636 67.17847 58.83742
# Shear Modulus (GPa) = 22.90428 26.74330 24.82379
#
# Velocity S-wave (km/s) = 3.20146 3.45938 3.33292
# Velocity P-wave (km/s) = 6.02182 6.78365 6.41405
#
# Compressibility (1/GPa) = 0.01980341
#
# Stress axis : x y z
#
# Youngs Moduli (GPa) = 88.45336 48.52176 45.30997
#
# Poissons Ratio (x) = 0.15371 0.41075
# Poissons Ratio (y) = 0.28021 0.22009
# Poissons Ratio (z) = 0.80186 0.23569
#
# Static dielectric constant tensor:
#      x y z
#    x 1.826580 0.000000 0.000000 
#    y 0.000000 1.923080 0.000000 
#    z 0.000000 0.000000 1.833930 
# 
# From -- ./inp_files/34975.got.cif
#   From: 2010.05.17/outbox.cif.g08.bks.cpg/sg48_18_cif.got.tgz:34975.got - 2010.06.03 20:39:00.
