data_PCOD9390522
_publ_section_title
;
Structure prediction by ZEFSAII (Michael W. Deem and Ramdas Pophale) SiO2 
 PCOD9390522
Probable space group: P N N N
;
_chemical_formula_sum "Si O2"
_cell_formula_units_Z 40
_cell_length_a 8.036327
_cell_length_b 14.528768
_cell_length_c 15.328921
_cell_angle_alpha 90.000000
_cell_angle_beta 90.000000
_cell_angle_gamma 90.000000
_cell_volume 1789.773094
_symmetry_space_group_name_H-M "P N N N"
_symmetry_group_IT_number 48
_space_group.IT_coordinate_system_code '2'
_symmetry_cell_setting 'orthorhombic'
loop_
_space_group_symop_operation_xyz
x,y,z
1/2-x,1/2-y,z
x,1/2-y,1/2-z
1/2-x,y,1/2-z
-x,-y,-z
1/2+x,1/2+y,-z
-x,1/2+y,1/2+z
1/2+x,-y,1/2+z
loop_
_atom_site_type_symbol
_atom_site_label
_atom_site_fract_x
_atom_site_fract_y
_atom_site_fract_z
Si Si1 0.054729 0.770933 0.347780
Si Si2 0.072647 0.045574 0.718008
Si Si3 0.508763 0.927514 0.924061
Si Si4 0.855148 0.915236 0.832296
Si Si5 0.555213 0.773421 0.531485
O O1 0.250000 0.750000 0.349968
O O2 0.992670 0.750000 0.250000
O O3 0.014389 0.879491 0.344984
O O4 0.979340 0.713113 0.428239
O O5 0.250000 0.080372 0.750000
O O6 0.104520 0.958144 0.656312
O O7 0.951689 0.003912 0.792962
O O8 0.700273 0.937968 0.893672
O O9 0.466351 0.823269 0.948609
O O10 0.500000 0.000000 0.000000
O O11 0.750000 0.871436 0.750000
O O12 0.969806 0.849662 0.893039
O O13 0.750000 0.750000 0.538148
#
# Coordination Sequence:
#
# PCOD9390522 Si02
#       5
#     8   8   8   8   8
#     4  11  27  42  66  95 138 182 233 288 357 416
#     4  11  25  43  67 100 135 182 229 289 353 432
#     4  10  20  39  70  95 139 173 225 287 356 417
#     4   9  22  42  70  99 139 181 234 291 365 425
#     4  10  22  42  68 105 132 182 238 294 353 425
#
# _framework density 22.349202999999999
#
# number of rings (size 3 to 8) (size 9 to 14) (size 15 to 20)
#    0.000    1.800    2.000    0.000   11.200   10.800 
#    0.000    3.000    0.000    0.000    0.000    0.000 
#    0.000    0.000    0.000    0.000    0.000    0.000 
#
# Total GULP energy -222752.407326 kJ/mol
# GULP energy per Si atom -5568.810183 kJ/mol
# Density = 2.229833 g / cm^3
# Si number density = 22.349203 Si / 1000 Ang^3
#
#
#
# Elastic Constant Matrix: (Units=GPa)
#
#
# Indices 1 2 3 4 5 6 
#
# 1 55.7163 26.0135 22.7349 0.0000 0.0000 0.0000
# 2 26.0135 69.8097 48.4066 0.0000 0.0000 0.0000
# 3 22.7349 48.4066 128.3831 0.0000 0.0000 0.0000
# 4 0.0000 0.0000 0.0000 72.5004 0.0000 0.0000
# 5 0.0000 0.0000 0.0000 0.0000 22.9768 0.0000
# 6 0.0000 0.0000 0.0000 0.0000 0.0000 29.7718
#
#
#
# Elastic Compliance Matrix: (Units=1/GPa)
#
#
# Indices 1 2 3 4 5 6 
#
# 1 0.021839 -0.007388 -0.001082 0.000000 0.000000 0.000000
# 2 -0.007388 0.021895 -0.006947 0.000000 0.000000 0.000000
# 3 -0.001082 -0.006947 0.010600 0.000000 0.000000 0.000000
# 4 0.000000 0.000000 0.000000 0.013793 0.000000 0.000000
# 5 0.000000 0.000000 0.000000 0.000000 0.043522 0.000000
# 6 0.000000 0.000000 0.000000 0.000000 0.000000 0.033589
#
#
# Mechanical properties :
#
#
# Convention : Reuss Voigt Hill
#
# Bulk Modulus (GPa) = 42.55252 49.80212 46.17732
# Shear Modulus (GPa) = 27.18804 35.50009 31.34406
#
# Velocity S-wave (km/s) = 3.49163 3.98983 3.74902
# Velocity P-wave (km/s) = 5.94445 6.59977 6.28067
#
# Compressibility (1/GPa) = 0.02350037
#
# Stress axis : x y z
#
# Youngs Moduli (GPa) = 45.79012 45.67300 94.33822
#
# Poissons Ratio (x) = 0.33742 0.10206
# Poissons Ratio (y) = 0.33829 0.65538
# Poissons Ratio (z) = 0.04954 0.31730
#
# Static dielectric constant tensor:
#      x y z
#    x 1.838970 0.000000 0.000000 
#    y 0.000000 2.035570 0.000000 
#    z 0.000000 0.000000 1.984080 
# 
# From -- ./inp_files/25243.got.cif
#   From: 2010.05.17/outbox.cif.g08.bks.cpg/sg48_13_cif.got.tgz:25243.got - 2010.06.03 20:39:00.
