data_PCOD9390177
_publ_section_title
;
Structure prediction by ZEFSAII (Michael W. Deem and Ramdas Pophale) SiO2 
 PCOD9390177
Probable space group: P N N N
;
_chemical_formula_sum "Si O2"
_cell_formula_units_Z 46
_cell_length_a 7.944185
_cell_length_b 9.555989
_cell_length_c 24.419100
_cell_angle_alpha 90.000000
_cell_angle_beta 90.000000
_cell_angle_gamma 90.000000
_cell_volume 1853.764853
_symmetry_space_group_name_H-M "P N N N"
_symmetry_group_IT_number 48
_space_group.IT_coordinate_system_code '2'
_symmetry_cell_setting 'orthorhombic'
loop_
_space_group_symop_operation_xyz
x,y,z
1/2-x,1/2-y,z
x,1/2-y,1/2-z
1/2-x,y,1/2-z
-x,-y,-z
1/2+x,1/2+y,-z
-x,1/2+y,1/2+z
1/2+x,-y,1/2+z
loop_
_atom_site_type_symbol
_atom_site_label
_atom_site_fract_x
_atom_site_fract_y
_atom_site_fract_z
Si Si1 0.068219 0.123474 0.951022
Si Si2 0.750000 0.250000 0.933836
Si Si3 0.164910 0.976211 0.340118
Si Si4 0.250000 0.250000 0.852117
Si Si5 0.298586 0.557550 0.688522
Si Si6 0.516401 0.861743 0.619207
Si Si7 0.250000 0.250000 0.039997
Si Si8 0.750000 0.250000 0.750000
O O1 0.106024 0.211169 0.895575
O O2 0.902526 0.200412 0.971289
O O3 0.215281 0.128782 0.995540
O O4 0.025218 0.974073 0.928227
O O5 0.807307 0.380634 0.894780
O O6 0.160746 0.859527 0.291374
O O7 0.994493 0.066926 0.329915
O O8 0.332842 0.073865 0.342528
O O9 0.271834 0.110027 0.818546
O O10 0.250000 0.593976 0.750000
O O11 0.155265 0.634068 0.652808
O O12 0.595868 0.738348 0.582155
#
# Coordination Sequence:
#
# PCOD9390177 Si02
#       8
#     8   4   8   4   8   8   4   2
#     4   9  18  35  59  87 119 157 209 255 316 390
#     4   9  16  33  52  86 126 156 189 254 319 378
#     4  10  20  35  54  88 131 157 196 257 314 397
#     4   9  17  30  53  88 132 155 182 251 321 384
#     4  11  21  33  59  91 126 160 203 255 328 391
#     4  10  23  41  58  88 125 164 212 270 319 384
#     4  11  22  42  63  79 119 175 214 264 323 372
#     4  10  20  32  62  94 124 166 200 248 348 398
#
# _framework density 24.814367000000001
#
# number of rings (size 3 to 8) (size 9 to 14) (size 15 to 20)
#    0.000    2.087    1.739    1.826    4.870    0.000 
#    3.130    1.739    0.000    5.739    0.000    0.000 
#    0.000    0.000    0.000    0.000    0.000    0.000 
#
# Total GULP energy -256346.713333 kJ/mol
# GULP energy per Si atom -5572.754638 kJ/mol
# Density = 2.475789 g / cm^3
# Si number density = 24.814367 Si / 1000 Ang^3
#
#
#
# Elastic Constant Matrix: (Units=GPa)
#
#
# Indices 1 2 3 4 5 6 
#
# 1 166.1907 54.5949 64.6259 0.0000 0.0000 0.0000
# 2 54.5949 44.7638 45.5217 0.0000 0.0000 0.0000
# 3 64.6259 45.5217 131.4374 0.0000 0.0000 0.0000
# 4 0.0000 0.0000 0.0000 16.4412 0.0000 0.0000
# 5 0.0000 0.0000 0.0000 0.0000 36.8970 0.0000
# 6 0.0000 0.0000 0.0000 0.0000 0.0000 38.8090
#
#
#
# Elastic Compliance Matrix: (Units=1/GPa)
#
#
# Indices 1 2 3 4 5 6 
#
# 1 0.010139 -0.011263 -0.001084 0.000000 0.000000 0.000000
# 2 -0.011263 0.046996 -0.010739 0.000000 0.000000 0.000000
# 3 -0.001084 -0.010739 0.011861 0.000000 0.000000 0.000000
# 4 0.000000 0.000000 0.000000 0.060823 0.000000 0.000000
# 5 0.000000 0.000000 0.000000 0.000000 0.027102 0.000000
# 6 0.000000 0.000000 0.000000 0.000000 0.000000 0.025767
#
#
# Mechanical properties :
#
#
# Convention : Reuss Voigt Hill
#
# Bulk Modulus (GPa) = 43.81388 74.65298 59.23343
# Shear Modulus (GPa) = 21.14449 30.27272 25.70861
#
# Velocity S-wave (km/s) = 2.92225 3.49659 3.22225
# Velocity P-wave (km/s) = 5.39269 6.81553 6.14543
#
# Compressibility (1/GPa) = 0.02282382
#
# Stress axis : x y z
#
# Youngs Moduli (GPa) = 98.63169 21.27826 84.31241
#
# Poissons Ratio (x) = 0.23965 0.09143
# Poissons Ratio (y) = 1.11085 0.90542
# Poissons Ratio (z) = 0.10696 0.22851
#
# Static dielectric constant tensor:
#      x y z
#    x 1.487760 0.000000 0.000000 
#    y 0.000000 2.049280 0.000000 
#    z 0.000000 0.000000 1.928680 
# 
# From -- ./inp_files/35895.got.cif
#   From: 2010.05.17/outbox.cif.g08.bks.cpg/sg48_18_cif.got.tgz:35895.got - 2010.06.03 20:39:00.
