data_PCOD9390518
_publ_section_title
;
Structure prediction by ZEFSAII (Michael W. Deem and Ramdas Pophale) SiO2 
 PCOD9390518
Probable space group: P N N N
;
_chemical_formula_sum "Si O2"
_cell_formula_units_Z 48
_cell_length_a 7.599017
_cell_length_b 8.690316
_cell_length_c 30.279498
_cell_angle_alpha 90.000000
_cell_angle_beta 90.000000
_cell_angle_gamma 90.000000
_cell_volume 1999.593220
_symmetry_space_group_name_H-M "P N N N"
_symmetry_group_IT_number 48
_space_group.IT_coordinate_system_code '2'
_symmetry_cell_setting 'orthorhombic'
loop_
_space_group_symop_operation_xyz
x,y,z
1/2-x,1/2-y,z
x,1/2-y,1/2-z
1/2-x,y,1/2-z
-x,-y,-z
1/2+x,1/2+y,-z
-x,1/2+y,1/2+z
1/2+x,-y,1/2+z
loop_
_atom_site_type_symbol
_atom_site_label
_atom_site_fract_x
_atom_site_fract_y
_atom_site_fract_z
Si Si1 0.548104 0.314876 0.490772
Si Si2 0.868253 0.614269 0.433684
Si Si3 0.953015 0.585586 0.738119
Si Si4 0.520800 0.591380 0.155285
Si Si5 0.105133 0.863836 0.600606
Si Si6 0.937360 0.925181 0.323343
O O1 0.750000 0.250000 0.497745
O O2 0.500000 0.500000 0.500000
O O3 0.440788 0.195072 0.522381
O O4 0.497393 0.288382 0.439300
O O5 0.750000 0.750000 0.413193
O O6 0.012395 0.574898 0.396722
O O7 0.730423 0.475139 0.430121
O O8 0.032971 0.750000 0.750000
O O9 0.750000 0.588657 0.750000
O O10 0.952026 0.538359 0.687385
O O11 0.040818 0.469229 0.772539
O O12 0.730196 0.582126 0.165727
O O13 0.469041 0.763046 0.169000
O O14 0.250000 0.750000 0.621345
O O15 0.003418 0.951741 0.639184
#
# Coordination Sequence:
#
# PCOD9390518 Si02
#       6
#     8   8   8   8   8   8
#     4  11  23  42  68 102 140 185 235 290 353 421
#     4  11  20  43  67  97 138 174 226 294 337 408
#     4  11  26  42  59  91 136 168 213 278 347 410
#     4  10  20  40  65  95 120 168 219 273 331 400
#     4  10  22  39  68  97 135 174 230 280 350 408
#     4  10  20  39  67  92 121 164 224 269 321 407
#
# _framework density 24.004881000000001
#
# number of rings (size 3 to 8) (size 9 to 14) (size 15 to 20)
#    0.000    1.500    5.000    1.000    4.667    6.000 
#    6.000    0.000    3.667    0.000    0.000    0.000 
#    0.000    0.000    0.000    0.000    0.000    0.000 
#
# Total GULP energy -267345.761491 kJ/mol
# GULP energy per Si atom -5569.703364 kJ/mol
# Density = 2.395024 g / cm^3
# Si number density = 24.004881 Si / 1000 Ang^3
#
#
#
# Elastic Constant Matrix: (Units=GPa)
#
#
# Indices 1 2 3 4 5 6 
#
# 1 45.4588 0.0161 -1.9313 0.0000 0.0000 0.0000
# 2 0.0161 97.5943 29.3106 0.0000 0.0000 0.0000
# 3 -1.9313 29.3106 120.1918 0.0000 0.0000 0.0000
# 4 0.0000 0.0000 0.0000 5.6608 0.0000 0.0000
# 5 0.0000 0.0000 0.0000 0.0000 26.3432 0.0000
# 6 0.0000 0.0000 0.0000 0.0000 0.0000 5.9130
#
#
#
# Elastic Compliance Matrix: (Units=1/GPa)
#
#
# Indices 1 2 3 4 5 6 
#
# 1 0.022014 -0.000119 0.000383 0.000000 0.000000 0.000000
# 2 -0.000119 0.011057 -0.002698 0.000000 0.000000 0.000000
# 3 0.000383 -0.002698 0.008984 0.000000 0.000000 0.000000
# 4 0.000000 0.000000 0.000000 0.176653 0.000000 0.000000
# 5 0.000000 0.000000 0.000000 0.000000 0.037960 0.000000
# 6 0.000000 0.000000 0.000000 0.000000 0.000000 0.169118
#
#
# Mechanical properties :
#
#
# Convention : Reuss Voigt Hill
#
# Bulk Modulus (GPa) = 26.89114 35.33728 31.11421
# Shear Modulus (GPa) = 11.28538 23.30671 17.29605
#
# Velocity S-wave (km/s) = 2.17060 3.11933 2.68717
# Velocity P-wave (km/s) = 4.18434 5.26559 4.75579
#
# Compressibility (1/GPa) = 0.03718697
#
# Stress axis : x y z
#
# Youngs Moduli (GPa) = 45.42513 90.44127 111.30651
#
# Poissons Ratio (x) = 0.01072 -0.04259
# Poissons Ratio (y) = 0.00539 0.30034
# Poissons Ratio (z) = -0.01738 0.24404
#
# Static dielectric constant tensor:
#      x y z
#    x 1.991340 0.000000 0.000000 
#    y 0.000000 2.173760 0.000000 
#    z 0.000000 0.000000 2.080610 
# 
# From -- ./inp_files/38689.got.cif
#   From: 2010.05.17/outbox.cif.g08.bks.cpg/sg48_20_cif.got.tgz:38689.got - 2010.06.03 20:39:00.
