data_PCOD9390128
_publ_section_title
;
Structure prediction by ZEFSAII (Michael W. Deem and Ramdas Pophale) SiO2 
 PCOD9390128
Probable space group: P N N N
;
_chemical_formula_sum "Si O2"
_cell_formula_units_Z 36
_cell_length_a 10.205107
_cell_length_b 12.713587
_cell_length_c 11.700403
_cell_angle_alpha 90.000000
_cell_angle_beta 90.000000
_cell_angle_gamma 90.000000
_cell_volume 1518.051420
_symmetry_space_group_name_H-M "P N N N"
_symmetry_group_IT_number 48
_space_group.IT_coordinate_system_code '2'
_symmetry_cell_setting 'orthorhombic'
loop_
_space_group_symop_operation_xyz
x,y,z
1/2-x,1/2-y,z
x,1/2-y,1/2-z
1/2-x,y,1/2-z
-x,-y,-z
1/2+x,1/2+y,-z
-x,1/2+y,1/2+z
1/2+x,-y,1/2+z
loop_
_atom_site_type_symbol
_atom_site_label
_atom_site_fract_x
_atom_site_fract_y
_atom_site_fract_z
Si Si1 0.653882 0.967461 0.356379
Si Si2 0.962070 0.226751 0.876225
Si Si3 0.465896 0.638335 0.707829
Si Si4 0.335354 0.142129 0.018659
Si Si5 0.750000 0.250000 0.440389
O O1 0.750000 0.947710 0.250000
O O2 0.551999 0.873911 0.363601
O O3 0.743180 0.948983 0.467907
O O4 0.572723 0.068997 0.316155
O O5 0.909059 0.250000 0.750000
O O6 0.855742 0.203579 0.972720
O O7 0.056991 0.319154 0.924947
O O8 0.517093 0.750000 0.750000
O O9 0.578463 0.598718 0.623594
O O10 0.333231 0.668799 0.637336
O O11 0.250000 0.250000 0.042510
#
# Coordination Sequence:
#
# PCOD9390128 Si02
#       5
#     8   8   8   8   4
#     4  11  21  39  72  97 134 178 238 280 343 411
#     4  10  19  39  70  95 134 177 227 291 346 400
#     4  11  24  45  68  96 145 187 220 283 353 409
#     4   9  21  41  71  99 134 182 233 283 340 413
#     4  10  22  42  66  96 142 180 224 280 356 414
#
# _framework density 23.714611000000001
#
# number of rings (size 3 to 8) (size 9 to 14) (size 15 to 20)
#    0.000    1.778    2.222    2.000    0.000    1.333 
#    4.000   17.778    4.889    5.333    0.000    0.000 
#    0.000    0.000    0.000    0.000    0.000    0.000 
#
# Total GULP energy -201252.936065 kJ/mol
# GULP energy per Si atom -5590.359335 kJ/mol
# Density = 2.366064 g / cm^3
# Si number density = 23.714611 Si / 1000 Ang^3
#
#
#
# Elastic Constant Matrix: (Units=GPa)
#
#
# Indices 1 2 3 4 5 6 
#
# 1 77.4392 24.3946 49.9437 0.0000 0.0000 0.0000
# 2 24.3946 88.9618 44.5735 0.0000 0.0000 0.0000
# 3 49.9437 44.5735 118.9646 0.0000 0.0000 0.0000
# 4 0.0000 0.0000 0.0000 27.2182 0.0000 0.0000
# 5 0.0000 0.0000 0.0000 0.0000 54.7081 0.0000
# 6 0.0000 0.0000 0.0000 0.0000 0.0000 -15.7930
#
#
#
# Elastic Compliance Matrix: (Units=1/GPa)
#
#
# Indices 1 2 3 4 5 6 
#
# 1 0.017849 -0.001403 -0.006968 0.000000 0.000000 0.000000
# 2 -0.001403 0.013949 -0.004637 0.000000 0.000000 0.000000
# 3 -0.006968 -0.004637 0.013068 0.000000 0.000000 0.000000
# 4 0.000000 0.000000 0.000000 0.036740 0.000000 0.000000
# 5 0.000000 0.000000 0.000000 0.000000 0.018279 0.000000
# 6 0.000000 0.000000 0.000000 0.000000 0.000000 -0.063319
#
#
# Mechanical properties :
#
#
# Convention : Reuss Voigt Hill
#
# Bulk Modulus (GPa) = 53.04995 58.13214 55.59104
# Shear Modulus (GPa) = 72.60456 24.32358 48.46407
#
# Velocity S-wave (km/s) = 5.53917 3.20610 4.52557
# Velocity P-wave (km/s) = 7.95793 6.18642 7.12743
#
# Compressibility (1/GPa) = 0.01885016
#
# Stress axis : x y z
#
# Youngs Moduli (GPa) = 56.02506 71.68939 76.52012
#
# Poissons Ratio (x) = 0.10061 0.53316
# Poissons Ratio (y) = 0.07863 0.35484
# Poissons Ratio (z) = 0.39036 0.33244
#
# Static dielectric constant tensor:
#      x y z
#    x 2.064920 0.000000 0.000000 
#    y 0.000000 1.949790 0.000000 
#    z 0.000000 0.000000 1.910840 
# 
# From -- ./inp_files/19705.got.cif
#   From: 2010.05.17/outbox.cif.g08.bks.cpg/sg48_10_cif.got.tgz:19705.got - 2010.06.03 20:39:00.
