data_PCOD9390569
_publ_section_title
;
Structure prediction by ZEFSAII (Michael W. Deem and Ramdas Pophale) SiO2 
 PCOD9390569
Probable space group: P N N N
;
_chemical_formula_sum "Si O2"
_cell_formula_units_Z 58
_cell_length_a 11.374492
_cell_length_b 16.254919
_cell_length_c 16.382815
_cell_angle_alpha 90.000000
_cell_angle_beta 90.000000
_cell_angle_gamma 90.000000
_cell_volume 3029.042357
_symmetry_space_group_name_H-M "P N N N"
_symmetry_group_IT_number 48
_space_group.IT_coordinate_system_code '2'
_symmetry_cell_setting 'orthorhombic'
loop_
_space_group_symop_operation_xyz
x,y,z
1/2-x,1/2-y,z
x,1/2-y,1/2-z
1/2-x,y,1/2-z
-x,-y,-z
1/2+x,1/2+y,-z
-x,1/2+y,1/2+z
1/2+x,-y,1/2+z
loop_
_atom_site_type_symbol
_atom_site_label
_atom_site_fract_x
_atom_site_fract_y
_atom_site_fract_z
Si Si1 0.949302 0.820346 0.126720
Si Si2 0.529928 0.643878 0.306531
Si Si3 0.430624 0.425069 0.456771
Si Si4 0.173888 0.869299 0.607207
Si Si5 0.224984 0.063519 0.611068
Si Si6 0.814437 0.329150 0.552490
Si Si7 0.250000 0.750000 0.750000
Si Si8 0.696154 0.458802 0.659465
O O1 0.007363 0.843904 0.213459
O O2 0.921944 0.725788 0.149207
O O3 0.845587 0.885369 0.113770
O O4 0.046227 0.818365 0.056418
O O5 0.641126 0.585123 0.313035
O O6 0.416774 0.602021 0.345484
O O7 0.500000 0.500000 0.500000
O O8 0.538459 0.370068 0.424629
O O9 0.341972 0.402667 0.529616
O O10 0.353067 0.458170 0.381269
O O11 0.256968 0.835659 0.535660
O O12 0.183955 0.813181 0.687936
O O13 0.221024 0.964093 0.613227
O O14 0.750000 0.250000 0.593551
O O15 0.787354 0.413260 0.600421
O O16 0.750000 0.467295 0.750000
#
# Coordination Sequence:
#
# PCOD9390569 Si02
#       8
#     8   8   8   8   8   8   2   8
#     4  11  25  34  58  96 137 164 198 263 318 387
#     4  11  21  38  56  92 134 167 204 249 325 396
#     4  10  20  41  67  88 117 170 217 259 318 391
#     4  11  24  43  69  90 123 165 221 268 312 380
#     4  11  22  40  64  89 125 176 215 252 323 392
#     4  12  22  38  61  95 130 165 209 264 313 378
#     4  12  28  44  64 104 118 164 224 272 318 356
#     4  12  21  37  66  96 124 164 213 259 317 389
#
# _framework density 19.147966
#
# number of rings (size 3 to 8) (size 9 to 14) (size 15 to 20)
#    0.000    0.828    8.966    0.828    1.931    1.931 
#    0.000    0.000    0.000    0.000    0.000    0.000 
#    0.000    0.000    0.000    0.000    0.000    0.000 
#
# Total GULP energy -322958.546241 kJ/mol
# GULP energy per Si atom -5568.250797 kJ/mol
# Density = 1.910438 g / cm^3
# Si number density = 19.147966 Si / 1000 Ang^3
#
#
#
# Elastic Constant Matrix: (Units=GPa)
#
#
# Indices 1 2 3 4 5 6 
#
# 1 76.8218 37.4674 24.0739 0.0000 0.0000 0.0000
# 2 37.4674 74.2884 33.1906 0.0000 0.0000 0.0000
# 3 24.0739 33.1906 103.1848 0.0000 0.0000 0.0000
# 4 0.0000 0.0000 0.0000 28.5377 0.0000 0.0000
# 5 0.0000 0.0000 0.0000 0.0000 29.0986 0.0000
# 6 0.0000 0.0000 0.0000 0.0000 0.0000 13.2024
#
#
#
# Elastic Compliance Matrix: (Units=1/GPa)
#
#
# Indices 1 2 3 4 5 6 
#
# 1 0.017447 -0.008152 -0.001448 0.000000 0.000000 0.000000
# 2 -0.008152 0.019530 -0.004380 0.000000 0.000000 0.000000
# 3 -0.001448 -0.004380 0.011438 0.000000 0.000000 0.000000
# 4 0.000000 0.000000 0.000000 0.035041 0.000000 0.000000
# 5 0.000000 0.000000 0.000000 0.000000 0.034366 0.000000
# 6 0.000000 0.000000 0.000000 0.000000 0.000000 0.075744
#
#
# Mechanical properties :
#
#
# Convention : Reuss Voigt Hill
#
# Bulk Modulus (GPa) = 48.89097 49.30651 49.09874
# Shear Modulus (GPa) = 21.89671 24.80528 23.35100
#
# Velocity S-wave (km/s) = 3.38531 3.60314 3.49593
# Velocity P-wave (km/s) = 6.39290 6.56630 6.48018
#
# Compressibility (1/GPa) = 0.02045367
#
# Stress axis : x y z
#
# Youngs Moduli (GPa) = 57.31632 51.20442 87.42733
#
# Poissons Ratio (x) = 0.41744 0.12661
# Poissons Ratio (y) = 0.46726 0.38292
# Poissons Ratio (z) = 0.08301 0.22427
#
# Static dielectric constant tensor:
#      x y z
#    x 1.690230 0.000000 0.000000 
#    y 0.000000 1.722760 0.000000 
#    z 0.000000 0.000000 1.756100 
# 
# From -- ./inp_files/26688.got.cif
#   From: 2010.05.17/outbox.cif.g08.bks.cpg/sg48_14_cif.got.tgz:26688.got - 2010.06.03 20:39:00.
