data_PCOD9390410
_publ_section_title
;
Structure prediction by ZEFSAII (Michael W. Deem and Ramdas Pophale) SiO2 
 PCOD9390410
Probable space group: P N N N
;
_chemical_formula_sum "Si O2"
_cell_formula_units_Z 54
_cell_length_a 28.673948
_cell_length_b 14.988466
_cell_length_c 5.606281
_cell_angle_alpha 90.000000
_cell_angle_beta 90.000000
_cell_angle_gamma 90.000000
_cell_volume 2409.459009
_symmetry_space_group_name_H-M "P N N N"
_symmetry_group_IT_number 48
_space_group.IT_coordinate_system_code '2'
_symmetry_cell_setting 'orthorhombic'
loop_
_space_group_symop_operation_xyz
x,y,z
1/2-x,1/2-y,z
x,1/2-y,1/2-z
1/2-x,y,1/2-z
-x,-y,-z
1/2+x,1/2+y,-z
-x,1/2+y,1/2+z
1/2+x,-y,1/2+z
loop_
_atom_site_type_symbol
_atom_site_label
_atom_site_fract_x
_atom_site_fract_y
_atom_site_fract_z
Si Si1 0.833013 0.172309 0.950939
Si Si2 0.533044 0.131237 0.909109
Si Si3 0.108437 0.978499 0.133515
Si Si4 0.586865 0.250000 0.250000
Si Si5 0.645766 0.644847 0.729483
Si Si6 0.250000 0.750000 0.750000
Si Si7 0.198126 0.142845 0.765074
Si Si8 0.463224 0.474868 0.792445
O O1 0.838156 0.250000 0.750000
O O2 0.842372 0.073127 0.853247
O O3 0.875655 0.180686 0.141643
O O4 0.784623 0.191369 0.085296
O O5 0.572379 0.094813 0.731007
O O6 0.481948 0.121503 0.793957
O O7 0.553251 0.217201 0.039018
O O8 0.531390 0.054871 0.108547
O O9 0.105733 0.070206 0.280484
O O10 0.089092 0.014669 0.883241
O O11 0.633204 0.750000 0.750000
O O12 0.673058 0.624331 0.485842
O O13 0.673829 0.624553 0.978243
O O14 0.201785 0.250000 0.750000
O O15 0.250000 0.103384 0.750000
O O16 0.500000 0.500000 0.000000
#
# Coordination Sequence:
#
# PCOD9390410 Si02
#       8
#     8   8   8   4   8   2   8   8
#     4  11  22  42  64  96 130 185 225 284 340 409
#     4  10  20  37  65  93 129 164 221 277 334 401
#     4  11  22  38  69  91 129 180 221 267 350 420
#     4  11  20  35  70 100 122 174 236 270 335 425
#     4  10  22  38  64  94 130 171 220 275 334 415
#     4  10  26  44  64  90 152 170 230 296 348 384
#     4   9  18  37  61  87 119 161 212 274 328 378
#     4   9  20  38  61  90 126 166 204 278 331 394
#
# _framework density 22.411670999999998
#
# number of rings (size 3 to 8) (size 9 to 14) (size 15 to 20)
#    0.000    1.926    2.963    0.667    2.074    1.778 
#    1.333    1.481   17.926    0.000    0.000    0.000 
#    0.000    0.000    0.000    0.000    0.000    0.000 
#
# Total GULP energy -300616.799406 kJ/mol
# GULP energy per Si atom -5566.977767 kJ/mol
# Density = 2.236066 g / cm^3
# Si number density = 22.411671 Si / 1000 Ang^3
#
#
#
# Elastic Constant Matrix: (Units=GPa)
#
#
# Indices 1 2 3 4 5 6 
#
# 1 71.6906 43.4477 22.1890 0.0000 0.0000 0.0000
# 2 43.4477 94.2908 16.6420 0.0000 0.0000 0.0000
# 3 22.1890 16.6420 86.2348 0.0000 0.0000 0.0000
# 4 0.0000 0.0000 0.0000 29.0933 0.0000 0.0000
# 5 0.0000 0.0000 0.0000 0.0000 33.0427 0.0000
# 6 0.0000 0.0000 0.0000 0.0000 0.0000 25.9890
#
#
#
# Elastic Compliance Matrix: (Units=1/GPa)
#
#
# Indices 1 2 3 4 5 6 
#
# 1 0.020350 -0.008751 -0.003548 0.000000 0.000000 0.000000
# 2 -0.008751 0.014743 -0.000593 0.000000 0.000000 0.000000
# 3 -0.003548 -0.000593 0.012624 0.000000 0.000000 0.000000
# 4 0.000000 0.000000 0.000000 0.034372 0.000000 0.000000
# 5 0.000000 0.000000 0.000000 0.000000 0.030264 0.000000
# 6 0.000000 0.000000 0.000000 0.000000 0.000000 0.038478
#
#
# Mechanical properties :
#
#
# Convention : Reuss Voigt Hill
#
# Bulk Modulus (GPa) = 45.59410 46.30819 45.95115
# Shear Modulus (GPa) = 27.18503 28.95418 28.06960
#
# Velocity S-wave (km/s) = 3.48657 3.59823 3.54284
# Velocity P-wave (km/s) = 6.04949 6.16202 6.10601
#
# Compressibility (1/GPa) = 0.02193266
#
# Stress axis : x y z
#
# Youngs Moduli (GPa) = 49.13937 67.83101 79.21688
#
# Poissons Ratio (x) = 0.59359 0.28102
# Poissons Ratio (y) = 0.43002 0.04701
# Poissons Ratio (z) = 0.17432 0.04025
#
# Static dielectric constant tensor:
#      x y z
#    x 1.909090 0.000000 0.000000 
#    y 0.000000 1.926910 0.000000 
#    z 0.000000 0.000000 1.980810 
# 
# From -- ./inp_files/7085.got.cif
#   From: 2010.05.17/outbox.cif.g08.bks.cpg/sg48_4_cif.got.tgz:7085.got - 2010.06.03 20:39:00.
