data_PCOD9390370
_publ_section_title
;
Structure prediction by ZEFSAII (Michael W. Deem and Ramdas Pophale) SiO2 
 PCOD9390370
Probable space group: P N N N
;
_chemical_formula_sum "Si O2"
_cell_formula_units_Z 48
_cell_length_a 12.952748
_cell_length_b 10.217194
_cell_length_c 17.156689
_cell_angle_alpha 90.000000
_cell_angle_beta 90.000000
_cell_angle_gamma 90.000000
_cell_volume 2270.528904
_symmetry_space_group_name_H-M "P N N N"
_symmetry_group_IT_number 48
_space_group.IT_coordinate_system_code '2'
_symmetry_cell_setting 'orthorhombic'
loop_
_space_group_symop_operation_xyz
x,y,z
1/2-x,1/2-y,z
x,1/2-y,1/2-z
1/2-x,y,1/2-z
-x,-y,-z
1/2+x,1/2+y,-z
-x,1/2+y,1/2+z
1/2+x,-y,1/2+z
loop_
_atom_site_type_symbol
_atom_site_label
_atom_site_fract_x
_atom_site_fract_y
_atom_site_fract_z
Si Si1 0.367358 0.924392 0.221612
Si Si2 0.861142 0.927500 0.476895
Si Si3 0.564056 0.313092 0.564647
Si Si4 0.638036 0.798096 0.858436
Si Si5 0.856573 0.458719 0.485403
Si Si6 0.958804 0.538460 0.632645
O O1 0.250000 0.911569 0.250000
O O2 0.386934 0.825271 0.150560
O O3 0.383028 0.065419 0.182290
O O4 0.440131 0.938323 0.297439
O O5 0.855208 0.831098 0.550555
O O6 0.941305 0.844896 0.423798
O O7 0.906150 0.063562 0.510867
O O8 0.749813 0.983316 0.450876
O O9 0.610904 0.188641 0.516688
O O10 0.750000 0.750000 0.832581
O O11 0.552047 0.688692 0.841362
O O12 0.866578 0.529524 0.569105
O O13 0.942108 0.488924 0.420225
#
# Coordination Sequence:
#
# PCOD9390370 Si02
#       6
#     8   8   8   8   8   8
#     4  11  22  36  60  89 122 160 203 266 334 393
#     4  10  20  37  59  86 117 163 210 254 315 388
#     4  10  22  38  58  85 121 166 207 258 328 392
#     4  11  18  35  61  87 118 153 208 262 320 384
#     4  11  22  38  60  86 124 161 209 265 316 393
#     4  11  22  35  56  93 119 154 209 263 319 390
#
# _framework density 21.140450000000001
#
# number of rings (size 3 to 8) (size 9 to 14) (size 15 to 20)
#    0.000    1.333    5.000    2.000    0.000    0.667 
#    0.000    3.333    0.000    0.000    0.000    2.333 
#    0.000    0.000    0.000    0.000    0.000    0.000 
#
# Total GULP energy -267290.303149 kJ/mol
# GULP energy per Si atom -5568.547982 kJ/mol
# Density = 2.109233 g / cm^3
# Si number density = 21.140450 Si / 1000 Ang^3
#
#
#
# Elastic Constant Matrix: (Units=GPa)
#
#
# Indices 1 2 3 4 5 6 
#
# 1 82.3758 -5.4027 27.0212 0.0000 0.0000 0.0000
# 2 -5.4027 100.2382 0.1118 0.0000 0.0000 0.0000
# 3 27.0212 0.1118 90.1312 0.0000 0.0000 0.0000
# 4 0.0000 0.0000 0.0000 6.6208 0.0000 0.0000
# 5 0.0000 0.0000 0.0000 0.0000 24.7797 0.0000
# 6 0.0000 0.0000 0.0000 0.0000 0.0000 16.2436
#
#
#
# Elastic Compliance Matrix: (Units=1/GPa)
#
#
# Indices 1 2 3 4 5 6 
#
# 1 0.013517 0.000733 -0.004053 0.000000 0.000000 0.000000
# 2 0.000733 0.010016 -0.000232 0.000000 0.000000 0.000000
# 3 -0.004053 -0.000232 0.012310 0.000000 0.000000 0.000000
# 4 0.000000 0.000000 0.000000 0.151038 0.000000 0.000000
# 5 0.000000 0.000000 0.000000 0.000000 0.040356 0.000000
# 6 0.000000 0.000000 0.000000 0.000000 0.000000 0.061563
#
#
# Mechanical properties :
#
#
# Convention : Reuss Voigt Hill
#
# Bulk Modulus (GPa) = 34.79632 35.13396 34.96514
# Shear Modulus (GPa) = 16.36744 26.26315 21.31529
#
# Velocity S-wave (km/s) = 2.78551 3.52848 3.17877
# Velocity P-wave (km/s) = 5.18080 5.76676 5.48162
#
# Compressibility (1/GPa) = 0.02873868
#
# Stress axis : x y z
#
# Youngs Moduli (GPa) = 73.98004 99.84018 81.23207
#
# Poissons Ratio (x) = -0.07319 0.32926
# Poissons Ratio (y) = -0.05423 0.01886
# Poissons Ratio (z) = 0.29987 0.02318
#
# Static dielectric constant tensor:
#      x y z
#    x 1.882300 0.000000 0.000000 
#    y 0.000000 1.862480 0.000000 
#    z 0.000000 0.000000 1.774080 
# 
# From -- ./inp_files/31009.got.cif
#   From: 2010.05.17/outbox.cif.g08.bks.cpg/sg48_16_cif.got.tgz:31009.got - 2010.06.03 20:39:00.
