data_PCOD9390160
_publ_section_title
;
Structure prediction by ZEFSAII (Michael W. Deem and Ramdas Pophale) SiO2 
 PCOD9390160
Probable space group: P N N N
;
_chemical_formula_sum "Si O2"
_cell_formula_units_Z 34
_cell_length_a 13.586078
_cell_length_b 4.895129
_cell_length_c 24.846260
_cell_angle_alpha 90.000000
_cell_angle_beta 90.000000
_cell_angle_gamma 90.000000
_cell_volume 1652.415539
_symmetry_space_group_name_H-M "P N N N"
_symmetry_group_IT_number 48
_space_group.IT_coordinate_system_code '2'
_symmetry_cell_setting 'orthorhombic'
loop_
_space_group_symop_operation_xyz
x,y,z
1/2-x,1/2-y,z
x,1/2-y,1/2-z
1/2-x,y,1/2-z
-x,-y,-z
1/2+x,1/2+y,-z
-x,1/2+y,1/2+z
1/2+x,-y,1/2+z
loop_
_atom_site_type_symbol
_atom_site_label
_atom_site_fract_x
_atom_site_fract_y
_atom_site_fract_z
Si Si1 0.250000 0.750000 0.250000
Si Si2 0.601399 0.750000 0.750000
Si Si3 0.512750 0.762442 0.432816
Si Si4 0.043497 0.241244 0.134570
Si Si5 0.750000 0.750000 0.587298
Si Si6 0.340502 0.603574 0.505783
O O1 0.331063 0.513615 0.267030
O O2 0.535181 0.696995 0.802316
O O3 0.475057 0.543969 0.388117
O O4 0.430107 0.777542 0.480108
O O5 0.608831 0.633280 0.459745
O O6 0.522413 0.046347 0.402515
O O7 0.157307 0.158605 0.122151
O O8 0.710223 0.523687 0.546935
O O9 0.250000 0.750000 0.534851
#
# Coordination Sequence:
#
# PCOD9390160 Si02
#       6
#     2   4   8   8   4   8
#     4  10  20  34  52  86 100 154 190 246 280 378
#     4  11  22  36  58  76 123 148 204 242 305 338
#     4  10  23  35  55  80 119 147 204 231 298 358
#     4  11  22  37  52  84 111 160 191 246 283 367
#     4  10  20  31  56  76 118 147 194 224 300 344
#     4  10  20  35  55  81 114 158 187 248 289 359
#
# _framework density 20.575935999999999
#
# number of rings (size 3 to 8) (size 9 to 14) (size 15 to 20)
#    0.000    1.647    2.353    2.824    3.294    4.706 
#    0.000    0.000    0.000    0.000    0.000    0.824 
#    0.000    0.000    0.000    0.000    0.000    0.000 
#
# Total GULP energy -189635.031895 kJ/mol
# GULP energy per Si atom -5577.500938 kJ/mol
# Density = 2.052910 g / cm^3
# Si number density = 20.575936 Si / 1000 Ang^3
#
#
#
# Elastic Constant Matrix: (Units=GPa)
#
#
# Indices 1 2 3 4 5 6 
#
# 1 79.5433 16.5135 22.8376 0.0000 0.0000 0.0000
# 2 16.5135 79.9413 12.6102 0.0000 0.0000 0.0000
# 3 22.8376 12.6102 115.5007 0.0000 0.0000 0.0000
# 4 0.0000 0.0000 0.0000 18.5639 0.0000 0.0000
# 5 0.0000 0.0000 0.0000 0.0000 12.2452 0.0000
# 6 0.0000 0.0000 0.0000 0.0000 0.0000 34.9108
#
#
#
# Elastic Compliance Matrix: (Units=1/GPa)
#
#
# Indices 1 2 3 4 5 6 
#
# 1 0.013788 -0.002461 -0.002458 0.000000 0.000000 0.000000
# 2 -0.002461 0.013167 -0.000951 0.000000 0.000000 0.000000
# 3 -0.002458 -0.000951 0.009248 0.000000 0.000000 0.000000
# 4 0.000000 0.000000 0.000000 0.053868 0.000000 0.000000
# 5 0.000000 0.000000 0.000000 0.000000 0.081665 0.000000
# 6 0.000000 0.000000 0.000000 0.000000 0.000000 0.028644
#
#
# Mechanical properties :
#
#
# Convention : Reuss Voigt Hill
#
# Bulk Modulus (GPa) = 40.87502 42.10088 41.48795
# Shear Modulus (GPa) = 22.69897 28.01225 25.35561
#
# Velocity S-wave (km/s) = 3.32502 3.69373 3.51421
# Velocity P-wave (km/s) = 5.88639 6.22070 6.05585
#
# Compressibility (1/GPa) = 0.02446482
#
# Stress axis : x y z
#
# Youngs Moduli (GPa) = 72.52577 75.94463 108.13454
#
# Poissons Ratio (x) = 0.18687 0.26576
# Poissons Ratio (y) = 0.17845 0.10285
# Poissons Ratio (z) = 0.17824 0.07223
#
# Static dielectric constant tensor:
#      x y z
#    x 1.799930 0.000000 0.000000 
#    y 0.000000 1.787100 0.000000 
#    z 0.000000 0.000000 1.733550 
# 
# From -- ./inp_files/3260.got.cif
#   From: 2010.05.17/outbox.cif.g08.bks.cpg/sg48_2_cif.got.tgz:3260.got - 2010.06.03 20:39:00.
