data_PCOD9390341
_publ_section_title
;
Structure prediction by ZEFSAII (Michael W. Deem and Ramdas Pophale) SiO2 
 PCOD9390341
Probable space group: P N N N
;
_chemical_formula_sum "Si O2"
_cell_formula_units_Z 54
_cell_length_a 14.077628
_cell_length_b 11.590557
_cell_length_c 13.911560
_cell_angle_alpha 90.000000
_cell_angle_beta 90.000000
_cell_angle_gamma 90.000000
_cell_volume 2269.915159
_symmetry_space_group_name_H-M "P N N N"
_symmetry_group_IT_number 48
_space_group.IT_coordinate_system_code '2'
_symmetry_cell_setting 'orthorhombic'
loop_
_space_group_symop_operation_xyz
x,y,z
1/2-x,1/2-y,z
x,1/2-y,1/2-z
1/2-x,y,1/2-z
-x,-y,-z
1/2+x,1/2+y,-z
-x,1/2+y,1/2+z
1/2+x,-y,1/2+z
loop_
_atom_site_type_symbol
_atom_site_label
_atom_site_fract_x
_atom_site_fract_y
_atom_site_fract_z
Si Si1 0.111099 0.615580 0.252239
Si Si2 0.250000 0.750000 0.750000
Si Si3 0.383728 0.118157 0.729577
Si Si4 0.201815 0.626777 0.447735
Si Si5 0.897409 0.394947 0.372306
Si Si6 0.452008 0.250000 0.250000
Si Si7 0.140109 0.506075 0.919983
Si Si8 0.926341 0.921789 0.604296
O O1 0.139171 0.750000 0.250000
O O2 0.332124 0.571383 0.153376
O O3 0.115260 0.537820 0.155436
O O4 0.998006 0.618515 0.264303
O O5 0.185633 0.673609 0.681913
O O6 0.354858 0.250000 0.750000
O O7 0.337627 0.048125 0.818060
O O8 0.375964 0.031415 0.639331
O O9 0.250000 0.750000 0.429596
O O10 0.108193 0.638039 0.515750
O O11 0.276972 0.566178 0.520068
O O12 0.987063 0.345127 0.311649
O O13 0.394477 0.320012 0.327922
O O14 0.042572 0.578137 0.899515
O O15 0.104608 0.410157 0.995139
#
# Coordination Sequence:
#
# PCOD9390341 Si02
#       8
#     8   2   8   8   8   4   8   8
#     4  10  22  41  63  95 132 170 219 271 333 393
#     4  10  20  36  62  92 132 156 214 284 332 384
#     4  10  22  43  65  94 130 178 220 266 327 404
#     4  12  24  38  64 101 133 167 215 281 341 389
#     4  11  21  37  63  95 130 162 213 272 333 388
#     4  11  20  37  62  95 121 166 212 267 318 373
#     4  10  21  41  63  92 123 172 214 264 331 399
#     4  10  21  40  64  89 126 168 222 264 322 397
#
# _framework density 23.789435999999998
#
# number of rings (size 3 to 8) (size 9 to 14) (size 15 to 20)
#    0.000    1.481    3.704    2.667    0.000    7.407 
#    2.667    3.333    0.000    0.889    0.000    0.000 
#    0.000    0.000    0.000    0.000    0.000    0.000 
#
# Total GULP energy -301097.498603 kJ/mol
# GULP energy per Si atom -5575.879604 kJ/mol
# Density = 2.373529 g / cm^3
# Si number density = 23.789436 Si / 1000 Ang^3
#
#
#
# Elastic Constant Matrix: (Units=GPa)
#
#
# Indices 1 2 3 4 5 6 
#
# 1 66.9296 9.5659 18.0898 0.0000 0.0000 0.0000
# 2 9.5659 81.6425 8.3717 0.0000 0.0000 0.0000
# 3 18.0898 8.3717 123.5209 0.0000 0.0000 0.0000
# 4 0.0000 0.0000 0.0000 29.4876 0.0000 0.0000
# 5 0.0000 0.0000 0.0000 0.0000 36.0260 0.0000
# 6 0.0000 0.0000 0.0000 0.0000 0.0000 0.4145
#
#
#
# Elastic Compliance Matrix: (Units=1/GPa)
#
#
# Indices 1 2 3 4 5 6 
#
# 1 0.015767 -0.001622 -0.002199 0.000000 0.000000 0.000000
# 2 -0.001622 0.012501 -0.000610 0.000000 0.000000 0.000000
# 3 -0.002199 -0.000610 0.008459 0.000000 0.000000 0.000000
# 4 0.000000 0.000000 0.000000 0.033913 0.000000 0.000000
# 5 0.000000 0.000000 0.000000 0.000000 0.027758 0.000000
# 6 0.000000 0.000000 0.000000 0.000000 0.000000 2.412306
#
#
# Mechanical properties :
#
#
# Convention : Reuss Voigt Hill
#
# Bulk Modulus (GPa) = 35.88623 38.23864 37.06244
# Shear Modulus (GPa) = 1.97718 28.92334 15.45026
#
# Velocity S-wave (km/s) = 0.91265 3.49062 2.55121
# Velocity P-wave (km/s) = 4.02843 5.68811 4.92863
#
# Compressibility (1/GPa) = 0.02786584
#
# Stress axis : x y z
#
# Youngs Moduli (GPa) = 63.42246 79.99308 118.21447
#
# Poissons Ratio (x) = 0.12974 0.25998
# Poissons Ratio (y) = 0.10287 0.07208
# Poissons Ratio (z) = 0.13948 0.04877
#
# Static dielectric constant tensor:
#      x y z
#    x 2.007680 0.000000 0.000000 
#    y 0.000000 1.989200 0.000000 
#    z 0.000000 0.000000 1.939080 
# 
# From -- ./inp_files/27344.got.cif
#   From: 2010.05.17/outbox.cif.g08.bks.cpg/sg48_14_cif.got.tgz:27344.got - 2010.06.03 20:39:00.
