data_PCOD9390141
_publ_section_title
;
Structure prediction by ZEFSAII (Michael W. Deem and Ramdas Pophale) SiO2 
 PCOD9390141
Probable space group: P N N N
;
_chemical_formula_sum "Si O2"
_cell_formula_units_Z 48
_cell_length_a 20.559655
_cell_length_b 8.754188
_cell_length_c 13.136346
_cell_angle_alpha 90.000000
_cell_angle_beta 90.000000
_cell_angle_gamma 90.000000
_cell_volume 2364.320080
_symmetry_space_group_name_H-M "P N N N"
_symmetry_group_IT_number 48
_space_group.IT_coordinate_system_code '2'
_symmetry_cell_setting 'orthorhombic'
loop_
_space_group_symop_operation_xyz
x,y,z
1/2-x,1/2-y,z
x,1/2-y,1/2-z
1/2-x,y,1/2-z
-x,-y,-z
1/2+x,1/2+y,-z
-x,1/2+y,1/2+z
1/2+x,-y,1/2+z
loop_
_atom_site_type_symbol
_atom_site_label
_atom_site_fract_x
_atom_site_fract_y
_atom_site_fract_z
Si Si1 0.198542 0.044308 0.338554
Si Si2 0.852326 0.250000 0.750000
Si Si3 0.949251 0.462806 0.626625
Si Si4 0.309176 0.352210 0.560692
Si Si5 0.914313 0.750000 0.750000
Si Si6 0.591461 0.591262 0.084878
Si Si7 0.827893 0.424685 0.239559
O O1 0.250000 0.083890 0.250000
O O2 0.217850 0.084096 0.453465
O O3 0.133759 0.142282 0.315852
O O4 0.186542 0.864206 0.323390
O O5 0.896931 0.362449 0.684983
O O6 0.953441 0.630361 0.679897
O O7 0.922898 0.485334 0.512472
O O8 0.019223 0.382274 0.628111
O O9 0.250000 0.250000 0.606605
O O10 0.369667 0.238590 0.546844
O O11 0.335045 0.487059 0.632803
O O12 0.635835 0.516520 0.171736
O O13 0.850634 0.250000 0.250000
O O14 0.750000 0.423577 0.250000
#
# Coordination Sequence:
#
# PCOD9390141 Si02
#       7
#     8   4   8   8   4   8   8
#     4  11  23  41  67  99 133 175 220 275 348 403
#     4  10  25  42  62  98 141 172 224 290 332 414
#     4  10  24  43  67  97 137 183 229 280 351 408
#     4  12  24  43  72  99 132 180 229 286 341 421
#     4  10  19  42  64  96 129 168 224 274 330 410
#     4  11  24  45  69  95 135 183 232 284 342 420
#     4  11  26  44  66  99 136 175 229 286 344 402
#
# _framework density 20.301821
#
# number of rings (size 3 to 8) (size 9 to 14) (size 15 to 20)
#    0.000    1.167    3.333    2.000    8.167    0.000 
#    3.000    0.833    0.000    0.000    0.000    0.000 
#    0.000    0.000    0.000    0.000    0.000    0.000 
#
# Total GULP energy -267982.624630 kJ/mol
# GULP energy per Si atom -5582.971346 kJ/mol
# Density = 2.025561 g / cm^3
# Si number density = 20.301821 Si / 1000 Ang^3
#
#
#
# Elastic Constant Matrix: (Units=GPa)
#
#
# Indices 1 2 3 4 5 6 
#
# 1 78.3953 29.4913 23.6919 0.0000 0.0000 0.0000
# 2 29.4913 112.9897 40.8929 0.0000 0.0000 0.0000
# 3 23.6919 40.8929 121.4252 0.0000 0.0000 0.0000
# 4 0.0000 0.0000 0.0000 26.8407 0.0000 0.0000
# 5 0.0000 0.0000 0.0000 0.0000 34.6994 0.0000
# 6 0.0000 0.0000 0.0000 0.0000 0.0000 37.7309
#
#
#
# Elastic Compliance Matrix: (Units=1/GPa)
#
#
# Indices 1 2 3 4 5 6 
#
# 1 0.014470 -0.003137 -0.001767 0.000000 0.000000 0.000000
# 2 -0.003137 0.010759 -0.003011 0.000000 0.000000 0.000000
# 3 -0.001767 -0.003011 0.009594 0.000000 0.000000 0.000000
# 4 0.000000 0.000000 0.000000 0.037257 0.000000 0.000000
# 5 0.000000 0.000000 0.000000 0.000000 0.028819 0.000000
# 6 0.000000 0.000000 0.000000 0.000000 0.000000 0.026503
#
#
# Mechanical properties :
#
#
# Convention : Reuss Voigt Hill
#
# Bulk Modulus (GPa) = 52.65169 55.66251 54.15710
# Shear Modulus (GPa) = 33.43044 34.43648 33.93346
#
# Velocity S-wave (km/s) = 4.06232 4.12299 4.09277
# Velocity P-wave (km/s) = 6.92777 7.08113 7.00487
#
# Compressibility (1/GPa) = 0.01899274
#
# Stress axis : x y z
#
# Youngs Moduli (GPa) = 69.10825 92.94489 104.22812
#
# Poissons Ratio (x) = 0.29161 0.18414
# Poissons Ratio (y) = 0.21682 0.31385
# Poissons Ratio (z) = 0.12210 0.27988
#
# Static dielectric constant tensor:
#      x y z
#    x 1.716940 0.000000 0.000000 
#    y 0.000000 1.730120 0.000000 
#    z 0.000000 0.000000 1.743790 
# 
# From -- ./inp_files/27927.got.cif
#   From: 2010.05.17/outbox.cif.g08.bks.cpg/sg48_14_cif.got.tgz:27927.got - 2010.06.03 20:39:00.
