data_PCOD9390855
_publ_section_title
;
Structure prediction by ZEFSAII (Michael W. Deem and Ramdas Pophale) SiO2 
 PCOD9390855
Probable space group: P N N N
;
_chemical_formula_sum "Si O2"
_cell_formula_units_Z 56
_cell_length_a 9.002957
_cell_length_b 14.209105
_cell_length_c 22.013314
_cell_angle_alpha 90.000000
_cell_angle_beta 90.000000
_cell_angle_gamma 90.000000
_cell_volume 2816.030329
_symmetry_space_group_name_H-M "P N N N"
_symmetry_group_IT_number 48
_space_group.IT_coordinate_system_code '2'
_symmetry_cell_setting 'orthorhombic'
loop_
_space_group_symop_operation_xyz
x,y,z
1/2-x,1/2-y,z
x,1/2-y,1/2-z
1/2-x,y,1/2-z
-x,-y,-z
1/2+x,1/2+y,-z
-x,1/2+y,1/2+z
1/2+x,-y,1/2+z
loop_
_atom_site_type_symbol
_atom_site_label
_atom_site_fract_x
_atom_site_fract_y
_atom_site_fract_z
Si Si1 0.926400 0.940237 0.054225
Si Si2 0.927676 0.750319 0.387228
Si Si3 0.145667 0.160584 0.402983
Si Si4 0.750000 0.420421 0.750000
Si Si5 0.421540 0.755622 0.677666
Si Si6 0.468017 0.750000 0.250000
Si Si7 0.097654 0.051302 0.149904
Si Si8 0.081569 0.409866 0.971651
O O1 0.981841 0.833836 0.068295
O O2 0.750225 0.938047 0.044335
O O3 0.974649 0.992827 0.114850
O O4 0.000000 0.000000 0.000000
O O5 0.750000 0.750000 0.394746
O O6 0.955434 0.730724 0.315613
O O7 0.981624 0.850886 0.414396
O O8 0.250000 0.250000 0.394985
O O9 0.257917 0.074872 0.391428
O O10 0.087128 0.160366 0.471064
O O11 0.014372 0.172206 0.354503
O O12 0.624785 0.343705 0.732184
O O13 0.667578 0.490074 0.796389
O O14 0.250000 0.750000 0.656477
O O15 0.420473 0.750000 0.750000
O O16 0.512446 0.851769 0.665206
O O17 0.000000 0.500000 0.000000
#
# Coordination Sequence:
#
# PCOD9390855 Si02
#       8
#     8   8   8   4   8   4   8   8
#     4  11  22  42  66  97 129 174 223 271 341 403
#     4  10  23  44  67  91 136 177 223 280 343 409
#     4  10  21  40  66  90 131 175 219 272 336 404
#     4  11  24  40  65  98 134 174 231 278 340 407
#     4  10  23  42  63  96 133 172 222 279 343 399
#     4  11  23  42  64  96 135 175 230 282 336 409
#     4  11  22  40  68  95 131 178 225 276 338 415
#     4  11  25  41  64  99 132 174 223 279 341 407
#
# _framework density 19.886150000000001
#
# number of rings (size 3 to 8) (size 9 to 14) (size 15 to 20)
#    0.000    1.429    2.857    2.357    6.000    2.000 
#    0.000    1.429    0.000    0.000    0.000    0.000 
#    0.000    0.000    0.000    0.000    0.000    0.000 
#
# Total GULP energy -311752.596576 kJ/mol
# GULP energy per Si atom -5567.010653 kJ/mol
# Density = 1.984089 g / cm^3
# Si number density = 19.886150 Si / 1000 Ang^3
#
#
#
# Elastic Constant Matrix: (Units=GPa)
#
#
# Indices 1 2 3 4 5 6 
#
# 1 65.4428 34.0757 43.8717 0.0000 0.0000 0.0000
# 2 34.0757 94.2657 34.4628 0.0000 0.0000 0.0000
# 3 43.8717 34.4628 103.9847 0.0000 0.0000 0.0000
# 4 0.0000 0.0000 0.0000 36.0532 0.0000 0.0000
# 5 0.0000 0.0000 0.0000 0.0000 -78.3591 0.0000
# 6 0.0000 0.0000 0.0000 0.0000 0.0000 11.5796
#
#
#
# Elastic Compliance Matrix: (Units=1/GPa)
#
#
# Indices 1 2 3 4 5 6 
#
# 1 0.023626 -0.005571 -0.008121 0.000000 0.000000 0.000000
# 2 -0.005571 0.013385 -0.002085 0.000000 0.000000 0.000000
# 3 -0.008121 -0.002085 0.013734 0.000000 0.000000 0.000000
# 4 0.000000 0.000000 0.000000 0.027737 0.000000 0.000000
# 5 0.000000 0.000000 0.000000 0.000000 -0.012762 0.000000
# 6 0.000000 0.000000 0.000000 0.000000 0.000000 0.086359
#
#
# Mechanical properties :
#
#
# Convention : Reuss Voigt Hill
#
# Bulk Modulus (GPa) = 52.11400 54.27931 53.19665
# Shear Modulus (GPa) = 26.31145 3.94027 15.12586
#
# Velocity S-wave (km/s) = 3.64140 1.40915 2.76093
# Velocity P-wave (km/s) = 6.62893 5.47740 6.08049
#
# Compressibility (1/GPa) = 0.01918870
#
# Stress axis : x y z
#
# Youngs Moduli (GPa) = 42.32630 74.71228 72.80963
#
# Poissons Ratio (x) = 0.41625 0.59132
# Poissons Ratio (y) = 0.23581 0.15184
# Poissons Ratio (z) = 0.34375 0.15581
#
# Static dielectric constant tensor:
#      x y z
#    x 2.862570 0.000000 0.000000 
#    y 0.000000 1.857610 0.000000 
#    z 0.000000 0.000000 1.737240 
# 
# From -- ./inp_files/33627.got.cif
#   From: 2010.05.17/outbox.cif.g08.bks.cpg/sg48_17_cif.got.tgz:33627.got - 2010.06.03 20:39:00.
