data_PCOD9390847
_publ_section_title
;
Structure prediction by ZEFSAII (Michael W. Deem and Ramdas Pophale) SiO2 
 PCOD9390847
Probable space group: P N N N
;
_chemical_formula_sum "Si O2"
_cell_formula_units_Z 36
_cell_length_a 7.745624
_cell_length_b 12.255688
_cell_length_c 16.092494
_cell_angle_alpha 90.000000
_cell_angle_beta 90.000000
_cell_angle_gamma 90.000000
_cell_volume 1527.627484
_symmetry_space_group_name_H-M "P N N N"
_symmetry_group_IT_number 48
_space_group.IT_coordinate_system_code '2'
_symmetry_cell_setting 'orthorhombic'
loop_
_space_group_symop_operation_xyz
x,y,z
1/2-x,1/2-y,z
x,1/2-y,1/2-z
1/2-x,y,1/2-z
-x,-y,-z
1/2+x,1/2+y,-z
-x,1/2+y,1/2+z
1/2+x,-y,1/2+z
loop_
_atom_site_type_symbol
_atom_site_label
_atom_site_fract_x
_atom_site_fract_y
_atom_site_fract_z
Si Si1 0.955734 0.839908 0.981993
Si Si2 0.756171 0.376181 0.904066
Si Si3 0.860935 0.615253 0.075187
Si Si4 0.750000 0.534665 0.250000
Si Si5 0.907180 0.573528 0.693279
O O1 0.937923 0.845882 0.883940
O O2 0.916132 0.727134 0.029007
O O3 0.805781 0.917178 0.020615
O O4 0.147704 0.865620 0.011393
O O5 0.750000 0.250000 0.870383
O O6 0.652720 0.456580 0.844251
O O7 0.944753 0.430706 0.916189
O O8 0.787052 0.608540 0.168780
O O9 0.585255 0.456241 0.237813
O O10 0.750000 0.612092 0.750000
#
# Coordination Sequence:
#
# PCOD9390847 Si02
#       5
#     8   8   8   4   8
#     4  10  23  42  66  97 136 177 223 270 335 417
#     4  10  21  40  64  96 131 170 216 270 333 396
#     4  10  22  42  68  97 131 180 217 275 340 405
#     4  12  24  41  70 104 137 170 223 288 344 388
#     4  12  25  43  65 102 139 172 221 285 339 392
#
# _framework density 23.565954999999999
#
# number of rings (size 3 to 8) (size 9 to 14) (size 15 to 20)
#    0.000    1.333    4.444    0.667    0.000    4.889 
#    0.000    2.222    0.000    0.000    0.000    0.000 
#    0.000    0.000    0.000    0.000    0.000    0.000 
#
# Total GULP energy -200715.352162 kJ/mol
# GULP energy per Si atom -5575.426449 kJ/mol
# Density = 2.351232 g / cm^3
# Si number density = 23.565955 Si / 1000 Ang^3
#
#
#
# Elastic Constant Matrix: (Units=GPa)
#
#
# Indices 1 2 3 4 5 6 
#
# 1 149.8062 -7.1845 38.1134 0.0000 0.0000 0.0000
# 2 -7.1845 62.3297 27.0272 0.0000 0.0000 0.0000
# 3 38.1134 27.0272 147.8814 0.0000 0.0000 0.0000
# 4 0.0000 0.0000 0.0000 47.1281 0.0000 0.0000
# 5 0.0000 0.0000 0.0000 0.0000 45.2632 0.0000
# 6 0.0000 0.0000 0.0000 0.0000 0.0000 0.9087
#
#
#
# Elastic Compliance Matrix: (Units=1/GPa)
#
#
# Indices 1 2 3 4 5 6 
#
# 1 0.007326 0.001806 -0.002218 0.000000 0.000000 0.000000
# 2 0.001806 0.017870 -0.003732 0.000000 0.000000 0.000000
# 3 -0.002218 -0.003732 0.008016 0.000000 0.000000 0.000000
# 4 0.000000 0.000000 0.000000 0.021219 0.000000 0.000000
# 5 0.000000 0.000000 0.000000 0.000000 0.022093 0.000000
# 6 0.000000 0.000000 0.000000 0.000000 0.000000 1.100481
#
#
# Mechanical properties :
#
#
# Convention : Reuss Voigt Hill
#
# Bulk Modulus (GPa) = 40.11998 52.88105 46.50052
# Shear Modulus (GPa) = 4.18901 38.79741 21.49321
#
# Velocity S-wave (km/s) = 1.33470 4.06190 3.02328
# Velocity P-wave (km/s) = 4.40871 6.66986 5.65349
#
# Compressibility (1/GPa) = 0.02492524
#
# Stress axis : x y z
#
# Youngs Moduli (GPa) = 136.49425 55.95968 124.75204
#
# Poissons Ratio (x) = -0.10109 0.27674
# Poissons Ratio (y) = -0.24656 0.46552
# Poissons Ratio (z) = 0.30279 0.20882
#
# Static dielectric constant tensor:
#      x y z
#    x 2.001910 0.000000 0.000000 
#    y 0.000000 2.495570 0.000000 
#    z 0.000000 0.000000 1.890200 
# 
# From -- ./inp_files/25020.got.cif
#   From: 2010.05.17/outbox.cif.g08.bks.cpg/sg48_13_cif.got.tgz:25020.got - 2010.06.03 20:39:00.
