data_PCOD9390887
_publ_section_title
;
Structure prediction by ZEFSAII (Michael W. Deem and Ramdas Pophale) SiO2 
 PCOD9390887
Probable space group: P N N N
;
_chemical_formula_sum "Si O2"
_cell_formula_units_Z 56
_cell_length_a 7.734382
_cell_length_b 15.080027
_cell_length_c 22.896639
_cell_angle_alpha 90.000000
_cell_angle_beta 90.000000
_cell_angle_gamma 90.000000
_cell_volume 2670.542378
_symmetry_space_group_name_H-M "P N N N"
_symmetry_group_IT_number 48
_space_group.IT_coordinate_system_code '2'
_symmetry_cell_setting 'orthorhombic'
loop_
_space_group_symop_operation_xyz
x,y,z
1/2-x,1/2-y,z
x,1/2-y,1/2-z
1/2-x,y,1/2-z
-x,-y,-z
1/2+x,1/2+y,-z
-x,1/2+y,1/2+z
1/2+x,-y,1/2+z
loop_
_atom_site_type_symbol
_atom_site_label
_atom_site_fract_x
_atom_site_fract_y
_atom_site_fract_z
Si Si1 0.544630 0.928678 0.780712
Si Si2 0.750000 0.250000 0.656286
Si Si3 0.533152 0.900230 0.984429
Si Si4 0.441268 0.091472 0.468992
Si Si5 0.908725 0.184306 0.368578
Si Si6 0.457648 0.243940 0.562971
Si Si7 0.250000 0.904476 0.250000
Si Si8 0.901564 0.643343 0.659634
O O1 0.397546 0.898479 0.824707
O O2 0.511164 0.871616 0.722620
O O3 0.715546 0.899585 0.819925
O O4 0.588769 0.027359 0.758878
O O5 0.580223 0.230820 0.617735
O O6 0.762282 0.162142 0.695803
O O7 0.734785 0.895061 0.969065
O O8 0.428327 0.859315 0.931365
O O9 0.493233 0.840087 0.039346
O O10 0.500000 0.000000 0.000000
O O11 0.498668 0.172605 0.511347
O O12 0.477772 0.096890 0.399197
O O13 0.500000 0.000000 0.500000
O O14 0.750000 0.250000 0.364914
O O15 0.067580 0.252960 0.355443
O O16 0.250000 0.250000 0.574010
#
# Coordination Sequence:
#
# PCOD9390887 Si02
#       8
#     8   4   8   8   8   8   4   8
#     4  10  23  41  71  91 133 178 236 293 348 422
#     4  11  24  46  82  92 148 185 246 300 372 445
#     4  11  26  41  62  99 139 179 231 290 352 438
#     4  11  24  41  68  99 134 176 233 296 364 434
#     4  12  25  40  64  94 141 181 231 287 357 421
#     4  10  25  43  66 104 140 183 234 297 366 430
#     4   9  24  46  71 112 120 190 247 302 360 433
#     4  10  21  41  64  91 124 177 229 275 350 423
#
# _framework density 20.969524
#
# number of rings (size 3 to 8) (size 9 to 14) (size 15 to 20)
#    0.000    1.571    2.857    0.857   11.000    3.429 
#    0.000    1.429    6.286    0.000    0.000    0.000 
#    0.000    0.000    0.000    0.000    0.000    0.000 
#
# Total GULP energy -311917.124969 kJ/mol
# GULP energy per Si atom -5569.948660 kJ/mol
# Density = 2.092180 g / cm^3
# Si number density = 20.969524 Si / 1000 Ang^3
#
#
#
# Elastic Constant Matrix: (Units=GPa)
#
#
# Indices 1 2 3 4 5 6 
#
# 1 57.3468 13.2940 29.6230 0.0000 0.0000 0.0000
# 2 13.2940 138.2777 45.5040 0.0000 0.0000 0.0000
# 3 29.6230 45.5040 137.9226 0.0000 0.0000 0.0000
# 4 0.0000 0.0000 0.0000 91.3669 0.0000 0.0000
# 5 0.0000 0.0000 0.0000 0.0000 65.6368 0.0000
# 6 0.0000 0.0000 0.0000 0.0000 0.0000 34.1701
#
#
#
# Elastic Compliance Matrix: (Units=1/GPa)
#
#
# Indices 1 2 3 4 5 6 
#
# 1 0.019653 -0.000561 -0.004036 0.000000 0.000000 0.000000
# 2 -0.000561 0.008129 -0.002561 0.000000 0.000000 0.000000
# 3 -0.004036 -0.002561 0.008962 0.000000 0.000000 0.000000
# 4 0.000000 0.000000 0.000000 0.010945 0.000000 0.000000
# 5 0.000000 0.000000 0.000000 0.000000 0.015235 0.000000
# 6 0.000000 0.000000 0.000000 0.000000 0.000000 0.029265
#
#
# Mechanical properties :
#
#
# Convention : Reuss Voigt Hill
#
# Bulk Modulus (GPa) = 44.58960 56.70990 50.64975
# Shear Modulus (GPa) = 43.86680 54.57651 49.22165
#
# Velocity S-wave (km/s) = 4.57873 5.10716 4.85014
# Velocity P-wave (km/s) = 7.01877 7.86639 7.45464
#
# Compressibility (1/GPa) = 0.02242676
#
# Stress axis : x y z
#
# Youngs Moduli (GPa) = 50.88387 123.02169 111.57877
#
# Poissons Ratio (x) = 0.06905 0.45031
# Poissons Ratio (y) = 0.02856 0.28578
# Poissons Ratio (z) = 0.20536 0.31509
#
# Static dielectric constant tensor:
#      x y z
#    x 1.877170 0.000000 0.000000 
#    y 0.000000 1.735170 0.000000 
#    z 0.000000 0.000000 1.750070 
# 
# From -- ./inp_files/33634.got.cif
#   From: 2010.05.17/outbox.cif.g08.bks.cpg/sg48_17_cif.got.tgz:33634.got - 2010.06.03 20:39:00.
