data_PCOD9390608
_publ_section_title
;
Structure prediction by ZEFSAII (Michael W. Deem and Ramdas Pophale) SiO2 
 PCOD9390608
Probable space group: P N N N
;
_chemical_formula_sum "Si O2"
_cell_formula_units_Z 48
_cell_length_a 7.669145
_cell_length_b 34.933480
_cell_length_c 7.964672
_cell_angle_alpha 90.000000
_cell_angle_beta 90.000000
_cell_angle_gamma 90.000000
_cell_volume 2133.814666
_symmetry_space_group_name_H-M "P N N N"
_symmetry_group_IT_number 48
_space_group.IT_coordinate_system_code '2'
_symmetry_cell_setting 'orthorhombic'
loop_
_space_group_symop_operation_xyz
x,y,z
1/2-x,1/2-y,z
x,1/2-y,1/2-z
1/2-x,y,1/2-z
-x,-y,-z
1/2+x,1/2+y,-z
-x,1/2+y,1/2+z
1/2+x,-y,1/2+z
loop_
_atom_site_type_symbol
_atom_site_label
_atom_site_fract_x
_atom_site_fract_y
_atom_site_fract_z
Si Si1 0.931814 0.651163 0.033192
Si Si2 0.528647 0.647165 0.062847
Si Si3 0.762730 0.206275 0.544410
Si Si4 0.133045 0.073656 0.417347
Si Si5 0.543545 0.492800 0.252731
Si Si6 0.481404 0.437718 0.933978
O O1 0.724842 0.653958 0.994109
O O2 0.951847 0.648953 0.234880
O O3 0.058979 0.685773 0.986503
O O4 0.984669 0.610466 0.951752
O O5 0.398589 0.679246 0.995641
O O6 0.447769 0.604710 0.036795
O O7 0.750000 0.250000 0.487539
O O8 0.750000 0.206829 0.750000
O O9 0.250000 0.080395 0.250000
O O10 0.274069 0.070803 0.565108
O O11 0.037666 0.033292 0.397597
O O12 0.750000 0.496175 0.250000
O O13 0.464976 0.534926 0.219200
O O14 0.507762 0.465227 0.092681
#
# Coordination Sequence:
#
# PCOD9390608 Si02
#       6
#     8   8   8   8   8   8
#     4   9  18  32  54  79 106 146 178 214 277 324
#     4   9  18  33  54  77 110 145 174 222 268 327
#     4   9  18  32  51  83 115 135 171 217 268 337
#     4   9  19  36  52  73 105 141 184 225 267 321
#     4  10  21  33  52  75 100 142 180 227 269 309
#     4   9  20  37  48  73 108 135 183 225 265 320
#
# _framework density 22.494926
#
# number of rings (size 3 to 8) (size 9 to 14) (size 15 to 20)
#    0.000    2.833    0.000    0.000    7.000    1.333 
#    0.000    9.167    0.000    0.000    0.000   30.333 
#    0.000    0.000    0.000    0.000    0.000    0.000 
#
# Total GULP energy -267718.450004 kJ/mol
# GULP energy per Si atom -5577.467708 kJ/mol
# Density = 2.244373 g / cm^3
# Si number density = 22.494926 Si / 1000 Ang^3
#
#
#
# Elastic Constant Matrix: (Units=GPa)
#
#
# Indices 1 2 3 4 5 6 
#
# 1 91.1234 85.2147 4.1397 0.0000 0.0000 0.0000
# 2 85.2147 243.6729 15.6117 0.0000 0.0000 0.0000
# 3 4.1397 15.6117 40.9042 0.0000 0.0000 0.0000
# 4 0.0000 0.0000 0.0000 16.8517 0.0000 0.0000
# 5 0.0000 0.0000 0.0000 0.0000 13.3936 0.0000
# 6 0.0000 0.0000 0.0000 0.0000 0.0000 44.6394
#
#
#
# Elastic Compliance Matrix: (Units=1/GPa)
#
#
# Indices 1 2 3 4 5 6 
#
# 1 0.016319 -0.005741 0.000540 0.000000 0.000000 0.000000
# 2 -0.005741 0.006227 -0.001795 0.000000 0.000000 0.000000
# 3 0.000540 -0.001795 0.025078 0.000000 0.000000 0.000000
# 4 0.000000 0.000000 0.000000 0.059341 0.000000 0.000000
# 5 0.000000 0.000000 0.000000 0.000000 0.074662 0.000000
# 6 0.000000 0.000000 0.000000 0.000000 0.000000 0.022402
#
#
# Mechanical properties :
#
#
# Convention : Reuss Voigt Hill
#
# Bulk Modulus (GPa) = 29.73599 65.07029 47.40314
# Shear Modulus (GPa) = 21.81191 33.02591 27.41891
#
# Velocity S-wave (km/s) = 3.11728 3.83580 3.49505
# Velocity P-wave (km/s) = 5.11901 6.97189 6.11602
#
# Compressibility (1/GPa) = 0.03362928
#
# Stress axis : x y z
#
# Youngs Moduli (GPa) = 61.27931 160.59832 39.87554
#
# Poissons Ratio (x) = 0.92206 -0.02152
# Poissons Ratio (y) = 0.35183 0.07160
# Poissons Ratio (z) = -0.03308 0.28835
#
# Static dielectric constant tensor:
#      x y z
#    x 1.847530 0.000000 0.000000 
#    y 0.000000 1.881740 0.000000 
#    z 0.000000 0.000000 1.965700 
# 
# From -- ./inp_files/9447.got.cif
#   From: 2010.05.17/outbox.cif.g08.bks.cpg/sg48_5_cif.got.tgz:9447.got - 2010.06.03 20:39:00.
