data_PCOD9390990
_publ_section_title
;
Structure prediction by ZEFSAII (Michael W. Deem and Ramdas Pophale) SiO2 
 PCOD9390990
Probable space group: P N N N
;
_chemical_formula_sum "Si O2"
_cell_formula_units_Z 56
_cell_length_a 16.552230
_cell_length_b 31.109053
_cell_length_c 5.394332
_cell_angle_alpha 90.000000
_cell_angle_beta 90.000000
_cell_angle_gamma 90.000000
_cell_volume 2777.672091
_symmetry_space_group_name_H-M "P N N N"
_symmetry_group_IT_number 48
_space_group.IT_coordinate_system_code '2'
_symmetry_cell_setting 'orthorhombic'
loop_
_space_group_symop_operation_xyz
x,y,z
1/2-x,1/2-y,z
x,1/2-y,1/2-z
1/2-x,y,1/2-z
-x,-y,-z
1/2+x,1/2+y,-z
-x,1/2+y,1/2+z
1/2+x,-y,1/2+z
loop_
_atom_site_type_symbol
_atom_site_label
_atom_site_fract_x
_atom_site_fract_y
_atom_site_fract_z
Si Si1 0.602235 0.405247 0.676084
Si Si2 0.699905 0.479033 0.503728
Si Si3 0.484812 0.050379 0.503926
Si Si4 0.841103 0.184886 0.715827
Si Si5 0.056365 0.702038 0.714259
Si Si6 0.662971 0.928032 0.123600
Si Si7 0.045027 0.376405 0.122880
O O1 0.632798 0.441942 0.491054
O O2 0.570755 0.430836 0.909786
O O3 0.662769 0.367017 0.723638
O O4 0.522066 0.380239 0.589415
O O5 0.750000 0.478569 0.250000
O O6 0.670282 0.528099 0.537356
O O7 0.750000 0.467798 0.750000
O O8 0.408758 0.059738 0.684876
O O9 0.465109 0.078873 0.268126
O O10 0.500000 0.000000 0.500000
O O11 0.750000 0.201439 0.750000
O O12 0.881288 0.196082 0.448264
O O13 0.896184 0.198394 0.952167
O O14 0.022701 0.750000 0.750000
O O15 0.986299 0.665372 0.729905
O O16 0.750000 0.922011 0.250000
O O17 0.633643 0.884210 0.989394
#
# Coordination Sequence:
#
# PCOD9390990 Si02
#       7
#     8   8   8   8   8   8   8
#     4  10  22  37  55  86 124 168 217 257 304 363
#     4  11  25  37  56  86 128 173 218 256 307 362
#     4  11  21  36  63  85 123 166 215 257 305 365
#     4  11  23  40  62  94 133 170 211 263 316 378
#     4  11  24  43  66  93 126 163 215 267 321 390
#     4  10  24  39  57  91 125 165 214 266 318 372
#     4  10  22  39  62  87 122 162 213 263 320 380
#
# _framework density 20.160768000000001
#
# number of rings (size 3 to 8) (size 9 to 14) (size 15 to 20)
#    0.000    1.429    1.429    3.000   10.000    6.286 
#    0.000    0.000    0.000    0.000    0.000    3.000 
#    0.000    0.000    0.000    0.000    0.000    0.000 
#
# Total GULP energy -312083.328186 kJ/mol
# GULP energy per Si atom -5572.916575 kJ/mol
# Density = 2.011488 g / cm^3
# Si number density = 20.160768 Si / 1000 Ang^3
#
#
#
# Elastic Constant Matrix: (Units=GPa)
#
#
# Indices 1 2 3 4 5 6 
#
# 1 80.5378 32.5591 11.9194 0.0000 0.0000 0.0000
# 2 32.5591 91.2134 3.3253 0.0000 0.0000 0.0000
# 3 11.9194 3.3253 75.3878 0.0000 0.0000 0.0000
# 4 0.0000 0.0000 0.0000 8.3261 0.0000 0.0000
# 5 0.0000 0.0000 0.0000 0.0000 26.1921 0.0000
# 6 0.0000 0.0000 0.0000 0.0000 0.0000 6.2086
#
#
#
# Elastic Compliance Matrix: (Units=1/GPa)
#
#
# Indices 1 2 3 4 5 6 
#
# 1 0.014840 -0.005220 -0.002116 0.000000 0.000000 0.000000
# 2 -0.005220 0.012817 0.000260 0.000000 0.000000 0.000000
# 3 -0.002116 0.000260 0.013588 0.000000 0.000000 0.000000
# 4 0.000000 0.000000 0.000000 0.120105 0.000000 0.000000
# 5 0.000000 0.000000 0.000000 0.000000 0.038180 0.000000
# 6 0.000000 0.000000 0.000000 0.000000 0.000000 0.161066
#
#
# Mechanical properties :
#
#
# Convention : Reuss Voigt Hill
#
# Bulk Modulus (GPa) = 36.91032 38.08295 37.49664
# Shear Modulus (GPa) = 13.02834 21.43436 17.23135
#
# Velocity S-wave (km/s) = 2.54485 3.26417 2.92669
# Velocity P-wave (km/s) = 5.19449 5.75648 5.48269
#
# Compressibility (1/GPa) = 0.02709269
#
# Stress axis : x y z
#
# Youngs Moduli (GPa) = 67.38524 78.02038 73.59515
#
# Poissons Ratio (x) = 0.40727 0.15573
# Poissons Ratio (y) = 0.35176 -0.01913
# Poissons Ratio (z) = 0.14259 -0.02028
#
# Static dielectric constant tensor:
#      x y z
#    x 1.787540 0.000000 0.000000 
#    y 0.000000 1.607930 0.000000 
#    z 0.000000 0.000000 1.762860 
# 
# From -- ./inp_files/3712.got.cif
#   From: 2010.05.17/outbox.cif.g08.bks.cpg/sg48_2_cif.got.tgz:3712.got - 2010.06.03 20:39:00.
