data_PCOD9390659
_publ_section_title
;
Structure prediction by ZEFSAII (Michael W. Deem and Ramdas Pophale) SiO2 
 PCOD9390659
Probable space group: P N N N
;
_chemical_formula_sum "Si O2"
_cell_formula_units_Z 48
_cell_length_a 5.000073
_cell_length_b 29.562042
_cell_length_c 15.501350
_cell_angle_alpha 90.000000
_cell_angle_beta 90.000000
_cell_angle_gamma 90.000000
_cell_volume 2291.291251
_symmetry_space_group_name_H-M "P N N N"
_symmetry_group_IT_number 48
_space_group.IT_coordinate_system_code '2'
_symmetry_cell_setting 'orthorhombic'
loop_
_space_group_symop_operation_xyz
x,y,z
1/2-x,1/2-y,z
x,1/2-y,1/2-z
1/2-x,y,1/2-z
-x,-y,-z
1/2+x,1/2+y,-z
-x,1/2+y,1/2+z
1/2+x,-y,1/2+z
loop_
_atom_site_type_symbol
_atom_site_label
_atom_site_fract_x
_atom_site_fract_y
_atom_site_fract_z
Si Si1 0.250486 0.343363 0.842815
Si Si2 0.255657 0.498833 0.434979
Si Si3 0.001563 0.925648 0.695349
Si Si4 0.733227 0.402221 0.887770
Si Si5 0.218627 0.302307 0.026964
Si Si6 0.207923 0.858112 0.929997
O O1 0.250000 0.319614 0.750000
O O2 0.489552 0.379272 0.839330
O O3 0.991914 0.373750 0.861980
O O4 0.286919 0.311404 0.925816
O O5 0.500000 0.500000 0.500000
O O6 0.339903 0.457760 0.372039
O O7 0.248850 0.544355 0.378007
O O8 0.000000 0.500000 0.500000
O O9 0.750000 0.907737 0.750000
O O10 0.250000 0.948450 0.750000
O O11 0.163256 0.886271 0.646779
O O12 0.684865 0.392579 0.989535
O O13 0.250000 0.250000 0.047760
O O14 0.423312 0.334044 0.079883
O O15 0.920094 0.319739 0.042913
#
# Coordination Sequence:
#
# PCOD9390659 Si02
#       6
#     8   8   8   8   8   8
#     4  10  21  36  57  88 129 166 203 254 317 366
#     4  12  24  40  65  91 129 173 222 268 312 374
#     4  12  26  42  64  98 131 167 220 273 333 383
#     4  10  21  37  60  84 118 173 215 246 297 377
#     4  10  21  38  65  95 118 159 217 258 314 393
#     4  10  21  40  64  87 125 164 205 261 317 385
#
# _framework density 20.948886999999999
#
# number of rings (size 3 to 8) (size 9 to 14) (size 15 to 20)
#    0.000    1.333    1.667    4.000    4.667    2.333 
#    0.000    0.000    0.000   13.500    0.000    0.000 
#    0.000    0.000    0.000    0.000    0.000    0.000 
#
# Total GULP energy -267939.460931 kJ/mol
# GULP energy per Si atom -5582.072103 kJ/mol
# Density = 2.090121 g / cm^3
# Si number density = 20.948887 Si / 1000 Ang^3
#
#
#
# Elastic Constant Matrix: (Units=GPa)
#
#
# Indices 1 2 3 4 5 6 
#
# 1 126.8063 5.3193 14.4629 0.0000 0.0000 0.0000
# 2 5.3193 70.7578 14.0380 0.0000 0.0000 0.0000
# 3 14.4629 14.0380 76.5450 0.0000 0.0000 0.0000
# 4 0.0000 0.0000 0.0000 12.6697 0.0000 0.0000
# 5 0.0000 0.0000 0.0000 0.0000 40.2897 0.0000
# 6 0.0000 0.0000 0.0000 0.0000 0.0000 25.6012
#
#
#
# Elastic Compliance Matrix: (Units=1/GPa)
#
#
# Indices 1 2 3 4 5 6 
#
# 1 0.008067 -0.000316 -0.001466 0.000000 0.000000 0.000000
# 2 -0.000316 0.014679 -0.002632 0.000000 0.000000 0.000000
# 3 -0.001466 -0.002632 0.013824 0.000000 0.000000 0.000000
# 4 0.000000 0.000000 0.000000 0.078928 0.000000 0.000000
# 5 0.000000 0.000000 0.000000 0.000000 0.024820 0.000000
# 6 0.000000 0.000000 0.000000 0.000000 0.000000 0.039061
#
#
# Mechanical properties :
#
#
# Convention : Reuss Voigt Hill
#
# Bulk Modulus (GPa) = 36.04787 37.97215 37.01001
# Shear Modulus (GPa) = 25.32240 31.73139 28.52690
#
# Velocity S-wave (km/s) = 3.48051 3.89614 3.69418
# Velocity P-wave (km/s) = 5.77900 6.19721 5.99175
#
# Compressibility (1/GPa) = 0.02774089
#
# Stress axis : x y z
#
# Youngs Moduli (GPa) = 123.96925 68.12592 72.33783
#
# Poissons Ratio (x) = 0.02149 0.10607
# Poissons Ratio (y) = 0.03911 0.19042
# Poissons Ratio (z) = 0.18177 0.17933
#
# Static dielectric constant tensor:
#      x y z
#    x 1.741560 0.000000 0.000000 
#    y 0.000000 1.750160 0.000000 
#    z 0.000000 0.000000 1.797050 
# 
# From -- ./inp_files/24418.got.cif
#   From: 2010.05.17/outbox.cif.g08.bks.cpg/sg48_13_cif.got.tgz:24418.got - 2010.06.03 20:39:00.
