data_PCOD9390744
_publ_section_title
;
Structure prediction by ZEFSAII (Michael W. Deem and Ramdas Pophale) SiO2 
 PCOD9390744
Probable space group: P N N N
;
_chemical_formula_sum "Si O2"
_cell_formula_units_Z 58
_cell_length_a 12.311016
_cell_length_b 17.134197
_cell_length_c 14.428917
_cell_angle_alpha 90.000000
_cell_angle_beta 90.000000
_cell_angle_gamma 90.000000
_cell_volume 3043.626711
_symmetry_space_group_name_H-M "P N N N"
_symmetry_group_IT_number 48
_space_group.IT_coordinate_system_code '2'
_symmetry_cell_setting 'orthorhombic'
loop_
_space_group_symop_operation_xyz
x,y,z
1/2-x,1/2-y,z
x,1/2-y,1/2-z
1/2-x,y,1/2-z
-x,-y,-z
1/2+x,1/2+y,-z
-x,1/2+y,1/2+z
1/2+x,-y,1/2+z
loop_
_atom_site_type_symbol
_atom_site_label
_atom_site_fract_x
_atom_site_fract_y
_atom_site_fract_z
Si Si1 0.085598 0.860095 0.128234
Si Si2 0.871288 0.985347 0.772685
Si Si3 0.750000 0.250000 0.750000
Si Si4 0.484605 0.835814 0.741393
Si Si5 0.128163 0.341422 0.744879
Si Si6 0.115630 0.587231 0.925330
Si Si7 0.996873 0.428392 0.891636
Si Si8 0.826137 0.326364 0.430885
O O1 0.122641 0.949266 0.147610
O O2 0.168092 0.804584 0.188737
O O3 0.960126 0.857956 0.163655
O O4 0.100437 0.835549 0.021949
O O5 0.750000 0.961739 0.750000
O O6 0.916590 0.030251 0.681459
O O7 0.940845 0.907944 0.789976
O O8 0.537950 0.750000 0.750000
O O9 0.434724 0.864777 0.839496
O O10 0.392302 0.823990 0.664108
O O11 0.140841 0.250000 0.750000
O O12 0.250000 0.377421 0.750000
O O13 0.065177 0.366467 0.836255
O O14 0.078991 0.497425 0.920038
O O15 0.242974 0.601377 0.926213
O O16 0.065122 0.611289 0.023796
O O17 0.750000 0.250000 0.439632
#
# Coordination Sequence:
#
# PCOD9390744 Si02
#       8
#     8   8   2   8   8   8   8   8
#     4  11  23  38  66 102 130 164 213 269 349 395
#     4  10  21  40  64  91 129 163 215 282 331 403
#     4  12  20  36  66 104 132 160 204 278 340 396
#     4  11  24  41  58  89 129 178 225 265 330 392
#     4  10  22  38  60  92 135 167 200 256 326 410
#     4  10  21  38  63  87 122 167 216 270 319 389
#     4   9  21  39  63  92 120 169 219 255 335 409
#     4  12  24  37  65  95 129 169 218 289 328 388
#
# _framework density 19.056214000000001
#
# number of rings (size 3 to 8) (size 9 to 14) (size 15 to 20)
#    0.000    1.517    3.448    1.241    3.862    4.138 
#    0.000    4.138    0.000    0.000    0.000    0.000 
#    0.000    0.000    0.000    0.000    0.000    0.000 
#
# Total GULP energy -323501.632725 kJ/mol
# GULP energy per Si atom -5577.614357 kJ/mol
# Density = 1.901284 g / cm^3
# Si number density = 19.056214 Si / 1000 Ang^3
#
#
#
# Elastic Constant Matrix: (Units=GPa)
#
#
# Indices 1 2 3 4 5 6 
#
# 1 81.7281 26.6467 13.3892 0.0000 0.0000 0.0000
# 2 26.6467 89.3798 30.1877 0.0000 0.0000 0.0000
# 3 13.3892 30.1877 84.4681 0.0000 0.0000 0.0000
# 4 0.0000 0.0000 0.0000 7.2086 0.0000 0.0000
# 5 0.0000 0.0000 0.0000 0.0000 17.4845 0.0000
# 6 0.0000 0.0000 0.0000 0.0000 0.0000 74.9698
#
#
#
# Elastic Compliance Matrix: (Units=1/GPa)
#
#
# Indices 1 2 3 4 5 6 
#
# 1 0.013601 -0.003783 -0.000804 0.000000 0.000000 0.000000
# 2 -0.003783 0.013776 -0.004324 0.000000 0.000000 0.000000
# 3 -0.000804 -0.004324 0.013511 0.000000 0.000000 0.000000
# 4 0.000000 0.000000 0.000000 0.138723 0.000000 0.000000
# 5 0.000000 0.000000 0.000000 0.000000 0.057194 0.000000
# 6 0.000000 0.000000 0.000000 0.000000 0.000000 0.013339
#
#
# Mechanical properties :
#
#
# Convention : Reuss Voigt Hill
#
# Bulk Modulus (GPa) = 43.35206 44.00259 43.67732
# Shear Modulus (GPa) = 18.13860 32.28940 25.21400
#
# Velocity S-wave (km/s) = 3.08855 4.12081 3.64144
# Velocity P-wave (km/s) = 5.95968 6.76628 6.37575
#
# Compressibility (1/GPa) = 0.02306695
#
# Stress axis : x y z
#
# Youngs Moduli (GPa) = 73.52459 72.58744 74.01113
#
# Poissons Ratio (x) = 0.27462 0.05949
# Poissons Ratio (y) = 0.27817 0.32001
# Poissons Ratio (z) = 0.05910 0.31386
#
# Static dielectric constant tensor:
#      x y z
#    x 1.693840 0.000000 0.000000 
#    y 0.000000 1.668200 0.000000 
#    z 0.000000 0.000000 1.669540 
# 
# From -- ./inp_files/26700.got.cif
#   From: 2010.05.17/outbox.cif.g08.bks.cpg/sg48_14_cif.got.tgz:26700.got - 2010.06.03 20:39:00.
