data_PCOD9390319
_publ_section_title
;
Structure prediction by ZEFSAII (Michael W. Deem and Ramdas Pophale) SiO2 
 PCOD9390319
Probable space group: P N N N
;
_chemical_formula_sum "Si O2"
_cell_formula_units_Z 48
_cell_length_a 20.405960
_cell_length_b 9.898718
_cell_length_c 13.471001
_cell_angle_alpha 90.000000
_cell_angle_beta 90.000000
_cell_angle_gamma 90.000000
_cell_volume 2721.045798
_symmetry_space_group_name_H-M "P N N N"
_symmetry_group_IT_number 48
_space_group.IT_coordinate_system_code '2'
_symmetry_cell_setting 'orthorhombic'
loop_
_space_group_symop_operation_xyz
x,y,z
1/2-x,1/2-y,z
x,1/2-y,1/2-z
1/2-x,y,1/2-z
-x,-y,-z
1/2+x,1/2+y,-z
-x,1/2+y,1/2+z
1/2+x,-y,1/2+z
loop_
_atom_site_type_symbol
_atom_site_label
_atom_site_fract_x
_atom_site_fract_y
_atom_site_fract_z
Si Si1 0.038973 0.591371 0.865866
Si Si2 0.676372 0.220800 0.866834
Si Si3 0.673094 0.778193 0.635612
Si Si4 0.396968 0.470699 0.444782
Si Si5 0.600436 0.028160 0.561503
Si Si6 0.537622 0.416710 0.137585
O O1 0.034610 0.754148 0.878616
O O2 0.056111 0.561921 0.751847
O O3 0.967039 0.532191 0.889623
O O4 0.088199 0.525787 0.945224
O O5 0.750000 0.250000 0.904073
O O6 0.676118 0.250000 0.750000
O O7 0.623434 0.321265 0.914422
O O8 0.653309 0.070200 0.890164
O O9 0.750000 0.750000 0.629299
O O10 0.652272 0.750000 0.750000
O O11 0.632894 0.677965 0.564616
O O12 0.655753 0.928824 0.603085
O O13 0.586190 0.021306 0.444196
O O14 0.533319 0.982089 0.615105
#
# Coordination Sequence:
#
# PCOD9390319 Si02
#       6
#     8   8   8   8   8   8
#     4  10  20  36  59  83 111 146 183 228 278 329
#     4  11  22  35  53  81 115 145 181 230 276 323
#     4  11  22  37  59  83 113 151 183 220 276 335
#     4  11  21  36  57  84 111 145 184 227 277 327
#     4  11  21  36  57  84 111 145 184 227 277 327
#     4  10  20  36  59  83 111 146 183 228 278 329
#
# _framework density 17.640277000000001
#
# number of rings (size 3 to 8) (size 9 to 14) (size 15 to 20)
#    0.000    1.333    3.333    4.000    0.000    2.667 
#    0.000    2.500    0.000    6.000    0.000    0.000 
#    0.000    0.000    0.000    0.000    0.000    0.000 
#
# Total GULP energy -268024.870313 kJ/mol
# GULP energy per Si atom -5583.851465 kJ/mol
# Density = 1.760013 g / cm^3
# Si number density = 17.640277 Si / 1000 Ang^3
#
#
#
# Elastic Constant Matrix: (Units=GPa)
#
#
# Indices 1 2 3 4 5 6 
#
# 1 41.2990 -12.2550 20.9638 0.0000 0.0000 0.0000
# 2 -12.2550 30.2368 5.8617 0.0000 0.0000 0.0000
# 3 20.9638 5.8617 110.4627 0.0000 0.0000 0.0000
# 4 0.0000 0.0000 0.0000 28.1168 0.0000 0.0000
# 5 0.0000 0.0000 0.0000 0.0000 17.0147 0.0000
# 6 0.0000 0.0000 0.0000 0.0000 0.0000 23.3414
#
#
#
# Elastic Compliance Matrix: (Units=1/GPa)
#
#
# Indices 1 2 3 4 5 6 
#
# 1 0.031899 0.014249 -0.006810 0.000000 0.000000 0.000000
# 2 0.014249 0.039781 -0.004815 0.000000 0.000000 0.000000
# 3 -0.006810 -0.004815 0.010601 0.000000 0.000000 0.000000
# 4 0.000000 0.000000 0.000000 0.035566 0.000000 0.000000
# 5 0.000000 0.000000 0.000000 0.000000 0.058773 0.000000
# 6 0.000000 0.000000 0.000000 0.000000 0.000000 0.042842
#
#
# Mechanical properties :
#
#
# Convention : Reuss Voigt Hill
#
# Bulk Modulus (GPa) = 11.42497 23.45994 17.44246
# Shear Modulus (GPa) = 20.54321 24.85646 22.69983
#
# Velocity S-wave (km/s) = 3.41627 3.75784 3.59112
# Velocity P-wave (km/s) = 4.69595 5.67066 5.20616
#
# Compressibility (1/GPa) = 0.08752755
#
# Stress axis : x y z
#
# Youngs Moduli (GPa) = 31.34936 25.13775 94.33306
#
# Poissons Ratio (x) = -0.35818 0.64240
# Poissons Ratio (y) = -0.44669 0.45422
# Poissons Ratio (z) = 0.21349 0.12104
#
# Static dielectric constant tensor:
#      x y z
#    x 1.589620 0.000000 0.000000 
#    y 0.000000 1.581700 0.000000 
#    z 0.000000 0.000000 1.595160 
# 
# From -- ./inp_files/12945.got.cif
#   From: 2010.05.17/outbox.cif.g08.bks.cpg/sg48_7_cif.got.tgz:12945.got - 2010.06.03 20:39:00.
