data_PCOD9390726
_publ_section_title
;
Structure prediction by ZEFSAII (Michael W. Deem and Ramdas Pophale) SiO2 
 PCOD9390726
Probable space group: P N N N
;
_chemical_formula_sum "Si O2"
_cell_formula_units_Z 60
_cell_length_a 13.542539
_cell_length_b 20.293220
_cell_length_c 11.534383
_cell_angle_alpha 90.000000
_cell_angle_beta 90.000000
_cell_angle_gamma 90.000000
_cell_volume 3169.899013
_symmetry_space_group_name_H-M "P N N N"
_symmetry_group_IT_number 48
_space_group.IT_coordinate_system_code '2'
_symmetry_cell_setting 'orthorhombic'
loop_
_space_group_symop_operation_xyz
x,y,z
1/2-x,1/2-y,z
x,1/2-y,1/2-z
1/2-x,y,1/2-z
-x,-y,-z
1/2+x,1/2+y,-z
-x,1/2+y,1/2+z
1/2+x,-y,1/2+z
loop_
_atom_site_type_symbol
_atom_site_label
_atom_site_fract_x
_atom_site_fract_y
_atom_site_fract_z
Si Si1 0.644820 0.820834 0.305202
Si Si2 0.496389 0.062153 0.665906
Si Si3 0.362474 0.874061 0.748614
Si Si4 0.226425 0.442104 0.123878
Si Si5 0.832198 0.695748 0.579821
Si Si6 0.006366 0.036674 0.378695
Si Si7 0.144851 0.532540 0.523521
Si Si8 0.503569 0.750000 0.750000
O O1 0.623871 0.750000 0.250000
O O2 0.750000 0.843968 0.250000
O O3 0.557321 0.872745 0.288311
O O4 0.654940 0.810073 0.442217
O O5 0.593100 0.066847 0.586719
O O6 0.517316 0.014753 0.773411
O O7 0.419442 0.027304 0.577432
O O8 0.250000 0.851748 0.750000
O O9 0.407221 0.923685 0.845364
O O10 0.361217 0.914823 0.627426
O O11 0.433212 0.812365 0.766022
O O12 0.250000 0.471663 0.250000
O O13 0.294142 0.376498 0.117559
O O14 0.110503 0.423839 0.117632
O O15 0.258327 0.494808 0.025292
O O16 0.750000 0.750000 0.604933
O O17 0.927155 0.724083 0.645622
O O18 0.000000 0.000000 0.500000
#
# Coordination Sequence:
#
# PCOD9390726 Si02
#       8
#     8   8   8   8   8   8   8   4
#     4  11  23  39  59  88 128 177 219 256 316 396
#     4  10  21  38  61  86 126 173 213 263 319 394
#     4  11  24  44  65  91 128 169 220 270 323 391
#     4  12  22  39  64  98 134 169 214 277 337 391
#     4  12  23  40  62  95 131 169 212 271 330 388
#     4  11  24  37  61  98 130 165 210 267 326 384
#     4  10  21  40  65  92 125 168 219 267 336 390
#     4  12  26  42  66  94 124 170 220 274 334 386
#
# _framework density 18.928048
#
# number of rings (size 3 to 8) (size 9 to 14) (size 15 to 20)
#    0.000    0.933    4.000    4.400    3.733    3.200 
#    0.000    0.000    0.000    0.000    0.000    0.933 
#    0.000    0.000    0.000    0.000    0.000    0.000 
#
# Total GULP energy -334549.295672 kJ/mol
# GULP energy per Si atom -5575.821595 kJ/mol
# Density = 1.888497 g / cm^3
# Si number density = 18.928048 Si / 1000 Ang^3
#
#
#
# Elastic Constant Matrix: (Units=GPa)
#
#
# Indices 1 2 3 4 5 6 
#
# 1 113.4590 39.9593 37.1366 0.0000 0.0000 0.0000
# 2 39.9593 89.9646 25.0124 0.0000 0.0000 0.0000
# 3 37.1366 25.0124 107.1239 0.0000 0.0000 0.0000
# 4 0.0000 0.0000 0.0000 14.1473 0.0000 0.0000
# 5 0.0000 0.0000 0.0000 0.0000 15.1957 0.0000
# 6 0.0000 0.0000 0.0000 0.0000 0.0000 38.5134
#
#
#
# Elastic Compliance Matrix: (Units=1/GPa)
#
#
# Indices 1 2 3 4 5 6 
#
# 1 0.011243 -0.004181 -0.002921 0.000000 0.000000 0.000000
# 2 -0.004181 0.013442 -0.001689 0.000000 0.000000 0.000000
# 3 -0.002921 -0.001689 0.010742 0.000000 0.000000 0.000000
# 4 0.000000 0.000000 0.000000 0.070685 0.000000 0.000000
# 5 0.000000 0.000000 0.000000 0.000000 0.065808 0.000000
# 6 0.000000 0.000000 0.000000 0.000000 0.000000 0.025965
#
#
# Mechanical properties :
#
#
# Convention : Reuss Voigt Hill
#
# Bulk Modulus (GPa) = 56.04233 57.19601 56.61917
# Shear Modulus (GPa) = 22.58196 27.46724 25.02460
#
# Velocity S-wave (km/s) = 3.45779 3.81352 3.64000
# Velocity P-wave (km/s) = 6.75382 7.04796 6.90246
#
# Compressibility (1/GPa) = 0.01784365
#
# Stress axis : x y z
#
# Youngs Moduli (GPa) = 88.94788 74.39186 93.09222
#
# Poissons Ratio (x) = 0.31106 0.27193
# Poissons Ratio (y) = 0.37193 0.15724
# Poissons Ratio (z) = 0.25983 0.12565
#
# Static dielectric constant tensor:
#      x y z
#    x 1.701330 0.000000 0.000000 
#    y 0.000000 1.639020 0.000000 
#    z 0.000000 0.000000 2.142230 
# 
# From -- ./inp_files/20327.got.cif
#   From: 2010.05.17/outbox.cif.g08.bks.cpg/sg48_11_cif.got.tgz:20327.got - 2010.06.03 20:39:00.
