data_PCOD9390271
_publ_section_title
;
Structure prediction by ZEFSAII (Michael W. Deem and Ramdas Pophale) SiO2 
 PCOD9390271
Probable space group: P N N N
;
_chemical_formula_sum "Si O2"
_cell_formula_units_Z 38
_cell_length_a 17.038961
_cell_length_b 18.484022
_cell_length_c 5.842880
_cell_angle_alpha 90.000000
_cell_angle_beta 90.000000
_cell_angle_gamma 90.000000
_cell_volume 1840.206467
_symmetry_space_group_name_H-M "P N N N"
_symmetry_group_IT_number 48
_space_group.IT_coordinate_system_code '2'
_symmetry_cell_setting 'orthorhombic'
loop_
_space_group_symop_operation_xyz
x,y,z
1/2-x,1/2-y,z
x,1/2-y,1/2-z
1/2-x,y,1/2-z
-x,-y,-z
1/2+x,1/2+y,-z
-x,1/2+y,1/2+z
1/2+x,-y,1/2+z
loop_
_atom_site_type_symbol
_atom_site_label
_atom_site_fract_x
_atom_site_fract_y
_atom_site_fract_z
Si Si1 0.170998 0.074078 0.159035
Si Si2 0.622959 0.182127 0.595044
Si Si3 0.750000 0.014104 0.250000
Si Si4 0.118625 0.937691 0.464779
Si Si5 0.750000 0.250000 0.250000
Si Si6 0.999583 0.578218 0.644051
O O1 0.250000 0.112436 0.250000
O O2 0.087958 0.110868 0.118911
O O3 0.139361 0.013244 0.338923
O O4 0.204663 0.034388 0.935519
O O5 0.596267 0.250000 0.750000
O O6 0.642958 0.122508 0.785014
O O7 0.691302 0.207924 0.424528
O O8 0.555419 0.139292 0.461026
O O9 0.817400 0.064796 0.340466
O O10 0.035655 0.933067 0.598867
O O11 0.000000 0.500000 0.500000
#
# Coordination Sequence:
#
# PCOD9390271 Si02
#       6
#     8   8   4   8   2   8
#     4  10  22  36  60  93 130 169 214 283 352 406
#     4  12  28  43  66  93 136 188 232 280 342 436
#     4  10  20  35  56  97 133 167 212 272 341 406
#     4  11  22  38  63  93 131 177 223 278 345 417
#     4  12  30  54  60 102 146 190 232 272 354 434
#     4  12  23  42  64  97 136 175 229 291 350 415
#
# _framework density 20.649856
#
# number of rings (size 3 to 8) (size 9 to 14) (size 15 to 20)
#    0.000    0.842    4.211    2.211    0.000   16.000 
#    0.000    0.000    0.000    0.000    0.000   20.632 
#    0.000    0.000    0.000    0.000    0.000    0.000 
#
# Total GULP energy -211677.204795 kJ/mol
# GULP energy per Si atom -5570.452758 kJ/mol
# Density = 2.060286 g / cm^3
# Si number density = 20.649856 Si / 1000 Ang^3
#
#
#
# Elastic Constant Matrix: (Units=GPa)
#
#
# Indices 1 2 3 4 5 6 
#
# 1 203.7709 41.5554 71.1554 0.0000 0.0000 0.0000
# 2 41.5554 61.2864 21.8337 0.0000 0.0000 0.0000
# 3 71.1554 21.8337 99.2951 0.0000 0.0000 0.0000
# 4 0.0000 0.0000 0.0000 34.9080 0.0000 0.0000
# 5 0.0000 0.0000 0.0000 0.0000 28.3893 0.0000
# 6 0.0000 0.0000 0.0000 0.0000 0.0000 29.4737
#
#
#
# Elastic Compliance Matrix: (Units=1/GPa)
#
#
# Indices 1 2 3 4 5 6 
#
# 1 0.007097 -0.003256 -0.004370 0.000000 0.000000 0.000000
# 2 -0.003256 0.019197 -0.001888 0.000000 0.000000 0.000000
# 3 -0.004370 -0.001888 0.013618 0.000000 0.000000 0.000000
# 4 0.000000 0.000000 0.000000 0.028647 0.000000 0.000000
# 5 0.000000 0.000000 0.000000 0.000000 0.035225 0.000000
# 6 0.000000 0.000000 0.000000 0.000000 0.000000 0.033929
#
#
# Mechanical properties :
#
#
# Convention : Reuss Voigt Hill
#
# Bulk Modulus (GPa) = 47.88277 70.38239 59.13258
# Shear Modulus (GPa) = 30.54341 33.87473 32.20907
#
# Velocity S-wave (km/s) = 3.85009 4.05462 3.95368
# Velocity P-wave (km/s) = 6.55763 7.48850 7.03847
#
# Compressibility (1/GPa) = 0.02088434
#
# Stress axis : x y z
#
# Youngs Moduli (GPa) = 140.89632 52.09167 73.43277
#
# Poissons Ratio (x) = 0.16958 0.32092
# Poissons Ratio (y) = 0.45869 0.13866
# Poissons Ratio (z) = 0.61575 0.09836
#
# Static dielectric constant tensor:
#      x y z
#    x 2.027160 0.000000 0.000000 
#    y 0.000000 1.782440 0.000000 
#    z 0.000000 0.000000 1.360350 
# 
# From -- ./inp_files/4235.got.cif
#   From: 2010.05.17/outbox.cif.g08.bks.cpg/sg48_3_cif.got.tgz:4235.got - 2010.06.03 20:39:00.
