data_PCOD9390716
_publ_section_title
;
Structure prediction by ZEFSAII (Michael W. Deem and Ramdas Pophale) SiO2 
 PCOD9390716
Probable space group: P N N N
;
_chemical_formula_sum "Si O2"
_cell_formula_units_Z 64
_cell_length_a 9.247541
_cell_length_b 15.279051
_cell_length_c 21.673636
_cell_angle_alpha 90.000000
_cell_angle_beta 90.000000
_cell_angle_gamma 90.000000
_cell_volume 3062.347151
_symmetry_space_group_name_H-M "P N N N"
_symmetry_group_IT_number 48
_space_group.IT_coordinate_system_code '2'
_symmetry_cell_setting 'orthorhombic'
loop_
_space_group_symop_operation_xyz
x,y,z
1/2-x,1/2-y,z
x,1/2-y,1/2-z
1/2-x,y,1/2-z
-x,-y,-z
1/2+x,1/2+y,-z
-x,1/2+y,1/2+z
1/2+x,-y,1/2+z
loop_
_atom_site_type_symbol
_atom_site_label
_atom_site_fract_x
_atom_site_fract_y
_atom_site_fract_z
Si Si1 0.313353 0.662371 0.182396
Si Si2 0.084303 0.240156 0.986307
Si Si3 0.844993 0.511760 0.408474
Si Si4 0.393695 0.297012 0.183201
Si Si5 0.376289 0.430419 0.487530
Si Si6 0.133409 0.319617 0.654317
Si Si7 0.826254 0.977171 0.876730
Si Si8 0.128418 0.682021 0.583271
O O1 0.250000 0.750000 0.150824
O O2 0.250000 0.656878 0.250000
O O3 0.484401 0.675316 0.189642
O O4 0.279939 0.571265 0.149159
O O5 0.250000 0.250000 0.008107
O O6 0.041400 0.340075 0.997444
O O7 0.985379 0.177360 0.026858
O O8 0.089715 0.211724 0.915320
O O9 0.757444 0.551810 0.465641
O O10 0.811163 0.581109 0.354272
O O11 0.801088 0.411134 0.401089
O O12 0.020279 0.501179 0.410353
O O13 0.250000 0.250000 0.157663
O O14 0.413926 0.250000 0.250000
O O15 0.362361 0.401936 0.174704
O O16 0.533392 0.284070 0.140709
O O17 0.500000 0.500000 0.500000
O O18 0.297781 0.439695 0.421479
O O19 0.250000 0.250000 0.676649
O O20 0.250000 0.750000 0.566176
#
# Coordination Sequence:
#
# PCOD9390716 Si02
#       8
#     8   8   8   8   8   8   8   8
#     4  10  24  43  65  92 124 164 218 278 323 372
#     4  11  21  37  59  89 130 170 210 252 310 395
#     4  10  21  38  59  90 129 170 209 247 318 395
#     4  10  22  40  66  89 116 169 219 263 316 381
#     4  12  23  35  58  99 136 170 206 263 321 388
#     4  10  21  39  68  91 125 172 212 262 319 398
#     4  10  23  39  65  91 130 167 213 268 322 392
#     4  11  23  37  58  91 133 166 208 261 323 377
#
# _framework density 20.899000999999998
#
# number of rings (size 3 to 8) (size 9 to 14) (size 15 to 20)
#    0.000    1.500    2.500    3.750    7.000    0.750 
#    0.000    1.250    0.000    0.000    0.000    0.000 
#    0.000    0.000    0.000    0.000    0.000    0.000 
#
# Total GULP energy -356939.746675 kJ/mol
# GULP energy per Si atom -5577.183542 kJ/mol
# Density = 2.085143 g / cm^3
# Si number density = 20.899001 Si / 1000 Ang^3
#
#
#
# Elastic Constant Matrix: (Units=GPa)
#
#
# Indices 1 2 3 4 5 6 
#
# 1 62.9639 30.0529 29.3753 0.0000 0.0000 0.0000
# 2 30.0529 136.8338 19.7138 0.0000 0.0000 0.0000
# 3 29.3753 19.7138 80.5582 0.0000 0.0000 0.0000
# 4 0.0000 0.0000 0.0000 -80.8831 0.0000 0.0000
# 5 0.0000 0.0000 0.0000 0.0000 39.8388 0.0000
# 6 0.0000 0.0000 0.0000 0.0000 0.0000 36.8275
#
#
#
# Elastic Compliance Matrix: (Units=1/GPa)
#
#
# Indices 1 2 3 4 5 6 
#
# 1 0.020707 -0.003587 -0.006673 0.000000 0.000000 0.000000
# 2 -0.003587 0.008196 -0.000698 0.000000 0.000000 0.000000
# 3 -0.006673 -0.000698 0.015018 0.000000 0.000000 0.000000
# 4 0.000000 0.000000 0.000000 -0.012364 0.000000 0.000000
# 5 0.000000 0.000000 0.000000 0.000000 0.025101 0.000000
# 6 0.000000 0.000000 0.000000 0.000000 0.000000 0.027154
#
#
# Mechanical properties :
#
#
# Convention : Reuss Voigt Hill
#
# Bulk Modulus (GPa) = 45.44238 48.73776 47.09007
# Shear Modulus (GPa) = 44.22308 12.57091 28.39700
#
# Velocity S-wave (km/s) = 4.60503 2.45523 3.69015
# Velocity P-wave (km/s) = 7.07574 5.60435 6.38259
#
# Compressibility (1/GPa) = 0.02200589
#
# Stress axis : x y z
#
# Youngs Moduli (GPa) = 48.29217 122.00474 66.58884
#
# Poissons Ratio (x) = 0.43757 0.44436
# Poissons Ratio (y) = 0.17320 0.04648
# Poissons Ratio (z) = 0.32226 0.08515
#
# Static dielectric constant tensor:
#      x y z
#    x 1.745810 0.000000 0.000000 
#    y 0.000000 1.895320 0.000000 
#    z 0.000000 0.000000 1.757820 
# 
# From -- ./inp_files/35975.got.cif
#   From: 2010.05.17/outbox.cif.g08.bks.cpg/sg48_18_cif.got.tgz:35975.got - 2010.06.03 20:39:00.
