data_PCOD9390538
_publ_section_title
;
Structure prediction by ZEFSAII (Michael W. Deem and Ramdas Pophale) SiO2 
 PCOD9390538
Probable space group: P N N N
;
_chemical_formula_sum "Si O2"
_cell_formula_units_Z 56
_cell_length_a 21.463601
_cell_length_b 7.781125
_cell_length_c 15.082716
_cell_angle_alpha 90.000000
_cell_angle_beta 90.000000
_cell_angle_gamma 90.000000
_cell_volume 2518.978914
_symmetry_space_group_name_H-M "P N N N"
_symmetry_group_IT_number 48
_space_group.IT_coordinate_system_code '2'
_symmetry_cell_setting 'orthorhombic'
loop_
_space_group_symop_operation_xyz
x,y,z
1/2-x,1/2-y,z
x,1/2-y,1/2-z
1/2-x,y,1/2-z
-x,-y,-z
1/2+x,1/2+y,-z
-x,1/2+y,1/2+z
1/2+x,-y,1/2+z
loop_
_atom_site_type_symbol
_atom_site_label
_atom_site_fract_x
_atom_site_fract_y
_atom_site_fract_z
Si Si1 0.154061 0.477750 0.339665
Si Si2 0.782262 0.437512 0.332188
Si Si3 0.242797 0.045368 0.472928
Si Si4 0.001435 0.470646 0.895853
Si Si5 0.085494 0.460189 0.740323
Si Si6 0.364053 0.068859 0.146367
Si Si7 0.516634 0.434365 0.901416
O O1 0.210378 0.536570 0.401345
O O2 0.158660 0.522915 0.236177
O O3 0.152005 0.269748 0.344175
O O4 0.088332 0.534211 0.379505
O O5 0.750000 0.250000 0.334493
O O6 0.750000 0.534485 0.250000
O O7 0.765415 0.505519 0.428702
O O8 0.854219 0.452622 0.303934
O O9 0.250000 0.250000 0.465957
O O10 0.172735 0.002896 0.440534
O O11 0.938100 0.552161 0.858640
O O12 0.995180 0.266669 0.889637
O O13 0.061846 0.520456 0.837630
O O14 0.000000 0.500000 0.000000
O O15 0.094975 0.250000 0.750000
O O16 0.028949 0.507886 0.673925
O O17 0.500000 0.500000 0.000000
#
# Coordination Sequence:
#
# PCOD9390538 Si02
#       7
#     8   8   8   8   8   8   8
#     4  10  20  40  63  99 137 170 214 273 331 390
#     4  11  27  48  63  95 131 168 222 278 331 386
#     4  10  23  40  69  96 133 181 224 267 326 405
#     4  11  24  42  66  97 129 173 225 277 326 398
#     4  10  24  45  72  95 131 178 222 268 335 403
#     4  10  21  39  65  99 133 174 219 267 330 395
#     4  11  22  41  65  97 132 171 220 275 331 393
#
# _framework density 22.23123
#
# number of rings (size 3 to 8) (size 9 to 14) (size 15 to 20)
#    0.000    1.571    1.429    2.143    4.000    6.286 
#   10.286    0.000    0.000    2.571    0.000    0.000 
#    0.000    0.000    0.000    0.000    0.000    0.000 
#
# Total GULP energy -312585.193329 kJ/mol
# GULP energy per Si atom -5581.878452 kJ/mol
# Density = 2.218063 g / cm^3
# Si number density = 22.231230 Si / 1000 Ang^3
#
#
#
# Elastic Constant Matrix: (Units=GPa)
#
#
# Indices 1 2 3 4 5 6 
#
# 1 112.0303 13.9730 45.6592 0.0000 0.0000 0.0000
# 2 13.9730 36.8784 8.3248 0.0000 0.0000 0.0000
# 3 45.6592 8.3248 157.1648 0.0000 0.0000 0.0000
# 4 0.0000 0.0000 0.0000 42.5277 0.0000 0.0000
# 5 0.0000 0.0000 0.0000 0.0000 77.9265 0.0000
# 6 0.0000 0.0000 0.0000 0.0000 0.0000 11.5961
#
#
#
# Elastic Compliance Matrix: (Units=1/GPa)
#
#
# Indices 1 2 3 4 5 6 
#
# 1 0.010515 -0.003334 -0.002878 0.000000 0.000000 0.000000
# 2 -0.003334 0.028502 -0.000541 0.000000 0.000000 0.000000
# 3 -0.002878 -0.000541 0.007228 0.000000 0.000000 0.000000
# 4 0.000000 0.000000 0.000000 0.023514 0.000000 0.000000
# 5 0.000000 0.000000 0.000000 0.000000 0.012833 0.000000
# 6 0.000000 0.000000 0.000000 0.000000 0.000000 0.086236
#
#
# Mechanical properties :
#
#
# Convention : Reuss Voigt Hill
#
# Bulk Modulus (GPa) = 30.54632 49.10971 39.82802
# Shear Modulus (GPa) = 25.87372 42.28450 34.07911
#
# Velocity S-wave (km/s) = 3.41522 4.36596 3.91952
# Velocity P-wave (km/s) = 5.41495 6.89593 6.19982
#
# Compressibility (1/GPa) = 0.03273716
#
# Stress axis : x y z
#
# Youngs Moduli (GPa) = 95.10147 35.08565 138.35902
#
# Poissons Ratio (x) = 0.11699 0.39823
# Poissons Ratio (y) = 0.31711 0.07485
# Poissons Ratio (z) = 0.27372 0.01898
#
# Static dielectric constant tensor:
#      x y z
#    x 1.835300 0.000000 0.000000 
#    y 0.000000 2.079180 0.000000 
#    z 0.000000 0.000000 1.896000 
# 
# From -- ./inp_files/28341.got.cif
#   From: 2010.05.17/outbox.cif.g08.bks.cpg/sg48_15_cif.got.tgz:28341.got - 2010.06.03 20:39:00.
