data_PCOD9390422
_publ_section_title
;
Structure prediction by ZEFSAII (Michael W. Deem and Ramdas Pophale) SiO2 
 PCOD9390422
Probable space group: P N N N
;
_chemical_formula_sum "Si O2"
_cell_formula_units_Z 28
_cell_length_a 8.282995
_cell_length_b 15.994151
_cell_length_c 8.671940
_cell_angle_alpha 90.000000
_cell_angle_beta 90.000000
_cell_angle_gamma 90.000000
_cell_volume 1148.854039
_symmetry_space_group_name_H-M "P N N N"
_symmetry_group_IT_number 48
_space_group.IT_coordinate_system_code '2'
_symmetry_cell_setting 'orthorhombic'
loop_
_space_group_symop_operation_xyz
x,y,z
1/2-x,1/2-y,z
x,1/2-y,1/2-z
1/2-x,y,1/2-z
-x,-y,-z
1/2+x,1/2+y,-z
-x,1/2+y,1/2+z
1/2+x,-y,1/2+z
loop_
_atom_site_type_symbol
_atom_site_label
_atom_site_fract_x
_atom_site_fract_y
_atom_site_fract_z
Si Si1 0.750000 0.750000 0.750000
Si Si2 0.750000 0.250000 0.250000
Si Si3 0.750000 0.532352 0.250000
Si Si4 0.695025 0.605571 0.545353
Si Si5 0.417134 0.610072 0.953422
Si Si6 0.250000 0.956132 0.250000
O O1 0.647918 0.688399 0.638225
O O2 0.651991 0.310954 0.136419
O O3 0.650862 0.590589 0.368701
O O4 0.644942 0.470462 0.143535
O O5 0.651747 0.523379 0.643757
O O6 0.890231 0.612961 0.543040
O O7 0.345748 0.598002 0.124903
#
# Coordination Sequence:
#
# PCOD9390422 Si02
#       6
#     2   2   4   8   8   4
#     4  10  22  38  56  80 112 148 186 218 268 332
#     4  10  22  38  56  80 112 148 186 218 268 332
#     4   9  18  34  58  81 106 138 184 223 264 326
#     4  10  20  38  57  81 112 144 179 227 272 319
#     4  10  20  38  57  81 112 144 179 227 272 319
#     4   9  18  34  58  81 106 138 184 223 264 326
#
# _framework density 24.372112000000001
#
# number of rings (size 3 to 8) (size 9 to 14) (size 15 to 20)
#    0.000    2.286    0.000    4.286    0.000    1.143 
#    0.000   62.857    0.000    0.000    0.000    0.000 
#    0.000    0.000    0.000    0.000    0.000    0.000 
#
# Total GULP energy -156591.323286 kJ/mol
# GULP energy per Si atom -5592.547260 kJ/mol
# Density = 2.431664 g / cm^3
# Si number density = 24.372112 Si / 1000 Ang^3
#
#
#
# Elastic Constant Matrix: (Units=GPa)
#
#
# Indices 1 2 3 4 5 6 
#
# 1 96.1467 45.2107 51.6322 0.0000 0.0000 0.0000
# 2 45.2107 160.3720 82.4858 0.0000 0.0000 0.0000
# 3 51.6322 82.4858 233.5496 0.0000 0.0000 0.0000
# 4 0.0000 0.0000 0.0000 49.3291 0.0000 0.0000
# 5 0.0000 0.0000 0.0000 0.0000 38.6859 0.0000
# 6 0.0000 0.0000 0.0000 0.0000 0.0000 25.6160
#
#
#
# Elastic Compliance Matrix: (Units=1/GPa)
#
#
# Indices 1 2 3 4 5 6 
#
# 1 0.012628 -0.002596 -0.001875 0.000000 0.000000 0.000000
# 2 -0.002596 0.008153 -0.002306 0.000000 0.000000 0.000000
# 3 -0.001875 -0.002306 0.005511 0.000000 0.000000 0.000000
# 4 0.000000 0.000000 0.000000 0.020272 0.000000 0.000000
# 5 0.000000 0.000000 0.000000 0.000000 0.025849 0.000000
# 6 0.000000 0.000000 0.000000 0.000000 0.000000 0.039038
#
#
# Mechanical properties :
#
#
# Convention : Reuss Voigt Hill
#
# Bulk Modulus (GPa) = 78.49796 94.30288 86.40042
# Shear Modulus (GPa) = 38.68452 43.44216 41.06334
#
# Velocity S-wave (km/s) = 3.98835 4.22649 4.10914
# Velocity P-wave (km/s) = 7.31350 7.91167 7.61846
#
# Compressibility (1/GPa) = 0.01273918
#
# Stress axis : x y z
#
# Youngs Moduli (GPa) = 79.18760 122.65170 181.46756
#
# Poissons Ratio (x) = 0.31836 0.34026
# Poissons Ratio (y) = 0.20554 0.41842
# Poissons Ratio (z) = 0.14848 0.28280
#
# Static dielectric constant tensor:
#      x y z
#    x 2.051080 0.000000 0.000000 
#    y 0.000000 1.956460 0.000000 
#    z 0.000000 0.000000 2.009390 
# 
# From -- ./inp_files/8475.got.cif
#   From: 2010.05.17/outbox.cif.g08.bks.cpg/sg48_5_cif.got.tgz:8475.got - 2010.06.03 20:39:00.
