data_PCOD9390551
_publ_section_title
;
Structure prediction by ZEFSAII (Michael W. Deem and Ramdas Pophale) SiO2 
 PCOD9390551
Probable space group: P N N N
;
_chemical_formula_sum "Si O2"
_cell_formula_units_Z 58
_cell_length_a 12.507782
_cell_length_b 26.897614
_cell_length_c 9.187898
_cell_angle_alpha 90.000000
_cell_angle_beta 90.000000
_cell_angle_gamma 90.000000
_cell_volume 3091.079859
_symmetry_space_group_name_H-M "P N N N"
_symmetry_group_IT_number 48
_space_group.IT_coordinate_system_code '2'
_symmetry_cell_setting 'orthorhombic'
loop_
_space_group_symop_operation_xyz
x,y,z
1/2-x,1/2-y,z
x,1/2-y,1/2-z
1/2-x,y,1/2-z
-x,-y,-z
1/2+x,1/2+y,-z
-x,1/2+y,1/2+z
1/2+x,-y,1/2+z
loop_
_atom_site_type_symbol
_atom_site_label
_atom_site_fract_x
_atom_site_fract_y
_atom_site_fract_z
Si Si1 0.664272 0.912763 0.499540
Si Si2 0.635370 0.301146 0.175986
Si Si3 0.123769 0.001648 0.782491
Si Si4 0.490320 0.902132 0.734038
Si Si5 0.856478 0.196644 0.827250
Si Si6 0.750000 0.750000 0.250000
Si Si7 0.094257 0.161297 0.756177
Si Si8 0.091720 0.072176 0.530807
O O1 0.609896 0.957754 0.409200
O O2 0.600201 0.902771 0.645195
O O3 0.653294 0.864406 0.394753
O O4 0.785854 0.929197 0.524750
O O5 0.592853 0.250000 0.250000
O O6 0.750000 0.309247 0.250000
O O7 0.563334 0.348776 0.211596
O O8 0.652849 0.297343 0.001802
O O9 0.250000 0.999480 0.750000
O O10 0.071507 0.025221 0.636383
O O11 0.081909 0.947595 0.823213
O O12 0.512792 0.916488 0.900166
O O13 0.864068 0.250000 0.750000
O O14 0.750000 0.173081 0.750000
O O15 0.971528 0.171895 0.799120
O O16 0.839273 0.791039 0.301176
O O17 0.090912 0.119681 0.634658
#
# Coordination Sequence:
#
# PCOD9390551 Si02
#       8
#     8   8   8   8   8   2   8   8
#     4  10  20  41  58  87 121 160 195 256 314 359
#     4  11  25  42  59  86 129 164 197 250 316 357
#     4   9  20  40  62  85 118 159 206 250 305 372
#     4  12  22  36  64  91 120 160 201 252 305 377
#     4  11  23  39  64  85 118 162 216 252 300 361
#     4  12  20  36  70  86 120 156 228 240 294 356
#     4  11  21  38  61  90 116 163 207 257 294 361
#     4  10  22  37  62  87 126 156 200 248 319 362
#
# _framework density 18.763669
#
# number of rings (size 3 to 8) (size 9 to 14) (size 15 to 20)
#    0.000    1.379    3.448    4.138    3.862    0.000 
#    0.000    0.000    0.000    1.655    0.000    0.000 
#    0.000    0.000    0.000    0.000    0.000    0.000 
#
# Total GULP energy -323179.953874 kJ/mol
# GULP energy per Si atom -5572.068170 kJ/mol
# Density = 1.872096 g / cm^3
# Si number density = 18.763669 Si / 1000 Ang^3
#
#
#
# Elastic Constant Matrix: (Units=GPa)
#
#
# Indices 1 2 3 4 5 6 
#
# 1 58.8026 26.2803 15.0428 0.0000 0.0000 0.0000
# 2 26.2803 115.9074 26.9670 0.0000 0.0000 0.0000
# 3 15.0428 26.9670 90.6352 0.0000 0.0000 0.0000
# 4 0.0000 0.0000 0.0000 2.6738 0.0000 0.0000
# 5 0.0000 0.0000 0.0000 0.0000 31.7302 0.0000
# 6 0.0000 0.0000 0.0000 0.0000 0.0000 11.8886
#
#
#
# Elastic Compliance Matrix: (Units=1/GPa)
#
#
# Indices 1 2 3 4 5 6 
#
# 1 0.019268 -0.003894 -0.002039 0.000000 0.000000 0.000000
# 2 -0.003894 0.010056 -0.002346 0.000000 0.000000 0.000000
# 3 -0.002039 -0.002346 0.012070 0.000000 0.000000 0.000000
# 4 0.000000 0.000000 0.000000 0.374000 0.000000 0.000000
# 5 0.000000 0.000000 0.000000 0.000000 0.031516 0.000000
# 6 0.000000 0.000000 0.000000 0.000000 0.000000 0.084114
#
#
# Mechanical properties :
#
#
# Convention : Reuss Voigt Hill
#
# Bulk Modulus (GPa) = 40.26496 44.65836 42.46166
# Shear Modulus (GPa) = 8.99505 22.39552 15.69529
#
# Velocity S-wave (km/s) = 2.19187 3.45854 2.89532
# Velocity P-wave (km/s) = 5.28311 6.30878 5.81859
#
# Compressibility (1/GPa) = 0.02483549
#
# Stress axis : x y z
#
# Youngs Moduli (GPa) = 51.89900 99.43996 82.85248
#
# Poissons Ratio (x) = 0.38725 0.16896
# Poissons Ratio (y) = 0.20211 0.19435
# Poissons Ratio (z) = 0.10584 0.23326
#
# Static dielectric constant tensor:
#      x y z
#    x 1.683270 0.000000 0.000000 
#    y 0.000000 1.641330 0.000000 
#    z 0.000000 0.000000 1.653740 
# 
# From -- ./inp_files/11481.got.cif
#   From: 2010.05.17/outbox.cif.g08.bks.cpg/sg48_6_cif.got.tgz:11481.got - 2010.06.03 20:39:00.
