data_PCOD9390047
_publ_section_title
;
Structure prediction by ZEFSAII (Michael W. Deem and Ramdas Pophale) SiO2 
 PCOD9390047
Probable space group: P N N N
;
_chemical_formula_sum "Si O2"
_cell_formula_units_Z 58
_cell_length_a 28.612089
_cell_length_b 20.425856
_cell_length_c 5.103671
_cell_angle_alpha 90.000000
_cell_angle_beta 90.000000
_cell_angle_gamma 90.000000
_cell_volume 2982.720119
_symmetry_space_group_name_H-M "P N N N"
_symmetry_group_IT_number 48
_space_group.IT_coordinate_system_code '2'
_symmetry_cell_setting 'orthorhombic'
loop_
_space_group_symop_operation_xyz
x,y,z
1/2-x,1/2-y,z
x,1/2-y,1/2-z
1/2-x,y,1/2-z
-x,-y,-z
1/2+x,1/2+y,-z
-x,1/2+y,1/2+z
1/2+x,-y,1/2+z
loop_
_atom_site_type_symbol
_atom_site_label
_atom_site_fract_x
_atom_site_fract_y
_atom_site_fract_z
Si Si1 0.836449 0.497298 0.109905
Si Si2 0.940333 0.490194 0.285998
Si Si3 0.833716 0.653193 0.109507
Si Si4 0.465683 0.430525 0.283611
Si Si5 0.701555 0.065281 0.602550
Si Si6 0.750000 0.750000 0.250000
Si Si7 0.895185 0.819465 0.876521
Si Si8 0.303211 0.780421 0.494698
O O1 0.887018 0.476849 0.221906
O O2 0.828250 0.575112 0.136914
O O3 0.801533 0.466053 0.318450
O O4 0.832598 0.469143 0.815252
O O5 0.947785 0.513257 0.583514
O O6 0.978234 0.433448 0.234799
O O7 0.952884 0.548790 0.079730
O O8 0.787365 0.698607 0.122314
O O9 0.871732 0.676203 0.333362
O O10 0.853924 0.659514 0.818879
O O11 0.438438 0.367754 0.176288
O O12 0.750000 0.055439 0.750000
O O13 0.696962 0.142561 0.545659
O O14 0.908792 0.750000 0.750000
O O15 0.250000 0.750000 0.496496
O O16 0.325463 0.750000 0.750000
O O17 0.328715 0.750000 0.250000
#
# Coordination Sequence:
#
# PCOD9390047 Si02
#       8
#     8   8   8   8   8   2   8   8
#     4  12  24  41  60  89 135 160 207 272 330 394
#     4  10  20  37  62  93 119 162 189 260 329 387
#     4  12  26  43  60  84 127 174 223 271 324 368
#     4  10  19  36  65  91 121 147 211 252 320 389
#     4  12  25  39  59  94 122 162 213 255 319 370
#     4  12  28  46  56  86 128 186 242 274 324 390
#     4  12  21  41  64  93 116 164 220 271 307 383
#     4  10  19  36  62  82 111 144 200 263 278 350
#
# _framework density 19.445336999999999
#
# number of rings (size 3 to 8) (size 9 to 14) (size 15 to 20)
#    0.000    0.828    5.517    2.897    3.862    1.103 
#    0.000    0.000    0.000    2.483    0.000    0.000 
#    0.000    0.000    0.000    0.000    0.000    0.000 
#
# Total GULP energy -323121.462874 kJ/mol
# GULP energy per Si atom -5571.059705 kJ/mol
# Density = 1.940108 g / cm^3
# Si number density = 19.445337 Si / 1000 Ang^3
#
#
#
# Elastic Constant Matrix: (Units=GPa)
#
#
# Indices 1 2 3 4 5 6 
#
# 1 86.9542 38.3380 2.8238 0.0000 0.0000 0.0000
# 2 38.3380 100.9349 11.4962 0.0000 0.0000 0.0000
# 3 2.8238 11.4962 102.1624 0.0000 0.0000 0.0000
# 4 0.0000 0.0000 0.0000 345.1838 0.0000 0.0000
# 5 0.0000 0.0000 0.0000 0.0000 22.2169 0.0000
# 6 0.0000 0.0000 0.0000 0.0000 0.0000 -4.8902
#
#
#
# Elastic Compliance Matrix: (Units=1/GPa)
#
#
# Indices 1 2 3 4 5 6 
#
# 1 0.013818 -0.005273 0.000211 0.000000 0.000000 0.000000
# 2 -0.005273 0.012048 -0.001210 0.000000 0.000000 0.000000
# 3 0.000211 -0.001210 0.009919 0.000000 0.000000 0.000000
# 4 0.000000 0.000000 0.000000 0.002897 0.000000 0.000000
# 5 0.000000 0.000000 0.000000 0.000000 0.045011 0.000000
# 6 0.000000 0.000000 0.000000 0.000000 0.000000 -0.204489
#
#
# Mechanical properties :
#
#
# Convention : Reuss Voigt Hill
#
# Bulk Modulus (GPa) = 43.02515 43.92975 43.47745
# Shear Modulus (GPa) = -49.74814 88.32833 19.29009
#
# Velocity S-wave (km/s) = -5.06351 6.74704 3.15305
# Velocity P-wave (km/s) = 3.46573 9.12892 5.97185
#
# Compressibility (1/GPa) = 0.02324222
#
# Stress axis : x y z
#
# Youngs Moduli (GPa) = 72.36873 83.00219 100.82014
#
# Poissons Ratio (x) = 0.43764 -0.02131
# Poissons Ratio (y) = 0.38157 0.12199
# Poissons Ratio (z) = -0.01530 0.10043
#
# Static dielectric constant tensor:
#      x y z
#    x 1.725120 0.000000 0.000000 
#    y 0.000000 1.255150 0.000000 
#    z 0.000000 0.000000 1.704890 
# 
# From -- ./inp_files/6603.got.cif
#   From: 2010.05.17/outbox.cif.g08.bks.cpg/sg48_4_cif.got.tgz:6603.got - 2010.06.03 20:39:00.
