data_PCOD9390751
_publ_section_title
;
Structure prediction by ZEFSAII (Michael W. Deem and Ramdas Pophale) SiO2 
 PCOD9390751
Probable space group: P N N N
;
_chemical_formula_sum "Si O2"
_cell_formula_units_Z 56
_cell_length_a 11.585788
_cell_length_b 11.422708
_cell_length_c 22.408989
_cell_angle_alpha 90.000000
_cell_angle_beta 90.000000
_cell_angle_gamma 90.000000
_cell_volume 2965.629655
_symmetry_space_group_name_H-M "P N N N"
_symmetry_group_IT_number 48
_space_group.IT_coordinate_system_code '2'
_symmetry_cell_setting 'orthorhombic'
loop_
_space_group_symop_operation_xyz
x,y,z
1/2-x,1/2-y,z
x,1/2-y,1/2-z
1/2-x,y,1/2-z
-x,-y,-z
1/2+x,1/2+y,-z
-x,1/2+y,1/2+z
1/2+x,-y,1/2+z
loop_
_atom_site_type_symbol
_atom_site_label
_atom_site_fract_x
_atom_site_fract_y
_atom_site_fract_z
Si Si1 0.525583 0.532109 0.067158
Si Si2 0.118160 0.210231 0.565889
Si Si3 0.690461 0.379094 0.146791
Si Si4 0.971788 0.614456 0.736272
Si Si5 0.404660 0.161514 0.074292
Si Si6 0.930302 0.010415 0.353589
Si Si7 0.828975 0.587694 0.627882
O O1 0.554866 0.667127 0.071998
O O2 0.625405 0.444402 0.091879
O O3 0.406828 0.512765 0.101304
O O4 0.500000 0.500000 0.000000
O O5 0.250000 0.250000 0.575630
O O6 0.106100 0.165159 0.497220
O O7 0.073571 0.113535 0.612581
O O8 0.750000 0.250000 0.138647
O O9 0.589383 0.382354 0.196356
O O10 0.799369 0.458622 0.163489
O O11 0.953489 0.750000 0.750000
O O12 0.994774 0.534767 0.794092
O O13 0.859788 0.582763 0.697255
O O14 0.300584 0.088219 0.104501
O O15 0.384235 0.291599 0.100718
O O16 0.521913 0.105141 0.098297
#
# Coordination Sequence:
#
# PCOD9390751 Si02
#       7
#     8   8   8   8   8   8   8
#     4  11  21  40  63  87 126 173 211 255 327 403
#     4  12  23  41  62  92 133 172 210 267 326 401
#     4  11  22  36  62  92 123 161 213 269 325 378
#     4  11  21  38  61  92 129 159 212 272 323 390
#     4  11  21  41  64  95 129 157 218 280 323 393
#     4  12  24  38  60  95 130 166 208 268 335 383
#     4  10  21  38  64  90 122 167 213 264 326 381
#
# _framework density 18.883004
#
# number of rings (size 3 to 8) (size 9 to 14) (size 15 to 20)
#    0.000    0.857    7.143    1.714    0.000    0.571 
#    0.000    3.571    0.000    0.000    0.000    4.000 
#    0.000    0.000    0.000    0.000    0.000    0.000 
#
# Total GULP energy -312293.600717 kJ/mol
# GULP energy per Si atom -5576.671441 kJ/mol
# Density = 1.884003 g / cm^3
# Si number density = 18.883004 Si / 1000 Ang^3
#
#
#
# Elastic Constant Matrix: (Units=GPa)
#
#
# Indices 1 2 3 4 5 6 
#
# 1 59.7137 16.0937 23.4138 0.0000 0.0000 0.0000
# 2 16.0937 71.0184 49.3187 0.0000 0.0000 0.0000
# 3 23.4138 49.3187 133.3024 0.0000 0.0000 0.0000
# 4 0.0000 0.0000 0.0000 34.4767 0.0000 0.0000
# 5 0.0000 0.0000 0.0000 0.0000 7.9575 0.0000
# 6 0.0000 0.0000 0.0000 0.0000 0.0000 26.8725
#
#
#
# Elastic Compliance Matrix: (Units=1/GPa)
#
#
# Indices 1 2 3 4 5 6 
#
# 1 0.018330 -0.002581 -0.002265 0.000000 0.000000 0.000000
# 2 -0.002581 0.019313 -0.006692 0.000000 0.000000 0.000000
# 3 -0.002265 -0.006692 0.010375 0.000000 0.000000 0.000000
# 4 0.000000 0.000000 0.000000 0.029005 0.000000 0.000000
# 5 0.000000 0.000000 0.000000 0.000000 0.125668 0.000000
# 6 0.000000 0.000000 0.000000 0.000000 0.000000 0.037213
#
#
# Mechanical properties :
#
#
# Convention : Reuss Voigt Hill
#
# Bulk Modulus (GPa) = 40.09138 49.07632 44.58385
# Shear Modulus (GPa) = 18.43018 25.54190 21.98604
#
# Velocity S-wave (km/s) = 3.12752 3.68181 3.41593
# Velocity P-wave (km/s) = 5.85828 6.64232 6.26258
#
# Compressibility (1/GPa) = 0.02494301
#
# Stress axis : x y z
#
# Youngs Moduli (GPa) = 54.55473 51.77847 96.38207
#
# Poissons Ratio (x) = 0.13365 0.21827
# Poissons Ratio (y) = 0.14082 0.64499
# Poissons Ratio (z) = 0.12354 0.34650
#
# Static dielectric constant tensor:
#      x y z
#    x 1.636020 0.000000 0.000000 
#    y 0.000000 1.705960 0.000000 
#    z 0.000000 0.000000 1.689620 
# 
# From -- ./inp_files/20256.got.cif
#   From: 2010.05.17/outbox.cif.g08.bks.cpg/sg48_11_cif.got.tgz:20256.got - 2010.06.03 20:39:00.
