data_PCOD9390431
_publ_section_title
;
Structure prediction by ZEFSAII (Michael W. Deem and Ramdas Pophale) SiO2 
 PCOD9390431
Probable space group: P N N N
;
_chemical_formula_sum "Si O2"
_cell_formula_units_Z 40
_cell_length_a 13.294533
_cell_length_b 6.910603
_cell_length_c 18.569251
_cell_angle_alpha 90.000000
_cell_angle_beta 90.000000
_cell_angle_gamma 90.000000
_cell_volume 1706.017247
_symmetry_space_group_name_H-M "P N N N"
_symmetry_group_IT_number 48
_space_group.IT_coordinate_system_code '2'
_symmetry_cell_setting 'orthorhombic'
loop_
_space_group_symop_operation_xyz
x,y,z
1/2-x,1/2-y,z
x,1/2-y,1/2-z
1/2-x,y,1/2-z
-x,-y,-z
1/2+x,1/2+y,-z
-x,1/2+y,1/2+z
1/2+x,-y,1/2+z
loop_
_atom_site_type_symbol
_atom_site_label
_atom_site_fract_x
_atom_site_fract_y
_atom_site_fract_z
Si Si1 0.359518 0.529262 0.274691
Si Si2 0.401849 0.942658 0.928016
Si Si3 0.999722 0.431380 0.352902
Si Si4 0.412776 0.702901 0.424712
Si Si5 0.226522 0.518228 0.670358
O O1 0.366067 0.750000 0.250000
O O2 0.250000 0.456884 0.250000
O O3 0.445370 0.432064 0.224959
O O4 0.369317 0.565986 0.360575
O O5 0.468173 0.778270 0.885181
O O6 0.310448 0.040719 0.885725
O O7 0.477244 0.118068 0.941821
O O8 0.360404 0.835991 0.999231
O O9 0.070466 0.574554 0.400493
O O10 0.889056 0.522893 0.345198
O O11 0.250000 0.750000 0.670462
O O12 0.250000 0.451537 0.750000
#
# Coordination Sequence:
#
# PCOD9390431 Si02
#       5
#     8   8   8   8   8
#     4   9  19  38  60  88 116 161 206 251 296 363
#     4  10  21  38  57  88 120 154 190 253 308 352
#     4  10  20  38  60  85 113 157 206 236 300 365
#     4  10  21  38  58  82 121 156 195 247 304 357
#     4   9  18  34  58  88 115 149 194 243 296 355
#
# _framework density 23.446421999999998
#
# number of rings (size 3 to 8) (size 9 to 14) (size 15 to 20)
#    0.000    2.400    0.000    1.800    0.000    3.200 
#   25.200    3.000    0.000    0.000    0.000    0.000 
#    0.000    0.000    0.000    0.000    0.000    0.000 
#
# Total GULP energy -222862.832453 kJ/mol
# GULP energy per Si atom -5571.570811 kJ/mol
# Density = 2.339306 g / cm^3
# Si number density = 23.446422 Si / 1000 Ang^3
#
#
#
# Elastic Constant Matrix: (Units=GPa)
#
#
# Indices 1 2 3 4 5 6 
#
# 1 114.9745 15.7288 45.0074 0.0000 0.0000 0.0000
# 2 15.7288 94.0116 17.3026 0.0000 0.0000 0.0000
# 3 45.0074 17.3026 117.0842 0.0000 0.0000 0.0000
# 4 0.0000 0.0000 0.0000 117.8041 0.0000 0.0000
# 5 0.0000 0.0000 0.0000 0.0000 20.8282 0.0000
# 6 0.0000 0.0000 0.0000 0.0000 0.0000 12.9114
#
#
#
# Elastic Compliance Matrix: (Units=1/GPa)
#
#
# Indices 1 2 3 4 5 6 
#
# 1 0.010334 -0.001026 -0.003821 0.000000 0.000000 0.000000
# 2 -0.001026 0.011036 -0.001237 0.000000 0.000000 0.000000
# 3 -0.003821 -0.001237 0.010192 0.000000 0.000000 0.000000
# 4 0.000000 0.000000 0.000000 0.008489 0.000000 0.000000
# 5 0.000000 0.000000 0.000000 0.000000 0.048012 0.000000
# 6 0.000000 0.000000 0.000000 0.000000 0.000000 0.077451
#
#
# Mechanical properties :
#
#
# Convention : Reuss Voigt Hill
#
# Bulk Modulus (GPa) = 51.55696 53.57199 52.56447
# Shear Modulus (GPa) = 27.15253 46.84415 36.99834
#
# Velocity S-wave (km/s) = 3.40673 4.47466 3.97671
# Velocity P-wave (km/s) = 6.12466 7.04238 6.59949
#
# Compressibility (1/GPa) = 0.01939602
#
# Stress axis : x y z
#
# Youngs Moduli (GPa) = 96.77248 90.61097 98.11344
#
# Poissons Ratio (x) = 0.09294 0.37486
# Poissons Ratio (y) = 0.09926 0.12133
# Poissons Ratio (z) = 0.36973 0.11205
#
# Static dielectric constant tensor:
#      x y z
#    x 1.899430 0.000000 0.000000 
#    y 0.000000 1.934170 0.000000 
#    z 0.000000 0.000000 2.014010 
# 
# From -- ./inp_files/30843.got.cif
#   From: 2010.05.17/outbox.cif.g08.bks.cpg/sg48_16_cif.got.tgz:30843.got - 2010.06.03 20:39:00.
