data_PCOD9390722
_publ_section_title
;
Structure prediction by ZEFSAII (Michael W. Deem and Ramdas Pophale) SiO2 
 PCOD9390722
Probable space group: P N N N
;
_chemical_formula_sum "Si O2"
_cell_formula_units_Z 64
_cell_length_a 21.494875
_cell_length_b 8.875939
_cell_length_c 17.439341
_cell_angle_alpha 90.000000
_cell_angle_beta 90.000000
_cell_angle_gamma 90.000000
_cell_volume 3327.203027
_symmetry_space_group_name_H-M "P N N N"
_symmetry_group_IT_number 48
_space_group.IT_coordinate_system_code '2'
_symmetry_cell_setting 'orthorhombic'
loop_
_space_group_symop_operation_xyz
x,y,z
1/2-x,1/2-y,z
x,1/2-y,1/2-z
1/2-x,y,1/2-z
-x,-y,-z
1/2+x,1/2+y,-z
-x,1/2+y,1/2+z
1/2+x,-y,1/2+z
loop_
_atom_site_type_symbol
_atom_site_label
_atom_site_fract_x
_atom_site_fract_y
_atom_site_fract_z
Si Si1 0.447644 0.827599 0.559446
Si Si2 0.618987 0.370289 0.554336
Si Si3 0.990382 0.340779 0.827031
Si Si4 0.179147 0.189134 0.468831
Si Si5 0.362868 0.365098 0.180630
Si Si6 0.934370 0.673340 0.458503
Si Si7 0.816375 0.175958 0.826972
Si Si8 0.998477 0.908947 0.784630
O O1 0.405512 0.693535 0.526707
O O2 0.515554 0.786097 0.524734
O O3 0.454138 0.866824 0.648485
O O4 0.427640 0.993553 0.529830
O O5 0.562155 0.404874 0.614283
O O6 0.665763 0.510672 0.544353
O O7 0.647908 0.226940 0.597643
O O8 0.971381 0.250000 0.750000
O O9 0.031950 0.229146 0.879812
O O10 0.020749 0.483870 0.783929
O O11 0.250000 0.250000 0.478629
O O12 0.150047 0.272148 0.395241
O O13 0.131404 0.243883 0.534668
O O14 0.355235 0.250000 0.250000
O O15 0.313667 0.499254 0.184213
O O16 0.430007 0.451355 0.181664
O O17 0.750000 0.250000 0.834985
O O18 0.843492 0.250000 0.750000
O O19 0.982002 0.750000 0.750000
#
# Coordination Sequence:
#
# PCOD9390722 Si02
#       8
#     8   8   8   8   8   8   8   8
#     4  10  21  38  60  88 122 159 193 265 330 376
#     4  11  23  36  59  88 124 166 205 259 320 380
#     4  11  21  36  61  90 123 161 204 257 334 398
#     4  12  25  41  59  85 126 174 219 259 306 377
#     4  11  22  38  59  84 125 162 211 255 309 375
#     4  10  22  39  58  87 125 164 208 259 317 387
#     4  11  22  37  55  80 119 166 216 250 290 361
#     4  11  21  34  58  91 121 154 191 254 328 395
#
# _framework density 19.235375999999999
#
# number of rings (size 3 to 8) (size 9 to 14) (size 15 to 20)
#    0.000    1.125    2.500    5.625    3.500    2.250 
#    0.000    0.000    0.000    0.375    0.000    0.000 
#    0.000    0.000    0.000    0.000    0.000    0.000 
#
# Total GULP energy -356519.112609 kJ/mol
# GULP energy per Si atom -5570.611135 kJ/mol
# Density = 1.919160 g / cm^3
# Si number density = 19.235376 Si / 1000 Ang^3
#
#
#
# Elastic Constant Matrix: (Units=GPa)
#
#
# Indices 1 2 3 4 5 6 
#
# 1 71.5020 34.1197 35.8669 0.0000 0.0000 0.0000
# 2 34.1197 116.3006 29.5519 0.0000 0.0000 0.0000
# 3 35.8669 29.5519 81.7793 0.0000 0.0000 0.0000
# 4 0.0000 0.0000 0.0000 29.3871 0.0000 0.0000
# 5 0.0000 0.0000 0.0000 0.0000 -57.9257 0.0000
# 6 0.0000 0.0000 0.0000 0.0000 0.0000 17.9037
#
#
#
# Elastic Compliance Matrix: (Units=1/GPa)
#
#
# Indices 1 2 3 4 5 6 
#
# 1 0.019405 -0.003887 -0.007106 0.000000 0.000000 0.000000
# 2 -0.003887 0.010246 -0.001998 0.000000 0.000000 0.000000
# 3 -0.007106 -0.001998 0.016067 0.000000 0.000000 0.000000
# 4 0.000000 0.000000 0.000000 0.034029 0.000000 0.000000
# 5 0.000000 0.000000 0.000000 0.000000 -0.017263 0.000000
# 6 0.000000 0.000000 0.000000 0.000000 0.000000 0.055854
#
#
# Mechanical properties :
#
#
# Convention : Reuss Voigt Hill
#
# Bulk Modulus (GPa) = 50.66909 52.07321 51.37115
# Shear Modulus (GPa) = 33.13491 9.20925 21.17208
#
# Velocity S-wave (km/s) = 4.15493 2.19045 3.32126
# Velocity P-wave (km/s) = 7.02970 5.79032 6.43989
#
# Compressibility (1/GPa) = 0.01973590
#
# Stress axis : x y z
#
# Youngs Moduli (GPa) = 51.53275 97.59438 62.24130
#
# Poissons Ratio (x) = 0.37938 0.44229
# Poissons Ratio (y) = 0.20033 0.12434
# Poissons Ratio (z) = 0.36619 0.19497
#
# Static dielectric constant tensor:
#      x y z
#    x 1.750590 0.000000 0.000000 
#    y 0.000000 1.611170 0.000000 
#    z 0.000000 0.000000 1.643830 
# 
# From -- ./inp_files/32248.got.cif
#   From: 2010.05.17/outbox.cif.g08.bks.cpg/sg48_17_cif.got.tgz:32248.got - 2010.06.03 20:39:00.
