data_PCOD9390211
_publ_section_title
;
Structure prediction by ZEFSAII (Michael W. Deem and Ramdas Pophale) SiO2 
 PCOD9390211
Probable space group: P N N N
;
_chemical_formula_sum "Si O2"
_cell_formula_units_Z 64
_cell_length_a 32.357082
_cell_length_b 12.510869
_cell_length_c 8.748427
_cell_angle_alpha 90.000000
_cell_angle_beta 90.000000
_cell_angle_gamma 90.000000
_cell_volume 3541.496349
_symmetry_space_group_name_H-M "P N N N"
_symmetry_group_IT_number 48
_space_group.IT_coordinate_system_code '2'
_symmetry_cell_setting 'orthorhombic'
loop_
_space_group_symop_operation_xyz
x,y,z
1/2-x,1/2-y,z
x,1/2-y,1/2-z
1/2-x,y,1/2-z
-x,-y,-z
1/2+x,1/2+y,-z
-x,1/2+y,1/2+z
1/2+x,-y,1/2+z
loop_
_atom_site_type_symbol
_atom_site_label
_atom_site_fract_x
_atom_site_fract_y
_atom_site_fract_z
Si Si1 0.085732 0.981754 0.581873
Si Si2 0.334057 0.014154 0.433343
Si Si3 0.117738 0.848397 0.862080
Si Si4 0.384445 0.275319 0.087362
Si Si5 0.052888 0.775855 0.430271
Si Si6 0.667412 0.933243 0.916299
Si Si7 0.751609 0.876723 0.066517
Si Si8 0.538125 0.803291 0.088258
O O1 0.096238 0.930510 0.745155
O O2 0.070008 0.893463 0.463802
O O3 0.129508 0.022067 0.515243
O O4 0.050954 0.072788 0.594208
O O5 0.349038 0.911537 0.531554
O O6 0.368660 0.106759 0.444143
O O7 0.329755 0.007929 0.248178
O O8 0.292329 0.065352 0.502266
O O9 0.132760 0.750000 0.750000
O O10 0.082706 0.801442 0.973978
O O11 0.405061 0.250000 0.250000
O O12 0.346137 0.192063 0.094332
O O13 0.419961 0.248876 0.970763
O O14 0.055200 0.750000 0.250000
O O15 0.005578 0.778647 0.491623
O O16 0.711307 0.933842 0.998004
O O17 0.750000 0.750000 0.025142
O O18 0.750000 0.882800 0.250000
O O19 0.531293 0.750000 0.250000
#
# Coordination Sequence:
#
# PCOD9390211 Si02
#       8
#     8   8   8   8   8   8   8   8
#     4  10  20  37  58  79 110 146 189 236 292 338
#     4  11  20  36  58  81 118 157 188 231 284 337
#     4  10  22  38  58  82 108 150 197 240 284 340
#     4   9  19  32  51  81 117 150 185 225 281 344
#     4  10  21  38  56  79 108 146 194 241 281 334
#     4  10  20  35  56  86 116 152 188 230 283 348
#     4  11  22  34  55  89 125 155 184 225 280 348
#     4  10  20  34  54  81 111 143 185 237 288 341
#
# _framework density 18.071458
#
# number of rings (size 3 to 8) (size 9 to 14) (size 15 to 20)
#    0.000    1.875    1.250    3.000    0.000    3.000 
#    0.000    6.875    0.000    8.625    0.000   11.375 
#    0.000    0.000    0.000    0.000    0.000    0.000 
#
# Total GULP energy -356437.664107 kJ/mol
# GULP energy per Si atom -5569.338502 kJ/mol
# Density = 1.803033 g / cm^3
# Si number density = 18.071458 Si / 1000 Ang^3
#
#
#
# Elastic Constant Matrix: (Units=GPa)
#
#
# Indices 1 2 3 4 5 6 
#
# 1 109.7128 53.3316 49.2080 0.0000 0.0000 0.0000
# 2 53.3316 79.4972 50.4949 0.0000 0.0000 0.0000
# 3 49.2080 50.4949 95.1301 0.0000 0.0000 0.0000
# 4 0.0000 0.0000 0.0000 25.7137 0.0000 0.0000
# 5 0.0000 0.0000 0.0000 0.0000 21.7169 0.0000
# 6 0.0000 0.0000 0.0000 0.0000 0.0000 32.3052
#
#
#
# Elastic Compliance Matrix: (Units=1/GPa)
#
#
# Indices 1 2 3 4 5 6 
#
# 1 0.014244 -0.007356 -0.003464 0.000000 0.000000 0.000000
# 2 -0.007356 0.022776 -0.008284 0.000000 0.000000 0.000000
# 3 -0.003464 -0.008284 0.016701 0.000000 0.000000 0.000000
# 4 0.000000 0.000000 0.000000 0.038890 0.000000 0.000000
# 5 0.000000 0.000000 0.000000 0.000000 0.046047 0.000000
# 6 0.000000 0.000000 0.000000 0.000000 0.000000 0.030955
#
#
# Mechanical properties :
#
#
# Convention : Reuss Voigt Hill
#
# Bulk Modulus (GPa) = 64.46146 65.60101 65.03123
# Shear Modulus (GPa) = 23.47524 24.70087 24.08806
#
# Velocity S-wave (km/s) = 3.60811 3.70110 3.65490
# Velocity P-wave (km/s) = 7.28736 7.39215 7.33994
#
# Compressibility (1/GPa) = 0.01551315
#
# Stress axis : x y z
#
# Youngs Moduli (GPa) = 70.20629 43.90624 59.87707
#
# Poissons Ratio (x) = 0.32296 0.20739
# Poissons Ratio (y) = 0.51641 0.49605
# Poissons Ratio (z) = 0.24316 0.36374
#
# Static dielectric constant tensor:
#      x y z
#    x 1.604040 0.000000 0.000000 
#    y 0.000000 1.639360 0.000000 
#    z 0.000000 0.000000 1.631730 
# 
# From -- ./inp_files/11575.got.cif
#   From: 2010.05.17/outbox.cif.g08.bks.cpg/sg48_6_cif.got.tgz:11575.got - 2010.06.03 20:39:00.
