data_PCOD9390647
_publ_section_title
;
Structure prediction by ZEFSAII (Michael W. Deem and Ramdas Pophale) SiO2 
 PCOD9390647
Probable space group: P N N N
;
_chemical_formula_sum "Si O2"
_cell_formula_units_Z 48
_cell_length_a 15.105974
_cell_length_b 5.683929
_cell_length_c 25.330264
_cell_angle_alpha 90.000000
_cell_angle_beta 90.000000
_cell_angle_gamma 90.000000
_cell_volume 2174.888983
_symmetry_space_group_name_H-M "P N N N"
_symmetry_group_IT_number 48
_space_group.IT_coordinate_system_code '2'
_symmetry_cell_setting 'orthorhombic'
loop_
_space_group_symop_operation_xyz
x,y,z
1/2-x,1/2-y,z
x,1/2-y,1/2-z
1/2-x,y,1/2-z
-x,-y,-z
1/2+x,1/2+y,-z
-x,1/2+y,1/2+z
1/2+x,-y,1/2+z
loop_
_atom_site_type_symbol
_atom_site_label
_atom_site_fract_x
_atom_site_fract_y
_atom_site_fract_z
Si Si1 0.172222 0.580860 0.451332
Si Si2 0.499320 0.398989 0.559226
Si Si3 0.545175 0.671127 0.891388
Si Si4 0.497984 0.000865 0.721054
Si Si5 0.796248 0.498731 0.317152
Si Si6 0.136925 0.465200 0.567612
O O1 0.250000 0.750000 0.432909
O O2 0.079636 0.716352 0.444278
O O3 0.141027 0.351286 0.419323
O O4 0.183461 0.521334 0.512820
O O5 0.500000 0.500000 0.500000
O O6 0.524609 0.553036 0.610171
O O7 0.401445 0.298082 0.567087
O O8 0.541161 0.530198 0.837097
O O9 0.456507 0.604740 0.925761
O O10 0.517415 0.750000 0.750000
O O11 0.520692 0.250000 0.750000
O O12 0.392713 0.004865 0.709447
O O13 0.750000 0.750000 0.305921
O O14 0.808322 0.491585 0.380433
O O15 0.750000 0.250000 0.304027
#
# Coordination Sequence:
#
# PCOD9390647 Si02
#       6
#     8   8   8   8   8   8
#     4  11  22  36  57  96 132 164 213 265 329 399
#     4  11  19  36  63  85 126 175 220 259 316 394
#     4  10  22  40  62  89 123 167 213 276 326 389
#     4  11  26  44  70  95 120 168 235 285 337 401
#     4  11  25  40  62  95 139 175 210 267 336 393
#     4  10  21  35  59  89 130 174 216 249 308 400
#
# _framework density 22.070091000000001
#
# number of rings (size 3 to 8) (size 9 to 14) (size 15 to 20)
#    0.000    1.333    3.333    2.500   11.667    4.000 
#    0.000    0.000    0.000    0.500    0.000    0.000 
#    0.000    0.000    0.000    0.000    0.000    0.000 
#
# Total GULP energy -267538.807959 kJ/mol
# GULP energy per Si atom -5573.725166 kJ/mol
# Density = 2.201986 g / cm^3
# Si number density = 22.070091 Si / 1000 Ang^3
#
#
#
# Elastic Constant Matrix: (Units=GPa)
#
#
# Indices 1 2 3 4 5 6 
#
# 1 43.6145 12.1720 17.0055 0.0000 0.0000 0.0000
# 2 12.1720 105.6220 39.4129 0.0000 0.0000 0.0000
# 3 17.0055 39.4129 116.1020 0.0000 0.0000 0.0000
# 4 0.0000 0.0000 0.0000 53.7295 0.0000 0.0000
# 5 0.0000 0.0000 0.0000 0.0000 19.6885 0.0000
# 6 0.0000 0.0000 0.0000 0.0000 0.0000 27.7665
#
#
#
# Elastic Compliance Matrix: (Units=1/GPa)
#
#
# Indices 1 2 3 4 5 6 
#
# 1 0.024582 -0.001705 -0.003022 0.000000 0.000000 0.000000
# 2 -0.001705 0.010959 -0.003471 0.000000 0.000000 0.000000
# 3 -0.003022 -0.003471 0.010234 0.000000 0.000000 0.000000
# 4 0.000000 0.000000 0.000000 0.018612 0.000000 0.000000
# 5 0.000000 0.000000 0.000000 0.000000 0.050791 0.000000
# 6 0.000000 0.000000 0.000000 0.000000 0.000000 0.036015
#
#
# Mechanical properties :
#
#
# Convention : Reuss Voigt Hill
#
# Bulk Modulus (GPa) = 34.03646 44.72437 39.38041
# Shear Modulus (GPa) = 28.18783 33.35342 30.77063
#
# Velocity S-wave (km/s) = 3.57767 3.89170 3.73798
# Velocity P-wave (km/s) = 5.70278 6.36415 6.04252
#
# Compressibility (1/GPa) = 0.02938026
#
# Stress axis : x y z
#
# Youngs Moduli (GPa) = 40.67976 91.24674 97.71502
#
# Poissons Ratio (x) = 0.15561 0.29526
# Poissons Ratio (y) = 0.06937 0.33912
# Poissons Ratio (z) = 0.12292 0.31668
#
# Static dielectric constant tensor:
#      x y z
#    x 1.867230 0.000000 0.000000 
#    y 0.000000 2.856320 0.000000 
#    z 0.000000 0.000000 3.872730 
# 
# From -- ./inp_files/6462.got.cif
#   From: 2010.05.17/outbox.cif.g08.bks.cpg/sg48_4_cif.got.tgz:6462.got - 2010.06.03 20:39:00.
