data_PCOD9390843
_publ_section_title
;
Structure prediction by ZEFSAII (Michael W. Deem and Ramdas Pophale) SiO2 
 PCOD9390843
Probable space group: P N N N
;
_chemical_formula_sum "Si O2"
_cell_formula_units_Z 60
_cell_length_a 11.671717
_cell_length_b 12.404015
_cell_length_c 18.885583
_cell_angle_alpha 90.000000
_cell_angle_beta 90.000000
_cell_angle_gamma 90.000000
_cell_volume 2734.182049
_symmetry_space_group_name_H-M "P N N N"
_symmetry_group_IT_number 48
_space_group.IT_coordinate_system_code '2'
_symmetry_cell_setting 'orthorhombic'
loop_
_space_group_symop_operation_xyz
x,y,z
1/2-x,1/2-y,z
x,1/2-y,1/2-z
1/2-x,y,1/2-z
-x,-y,-z
1/2+x,1/2+y,-z
-x,1/2+y,1/2+z
1/2+x,-y,1/2+z
loop_
_atom_site_type_symbol
_atom_site_label
_atom_site_fract_x
_atom_site_fract_y
_atom_site_fract_z
Si Si1 0.557032 0.769964 0.511075
Si Si2 0.829343 0.574892 0.424444
Si Si3 0.600008 0.867397 0.130777
Si Si4 0.037261 0.750000 0.250000
Si Si5 0.182207 0.640448 0.503092
Si Si6 0.413311 0.929641 0.359487
Si Si7 0.758136 0.620750 0.664385
Si Si8 0.039651 0.051011 0.421780
O O1 0.661992 0.849944 0.495146
O O2 0.557816 0.701301 0.437722
O O3 0.450159 0.846663 0.522499
O O4 0.535045 0.678240 0.567603
O O5 0.736013 0.624898 0.372878
O O6 0.778684 0.462602 0.453003
O O7 0.954559 0.570432 0.388420
O O8 0.544641 0.808716 0.195342
O O9 0.546717 0.986511 0.127418
O O10 0.099096 0.653180 0.293483
O O11 0.250000 0.750000 0.516261
O O12 0.170480 0.617759 0.420023
O O13 0.374774 0.053163 0.348764
O O14 0.750000 0.750000 0.645610
O O15 0.750000 0.616579 0.750000
O O16 0.662289 0.551611 0.620154
O O17 0.000000 0.000000 0.500000
#
# Coordination Sequence:
#
# PCOD9390843 Si02
#       8
#     8   8   8   4   8   8   8   8
#     4  10  21  40  63  99 134 180 234 290 370 428
#     4  11  24  43  63 104 145 177 243 296 372 440
#     4  11  23  41  66 102 140 185 231 295 365 439
#     4  12  24  47  73  98 148 188 243 307 362 466
#     4  11  24  40  64 100 144 180 229 305 375 430
#     4  11  26  43  70 102 137 186 238 298 372 436
#     4  11  27  48  71 100 143 197 248 297 367 463
#     4  10  24  41  71 103 140 183 246 305 366 440
#
# _framework density 21.944405
#
# number of rings (size 3 to 8) (size 9 to 14) (size 15 to 20)
#    0.000    1.200    2.667    3.600   11.200    2.133 
#    0.000    0.667    0.000    0.000    0.000    0.000 
#    0.000    0.000    0.000    0.000    0.000    0.000 
#
# Total GULP energy -334169.340877 kJ/mol
# GULP energy per Si atom -5569.489015 kJ/mol
# Density = 2.189446 g / cm^3
# Si number density = 21.944405 Si / 1000 Ang^3
#
#
#
# Elastic Constant Matrix: (Units=GPa)
#
#
# Indices 1 2 3 4 5 6 
#
# 1 72.6031 37.6662 18.7309 0.0000 0.0000 0.0000
# 2 37.6662 149.0708 32.6654 0.0000 0.0000 0.0000
# 3 18.7309 32.6654 53.4813 0.0000 0.0000 0.0000
# 4 0.0000 0.0000 0.0000 32.6260 0.0000 0.0000
# 5 0.0000 0.0000 0.0000 0.0000 10.0726 0.0000
# 6 0.0000 0.0000 0.0000 0.0000 0.0000 40.2492
#
#
#
# Elastic Compliance Matrix: (Units=1/GPa)
#
#
# Indices 1 2 3 4 5 6 
#
# 1 0.016470 -0.003345 -0.003725 0.000000 0.000000 0.000000
# 2 -0.003345 0.008424 -0.003974 0.000000 0.000000 0.000000
# 3 -0.003725 -0.003974 0.022430 0.000000 0.000000 0.000000
# 4 0.000000 0.000000 0.000000 0.030650 0.000000 0.000000
# 5 0.000000 0.000000 0.000000 0.000000 0.099279 0.000000
# 6 0.000000 0.000000 0.000000 0.000000 0.000000 0.024845
#
#
# Mechanical properties :
#
#
# Convention : Reuss Voigt Hill
#
# Bulk Modulus (GPa) = 39.62611 50.36447 44.99529
# Shear Modulus (GPa) = 21.49619 28.99572 25.24596
#
# Velocity S-wave (km/s) = 3.13321 3.63895 3.39551
# Velocity P-wave (km/s) = 5.58445 6.37626 5.99344
#
# Compressibility (1/GPa) = 0.02523589
#
# Stress axis : x y z
#
# Youngs Moduli (GPa) = 60.71615 118.70510 44.58337
#
# Poissons Ratio (x) = 0.39710 0.16608
# Poissons Ratio (y) = 0.20311 0.17716
# Poissons Ratio (z) = 0.22618 0.47170
#
# Static dielectric constant tensor:
#      x y z
#    x 1.831630 0.000000 0.000000 
#    y 0.000000 1.852640 0.000000 
#    z 0.000000 0.000000 1.855140 
# 
# From -- ./inp_files/34209.got.cif
#   From: 2010.05.17/outbox.cif.g08.bks.cpg/sg48_18_cif.got.tgz:34209.got - 2010.06.03 20:39:00.
