data_PCOD9390846
_publ_section_title
;
Structure prediction by ZEFSAII (Michael W. Deem and Ramdas Pophale) SiO2 
 PCOD9390846
Probable space group: P N N N
;
_chemical_formula_sum "Si O2"
_cell_formula_units_Z 54
_cell_length_a 6.032922
_cell_length_b 15.612904
_cell_length_c 27.331818
_cell_angle_alpha 90.000000
_cell_angle_beta 90.000000
_cell_angle_gamma 90.000000
_cell_volume 2574.423077
_symmetry_space_group_name_H-M "P N N N"
_symmetry_group_IT_number 48
_space_group.IT_coordinate_system_code '2'
_symmetry_cell_setting 'orthorhombic'
loop_
_space_group_symop_operation_xyz
x,y,z
1/2-x,1/2-y,z
x,1/2-y,1/2-z
1/2-x,y,1/2-z
-x,-y,-z
1/2+x,1/2+y,-z
-x,1/2+y,1/2+z
1/2+x,-y,1/2+z
loop_
_atom_site_type_symbol
_atom_site_label
_atom_site_fract_x
_atom_site_fract_y
_atom_site_fract_z
Si Si1 0.189214 0.928344 0.005479
Si Si2 0.896788 0.333789 0.681143
Si Si3 0.750000 0.407485 0.250000
Si Si4 0.750000 0.750000 0.250000
Si Si5 0.921157 0.990963 0.424799
Si Si6 0.365270 0.334029 0.196619
Si Si7 0.393385 0.003364 0.181658
Si Si8 0.092869 0.168521 0.927836
O O1 0.358775 0.963891 0.046122
O O2 0.080245 0.843484 0.027886
O O3 0.317449 0.928229 0.953777
O O4 0.000000 0.000000 0.000000
O O5 0.750000 0.250000 0.688339
O O6 0.746666 0.417300 0.691484
O O7 0.105562 0.313607 0.715821
O O8 0.972051 0.334762 0.624573
O O9 0.623466 0.347266 0.210209
O O10 0.564047 0.466537 0.276024
O O11 0.751730 0.913129 0.430063
O O12 0.968194 0.997861 0.367904
O O13 0.250000 0.250000 0.173176
O O14 0.250000 0.335516 0.250000
O O15 0.282438 0.420710 0.172076
O O16 0.250000 0.250000 0.931353
#
# Coordination Sequence:
#
# PCOD9390846 Si02
#       8
#     8   8   4   2   8   8   8   8
#     4   9  20  38  66  93 119 160 216 275 335 401
#     4  12  27  44  61  95 135 193 242 289 336 401
#     4  10  24  42  68  96 130 174 226 274 344 396
#     4  12  30  46  56  84 160 194 242 302 344 364
#     4  10  21  40  64  95 127 167 213 277 343 399
#     4   9  21  40  63  93 122 163 220 271 325 406
#     4  11  24  40  67  96 130 179 231 275 343 420
#     4  11  22  39  66  95 128 173 228 275 333 407
#
# _framework density 20.975574000000002
#
# number of rings (size 3 to 8) (size 9 to 14) (size 15 to 20)
#    0.000    1.630    2.222    1.111    2.074    9.481 
#    0.000    0.000    0.000   21.333    0.000    0.000 
#    0.000    0.000    0.000    0.000    0.000    0.000 
#
# Total GULP energy -301354.257776 kJ/mol
# GULP energy per Si atom -5580.634403 kJ/mol
# Density = 2.092783 g / cm^3
# Si number density = 20.975574 Si / 1000 Ang^3
#
#
#
# Elastic Constant Matrix: (Units=GPa)
#
#
# Indices 1 2 3 4 5 6 
#
# 1 110.3744 66.5134 40.2524 0.0000 0.0000 0.0000
# 2 66.5134 144.6434 44.2139 0.0000 0.0000 0.0000
# 3 40.2524 44.2139 93.9927 0.0000 0.0000 0.0000
# 4 0.0000 0.0000 0.0000 19.2953 0.0000 0.0000
# 5 0.0000 0.0000 0.0000 0.0000 34.3739 0.0000
# 6 0.0000 0.0000 0.0000 0.0000 0.0000 22.0719
#
#
#
# Elastic Compliance Matrix: (Units=1/GPa)
#
#
# Indices 1 2 3 4 5 6 
#
# 1 0.013359 -0.005132 -0.003307 0.000000 0.000000 0.000000
# 2 -0.005132 0.010046 -0.002528 0.000000 0.000000 0.000000
# 3 -0.003307 -0.002528 0.013244 0.000000 0.000000 0.000000
# 4 0.000000 0.000000 0.000000 0.051826 0.000000 0.000000
# 5 0.000000 0.000000 0.000000 0.000000 0.029092 0.000000
# 6 0.000000 0.000000 0.000000 0.000000 0.000000 0.045307
#
#
# Mechanical properties :
#
#
# Convention : Reuss Voigt Hill
#
# Bulk Modulus (GPa) = 67.95423 72.33001 70.14212
# Shear Modulus (GPa) = 26.35567 28.35027 27.35297
#
# Velocity S-wave (km/s) = 3.54855 3.68038 3.61507
# Velocity P-wave (km/s) = 7.01832 7.25383 7.13705
#
# Compressibility (1/GPa) = 0.01471579
#
# Stress axis : x y z
#
# Youngs Moduli (GPa) = 74.85754 99.53968 75.50394
#
# Poissons Ratio (x) = 0.51085 0.24967
# Poissons Ratio (y) = 0.38418 0.19087
# Poissons Ratio (z) = 0.24753 0.25162
#
# Static dielectric constant tensor:
#      x y z
#    x 1.780950 0.000000 0.000000 
#    y 0.000000 1.799000 0.000000 
#    z 0.000000 0.000000 1.755270 
# 
# From -- ./inp_files/38377.got.cif
#   From: 2010.05.17/outbox.cif.g08.bks.cpg/sg48_20_cif.got.tgz:38377.got - 2010.06.03 20:39:00.
