data_PCOD9390155
_publ_section_title
;
Structure prediction by ZEFSAII (Michael W. Deem and Ramdas Pophale) SiO2 
 PCOD9390155
Probable space group: P N N N
;
_chemical_formula_sum "Si O2"
_cell_formula_units_Z 64
_cell_length_a 18.765774
_cell_length_b 15.055623
_cell_length_c 11.204169
_cell_angle_alpha 90.000000
_cell_angle_beta 90.000000
_cell_angle_gamma 90.000000
_cell_volume 3165.518558
_symmetry_space_group_name_H-M "P N N N"
_symmetry_group_IT_number 48
_space_group.IT_coordinate_system_code '2'
_symmetry_cell_setting 'orthorhombic'
loop_
_space_group_symop_operation_xyz
x,y,z
1/2-x,1/2-y,z
x,1/2-y,1/2-z
1/2-x,y,1/2-z
-x,-y,-z
1/2+x,1/2+y,-z
-x,1/2+y,1/2+z
1/2+x,-y,1/2+z
loop_
_atom_site_type_symbol
_atom_site_label
_atom_site_fract_x
_atom_site_fract_y
_atom_site_fract_z
Si Si1 0.627696 0.056242 0.200324
Si Si2 0.698214 0.893346 0.351566
Si Si3 0.810561 0.322439 0.384823
Si Si4 0.634397 0.096554 0.786174
Si Si5 0.448913 0.133129 0.546745
Si Si6 0.409362 0.729189 0.082257
Si Si7 0.776915 0.025021 0.511767
Si Si8 0.017581 0.466267 0.313214
O O1 0.667290 0.141105 0.256394
O O2 0.651676 0.038407 0.066646
O O3 0.544263 0.065904 0.224458
O O4 0.662601 0.975394 0.276944
O O5 0.750000 0.852498 0.250000
O O6 0.629727 0.843852 0.406175
O O7 0.743005 0.932572 0.464417
O O8 0.750000 0.250000 0.392140
O O9 0.880341 0.287773 0.450989
O O10 0.779643 0.404572 0.460861
O O11 0.604367 0.171230 0.876516
O O12 0.634835 0.160037 0.667722
O O13 0.581242 0.016951 0.752770
O O14 0.701328 0.051783 0.854374
O O15 0.507841 0.204531 0.584824
O O16 0.454179 0.107110 0.406777
O O17 0.476686 0.042766 0.610694
#
# Coordination Sequence:
#
# PCOD9390155 Si02
#       8
#     8   8   8   8   8   8   8   8
#     4   9  18  32  49  70  97 136 181 227 260 321
#     4   8  16  30  49  75  99 125 175 227 277 304
#     4  11  19  32  48  70 103 144 181 221 264 333
#     4  10  21  33  46  74 106 145 174 219 282 342
#     4   9  16  31  54  70  94 140 184 230 254 330
#     4  10  20  35  48  71 107 141 189 219 276 336
#     4  10  20  31  44  72 106 136 170 222 284 333
#     4   9  17  30  51  72  94 137 185 218 267 326
#
# _framework density 20.217856000000001
#
# number of rings (size 3 to 8) (size 9 to 14) (size 15 to 20)
#    0.000    2.500    2.500    1.125    5.250    2.000 
#    0.000    0.000    0.000    0.000    0.000   28.875 
#    0.000    0.000    0.000    4.500    0.000    0.375 
#
# Total GULP energy -356572.399295 kJ/mol
# GULP energy per Si atom -5571.443739 kJ/mol
# Density = 2.017184 g / cm^3
# Si number density = 20.217856 Si / 1000 Ang^3
#
#
#
# Elastic Constant Matrix: (Units=GPa)
#
#
# Indices 1 2 3 4 5 6 
#
# 1 68.4345 9.3904 48.2187 0.0000 0.0000 0.0000
# 2 9.3904 20.5612 6.1070 0.0000 0.0000 0.0000
# 3 48.2187 6.1070 74.4161 0.0000 0.0000 0.0000
# 4 0.0000 0.0000 0.0000 6.0362 0.0000 0.0000
# 5 0.0000 0.0000 0.0000 0.0000 33.3268 0.0000
# 6 0.0000 0.0000 0.0000 0.0000 0.0000 11.8235
#
#
#
# Elastic Compliance Matrix: (Units=1/GPa)
#
#
# Indices 1 2 3 4 5 6 
#
# 1 0.027996 -0.007583 -0.017518 0.000000 0.000000 0.000000
# 2 -0.007583 0.051904 0.000654 0.000000 0.000000 0.000000
# 3 -0.017518 0.000654 0.024735 0.000000 0.000000 0.000000
# 4 0.000000 0.000000 0.000000 0.165667 0.000000 0.000000
# 5 0.000000 0.000000 0.000000 0.000000 0.030006 0.000000
# 6 0.000000 0.000000 0.000000 0.000000 0.000000 0.084577
#
#
# Mechanical properties :
#
#
# Convention : Reuss Voigt Hill
#
# Bulk Modulus (GPa) = 17.93999 32.31601 25.12800
# Shear Modulus (GPa) = 11.05313 16.88369 13.96841
#
# Velocity S-wave (km/s) = 2.34070 2.89292 2.63134
# Velocity P-wave (km/s) = 4.02465 5.21318 4.65699
#
# Compressibility (1/GPa) = 0.05574140
#
# Stress axis : x y z
#
# Youngs Moduli (GPa) = 35.71904 19.26630 40.42789
#
# Poissons Ratio (x) = 0.14609 0.70822
# Poissons Ratio (y) = 0.27085 -0.02643
# Poissons Ratio (z) = 0.62573 -0.01260
#
# Static dielectric constant tensor:
#      x y z
#    x 1.733580 0.000000 0.000000 
#    y 0.000000 1.713630 0.000000 
#    z 0.000000 0.000000 1.793710 
# 
# From -- ./inp_files/22422.got.cif
#   From: 2010.05.17/outbox.cif.g08.bks.cpg/sg48_12_cif.got.tgz:22422.got - 2010.06.03 20:39:00.
