data_PCOD9390437
_publ_section_title
;
Structure prediction by ZEFSAII (Michael W. Deem and Ramdas Pophale) SiO2 
 PCOD9390437
Probable space group: P N N N
;
_chemical_formula_sum "Si O2"
_cell_formula_units_Z 48
_cell_length_a 26.875075
_cell_length_b 14.432795
_cell_length_c 6.488444
_cell_angle_alpha 90.000000
_cell_angle_beta 90.000000
_cell_angle_gamma 90.000000
_cell_volume 2516.753543
_symmetry_space_group_name_H-M "P N N N"
_symmetry_group_IT_number 48
_space_group.IT_coordinate_system_code '2'
_symmetry_cell_setting 'orthorhombic'
loop_
_space_group_symop_operation_xyz
x,y,z
1/2-x,1/2-y,z
x,1/2-y,1/2-z
1/2-x,y,1/2-z
-x,-y,-z
1/2+x,1/2+y,-z
-x,1/2+y,1/2+z
1/2+x,-y,1/2+z
loop_
_atom_site_type_symbol
_atom_site_label
_atom_site_fract_x
_atom_site_fract_y
_atom_site_fract_z
Si Si1 0.980442 0.750000 0.250000
Si Si2 0.294563 0.589980 0.125777
Si Si3 0.624782 0.142749 0.310909
Si Si4 0.987092 0.103017 0.069550
Si Si5 0.250000 0.027077 0.750000
Si Si6 0.839206 0.519267 0.002254
Si Si7 0.423410 0.162535 0.125960
O O1 0.946310 0.801785 0.413936
O O2 0.010857 0.674581 0.379059
O O3 0.250000 0.641316 0.250000
O O4 0.315201 0.517313 0.291437
O O5 0.341385 0.638613 0.017798
O O6 0.269510 0.537175 0.934660
O O7 0.624854 0.250000 0.250000
O O8 0.568269 0.110166 0.343553
O O9 0.646032 0.071370 0.138502
O O10 0.029916 0.131192 0.232498
O O11 0.000000 0.000000 0.000000
O O12 0.298404 0.073475 0.855467
O O13 0.885121 0.582331 0.932875
O O14 0.400160 0.250000 0.250000
#
# Coordination Sequence:
#
# PCOD9390437 Si02
#       7
#     4   8   8   8   4   8   8
#     4  10  22  40  58  81 121 154 182 238 288 342
#     4   9  19  38  59  79 110 152 192 236 290 348
#     4  11  23  36  54  87 120 150 197 245 291 359
#     4  11  23  38  58  86 118 154 198 240 292 359
#     4   8  18  36  59  85 108 144 194 238 284 351
#     4  10  20  38  61  81 113 153 191 240 297 348
#     4  10  22  38  59  87 114 150 194 234 289 359
#
# _framework density 19.072189999999999
#
# number of rings (size 3 to 8) (size 9 to 14) (size 15 to 20)
#    0.000    2.000    0.000    3.500    0.000   11.333 
#    0.000   19.167    0.000   12.000    0.000    0.000 
#    0.000    0.000    0.000    0.000    0.000    0.000 
#
# Total GULP energy -267512.215811 kJ/mol
# GULP energy per Si atom -5573.171163 kJ/mol
# Density = 1.902878 g / cm^3
# Si number density = 19.072190 Si / 1000 Ang^3
#
#
#
# Elastic Constant Matrix: (Units=GPa)
#
#
# Indices 1 2 3 4 5 6 
#
# 1 116.6622 43.1766 55.1686 0.0000 0.0000 0.0000
# 2 43.1766 76.4264 43.5640 0.0000 0.0000 0.0000
# 3 55.1686 43.5640 133.8078 0.0000 0.0000 0.0000
# 4 0.0000 0.0000 0.0000 19.4275 0.0000 0.0000
# 5 0.0000 0.0000 0.0000 0.0000 27.0140 0.0000
# 6 0.0000 0.0000 0.0000 0.0000 0.0000 -73.1290
#
#
#
# Elastic Compliance Matrix: (Units=1/GPa)
#
#
# Indices 1 2 3 4 5 6 
#
# 1 0.011947 -0.004840 -0.003350 0.000000 0.000000 0.000000
# 2 -0.004840 0.018027 -0.003873 0.000000 0.000000 0.000000
# 3 -0.003350 -0.003873 0.010116 0.000000 0.000000 0.000000
# 4 0.000000 0.000000 0.000000 0.051473 0.000000 0.000000
# 5 0.000000 0.000000 0.000000 0.000000 0.037018 0.000000
# 6 0.000000 0.000000 0.000000 0.000000 0.000000 -0.013674
#
#
# Mechanical properties :
#
#
# Convention : Reuss Voigt Hill
#
# Bulk Modulus (GPa) = 62.64608 67.85718 65.25163
# Shear Modulus (GPa) = 34.63698 6.99498 20.81598
#
# Velocity S-wave (km/s) = 4.26619 1.91718 3.30727
# Velocity P-wave (km/s) = 7.56210 6.36845 6.99080
#
# Compressibility (1/GPa) = 0.01596269
#
# Stress axis : x y z
#
# Youngs Moduli (GPa) = 83.70138 55.47325 98.85594
#
# Poissons Ratio (x) = 0.26849 0.33117
# Poissons Ratio (y) = 0.40511 0.38292
# Poissons Ratio (z) = 0.28041 0.21488
#
# Static dielectric constant tensor:
#      x y z
#    x 1.708540 0.000000 0.000000 
#    y 0.000000 1.647940 0.000000 
#    z 0.000000 0.000000 1.655620 
# 
# From -- ./inp_files/3552.got.cif
#   From: 2010.05.17/outbox.cif.g08.bks.cpg/sg48_2_cif.got.tgz:3552.got - 2010.06.03 20:39:00.
