data_PCOD9390916
_publ_section_title
;
Structure prediction by ZEFSAII (Michael W. Deem and Ramdas Pophale) SiO2 
 PCOD9390916
Probable space group: P N N N
;
_chemical_formula_sum "Si O2"
_cell_formula_units_Z 48
_cell_length_a 8.347779
_cell_length_b 14.731184
_cell_length_c 17.406228
_cell_angle_alpha 90.000000
_cell_angle_beta 90.000000
_cell_angle_gamma 90.000000
_cell_volume 2140.490305
_symmetry_space_group_name_H-M "P N N N"
_symmetry_group_IT_number 48
_space_group.IT_coordinate_system_code '2'
_symmetry_cell_setting 'orthorhombic'
loop_
_space_group_symop_operation_xyz
x,y,z
1/2-x,1/2-y,z
x,1/2-y,1/2-z
1/2-x,y,1/2-z
-x,-y,-z
1/2+x,1/2+y,-z
-x,1/2+y,1/2+z
1/2+x,-y,1/2+z
loop_
_atom_site_type_symbol
_atom_site_label
_atom_site_fract_x
_atom_site_fract_y
_atom_site_fract_z
Si Si1 0.065160 0.132074 0.952367
Si Si2 0.124535 0.495365 0.187560
Si Si3 0.069850 0.355352 0.729948
Si Si4 0.743917 0.024664 0.982486
Si Si5 0.913004 0.295700 0.022021
Si Si6 0.913126 0.324101 0.199709
O O1 0.044631 0.132003 0.860763
O O2 0.910506 0.081135 0.988939
O O3 0.053684 0.235206 0.984584
O O4 0.218393 0.069708 0.973934
O O5 0.250000 0.461954 0.250000
O O6 0.206837 0.503151 0.105593
O O7 0.054673 0.589537 0.218718
O O8 0.985197 0.422283 0.188685
O O9 0.057313 0.250000 0.750000
O O10 0.250000 0.385792 0.750000
O O11 0.606519 0.096252 0.008026
O O12 0.750000 0.250000 0.989123
O O13 0.908210 0.284267 0.113814
O O14 0.008484 0.250000 0.250000
O O15 0.750000 0.336229 0.250000
#
# Coordination Sequence:
#
# PCOD9390916 Si02
#       6
#     8   8   8   8   8   8
#     4  10  22  43  70  96 141 179 234 289 354 418
#     4  12  26  43  68 103 140 178 231 288 357 417
#     4  11  25  46  71 101 138 183 230 292 353 423
#     4  10  23  41  67 101 134 184 228 288 352 425
#     4  10  21  41  69  96 131 183 236 279 343 422
#     4  11  25  44  70  99 137 186 236 284 343 420
#
# _framework density 22.424768
#
# number of rings (size 3 to 8) (size 9 to 14) (size 15 to 20)
#    0.000    1.333    3.333    1.500    7.000    1.333 
#    6.000    0.000    0.000    0.000    0.000    0.000 
#    0.000    0.000    0.000    0.000    0.000    0.000 
#
# Total GULP energy -268022.163622 kJ/mol
# GULP energy per Si atom -5583.795075 kJ/mol
# Density = 2.237373 g / cm^3
# Si number density = 22.424768 Si / 1000 Ang^3
#
#
#
# Elastic Constant Matrix: (Units=GPa)
#
#
# Indices 1 2 3 4 5 6 
#
# 1 43.8132 27.5718 -13.9072 0.0000 0.0000 0.0000
# 2 27.5718 121.2473 20.0255 0.0000 0.0000 0.0000
# 3 -13.9072 20.0255 58.4070 0.0000 0.0000 0.0000
# 4 0.0000 0.0000 0.0000 -112.7134 0.0000 0.0000
# 5 0.0000 0.0000 0.0000 0.0000 -25.8937 0.0000
# 6 0.0000 0.0000 0.0000 0.0000 0.0000 51.2329
#
#
#
# Elastic Compliance Matrix: (Units=1/GPa)
#
#
# Indices 1 2 3 4 5 6 
#
# 1 0.031890 -0.009016 0.010685 0.000000 0.000000 0.000000
# 2 -0.009016 0.011292 -0.006018 0.000000 0.000000 0.000000
# 3 0.010685 -0.006018 0.021729 0.000000 0.000000 0.000000
# 4 0.000000 0.000000 0.000000 -0.008872 0.000000 0.000000
# 5 0.000000 0.000000 0.000000 0.000000 -0.038619 0.000000
# 6 0.000000 0.000000 0.000000 0.000000 0.000000 0.019519
#
#
# Mechanical properties :
#
#
# Convention : Reuss Voigt Hill
#
# Bulk Modulus (GPa) = 17.79044 32.31641 25.05343
# Shear Modulus (GPa) = 77.66971 -4.82301 36.42335
#
# Velocity S-wave (km/s) = 5.89159 -1.46814 4.03457
# Velocity P-wave (km/s) = 7.36422 3.40124 5.73586
#
# Compressibility (1/GPa) = 0.05620995
#
# Stress axis : x y z
#
# Youngs Moduli (GPa) = 31.35799 88.55834 46.02177
#
# Poissons Ratio (x) = 0.79848 -0.49173
# Poissons Ratio (y) = 0.28274 0.27698
# Poissons Ratio (z) = -0.33505 0.53299
#
# Static dielectric constant tensor:
#      x y z
#    x 1.749330 0.000000 0.000000 
#    y 0.000000 1.875230 0.000000 
#    z 0.000000 0.000000 1.747270 
# 
# From -- ./inp_files/30273.got.cif
#   From: 2010.05.17/outbox.cif.g08.bks.cpg/sg48_16_cif.got.tgz:30273.got - 2010.06.03 20:39:00.
