data_PCOD9390136
_publ_section_title
;
Structure prediction by ZEFSAII (Michael W. Deem and Ramdas Pophale) SiO2 
 PCOD9390136
Probable space group: P N N N
;
_chemical_formula_sum "Si O2"
_cell_formula_units_Z 28
_cell_length_a 12.633476
_cell_length_b 12.558132
_cell_length_c 8.430939
_cell_angle_alpha 90.000000
_cell_angle_beta 90.000000
_cell_angle_gamma 90.000000
_cell_volume 1337.592578
_symmetry_space_group_name_H-M "P N N N"
_symmetry_group_IT_number 48
_space_group.IT_coordinate_system_code '2'
_symmetry_cell_setting 'orthorhombic'
loop_
_space_group_symop_operation_xyz
x,y,z
1/2-x,1/2-y,z
x,1/2-y,1/2-z
1/2-x,y,1/2-z
-x,-y,-z
1/2+x,1/2+y,-z
-x,1/2+y,1/2+z
1/2+x,-y,1/2+z
loop_
_atom_site_type_symbol
_atom_site_label
_atom_site_fract_x
_atom_site_fract_y
_atom_site_fract_z
Si Si1 0.664651 0.656794 0.552304
Si Si2 0.406944 0.250000 0.750000
Si Si3 0.474224 0.750000 0.750000
Si Si4 0.250000 0.534700 0.250000
Si Si5 0.060761 0.610831 0.463418
O O1 0.750000 0.750000 0.588581
O O2 0.652493 0.667251 0.363912
O O3 0.555093 0.679886 0.643507
O O4 0.703479 0.544720 0.616790
O O5 0.476303 0.182398 0.629069
O O6 0.413651 0.826979 0.627501
O O7 0.159079 0.597087 0.344047
O O8 0.000000 0.500000 0.500000
#
# Coordination Sequence:
#
# PCOD9390136 Si02
#       5
#     8   4   4   4   8
#     4  11  18  37  66 100 126 169 228 296 330 400
#     4  10  25  39  66  96 138 170 226 283 355 402
#     4  10  19  40  66  97 134 170 220 285 353 400
#     4  12  21  37  72  96 138 178 238 274 352 426
#     4  11  23  43  69  98 133 184 224 287 352 412
#
# _framework density 20.933129999999998
#
# number of rings (size 3 to 8) (size 9 to 14) (size 15 to 20)
#    0.000    1.143    5.714    2.143    0.000    1.714 
#    0.000    0.000    6.286    0.000    0.000    0.000 
#    0.000    0.000    0.000    0.000    0.000    0.000 
#
# Total GULP energy -156271.587565 kJ/mol
# GULP energy per Si atom -5581.128127 kJ/mol
# Density = 2.088549 g / cm^3
# Si number density = 20.933130 Si / 1000 Ang^3
#
#
#
# Elastic Constant Matrix: (Units=GPa)
#
#
# Indices 1 2 3 4 5 6 
#
# 1 64.4233 19.9201 45.4996 0.0000 0.0000 0.0000
# 2 19.9201 71.3654 45.1356 0.0000 0.0000 0.0000
# 3 45.4996 45.1356 173.9268 0.0000 0.0000 0.0000
# 4 0.0000 0.0000 0.0000 57.1680 0.0000 0.0000
# 5 0.0000 0.0000 0.0000 0.0000 30.3456 0.0000
# 6 0.0000 0.0000 0.0000 0.0000 0.0000 11.0649
#
#
#
# Elastic Compliance Matrix: (Units=1/GPa)
#
#
# Indices 1 2 3 4 5 6 
#
# 1 0.019449 -0.002645 -0.004401 0.000000 0.000000 0.000000
# 2 -0.002645 0.017124 -0.003752 0.000000 0.000000 0.000000
# 3 -0.004401 -0.003752 0.007875 0.000000 0.000000 0.000000
# 4 0.000000 0.000000 0.000000 0.017492 0.000000 0.000000
# 5 0.000000 0.000000 0.000000 0.000000 0.032954 0.000000
# 6 0.000000 0.000000 0.000000 0.000000 0.000000 0.090376
#
#
# Mechanical properties :
#
#
# Convention : Reuss Voigt Hill
#
# Bulk Modulus (GPa) = 43.76276 58.98067 51.37172
# Shear Modulus (GPa) = 23.31196 32.99305 28.15251
#
# Velocity S-wave (km/s) = 3.34074 3.97434 3.67124
# Velocity P-wave (km/s) = 5.98599 7.02121 6.52417
#
# Compressibility (1/GPa) = 0.02285048
#
# Stress axis : x y z
#
# Youngs Moduli (GPa) = 51.41727 58.39922 126.99074
#
# Poissons Ratio (x) = 0.15446 0.55894
# Poissons Ratio (y) = 0.13600 0.47644
# Poissons Ratio (z) = 0.22631 0.21910
#
# Static dielectric constant tensor:
#      x y z
#    x 1.786950 0.000000 0.000000 
#    y 0.000000 1.747250 0.000000 
#    z 0.000000 0.000000 1.786880 
# 
# From -- ./inp_files/10047.got.cif
#   From: 2010.05.17/outbox.cif.g08.bks.cpg/sg48_6_cif.got.tgz:10047.got - 2010.06.03 20:39:00.
