data_PCOD9390987
_publ_section_title
;
Structure prediction by ZEFSAII (Michael W. Deem and Ramdas Pophale) SiO2 
 PCOD9390987
Probable space group: P N N N
;
_chemical_formula_sum "Si O2"
_cell_formula_units_Z 48
_cell_length_a 25.274204
_cell_length_b 12.640707
_cell_length_c 7.728330
_cell_angle_alpha 90.000000
_cell_angle_beta 90.000000
_cell_angle_gamma 90.000000
_cell_volume 2469.076293
_symmetry_space_group_name_H-M "P N N N"
_symmetry_group_IT_number 48
_space_group.IT_coordinate_system_code '2'
_symmetry_cell_setting 'orthorhombic'
loop_
_space_group_symop_operation_xyz
x,y,z
1/2-x,1/2-y,z
x,1/2-y,1/2-z
1/2-x,y,1/2-z
-x,-y,-z
1/2+x,1/2+y,-z
-x,1/2+y,1/2+z
1/2+x,-y,1/2+z
loop_
_atom_site_type_symbol
_atom_site_label
_atom_site_fract_x
_atom_site_fract_y
_atom_site_fract_z
Si Si1 0.146054 0.624823 0.204997
Si Si2 0.307092 0.868004 0.826838
Si Si3 0.470596 0.577544 0.366958
Si Si4 0.441510 0.345809 0.886274
Si Si5 0.373461 0.534722 0.956086
Si Si6 0.964699 0.295098 0.431756
O O1 0.137669 0.750000 0.250000
O O2 0.091577 0.558311 0.167072
O O3 0.164204 0.569824 0.384825
O O4 0.182438 0.625797 0.032721
O O5 0.315805 0.750000 0.750000
O O6 0.250000 0.898681 0.750000
O O7 0.349328 0.939049 0.729213
O O8 0.500000 0.500000 0.500000
O O9 0.512923 0.585505 0.212129
O O10 0.464531 0.696880 0.438159
O O11 0.430210 0.250000 0.750000
O O12 0.392175 0.414968 0.941901
O O13 0.473391 0.321662 0.062560
O O14 0.424695 0.611478 0.976833
O O15 0.947308 0.250000 0.250000
#
# Coordination Sequence:
#
# PCOD9390987 Si02
#       6
#     8   8   8   8   8   8
#     4  12  21  37  59  86 118 163 206 243 299 373
#     4  11  24  41  59  88 120 151 195 252 314 366
#     4  11  20  32  51  81 121 161 200 241 286 351
#     4  10  22  37  52  83 121 156 204 247 295 350
#     4  12  22  38  61  81 120 163 203 247 301 360
#     4  11  20  31  51  80 117 159 200 240 291 352
#
# _framework density 19.440467999999999
#
# number of rings (size 3 to 8) (size 9 to 14) (size 15 to 20)
#    0.000    0.833    5.000    4.500    2.333    0.667 
#    0.000    0.000    0.000    0.500    0.000    0.000 
#    0.000    0.000    0.000    0.000    0.000    0.000 
#
# Total GULP energy -267320.310652 kJ/mol
# GULP energy per Si atom -5569.173139 kJ/mol
# Density = 1.939622 g / cm^3
# Si number density = 19.440468 Si / 1000 Ang^3
#
#
#
# Elastic Constant Matrix: (Units=GPa)
#
#
# Indices 1 2 3 4 5 6 
#
# 1 44.1677 25.7162 23.9769 0.0000 0.0000 0.0000
# 2 25.7162 50.8351 21.7673 0.0000 0.0000 0.0000
# 3 23.9769 21.7673 113.7954 0.0000 0.0000 0.0000
# 4 0.0000 0.0000 0.0000 26.6486 0.0000 0.0000
# 5 0.0000 0.0000 0.0000 0.0000 28.5369 0.0000
# 6 0.0000 0.0000 0.0000 0.0000 0.0000 14.2867
#
#
#
# Elastic Compliance Matrix: (Units=1/GPa)
#
#
# Indices 1 2 3 4 5 6 
#
# 1 0.033841 -0.015321 -0.004200 0.000000 0.000000 0.000000
# 2 -0.015321 0.028363 -0.002197 0.000000 0.000000 0.000000
# 3 -0.004200 -0.002197 0.010093 0.000000 0.000000 0.000000
# 4 0.000000 0.000000 0.000000 0.037525 0.000000 0.000000
# 5 0.000000 0.000000 0.000000 0.000000 0.035042 0.000000
# 6 0.000000 0.000000 0.000000 0.000000 0.000000 0.069995
#
#
# Mechanical properties :
#
#
# Convention : Reuss Voigt Hill
#
# Bulk Modulus (GPa) = 34.64889 39.07987 36.86438
# Shear Modulus (GPa) = 18.66253 23.05031 20.85642
#
# Velocity S-wave (km/s) = 3.10172 3.44712 3.27897
# Velocity P-wave (km/s) = 5.53980 5.99912 5.77403
#
# Compressibility (1/GPa) = 0.02886095
#
# Stress axis : x y z
#
# Youngs Moduli (GPa) = 29.54954 35.25738 99.07972
#
# Poissons Ratio (x) = 0.54019 0.41611
# Poissons Ratio (y) = 0.45273 0.21769
# Poissons Ratio (z) = 0.12410 0.07747
#
# Static dielectric constant tensor:
#      x y z
#    x 1.765380 0.000000 0.000000 
#    y 0.000000 1.726920 0.000000 
#    z 0.000000 0.000000 1.778910 
# 
# From -- ./inp_files/15910.got.cif
#   From: 2010.05.17/outbox.cif.g08.bks.cpg/sg48_8_cif.got.tgz:15910.got - 2010.06.03 20:39:00.
