data_PCOD9390765
_publ_section_title
;
Structure prediction by ZEFSAII (Michael W. Deem and Ramdas Pophale) SiO2 
 PCOD9390765
Probable space group: P N N N
;
_chemical_formula_sum "Si O2"
_cell_formula_units_Z 32
_cell_length_a 13.041936
_cell_length_b 7.792031
_cell_length_c 13.129798
_cell_angle_alpha 90.000000
_cell_angle_beta 90.000000
_cell_angle_gamma 90.000000
_cell_volume 1334.291689
_symmetry_space_group_name_H-M "P N N N"
_symmetry_group_IT_number 48
_space_group.IT_coordinate_system_code '2'
_symmetry_cell_setting 'orthorhombic'
loop_
_space_group_symop_operation_xyz
x,y,z
1/2-x,1/2-y,z
x,1/2-y,1/2-z
1/2-x,y,1/2-z
-x,-y,-z
1/2+x,1/2+y,-z
-x,1/2+y,1/2+z
1/2+x,-y,1/2+z
loop_
_atom_site_type_symbol
_atom_site_label
_atom_site_fract_x
_atom_site_fract_y
_atom_site_fract_z
Si Si1 0.386029 0.250000 0.750000
Si Si2 0.918868 0.040050 0.692279
Si Si3 0.946518 0.831065 0.889351
Si Si4 0.147690 0.500106 0.580223
Si Si5 0.250000 0.750000 0.071597
O O1 0.468683 0.373654 0.691962
O O2 0.327114 0.124319 0.672885
O O3 0.916140 0.862389 0.631430
O O4 0.600660 0.965931 0.692750
O O5 0.839952 0.174264 0.643294
O O6 0.915140 0.881756 0.001838
O O7 0.068328 0.857003 0.878833
O O8 0.226155 0.595372 0.507200
#
# Coordination Sequence:
#
# PCOD9390765 Si02
#       5
#     4   8   8   8   4
#     4  10  22  43  66  87 124 184 222 248 310 410
#     4  10  21  38  66  96 129 162 211 267 322 384
#     4   9  20  41  66  92 123 175 213 248 320 409
#     4  10  22  39  64  92 126 167 219 265 320 384
#     4  12  24  37  62 105 140 164 212 288 334 366
#
# _framework density 23.982762999999998
#
# number of rings (size 3 to 8) (size 9 to 14) (size 15 to 20)
#    0.000    2.000    0.000    4.500    0.000    9.500 
#    0.000    5.000    0.000   51.000    0.000    0.000 
#    0.000    0.000    0.000    0.000    0.000    0.000 
#
# Total GULP energy -178764.729104 kJ/mol
# GULP energy per Si atom -5586.397784 kJ/mol
# Density = 2.392818 g / cm^3
# Si number density = 23.982763 Si / 1000 Ang^3
#
#
#
# Elastic Constant Matrix: (Units=GPa)
#
#
# Indices 1 2 3 4 5 6 
#
# 1 45.9084 27.0171 38.3493 0.0000 0.0000 0.0000
# 2 27.0171 145.8397 46.6231 0.0000 0.0000 0.0000
# 3 38.3493 46.6231 131.2611 0.0000 0.0000 0.0000
# 4 0.0000 0.0000 0.0000 37.0321 0.0000 0.0000
# 5 0.0000 0.0000 0.0000 0.0000 28.0143 0.0000
# 6 0.0000 0.0000 0.0000 0.0000 0.0000 27.3924
#
#
#
# Elastic Compliance Matrix: (Units=1/GPa)
#
#
# Indices 1 2 3 4 5 6 
#
# 1 0.030015 -0.003110 -0.007665 0.000000 0.000000 0.000000
# 2 -0.003110 0.008057 -0.001953 0.000000 0.000000 0.000000
# 3 -0.007665 -0.001953 0.010552 0.000000 0.000000 0.000000
# 4 0.000000 0.000000 0.000000 0.027004 0.000000 0.000000
# 5 0.000000 0.000000 0.000000 0.000000 0.035696 0.000000
# 6 0.000000 0.000000 0.000000 0.000000 0.000000 0.036506
#
#
# Mechanical properties :
#
#
# Convention : Reuss Voigt Hill
#
# Bulk Modulus (GPa) = 43.16245 60.77645 51.96945
# Shear Modulus (GPa) = 27.62287 32.55573 30.08930
#
# Velocity S-wave (km/s) = 3.39747 3.68837 3.54591
# Velocity P-wave (km/s) = 5.78159 6.59815 6.20332
#
# Compressibility (1/GPa) = 0.02316828
#
# Stress axis : x y z
#
# Youngs Moduli (GPa) = 33.31618 124.10875 94.77324
#
# Poissons Ratio (x) = 0.38600 0.72640
# Poissons Ratio (y) = 0.10362 0.18512
# Poissons Ratio (z) = 0.25536 0.24242
#
# Static dielectric constant tensor:
#      x y z
#    x 2.000940 0.000000 0.000000 
#    y 0.000000 1.919970 0.000000 
#    z 0.000000 0.000000 1.901960 
# 
# From -- ./inp_files/26070.got.cif
#   From: 2010.05.17/outbox.cif.g08.bks.cpg/sg48_14_cif.got.tgz:26070.got - 2010.06.03 20:39:00.
