data_PCOD9390545
_publ_section_title
;
Structure prediction by ZEFSAII (Michael W. Deem and Ramdas Pophale) SiO2 
 PCOD9390545
Probable space group: P N N N
;
_chemical_formula_sum "Si O2"
_cell_formula_units_Z 64
_cell_length_a 17.204263
_cell_length_b 21.800209
_cell_length_c 8.322078
_cell_angle_alpha 90.000000
_cell_angle_beta 90.000000
_cell_angle_gamma 90.000000
_cell_volume 3121.249690
_symmetry_space_group_name_H-M "P N N N"
_symmetry_group_IT_number 48
_space_group.IT_coordinate_system_code '2'
_symmetry_cell_setting 'orthorhombic'
loop_
_space_group_symop_operation_xyz
x,y,z
1/2-x,1/2-y,z
x,1/2-y,1/2-z
1/2-x,y,1/2-z
-x,-y,-z
1/2+x,1/2+y,-z
-x,1/2+y,1/2+z
1/2+x,-y,1/2+z
loop_
_atom_site_type_symbol
_atom_site_label
_atom_site_fract_x
_atom_site_fract_y
_atom_site_fract_z
Si Si1 0.294526 0.909899 0.582662
Si Si2 0.812444 0.488463 0.876610
Si Si3 0.009981 0.236414 0.059449
Si Si4 0.825818 0.582345 0.156859
Si Si5 0.911866 0.013906 0.907509
Si Si6 0.941681 0.899906 0.049126
Si Si7 0.673520 0.719275 0.427805
Si Si8 0.664729 0.229495 0.437735
O O1 0.250000 0.908611 0.750000
O O2 0.230658 0.930503 0.454362
O O3 0.360719 0.960977 0.556695
O O4 0.332675 0.844111 0.554136
O O5 0.750000 0.516968 0.750000
O O6 0.879467 0.465170 0.762876
O O7 0.841253 0.533491 0.016688
O O8 0.007291 0.250000 0.250000
O O9 0.920981 0.250466 0.998903
O O10 0.029226 0.165806 0.009816
O O11 0.086831 0.271854 0.997450
O O12 0.750000 0.558707 0.250000
O O13 0.889462 0.599537 0.291670
O O14 0.806793 0.647858 0.079979
O O15 0.991206 0.050768 0.917558
O O16 0.902120 0.940126 0.908331
O O17 0.750000 0.750000 0.508424
O O18 0.669407 0.750000 0.250000
O O19 0.750000 0.250000 0.505001
O O20 0.665925 0.250000 0.250000
#
# Coordination Sequence:
#
# PCOD9390545 Si02
#       8
#     8   8   8   8   8   8   8   8
#     4  11  19  38  68  93 127 171 216 269 340 401
#     4  10  23  39  62  96 130 160 219 278 329 408
#     4  11  24  41  66  99 132 176 230 279 336 398
#     4  12  22  41  66  90 122 173 217 267 348 410
#     4  10  23  40  59  93 131 169 214 276 341 393
#     4  11  22  41  65  86 132 173 214 275 337 406
#     4  11  22  43  64  90 128 172 218 268 338 410
#     4  10  20  40  65  97 128 171 228 278 324 398
#
# _framework density 20.504608999999999
#
# number of rings (size 3 to 8) (size 9 to 14) (size 15 to 20)
#    0.000    1.250    5.000    2.625    1.750    0.750 
#    2.250    0.000    0.000    0.000    0.000    0.000 
#    0.000    0.000    0.000    0.000    0.000    0.000 
#
# Total GULP energy -356286.333822 kJ/mol
# GULP energy per Si atom -5566.973966 kJ/mol
# Density = 2.045794 g / cm^3
# Si number density = 20.504609 Si / 1000 Ang^3
#
#
#
# Elastic Constant Matrix: (Units=GPa)
#
#
# Indices 1 2 3 4 5 6 
#
# 1 102.5785 0.2537 25.5145 0.0000 0.0000 0.0000
# 2 0.2537 64.3522 2.8757 0.0000 0.0000 0.0000
# 3 25.5145 2.8757 56.9092 0.0000 0.0000 0.0000
# 4 0.0000 0.0000 0.0000 72.6662 0.0000 0.0000
# 5 0.0000 0.0000 0.0000 0.0000 12.7485 0.0000
# 6 0.0000 0.0000 0.0000 0.0000 0.0000 24.0070
#
#
#
# Elastic Compliance Matrix: (Units=1/GPa)
#
#
# Indices 1 2 3 4 5 6 
#
# 1 0.010974 0.000177 -0.004929 0.000000 0.000000 0.000000
# 2 0.000177 0.015578 -0.000867 0.000000 0.000000 0.000000
# 3 -0.004929 -0.000867 0.019826 0.000000 0.000000 0.000000
# 4 0.000000 0.000000 0.000000 0.013762 0.000000 0.000000
# 5 0.000000 0.000000 0.000000 0.000000 0.078440 0.000000
# 6 0.000000 0.000000 0.000000 0.000000 0.000000 0.041654
#
#
# Mechanical properties :
#
#
# Convention : Reuss Voigt Hill
#
# Bulk Modulus (GPa) = 28.45757 31.23642 29.84700
# Shear Modulus (GPa) = 24.60820 34.89742 29.75281
#
# Velocity S-wave (km/s) = 3.46805 4.12992 3.81337
# Velocity P-wave (km/s) = 5.47222 6.16511 5.82897
#
# Compressibility (1/GPa) = 0.03514003
#
# Stress axis : x y z
#
# Youngs Moduli (GPa) = 91.12262 64.19513 50.44000
#
# Poissons Ratio (x) = -0.01136 0.24862
# Poissons Ratio (y) = -0.01613 0.04371
# Poissons Ratio (z) = 0.44915 0.05563
#
# Static dielectric constant tensor:
#      x y z
#    x 1.939930 0.000000 0.000000 
#    y 0.000000 1.744430 0.000000 
#    z 0.000000 0.000000 1.823250 
# 
# From -- ./inp_files/14574.got.cif
#   From: 2010.05.17/outbox.cif.g08.bks.cpg/sg48_8_cif.got.tgz:14574.got - 2010.06.03 20:39:00.
