data_PCOD9390584
_publ_section_title
;
Structure prediction by ZEFSAII (Michael W. Deem and Ramdas Pophale) SiO2 
 PCOD9390584
Probable space group: P N N N
;
_chemical_formula_sum "Si O2"
_cell_formula_units_Z 46
_cell_length_a 6.952508
_cell_length_b 22.287895
_cell_length_c 12.517798
_cell_angle_alpha 90.000000
_cell_angle_beta 90.000000
_cell_angle_gamma 90.000000
_cell_volume 1939.717524
_symmetry_space_group_name_H-M "P N N N"
_symmetry_group_IT_number 48
_space_group.IT_coordinate_system_code '2'
_symmetry_cell_setting 'orthorhombic'
loop_
_space_group_symop_operation_xyz
x,y,z
1/2-x,1/2-y,z
x,1/2-y,1/2-z
1/2-x,y,1/2-z
-x,-y,-z
1/2+x,1/2+y,-z
-x,1/2+y,1/2+z
1/2+x,-y,1/2+z
loop_
_atom_site_type_symbol
_atom_site_label
_atom_site_fract_x
_atom_site_fract_y
_atom_site_fract_z
Si Si1 0.250000 0.750000 0.250000
Si Si2 0.941039 0.173523 0.928020
Si Si3 0.250000 0.250000 0.441298
Si Si4 0.390618 0.475118 0.102845
Si Si5 0.749108 0.592555 0.072575
Si Si6 0.972168 0.479871 0.161660
Si Si7 0.953102 0.149878 0.451420
O O1 0.125332 0.789965 0.172615
O O2 0.761523 0.166216 0.009087
O O3 0.106528 0.209907 0.988742
O O4 0.051315 0.115463 0.878544
O O5 0.411704 0.298660 0.394192
O O6 0.506406 0.470944 0.211590
O O7 0.183048 0.504119 0.125092
O O8 0.500000 0.500000 0.000000
O O9 0.319874 0.412573 0.052295
O O10 0.828469 0.531122 0.121505
O O11 0.931064 0.635741 0.061869
O O12 0.934174 0.414196 0.110588
#
# Coordination Sequence:
#
# PCOD9390584 Si02
#       7
#     2   8   4   8   8   8   8
#     4  12  24  50  68 100 140 200 256 330 396 452
#     4  11  24  44  71  98 147 193 253 324 376 457
#     4  10  20  43  70 101 132 194 250 313 383 442
#     4  10  22  43  69 101 151 203 241 306 367 466
#     4  10  24  43  69 106 145 196 243 307 375 462
#     4  10  23  45  71 106 155 199 246 303 392 462
#     4  10  20  42  70 102 143 191 244 314 373 453
#
# _framework density 23.714791999999999
#
# number of rings (size 3 to 8) (size 9 to 14) (size 15 to 20)
#    0.000    1.739    1.739    2.087    4.870    1.043 
#    9.391    0.000    0.000   18.783    4.522    0.000 
#    0.000    0.000    0.000    0.000    0.000    0.000 
#
# Total GULP energy -256213.163293 kJ/mol
# GULP energy per Si atom -5569.851376 kJ/mol
# Density = 2.366082 g / cm^3
# Si number density = 23.714792 Si / 1000 Ang^3
#
#
#
# Elastic Constant Matrix: (Units=GPa)
#
#
# Indices 1 2 3 4 5 6 
#
# 1 184.2510 77.5657 59.3308 0.0000 0.0000 0.0000
# 2 77.5657 129.3242 42.8284 0.0000 0.0000 0.0000
# 3 59.3308 42.8284 111.3726 0.0000 0.0000 0.0000
# 4 0.0000 0.0000 0.0000 13.7127 0.0000 0.0000
# 5 0.0000 0.0000 0.0000 0.0000 19.7246 0.0000
# 6 0.0000 0.0000 0.0000 0.0000 0.0000 70.4015
#
#
#
# Elastic Compliance Matrix: (Units=1/GPa)
#
#
# Indices 1 2 3 4 5 6 
#
# 1 0.007931 -0.003848 -0.002746 0.000000 0.000000 0.000000
# 2 -0.003848 0.010728 -0.002076 0.000000 0.000000 0.000000
# 3 -0.002746 -0.002076 0.011240 0.000000 0.000000 0.000000
# 4 0.000000 0.000000 0.000000 0.072925 0.000000 0.000000
# 5 0.000000 0.000000 0.000000 0.000000 0.050698 0.000000
# 6 0.000000 0.000000 0.000000 0.000000 0.000000 0.014204
#
#
# Mechanical properties :
#
#
# Convention : Reuss Voigt Hill
#
# Bulk Modulus (GPa) = 79.61195 87.15530 83.38363
# Shear Modulus (GPa) = 26.41997 37.11595 31.76796
#
# Velocity S-wave (km/s) = 3.34139 3.96042 3.66400
# Velocity P-wave (km/s) = 6.96635 7.59898 7.28953
#
# Compressibility (1/GPa) = 0.01256093
#
# Stress axis : x y z
#
# Youngs Moduli (GPa) = 126.08277 93.21696 88.97095
#
# Poissons Ratio (x) = 0.35868 0.24427
# Poissons Ratio (y) = 0.48514 0.18466
# Poissons Ratio (z) = 0.34616 0.19347
#
# Static dielectric constant tensor:
#      x y z
#    x 2.085960 0.000000 0.000000 
#    y 0.000000 2.094870 0.000000 
#    z 0.000000 0.000000 1.914320 
# 
# From -- ./inp_files/29541.got.cif
#   From: 2010.05.17/outbox.cif.g08.bks.cpg/sg48_15_cif.got.tgz:29541.got - 2010.06.03 20:39:00.
