data_PCOD9390938
_publ_section_title
;
Structure prediction by ZEFSAII (Michael W. Deem and Ramdas Pophale) SiO2 
 PCOD9390938
Probable space group: P N N N
;
_chemical_formula_sum "Si O2"
_cell_formula_units_Z 48
_cell_length_a 14.437175
_cell_length_b 6.238585
_cell_length_c 22.847127
_cell_angle_alpha 90.000000
_cell_angle_beta 90.000000
_cell_angle_gamma 90.000000
_cell_volume 2057.784603
_symmetry_space_group_name_H-M "P N N N"
_symmetry_group_IT_number 48
_space_group.IT_coordinate_system_code '2'
_symmetry_cell_setting 'orthorhombic'
loop_
_space_group_symop_operation_xyz
x,y,z
1/2-x,1/2-y,z
x,1/2-y,1/2-z
1/2-x,y,1/2-z
-x,-y,-z
1/2+x,1/2+y,-z
-x,1/2+y,1/2+z
1/2+x,-y,1/2+z
loop_
_atom_site_type_symbol
_atom_site_label
_atom_site_fract_x
_atom_site_fract_y
_atom_site_fract_z
Si Si1 0.750000 0.750000 0.414287
Si Si2 0.339690 0.096097 0.163371
Si Si3 0.846523 0.154062 0.059685
Si Si4 0.864914 0.623471 0.307354
Si Si5 0.250000 0.750000 0.750000
Si Si6 0.639959 0.270254 0.568158
Si Si7 0.250000 0.750000 0.250000
Si Si8 0.022517 0.434448 0.359084
O O1 0.802750 0.579733 0.455320
O O2 0.830937 0.758601 0.364173
O O3 0.250000 0.250000 0.154956
O O4 0.422373 0.257976 0.176905
O O5 0.377998 0.984605 0.104287
O O6 0.309822 0.909343 0.208428
O O7 0.750000 0.250000 0.084417
O O8 0.932845 0.144132 0.103294
O O9 0.878214 0.271635 0.000951
O O10 0.845421 0.750000 0.250000
O O11 0.812654 0.399440 0.292658
O O12 0.973540 0.592582 0.314266
O O13 0.750000 0.250000 0.574331
O O14 0.588623 0.070167 0.598166
#
# Coordination Sequence:
#
# PCOD9390938 Si02
#       8
#     4   8   8   8   2   8   2   8
#     4  10  21  42  74 102 150 195 236 292 352 426
#     4  12  25  51  78 102 143 189 243 313 374 444
#     4  10  25  43  75 111 149 195 243 296 366 441
#     4  11  24  45  72 108 151 196 251 296 361 444
#     4  12  22  44  72 104 150 204 238 300 364 428
#     4  11  23  48  73 109 144 191 249 305 363 443
#     4  12  26  52  80 104 140 190 254 304 386 446
#     4  11  26  45  75 111 149 194 244 304 375 435
#
# _framework density 23.326056000000001
#
# number of rings (size 3 to 8) (size 9 to 14) (size 15 to 20)
#    0.000    1.000    4.167    0.750    4.667    7.333 
#   15.000    0.000    0.000    0.000    0.000    0.000 
#    0.000    0.000    0.000    0.000    0.000    0.000 
#
# Total GULP energy -267506.090572 kJ/mol
# GULP energy per Si atom -5573.043554 kJ/mol
# Density = 2.327296 g / cm^3
# Si number density = 23.326056 Si / 1000 Ang^3
#
#
#
# Elastic Constant Matrix: (Units=GPa)
#
#
# Indices 1 2 3 4 5 6 
#
# 1 132.0818 48.6144 36.2483 0.0000 0.0000 0.0000
# 2 48.6144 76.5498 41.8899 0.0000 0.0000 0.0000
# 3 36.2483 41.8899 102.0234 0.0000 0.0000 0.0000
# 4 0.0000 0.0000 0.0000 4.1510 0.0000 0.0000
# 5 0.0000 0.0000 0.0000 0.0000 9.9020 0.0000
# 6 0.0000 0.0000 0.0000 0.0000 0.0000 48.0523
#
#
#
# Elastic Compliance Matrix: (Units=1/GPa)
#
#
# Indices 1 2 3 4 5 6 
#
# 1 0.009997 -0.005682 -0.001219 0.000000 0.000000 0.000000
# 2 -0.005682 0.020078 -0.006225 0.000000 0.000000 0.000000
# 3 -0.001219 -0.006225 0.012791 0.000000 0.000000 0.000000
# 4 0.000000 0.000000 0.000000 0.240908 0.000000 0.000000
# 5 0.000000 0.000000 0.000000 0.000000 0.100990 0.000000
# 6 0.000000 0.000000 0.000000 0.000000 0.000000 0.020811
#
#
# Mechanical properties :
#
#
# Convention : Reuss Voigt Hill
#
# Bulk Modulus (GPa) = 60.18994 62.68447 61.43721
# Shear Modulus (GPa) = 11.43211 24.68121 18.05666
#
# Velocity S-wave (km/s) = 2.21622 3.25637 2.78528
# Velocity P-wave (km/s) = 5.69286 6.40859 6.06130
#
# Compressibility (1/GPa) = 0.01661407
#
# Stress axis : x y z
#
# Youngs Moduli (GPa) = 100.03214 49.80515 78.18100
#
# Poissons Ratio (x) = 0.28297 0.09530
# Poissons Ratio (y) = 0.56834 0.48670
# Poissons Ratio (z) = 0.12194 0.31005
#
# Static dielectric constant tensor:
#      x y z
#    x 1.896860 0.000000 0.000000 
#    y 0.000000 2.240830 0.000000 
#    z 0.000000 0.000000 1.932070 
# 
# From -- ./inp_files/37926.got.cif
#   From: 2010.05.17/outbox.cif.g08.bks.cpg/sg48_19_cif.got.tgz:37926.got - 2010.06.03 20:39:00.
