data_PCOD9390309
_publ_section_title
;
Structure prediction by ZEFSAII (Michael W. Deem and Ramdas Pophale) SiO2 
 PCOD9390309
Probable space group: P N N N
;
_chemical_formula_sum "Si O2"
_cell_formula_units_Z 48
_cell_length_a 8.697361
_cell_length_b 15.932186
_cell_length_c 17.924774
_cell_angle_alpha 90.000000
_cell_angle_beta 90.000000
_cell_angle_gamma 90.000000
_cell_volume 2483.799603
_symmetry_space_group_name_H-M "P N N N"
_symmetry_group_IT_number 48
_space_group.IT_coordinate_system_code '2'
_symmetry_cell_setting 'orthorhombic'
loop_
_space_group_symop_operation_xyz
x,y,z
1/2-x,1/2-y,z
x,1/2-y,1/2-z
1/2-x,y,1/2-z
-x,-y,-z
1/2+x,1/2+y,-z
-x,1/2+y,1/2+z
1/2+x,-y,1/2+z
loop_
_atom_site_type_symbol
_atom_site_label
_atom_site_fract_x
_atom_site_fract_y
_atom_site_fract_z
Si Si1 0.651725 0.834295 0.437202
Si Si2 0.079127 0.773196 0.506849
Si Si3 0.616561 0.571300 0.531289
Si Si4 0.189766 0.492856 0.328199
Si Si5 0.082381 0.091896 0.781681
Si Si6 0.643891 0.329914 0.660854
O O1 0.750000 0.750000 0.438264
O O2 0.513580 0.813273 0.493822
O O3 0.762821 0.906912 0.465842
O O4 0.596429 0.850218 0.354229
O O5 0.250000 0.750000 0.532905
O O6 0.089875 0.813261 0.423399
O O7 0.983400 0.844811 0.549531
O O8 0.500000 0.500000 0.500000
O O9 0.725906 0.549240 0.601669
O O10 0.250000 0.456355 0.250000
O O11 0.248843 0.588721 0.336080
O O12 0.009727 0.510043 0.312093
O O13 0.250000 0.071212 0.750000
O O14 0.991722 0.143656 0.717238
O O15 0.750000 0.250000 0.677454
#
# Coordination Sequence:
#
# PCOD9390309 Si02
#       6
#     8   8   8   8   8   8
#     4  10  23  35  54  83 118 158 207 245 300 367
#     4  10  20  38  62  90 119 163 212 255 300 375
#     4  11  22  41  61  83 124 166 201 259 323 371
#     4  10  23  38  57  85 118 164 203 246 315 377
#     4  11  22  34  52  86 126 164 203 247 295 368
#     4  10  20  36  57  83 127 174 200 229 291 385
#
# _framework density 19.325230999999999
#
# number of rings (size 3 to 8) (size 9 to 14) (size 15 to 20)
#    0.000    1.667    1.667    4.000    2.333   12.000 
#    0.000    0.000    0.000    4.500    0.000    1.167 
#    0.000    0.000    0.000    0.000    0.000    0.000 
#
# Total GULP energy -267591.674943 kJ/mol
# GULP energy per Si atom -5574.826561 kJ/mol
# Density = 1.928125 g / cm^3
# Si number density = 19.325231 Si / 1000 Ang^3
#
#
#
# Elastic Constant Matrix: (Units=GPa)
#
#
# Indices 1 2 3 4 5 6 
#
# 1 146.2743 40.2639 28.9148 0.0000 0.0000 0.0000
# 2 40.2639 52.3894 26.2389 0.0000 0.0000 0.0000
# 3 28.9148 26.2389 73.4554 0.0000 0.0000 0.0000
# 4 0.0000 0.0000 0.0000 12.6728 0.0000 0.0000
# 5 0.0000 0.0000 0.0000 0.0000 25.8220 0.0000
# 6 0.0000 0.0000 0.0000 0.0000 0.0000 19.9086
#
#
#
# Elastic Compliance Matrix: (Units=1/GPa)
#
#
# Indices 1 2 3 4 5 6 
#
# 1 0.008767 -0.006101 -0.001272 0.000000 0.000000 0.000000
# 2 -0.006101 0.027493 -0.007419 0.000000 0.000000 0.000000
# 3 -0.001272 -0.007419 0.016764 0.000000 0.000000 0.000000
# 4 0.000000 0.000000 0.000000 0.078909 0.000000 0.000000
# 5 0.000000 0.000000 0.000000 0.000000 0.038727 0.000000
# 6 0.000000 0.000000 0.000000 0.000000 0.000000 0.050230
#
#
# Mechanical properties :
#
#
# Convention : Reuss Voigt Hill
#
# Bulk Modulus (GPa) = 42.66100 51.43936 47.05018
# Shear Modulus (GPa) = 19.35832 23.46078 21.40955
#
# Velocity S-wave (km/s) = 3.16842 3.48803 3.33206
# Velocity P-wave (km/s) = 5.95889 6.54960 6.26122
#
# Compressibility (1/GPa) = 0.02344061
#
# Stress axis : x y z
#
# Youngs Moduli (GPa) = 114.06033 36.37344 59.65013
#
# Poissons Ratio (x) = 0.22192 0.07586
# Poissons Ratio (y) = 0.69590 0.44254
# Poissons Ratio (z) = 0.14506 0.26985
#
# Static dielectric constant tensor:
#      x y z
#    x 1.928130 0.000000 0.000000 
#    y 0.000000 1.702890 0.000000 
#    z 0.000000 0.000000 1.755970 
# 
# From -- ./inp_files/30360.got.cif
#   From: 2010.05.17/outbox.cif.g08.bks.cpg/sg48_16_cif.got.tgz:30360.got - 2010.06.03 20:39:00.
