data_PCOD9390334
_publ_section_title
;
Structure prediction by ZEFSAII (Michael W. Deem and Ramdas Pophale) SiO2 
 PCOD9390334
Probable space group: P N N N
;
_chemical_formula_sum "Si O2"
_cell_formula_units_Z 64
_cell_length_a 17.429460
_cell_length_b 9.927921
_cell_length_c 19.748316
_cell_angle_alpha 90.000000
_cell_angle_beta 90.000000
_cell_angle_gamma 90.000000
_cell_volume 3417.215067
_symmetry_space_group_name_H-M "P N N N"
_symmetry_group_IT_number 48
_space_group.IT_coordinate_system_code '2'
_symmetry_cell_setting 'orthorhombic'
loop_
_space_group_symop_operation_xyz
x,y,z
1/2-x,1/2-y,z
x,1/2-y,1/2-z
1/2-x,y,1/2-z
-x,-y,-z
1/2+x,1/2+y,-z
-x,1/2+y,1/2+z
1/2+x,-y,1/2+z
loop_
_atom_site_type_symbol
_atom_site_label
_atom_site_fract_x
_atom_site_fract_y
_atom_site_fract_z
Si Si1 0.551936 0.382864 0.332567
Si Si2 0.541391 0.419502 0.174551
Si Si3 0.384741 0.097121 0.128390
Si Si4 0.345855 0.166200 0.680308
Si Si5 0.808300 0.930288 0.375076
Si Si6 0.745198 0.910921 0.980202
Si Si7 0.878288 0.587274 0.623305
Si Si8 0.840967 0.098808 0.750518
O O1 0.522020 0.410413 0.255471
O O2 0.577463 0.227321 0.337885
O O3 0.477107 0.406614 0.379500
O O4 0.624937 0.473801 0.348856
O O5 0.592679 0.550925 0.168882
O O6 0.470144 0.426097 0.122919
O O7 0.329070 0.060487 0.066439
O O8 0.364888 0.255076 0.143825
O O9 0.365315 0.993264 0.187720
O O10 0.357665 0.250000 0.750000
O O11 0.263216 0.093678 0.675190
O O12 0.345407 0.280462 0.622255
O O13 0.771524 0.971961 0.446381
O O14 0.750000 0.750000 0.989008
O O15 0.823903 0.945562 0.940491
O O16 0.857971 0.484269 0.682282
O O17 0.875451 0.250000 0.750000
O O18 0.750000 0.112456 0.750000
#
# Coordination Sequence:
#
# PCOD9390334 Si02
#       8
#     8   8   8   8   8   8   8   8
#     4  10  21  36  59  92 123 152 192 255 305 363
#     4  10  21  36  59  94 124 146 192 257 319 354
#     4  10  20  36  61  88 118 159 208 241 296 360
#     4  11  22  39  65  93 116 151 202 260 310 356
#     4  11  22  39  63  86 120 153 210 245 297 363
#     4  10  20  37  63  86 114 165 208 246 278 356
#     4  10  20  36  62  88 120 159 207 243 298 364
#     4  11  21  32  53  88 125 154 194 254 309 349
#
# _framework density 18.7287
#
# number of rings (size 3 to 8) (size 9 to 14) (size 15 to 20)
#    0.000    1.625    5.000    1.125    0.000    3.000 
#    0.000    1.875    5.500    0.000    0.000    0.000 
#    0.000    0.000    0.000    0.000    0.000    0.000 
#
# Total GULP energy -356425.119243 kJ/mol
# GULP energy per Si atom -5569.142488 kJ/mol
# Density = 1.868607 g / cm^3
# Si number density = 18.728700 Si / 1000 Ang^3
#
#
#
# Elastic Constant Matrix: (Units=GPa)
#
#
# Indices 1 2 3 4 5 6 
#
# 1 96.9184 63.2775 34.8360 0.0000 0.0000 0.0000
# 2 63.2775 97.7875 35.7881 0.0000 0.0000 0.0000
# 3 34.8360 35.7881 84.6780 0.0000 0.0000 0.0000
# 4 0.0000 0.0000 0.0000 9.1656 0.0000 0.0000
# 5 0.0000 0.0000 0.0000 0.0000 14.7396 0.0000
# 6 0.0000 0.0000 0.0000 0.0000 0.0000 20.7583
#
#
#
# Elastic Compliance Matrix: (Units=1/GPa)
#
#
# Indices 1 2 3 4 5 6 
#
# 1 0.018496 -0.010864 -0.003017 0.000000 0.000000 0.000000
# 2 -0.010864 0.018479 -0.003340 0.000000 0.000000 0.000000
# 3 -0.003017 -0.003340 0.014463 0.000000 0.000000 0.000000
# 4 0.000000 0.000000 0.000000 0.109103 0.000000 0.000000
# 5 0.000000 0.000000 0.000000 0.000000 0.067845 0.000000
# 6 0.000000 0.000000 0.000000 0.000000 0.000000 0.048173
#
#
# Mechanical properties :
#
#
# Convention : Reuss Voigt Hill
#
# Bulk Modulus (GPa) = 58.84710 60.79857 59.82283
# Shear Modulus (GPa) = 15.78949 18.63153 17.21051
#
# Velocity S-wave (km/s) = 2.90671 3.15749 3.03469
# Velocity P-wave (km/s) = 6.53868 6.76951 6.65509
#
# Compressibility (1/GPa) = 0.01699319
#
# Stress axis : x y z
#
# Youngs Moduli (GPa) = 54.06686 54.11598 69.14392
#
# Poissons Ratio (x) = 0.58792 0.20864
# Poissons Ratio (y) = 0.58739 0.23097
# Poissons Ratio (z) = 0.16314 0.18077
#
# Static dielectric constant tensor:
#      x y z
#    x 1.649030 0.000000 0.000000 
#    y 0.000000 1.669150 0.000000 
#    z 0.000000 0.000000 1.675400 
# 
# From -- ./inp_files/34716.got.cif
#   From: 2010.05.17/outbox.cif.g08.bks.cpg/sg48_18_cif.got.tgz:34716.got - 2010.06.03 20:39:00.
