data_PCOD9390495
_publ_section_title
;
Structure prediction by ZEFSAII (Michael W. Deem and Ramdas Pophale) SiO2 
 PCOD9390495
Probable space group: P N N N
;
_chemical_formula_sum "Si O2"
_cell_formula_units_Z 32
_cell_length_a 8.759620
_cell_length_b 5.800583
_cell_length_c 29.115546
_cell_angle_alpha 90.000000
_cell_angle_beta 90.000000
_cell_angle_gamma 90.000000
_cell_volume 1479.387179
_symmetry_space_group_name_H-M "P N N N"
_symmetry_group_IT_number 48
_space_group.IT_coordinate_system_code '2'
_symmetry_cell_setting 'orthorhombic'
loop_
_space_group_symop_operation_xyz
x,y,z
1/2-x,1/2-y,z
x,1/2-y,1/2-z
1/2-x,y,1/2-z
-x,-y,-z
1/2+x,1/2+y,-z
-x,1/2+y,1/2+z
1/2+x,-y,1/2+z
loop_
_atom_site_type_symbol
_atom_site_label
_atom_site_fract_x
_atom_site_fract_y
_atom_site_fract_z
Si Si1 0.750000 0.250000 0.336419
Si Si2 0.250000 0.250000 0.103976
Si Si3 0.918921 0.864015 0.204343
Si Si4 0.403516 0.625264 0.038809
Si Si5 0.988822 0.921651 0.379046
O O1 0.876341 0.369479 0.303517
O O2 0.665582 0.436297 0.368698
O O3 0.345382 0.425447 0.072592
O O4 0.128192 0.405318 0.129830
O O5 0.750000 0.750000 0.203485
O O6 0.989972 0.750000 0.250000
O O7 0.000500 0.778983 0.158523
O O8 0.250000 0.750000 0.020635
O O9 0.494135 0.810959 0.070411
O O10 0.500000 0.500000 0.000000
#
# Coordination Sequence:
#
# PCOD9390495 Si02
#       5
#     4   4   8   8   8
#     4  10  20  39  62 100 128 168 206 272 316 385
#     4  10  22  44  62  85 130 166 201 266 324 370
#     4   9  19  35  59  96 132 164 208 258 317 380
#     4  10  23  45  65  92 124 170 220 274 330 394
#     4  10  21  39  65  92 126 173 211 257 331 386
#
# _framework density 21.630578
#
# number of rings (size 3 to 8) (size 9 to 14) (size 15 to 20)
#    0.000    2.250    0.000    1.500    0.000   12.000 
#   29.250    0.000    0.000   30.750    0.000    0.000 
#    0.000    0.000    0.000    0.000    0.000    0.000 
#
# Total GULP energy -178494.004310 kJ/mol
# GULP energy per Si atom -5577.937635 kJ/mol
# Density = 2.158135 g / cm^3
# Si number density = 21.630578 Si / 1000 Ang^3
#
#
#
# Elastic Constant Matrix: (Units=GPa)
#
#
# Indices 1 2 3 4 5 6 
#
# 1 61.7512 39.7816 62.4698 0.0000 0.0000 0.0000
# 2 39.7816 108.0190 44.7258 0.0000 0.0000 0.0000
# 3 62.4698 44.7258 104.4628 0.0000 0.0000 0.0000
# 4 0.0000 0.0000 0.0000 15.2481 0.0000 0.0000
# 5 0.0000 0.0000 0.0000 0.0000 20.1176 0.0000
# 6 0.0000 0.0000 0.0000 0.0000 0.0000 52.7692
#
#
#
# Elastic Compliance Matrix: (Units=1/GPa)
#
#
# Indices 1 2 3 4 5 6 
#
# 1 0.044481 -0.006524 -0.023807 0.000000 0.000000 0.000000
# 2 -0.006524 0.012209 -0.001326 0.000000 0.000000 0.000000
# 3 -0.023807 -0.001326 0.024377 0.000000 0.000000 0.000000
# 4 0.000000 0.000000 0.000000 0.065582 0.000000 0.000000
# 5 0.000000 0.000000 0.000000 0.000000 0.049708 0.000000
# 6 0.000000 0.000000 0.000000 0.000000 0.000000 0.018950
#
#
# Mechanical properties :
#
#
# Convention : Reuss Voigt Hill
#
# Bulk Modulus (GPa) = 56.32624 63.13193 59.72909
# Shear Modulus (GPa) = 17.57231 26.11070 21.84151
#
# Velocity S-wave (km/s) = 2.85333 3.47813 3.18111
# Velocity P-wave (km/s) = 6.07881 6.73644 6.41606
#
# Compressibility (1/GPa) = 0.01775371
#
# Stress axis : x y z
#
# Youngs Moduli (GPa) = 22.48169 81.90414 41.02225
#
# Poissons Ratio (x) = 0.53437 0.97660
# Poissons Ratio (y) = 0.14668 0.05439
# Poissons Ratio (z) = 0.53521 0.10859
#
# Static dielectric constant tensor:
#      x y z
#    x 1.826580 0.000000 0.000000 
#    y 0.000000 1.860490 0.000000 
#    z 0.000000 0.000000 1.808880 
# 
# From -- ./inp_files/1065.got.cif
#   From: 2010.05.17/outbox.cif.g08.bks.cpg/sg48_1_cif.got.tgz:1065.got - 2010.06.03 20:39:00.
