data_PCOD9390220
_publ_section_title
;
Structure prediction by ZEFSAII (Michael W. Deem and Ramdas Pophale) SiO2 
 PCOD9390220
Probable space group: P N N N
;
_chemical_formula_sum "Si O2"
_cell_formula_units_Z 64
_cell_length_a 18.971218
_cell_length_b 12.487072
_cell_length_c 12.064732
_cell_angle_alpha 90.000000
_cell_angle_beta 90.000000
_cell_angle_gamma 90.000000
_cell_volume 2858.074266
_symmetry_space_group_name_H-M "P N N N"
_symmetry_group_IT_number 48
_space_group.IT_coordinate_system_code '2'
_symmetry_cell_setting 'orthorhombic'
loop_
_space_group_symop_operation_xyz
x,y,z
1/2-x,1/2-y,z
x,1/2-y,1/2-z
1/2-x,y,1/2-z
-x,-y,-z
1/2+x,1/2+y,-z
-x,1/2+y,1/2+z
1/2+x,-y,1/2+z
loop_
_atom_site_type_symbol
_atom_site_label
_atom_site_fract_x
_atom_site_fract_y
_atom_site_fract_z
Si Si1 0.454717 0.410212 0.356617
Si Si2 0.002340 0.141836 0.610418
Si Si3 0.734759 0.425053 0.942546
Si Si4 0.351132 0.250709 0.871743
Si Si5 0.797104 0.849582 0.599603
Si Si6 0.311916 0.021083 0.667568
Si Si7 0.861878 0.273069 0.940112
Si Si8 0.105005 0.648140 0.809782
O O1 0.474546 0.390843 0.485466
O O2 0.469188 0.535580 0.335737
O O3 0.373934 0.371378 0.344086
O O4 0.520306 0.354867 0.295726
O O5 0.938316 0.223908 0.612671
O O6 0.073614 0.195745 0.648544
O O7 0.750206 0.542894 0.894742
O O8 0.801325 0.354854 0.901639
O O9 0.668911 0.345711 0.925375
O O10 0.725373 0.447362 0.074502
O O11 0.319615 0.250000 0.750000
O O12 0.348572 0.378594 0.895437
O O13 0.315715 0.182933 0.970844
O O14 0.750000 0.750000 0.637366
O O15 0.250000 0.053310 0.750000
O O16 0.365146 0.955910 0.747459
O O17 0.876535 0.326150 0.062546
O O18 0.137431 0.750000 0.750000
#
# Coordination Sequence:
#
# PCOD9390220 Si02
#       8
#     8   8   8   8   8   8   8   8
#     4   9  19  35  56  75 104 151 196 231 264 336
#     4   9  18  36  54  73 105 147 196 226 266 334
#     4  11  20  32  52  83 111 143 181 224 284 337
#     4  11  23  33  50  80 110 152 184 226 282 339
#     4  11  21  36  56  82 115 147 189 234 284 339
#     4  12  22  32  50  81 124 151 177 228 290 356
#     4  10  20  34  56  79 109 148 188 228 272 339
#     4  11  21  34  53  81 114 151 189 229 284 341
#
# _framework density 22.392699
#
# number of rings (size 3 to 8) (size 9 to 14) (size 15 to 20)
#    0.000    1.500    5.000    1.500    1.750    0.250 
#    0.000    1.875    0.000    0.375    0.000    1.750 
#    0.000    0.000    0.000    0.000    0.000    0.000 
#
# Total GULP energy -356430.590742 kJ/mol
# GULP energy per Si atom -5569.227980 kJ/mol
# Density = 2.234173 g / cm^3
# Si number density = 22.392699 Si / 1000 Ang^3
#
#
#
# Elastic Constant Matrix: (Units=GPa)
#
#
# Indices 1 2 3 4 5 6 
#
# 1 175.9600 88.0681 12.9212 0.0000 0.0000 0.0000
# 2 88.0681 166.9838 11.1213 0.0000 0.0000 0.0000
# 3 12.9212 11.1213 32.2033 0.0000 0.0000 0.0000
# 4 0.0000 0.0000 0.0000 1.4747 0.0000 0.0000
# 5 0.0000 0.0000 0.0000 0.0000 -9.2899 0.0000
# 6 0.0000 0.0000 0.0000 0.0000 0.0000 41.0876
#
#
#
# Elastic Compliance Matrix: (Units=1/GPa)
#
#
# Indices 1 2 3 4 5 6 
#
# 1 0.007817 -0.004006 -0.001753 0.000000 0.000000 0.000000
# 2 -0.004006 0.008182 -0.001218 0.000000 0.000000 0.000000
# 3 -0.001753 -0.001218 0.032177 0.000000 0.000000 0.000000
# 4 0.000000 0.000000 0.000000 0.678113 0.000000 0.000000
# 5 0.000000 0.000000 0.000000 0.000000 -0.107644 0.000000
# 6 0.000000 0.000000 0.000000 0.000000 0.000000 0.024338
#
#
# Mechanical properties :
#
#
# Convention : Reuss Voigt Hill
#
# Bulk Modulus (GPa) = 29.22140 66.59645 47.90893
# Shear Modulus (GPa) = 7.48116 24.19025 15.83571
#
# Velocity S-wave (km/s) = 1.82979 3.29032 2.66217
# Velocity P-wave (km/s) = 4.18832 6.65130 5.55796
#
# Compressibility (1/GPa) = 0.03422150
#
# Stress axis : x y z
#
# Youngs Moduli (GPa) = 127.93016 122.21260 31.07821
#
# Poissons Ratio (x) = 0.48957 0.05448
# Poissons Ratio (y) = 0.51247 0.03787
# Poissons Ratio (z) = 0.22426 0.14891
#
# Static dielectric constant tensor:
#      x y z
#    x 1.840390 0.000000 0.000000 
#    y 0.000000 1.351280 0.000000 
#    z 0.000000 0.000000 1.928720 
# 
# From -- ./inp_files/28070.got.cif
#   From: 2010.05.17/outbox.cif.g08.bks.cpg/sg48_15_cif.got.tgz:28070.got - 2010.06.03 20:39:00.
