data_PCOD9390708
_publ_section_title
;
Structure prediction by ZEFSAII (Michael W. Deem and Ramdas Pophale) SiO2 
 PCOD9390708
Probable space group: P N N N
;
_chemical_formula_sum "Si O2"
_cell_formula_units_Z 34
_cell_length_a 13.939976
_cell_length_b 8.883139
_cell_length_c 12.615773
_cell_angle_alpha 90.000000
_cell_angle_beta 90.000000
_cell_angle_gamma 90.000000
_cell_volume 1562.220563
_symmetry_space_group_name_H-M "P N N N"
_symmetry_group_IT_number 48
_space_group.IT_coordinate_system_code '2'
_symmetry_cell_setting 'orthorhombic'
loop_
_space_group_symop_operation_xyz
x,y,z
1/2-x,1/2-y,z
x,1/2-y,1/2-z
1/2-x,y,1/2-z
-x,-y,-z
1/2+x,1/2+y,-z
-x,1/2+y,1/2+z
1/2+x,-y,1/2+z
loop_
_atom_site_type_symbol
_atom_site_label
_atom_site_fract_x
_atom_site_fract_y
_atom_site_fract_z
Si Si1 0.430246 0.766035 0.966518
Si Si2 0.879078 0.882502 0.435407
Si Si3 0.674793 0.941433 0.837401
Si Si4 0.250000 0.250000 0.750000
Si Si5 0.508174 0.750000 0.750000
Si Si6 0.250000 0.750000 0.088427
O O1 0.453231 0.693443 0.853413
O O2 0.404160 0.939683 0.937248
O O3 0.523713 0.785024 0.042394
O O4 0.337952 0.687048 0.018233
O O5 0.819972 0.871350 0.545662
O O6 0.819687 0.839833 0.331434
O O7 0.750000 0.895078 0.750000
O O8 0.573730 0.886763 0.792233
O O9 0.694757 0.118562 0.850636
#
# Coordination Sequence:
#
# PCOD9390708 Si02
#       6
#     8   8   8   2   4   4
#     4   9  20  42  61  92 135 175 219 277 335 402
#     4   9  22  41  62  93 135 171 223 278 335 400
#     4  10  21  39  67  93 132 177 224 282 336 397
#     4  12  24  40  70  96 132 184 224 282 350 410
#     4  10  21  37  70  94 130 182 226 284 332 408
#     4  10  21  41  64  98 140 177 226 285 334 404
#
# _framework density 21.76389
#
# number of rings (size 3 to 8) (size 9 to 14) (size 15 to 20)
#    0.000    2.353    0.000    2.118    6.588    4.235 
#   16.941    1.176    0.000    0.000    0.000    0.000 
#    0.000    0.000    0.000    0.000    0.000    0.000 
#
# Total GULP energy -189461.809676 kJ/mol
# GULP energy per Si atom -5572.406167 kJ/mol
# Density = 2.171435 g / cm^3
# Si number density = 21.763890 Si / 1000 Ang^3
#
#
#
# Elastic Constant Matrix: (Units=GPa)
#
#
# Indices 1 2 3 4 5 6 
#
# 1 89.6430 25.5161 61.9337 0.0000 0.0000 0.0000
# 2 25.5161 59.4415 23.9882 0.0000 0.0000 0.0000
# 3 61.9337 23.9882 159.7530 0.0000 0.0000 0.0000
# 4 0.0000 0.0000 0.0000 29.6777 0.0000 0.0000
# 5 0.0000 0.0000 0.0000 0.0000 86.7526 0.0000
# 6 0.0000 0.0000 0.0000 0.0000 0.0000 36.5569
#
#
#
# Elastic Compliance Matrix: (Units=1/GPa)
#
#
# Indices 1 2 3 4 5 6 
#
# 1 0.016414 -0.004767 -0.005648 0.000000 0.000000 0.000000
# 2 -0.004767 0.019293 -0.001049 0.000000 0.000000 0.000000
# 3 -0.005648 -0.001049 0.008607 0.000000 0.000000 0.000000
# 4 0.000000 0.000000 0.000000 0.033695 0.000000 0.000000
# 5 0.000000 0.000000 0.000000 0.000000 0.011527 0.000000
# 6 0.000000 0.000000 0.000000 0.000000 0.000000 0.027355
#
#
# Mechanical properties :
#
#
# Convention : Reuss Voigt Hill
#
# Bulk Modulus (GPa) = 46.75810 59.07928 52.91869
# Shear Modulus (GPa) = 34.02596 43.75739 38.89168
#
# Velocity S-wave (km/s) = 3.95829 4.48878 4.23186
# Velocity P-wave (km/s) = 6.51319 7.35323 6.94592
#
# Compressibility (1/GPa) = 0.02138667
#
# Stress axis : x y z
#
# Youngs Moduli (GPa) = 60.92291 51.83283 116.18834
#
# Poissons Ratio (x) = 0.24708 0.65620
# Poissons Ratio (y) = 0.29041 0.12188
# Poissons Ratio (z) = 0.34408 0.05437
#
# Static dielectric constant tensor:
#      x y z
#    x 1.739400 0.000000 0.000000 
#    y 0.000000 1.852680 0.000000 
#    z 0.000000 0.000000 1.843830 
# 
# From -- ./inp_files/20937.got.cif
#   From: 2010.05.17/outbox.cif.g08.bks.cpg/sg48_11_cif.got.tgz:20937.got - 2010.06.03 20:39:00.
