data_PCOD9390730
_publ_section_title
;
Structure prediction by ZEFSAII (Michael W. Deem and Ramdas Pophale) SiO2 
 PCOD9390730
Probable space group: P N N N
;
_chemical_formula_sum "Si O2"
_cell_formula_units_Z 52
_cell_length_a 5.314950
_cell_length_b 23.784019
_cell_length_c 19.567948
_cell_angle_alpha 90.000000
_cell_angle_beta 90.000000
_cell_angle_gamma 90.000000
_cell_volume 2473.601366
_symmetry_space_group_name_H-M "P N N N"
_symmetry_group_IT_number 48
_space_group.IT_coordinate_system_code '2'
_symmetry_cell_setting 'orthorhombic'
loop_
_space_group_symop_operation_xyz
x,y,z
1/2-x,1/2-y,z
x,1/2-y,1/2-z
1/2-x,y,1/2-z
-x,-y,-z
1/2+x,1/2+y,-z
-x,1/2+y,1/2+z
1/2+x,-y,1/2+z
loop_
_atom_site_type_symbol
_atom_site_label
_atom_site_fract_x
_atom_site_fract_y
_atom_site_fract_z
Si Si1 0.358318 0.186650 0.679214
Si Si2 0.750000 0.750000 0.750000
Si Si3 0.319288 0.000314 0.565447
Si Si4 0.250000 0.750000 0.250000
Si Si5 0.011308 0.029573 0.206796
Si Si6 0.237541 0.625344 0.956137
Si Si7 0.428099 0.655742 0.815384
Si Si8 0.762196 0.622487 0.041252
O O1 0.250000 0.250000 0.674241
O O2 0.250000 0.161279 0.750000
O O3 0.640469 0.203931 0.696537
O O4 0.295880 0.152822 0.612301
O O5 0.599048 0.708706 0.799900
O O6 0.166755 0.057609 0.557953
O O7 0.500000 0.000000 0.500000
O O8 0.471426 0.003168 0.636276
O O9 0.183506 0.939880 0.565796
O O10 0.750000 0.027103 0.250000
O O11 0.063324 0.094771 0.185119
O O12 0.250000 0.009754 0.250000
O O13 0.279005 0.658866 0.886115
O O14 0.503751 0.625394 0.996909
O O15 0.001606 0.646081 0.000202
O O16 0.250000 0.653421 0.750000
#
# Coordination Sequence:
#
# PCOD9390730 Si02
#       8
#     8   2   8   2   8   8   8   8
#     4   9  21  40  65  90 123 167 208 259 320 381
#     4  12  22  40  68  88 120 160 232 264 338 374
#     4   9  21  40  63  93 130 171 205 253 318 381
#     4   8  18  40  68  84 124 164 216 256 334 378
#     4  10  21  38  61  90 124 165 208 257 314 375
#     4  10  24  41  65  91 133 166 209 259 320 377
#     4  10  23  40  63  86 121 166 213 263 320 382
#     4  11  23  41  65  97 126 167 212 258 311 383
#
# _framework density 21.021982000000001
#
# number of rings (size 3 to 8) (size 9 to 14) (size 15 to 20)
#    0.000    2.308    0.769    0.692    6.462   10.462 
#    2.769    0.000    0.000    0.000    0.000    0.000 
#    0.000    0.000    0.000    0.000    0.000    0.000 
#
# Total GULP energy -289863.608329 kJ/mol
# GULP energy per Si atom -5574.300160 kJ/mol
# Density = 2.097414 g / cm^3
# Si number density = 21.021982 Si / 1000 Ang^3
#
#
#
# Elastic Constant Matrix: (Units=GPa)
#
#
# Indices 1 2 3 4 5 6 
#
# 1 88.6384 16.2299 67.2787 0.0000 0.0000 0.0000
# 2 16.2299 49.3663 47.5230 0.0000 0.0000 0.0000
# 3 67.2787 47.5230 192.3267 0.0000 0.0000 0.0000
# 4 0.0000 0.0000 0.0000 38.7139 0.0000 0.0000
# 5 0.0000 0.0000 0.0000 0.0000 48.8786 0.0000
# 6 0.0000 0.0000 0.0000 0.0000 0.0000 36.6962
#
#
#
# Elastic Compliance Matrix: (Units=1/GPa)
#
#
# Indices 1 2 3 4 5 6 
#
# 1 0.015361 0.000161 -0.005413 0.000000 0.000000 0.000000
# 2 0.000161 0.026581 -0.006624 0.000000 0.000000 0.000000
# 3 -0.005413 -0.006624 0.008730 0.000000 0.000000 0.000000
# 4 0.000000 0.000000 0.000000 0.025830 0.000000 0.000000
# 5 0.000000 0.000000 0.000000 0.000000 0.020459 0.000000
# 6 0.000000 0.000000 0.000000 0.000000 0.000000 0.027251
#
#
# Mechanical properties :
#
#
# Convention : Reuss Voigt Hill
#
# Bulk Modulus (GPa) = 37.14896 65.82159 51.48528
# Shear Modulus (GPa) = 31.85968 38.14441 35.00205
#
# Velocity S-wave (km/s) = 3.89722 4.26432 4.08489
# Velocity P-wave (km/s) = 6.16124 7.45820 6.84053
#
# Compressibility (1/GPa) = 0.02691865
#
# Stress axis : x y z
#
# Youngs Moduli (GPa) = 65.09925 37.62119 114.54777
#
# Poissons Ratio (x) = -0.00606 0.62009
# Poissons Ratio (y) = -0.01048 0.75880
# Poissons Ratio (z) = 0.35240 0.24921
#
# Static dielectric constant tensor:
#      x y z
#    x 1.303470 0.000000 0.000000 
#    y 0.000000 1.776810 0.000000 
#    z 0.000000 0.000000 1.792200 
# 
# From -- ./inp_files/29606.got.cif
#   From: 2010.05.17/outbox.cif.g08.bks.cpg/sg48_15_cif.got.tgz:29606.got - 2010.06.03 20:39:00.
