data_PCOD9391938
_publ_section_title
;
Structure prediction by ZEFSAII (Michael W. Deem and Ramdas Pophale) SiO2 
 PCOD9391938
Probable space group: P N N N
;
_chemical_formula_sum "Si O2"
_cell_formula_units_Z 40
_cell_length_a 9.000000
_cell_length_b 12.000000
_cell_length_c 18.000000
_cell_angle_alpha 90.000000
_cell_angle_beta 90.000000
_cell_angle_gamma 90.000000
_cell_volume 1944.000000
_symmetry_space_group_name_H-M "P N N N"
_symmetry_group_IT_number 48
_space_group.IT_coordinate_system_code '2'
_symmetry_cell_setting 'orthorhombic'
loop_
_space_group_symop_operation_xyz
x,y,z
1/2-x,1/2-y,z
x,1/2-y,1/2-z
1/2-x,y,1/2-z
-x,-y,-z
1/2+x,1/2+y,-z
-x,1/2+y,1/2+z
1/2+x,-y,1/2+z
loop_
_atom_site_type_symbol
_atom_site_label
_atom_site_fract_x
_atom_site_fract_y
_atom_site_fract_z
Si Si1 0.240569 0.999902 0.014855
Si Si2 0.641146 0.441164 0.678759
Si Si3 0.398496 0.175726 0.907064
Si Si4 0.974913 0.177618 0.033646
Si Si5 0.918369 0.799955 0.675384
O O1 0.111418 0.089177 0.034898
O O2 0.288772 0.950383 0.095022
O O3 0.350996 0.071513 0.961514
O O4 0.171572 0.897409 0.968891
O O5 0.750000 0.412298 0.750000
O O6 0.495166 0.365190 0.663463
O O7 0.592292 0.569084 0.689080
O O8 0.250000 0.250000 0.890651
O O9 0.502393 0.253563 0.958213
O O10 0.995354 0.260508 0.102505
O O11 0.750000 0.750000 0.667734
O O12 0.985955 0.750000 0.750000
#
# Coordination Sequence:
#
# PCOD9391938 Si02
#       5
#     8   8   8   8   8
#     4  10  20  36  64  98 132 183 227 278 335 409
#     4  12  22  38  68 104 136 173 232 282 348 419
#     4  10  22  42  64  96 139 187 229 286 337 403
#     4  10  19  36  63  95 137 173 231 274 337 403
#     4  11  18  35  65 101 130 162 209 294 356 393
#
# _framework density 20.576132000000001
#
# number of rings (size 3 to 8) (size 9 to 14) (size 15 to 20)
#    0.000    1.400    6.000    1.200    0.000    0.800 
#    0.000    2.000    0.000   30.000    0.000    0.000 
#    0.000    0.000    0.000    0.000    0.000    0.000 
#
# Total GULP energy -223306.926780 kJ/mol
# GULP energy per Si atom -5582.673170 kJ/mol
# Density = 2.052930 g / cm^3
# Si number density = 20.576132 Si / 1000 Ang^3
#
#
#
# Elastic Constant Matrix: (Units=GPa)
#
#
# Indices 1 2 3 4 5 6 
#
# 1 67.1403 49.4965 45.9637 0.0000 0.0000 0.0000
# 2 49.4965 91.6736 31.7200 0.0000 0.0000 0.0000
# 3 45.9637 31.7200 104.0222 0.0000 0.0000 0.0000
# 4 0.0000 0.0000 0.0000 25.5922 0.0000 0.0000
# 5 0.0000 0.0000 0.0000 0.0000 38.4962 0.0000
# 6 0.0000 0.0000 0.0000 0.0000 0.0000 36.0158
#
#
#
# Elastic Compliance Matrix: (Units=1/GPa)
#
#
# Indices 1 2 3 4 5 6 
#
# 1 0.031768 -0.013745 -0.009846 0.000000 0.000000 0.000000
# 2 -0.013745 0.018142 0.000541 0.000000 0.000000 0.000000
# 3 -0.009846 0.000541 0.013799 0.000000 0.000000 0.000000
# 4 0.000000 0.000000 0.000000 0.039074 0.000000 0.000000
# 5 0.000000 0.000000 0.000000 0.000000 0.025977 0.000000
# 6 0.000000 0.000000 0.000000 0.000000 0.000000 0.027766
#
#
# Mechanical properties :
#
#
# Convention : Reuss Voigt Hill
#
# Bulk Modulus (GPa) = 56.78745 57.46629 57.12687
# Shear Modulus (GPa) = 23.98151 29.06456 26.52304
#
# Velocity S-wave (km/s) = 3.41765 3.76245 3.59419
# Velocity P-wave (km/s) = 6.57513 6.84573 6.71179
#
# Compressibility (1/GPa) = 0.01760952
#
# Stress axis : x y z
#
# Youngs Moduli (GPa) = 31.47867 55.11962 72.47088
#
# Poissons Ratio (x) = 0.75764 0.71351
# Poissons Ratio (y) = 0.43268 -0.03923
# Poissons Ratio (z) = 0.30992 -0.02984
#
# Static dielectric constant tensor:
#      x y z
#    x 1.780230 0.000000 0.000000 
#    y 0.000000 1.762430 0.000000 
#    z 0.000000 0.000000 1.735260 
# 
# From -- ./inp_files/10710.got.cif
#   From: 2010.05.17/outbox.ucp.g08.bks.cvg/sg48_6_cif.got.tgz:10710.got - 2010.06.11 16:38:40.
