data_PCOD9391310
_publ_section_title
;
Structure prediction by ZEFSAII (Michael W. Deem and Ramdas Pophale) SiO2 
 PCOD9391310
Probable space group: P N N N
;
_chemical_formula_sum "Si O2"
_cell_formula_units_Z 42
_cell_length_a 8.344534
_cell_length_b 15.355091
_cell_length_c 15.852798
_cell_angle_alpha 90.000000
_cell_angle_beta 90.000000
_cell_angle_gamma 90.000000
_cell_volume 2031.236112
_symmetry_space_group_name_H-M "P N N N"
_symmetry_group_IT_number 48
_space_group.IT_coordinate_system_code '2'
_symmetry_cell_setting 'orthorhombic'
loop_
_space_group_symop_operation_xyz
x,y,z
1/2-x,1/2-y,z
x,1/2-y,1/2-z
1/2-x,y,1/2-z
-x,-y,-z
1/2+x,1/2+y,-z
-x,1/2+y,1/2+z
1/2+x,-y,1/2+z
loop_
_atom_site_type_symbol
_atom_site_label
_atom_site_fract_x
_atom_site_fract_y
_atom_site_fract_z
Si Si1 0.437559 0.758438 0.013820
Si Si2 0.052466 0.965561 0.760115
Si Si3 0.250000 0.250000 0.750000
Si Si4 0.450690 0.055156 0.918889
Si Si5 0.066374 0.285988 0.332841
Si Si6 0.898334 0.883905 0.121739
O O1 0.250000 0.750000 0.018710
O O2 0.486648 0.845890 0.064771
O O3 0.512689 0.670619 0.051696
O O4 0.491140 0.754506 0.916619
O O5 0.250000 0.952023 0.750000
O O6 0.960453 0.887066 0.808430
O O7 0.003208 0.001655 0.666636
O O8 0.015083 0.043979 0.823988
O O9 0.150630 0.187895 0.809728
O O10 0.259873 0.070030 0.914323
O O11 0.500000 0.000000 0.000000
O O12 0.250000 0.250000 0.334880
O O13 0.980453 0.250000 0.250000
#
# Coordination Sequence:
#
# PCOD9391310 Si02
#       6
#     8   8   2   8   8   8
#     4  12  27  44  69 108 145 191 235 295 358 431
#     4  10  23  43  75 106 134 185 242 299 361 435
#     4  12  16  44  82 100 132 188 226 284 376 424
#     4  11  22  42  72 102 140 182 235 296 354 429
#     4  11  26  47  70 100 139 192 237 294 362 425
#     4  11  21  44  75 101 137 184 233 294 360 435
#
# _framework density 20.677064000000001
#
# number of rings (size 3 to 8) (size 9 to 14) (size 15 to 20)
#    0.000    0.952    4.762    2.286    8.000    2.286 
#   10.286    3.333    0.000    0.000    0.000    0.000 
#    0.000    0.000    0.000    0.000    0.000    0.000 
#
# Total GULP energy -233979.477520 kJ/mol
# GULP energy per Si atom -5570.939941 kJ/mol
# Density = 2.063000 g / cm^3
# Si number density = 20.677064 Si / 1000 Ang^3
#
#
#
# Elastic Constant Matrix: (Units=GPa)
#
#
# Indices 1 2 3 4 5 6 
#
# 1 31.3946 3.0752 10.3833 0.0000 0.0000 0.0000
# 2 3.0752 122.5945 5.9022 0.0000 0.0000 0.0000
# 3 10.3833 5.9022 71.5556 0.0000 0.0000 0.0000
# 4 0.0000 0.0000 0.0000 42.3809 0.0000 0.0000
# 5 0.0000 0.0000 0.0000 0.0000 17.4142 0.0000
# 6 0.0000 0.0000 0.0000 0.0000 0.0000 35.0994
#
#
#
# Elastic Compliance Matrix: (Units=1/GPa)
#
#
# Indices 1 2 3 4 5 6 
#
# 1 0.033504 -0.000609 -0.004811 0.000000 0.000000 0.000000
# 2 -0.000609 0.008201 -0.000588 0.000000 0.000000 0.000000
# 3 -0.004811 -0.000588 0.014722 0.000000 0.000000 0.000000
# 4 0.000000 0.000000 0.000000 0.023596 0.000000 0.000000
# 5 0.000000 0.000000 0.000000 0.000000 0.057424 0.000000
# 6 0.000000 0.000000 0.000000 0.000000 0.000000 0.028491
#
#
# Mechanical properties :
#
#
# Convention : Reuss Voigt Hill
#
# Bulk Modulus (GPa) = 22.51776 29.36289 25.94033
# Shear Modulus (GPa) = 25.93954 32.72451 29.33202
#
# Velocity S-wave (km/s) = 3.54575 3.98257 3.77049
# Velocity P-wave (km/s) = 5.26089 5.94805 5.61499
#
# Compressibility (1/GPa) = 0.04440939
#
# Stress axis : x y z
#
# Youngs Moduli (GPa) = 29.84763 121.94295 67.92634
#
# Poissons Ratio (x) = 0.07424 0.32682
# Poissons Ratio (y) = 0.01817 0.03995
# Poissons Ratio (z) = 0.14361 0.07171
#
# Static dielectric constant tensor:
#      x y z
#    x 1.750430 0.000000 0.000000 
#    y 0.000000 1.750360 0.000000 
#    z 0.000000 0.000000 1.778710 
# 
# From -- ./inp_files/25133.got.cif
#   From: 2010.05.17/outbox.cif.g08.bks.cpg/sg48_13_cif.got.tgz:25133.got - 2010.06.03 20:39:00.
