data_PCOD9391983
_publ_section_title
;
Structure prediction by ZEFSAII (Michael W. Deem and Ramdas Pophale) SiO2 
 PCOD9391983
Probable space group: P C C M
;
_chemical_formula_sum "Si O2"
_cell_formula_units_Z 40
_cell_length_a 28.058855
_cell_length_b 7.864373
_cell_length_c 8.609333
_cell_angle_alpha 90.000000
_cell_angle_beta 90.000000
_cell_angle_gamma 90.000000
_cell_volume 1899.781064
_symmetry_space_group_name_H-M "P C C M"
_symmetry_group_IT_number 49
_symmetry_cell_setting 'orthorhombic'
loop_
_space_group_symop_operation_xyz
x,y,z
-x,-y,z
x,-y,1/2-z
-x,y,1/2-z
-x,-y,-z
x,y,-z
-x,y,1/2+z
x,-y,1/2+z
loop_
_atom_site_type_symbol
_atom_site_label
_atom_site_fract_x
_atom_site_fract_y
_atom_site_fract_z
Si Si1 0.548996 0.194661 0.314898
Si Si2 0.646754 0.805675 0.686482
Si Si3 0.847205 0.189574 0.314192
Si Si4 0.951773 0.690285 0.186095
Si Si5 0.750582 0.805700 0.314040
O O1 0.500000 0.272659 0.250000
O O2 0.547640 0.189440 0.500000
O O3 0.598839 0.273377 0.257351
O O4 0.549557 0.000000 0.250000
O O5 0.642477 0.810556 0.500000
O O6 0.698705 0.729600 0.727470
O O7 0.648108 0.000000 0.750000
O O8 0.845603 0.193606 0.500000
O O9 0.899648 0.247812 0.263279
O O10 0.798964 0.276926 0.251392
O O11 0.844223 0.000000 0.250000
O O12 0.953209 0.500000 0.250000
O O13 0.000000 0.777718 0.250000
O O14 0.953963 0.693496 0.000000
O O15 0.754095 0.812849 0.500000
O O16 0.748990 0.000000 0.250000
#
# Coordination Sequence:
#
# PCOD9391983 Si02
#       5
#     8   8   8   8   8
#     4  10  16  21  28  38  55  82 118 162 208 250
#     4   9  15  22  31  45  64  89 124 163 205 253
#     4  10  20  32  48  71  96 121 152 188 228 270
#     4  10  21  36  54  74  95 123 155 188 225 270
#     4   9  16  25  39  57  79 107 137 173 217 261
#
# _framework density 21.055057000000001
#
# number of rings (size 3 to 8) (size 9 to 14) (size 15 to 20)
#    0.000    2.400    0.000    7.800    0.000    6.000 
#    0.000    2.000    0.000    0.000    0.000    0.000 
#    0.000    0.000    0.000    0.000    0.000    1.000 
#
# Total GULP energy -222858.137304 kJ/mol
# GULP energy per Si atom -5571.453433 kJ/mol
# Density = 2.100714 g / cm^3
# Si number density = 21.055057 Si / 1000 Ang^3
#
#
#
# Elastic Constant Matrix: (Units=GPa)
#
#
# Indices 1 2 3 4 5 6 
#
# 1 301.3689 22.0404 77.9029 0.0000 0.0000 0.0000
# 2 22.0404 16.6999 1.0028 0.0000 0.0000 0.0000
# 3 77.9029 1.0028 95.2713 0.0000 0.0000 0.0000
# 4 0.0000 0.0000 0.0000 -1.6044 0.0000 0.0000
# 5 0.0000 0.0000 0.0000 0.0000 43.9698 0.0000
# 6 0.0000 0.0000 0.0000 0.0000 0.0000 -60.1463
#
#
#
# Elastic Compliance Matrix: (Units=1/GPa)
#
#
# Indices 1 2 3 4 5 6 
#
# 1 0.004746 -0.006035 -0.003818 0.000000 0.000000 0.000000
# 2 -0.006035 0.067592 0.004223 0.000000 0.000000 0.000000
# 3 -0.003818 0.004223 0.013573 0.000000 0.000000 0.000000
# 4 0.000000 0.000000 0.000000 -0.623268 0.000000 0.000000
# 5 0.000000 0.000000 0.000000 0.000000 0.022743 0.000000
# 6 0.000000 0.000000 0.000000 0.000000 0.000000 -0.016626
#
#
# Mechanical properties :
#
#
# Convention : Reuss Voigt Hill
#
# Bulk Modulus (GPa) = 13.39521 68.35917 40.87719
# Shear Modulus (GPa) = -10.09905 17.27007 3.58551
#
# Velocity S-wave (km/s) = -2.19247 2.86708 1.30638
# Velocity P-wave (km/s) = 0.18277 6.59527 4.66177
#
# Compressibility (1/GPa) = 0.07465353
#
# Stress axis : x y z
#
# Youngs Moduli (GPa) = 210.68633 14.79461 73.67297
#
# Poissons Ratio (x) = 0.08929 0.28125
# Poissons Ratio (y) = 1.27150 -0.31115
# Poissons Ratio (z) = 0.80431 -0.06248
#
# Static dielectric constant tensor:
#      x y z
#    x 1.936100 0.000000 0.000000 
#    y 0.000000 1.819650 0.000000 
#    z 0.000000 0.000000 1.700530 
# 
# From -- ./inp_files/6699.got.cif
#   From: 2010.05.17/outbox.cif.g08.bks.cpg/sg49_4_cif.got.tgz:6699.got - 2010.06.03 21:02:19.
