data_PCOD9391237
_publ_section_title
;
Structure prediction by ZEFSAII (Michael W. Deem and Ramdas Pophale) SiO2 
 PCOD9391237
Probable space group: P N N N
;
_chemical_formula_sum "Si O2"
_cell_formula_units_Z 30
_cell_length_a 16.289950
_cell_length_b 5.411520
_cell_length_c 16.917058
_cell_angle_alpha 90.000000
_cell_angle_beta 90.000000
_cell_angle_gamma 90.000000
_cell_volume 1491.296015
_symmetry_space_group_name_H-M "P N N N"
_symmetry_group_IT_number 48
_space_group.IT_coordinate_system_code '2'
_symmetry_cell_setting 'orthorhombic'
loop_
_space_group_symop_operation_xyz
x,y,z
1/2-x,1/2-y,z
x,1/2-y,1/2-z
1/2-x,y,1/2-z
-x,-y,-z
1/2+x,1/2+y,-z
-x,1/2+y,1/2+z
1/2+x,-y,1/2+z
loop_
_atom_site_type_symbol
_atom_site_label
_atom_site_fract_x
_atom_site_fract_y
_atom_site_fract_z
Si Si1 0.695025 0.999704 0.958752
Si Si2 0.960756 0.250000 0.250000
Si Si3 0.120816 0.000790 0.289019
Si Si4 0.750000 0.750000 0.250000
Si Si5 0.335542 0.607340 0.629566
O O1 0.750000 0.750000 0.960653
O O2 0.750000 0.250000 0.951876
O O3 0.638310 0.993460 0.881658
O O4 0.645965 0.013523 0.041751
O O5 0.903797 0.271608 0.327150
O O6 0.024226 0.470327 0.231694
O O7 0.152168 0.750000 0.250000
O O8 0.156950 0.250000 0.250000
O O9 0.689605 0.599494 0.307221
O O10 0.250000 0.750000 0.620981
#
# Coordination Sequence:
#
# PCOD9391237 Si02
#       5
#     8   4   8   2   8
#     4  11  24  42  66  96 126 161 222 272 311 372
#     4  10  23  40  63  90 140 164 214 252 325 396
#     4  10  24  43  62  95 124 176 211 252 330 370
#     4  12  18  36  68  90 130 152 224 240 342 356
#     4  11  22  38  64  98 121 169 211 270 315 377
#
# _framework density 20.11673
#
# number of rings (size 3 to 8) (size 9 to 14) (size 15 to 20)
#    0.800    0.533    4.000    1.600    1.867    4.267 
#    0.000    1.333    0.000    0.000    0.000    0.000 
#    0.000    0.000    0.000    0.000    0.000    0.000 
#
# Total GULP energy -167215.074599 kJ/mol
# GULP energy per Si atom -5573.835820 kJ/mol
# Density = 2.007094 g / cm^3
# Si number density = 20.116730 Si / 1000 Ang^3
#
#
#
# Elastic Constant Matrix: (Units=GPa)
#
#
# Indices 1 2 3 4 5 6 
#
# 1 87.7238 24.4358 56.2983 0.0000 0.0000 0.0000
# 2 24.4358 114.9368 64.8466 0.0000 0.0000 0.0000
# 3 56.2983 64.8466 234.5088 0.0000 0.0000 0.0000
# 4 0.0000 0.0000 0.0000 94.8163 0.0000 0.0000
# 5 0.0000 0.0000 0.0000 0.0000 -131.4215 0.0000
# 6 0.0000 0.0000 0.0000 0.0000 0.0000 267.6448
#
#
#
# Elastic Compliance Matrix: (Units=1/GPa)
#
#
# Indices 1 2 3 4 5 6 
#
# 1 0.013624 -0.001246 -0.002926 0.000000 0.000000 0.000000
# 2 -0.001246 0.010423 -0.002583 0.000000 0.000000 0.000000
# 3 -0.002926 -0.002583 0.005681 0.000000 0.000000 0.000000
# 4 0.000000 0.000000 0.000000 0.010547 0.000000 0.000000
# 5 0.000000 0.000000 0.000000 0.000000 -0.007609 0.000000
# 6 0.000000 0.000000 0.000000 0.000000 0.000000 0.003736
#
#
# Mechanical properties :
#
#
# Convention : Reuss Voigt Hill
#
# Bulk Modulus (GPa) = 61.65950 80.92564 71.29257
# Shear Modulus (GPa) = 90.38667 65.64717 78.01692
#
# Velocity S-wave (km/s) = 6.71034 5.71874 6.23428
# Velocity P-wave (km/s) = 9.52657 9.16082 9.34549
#
# Compressibility (1/GPa) = 0.01621810
#
# Stress axis : x y z
#
# Youngs Moduli (GPa) = 73.39763 95.94554 176.02431
#
# Poissons Ratio (x) = 0.11950 0.51511
# Poissons Ratio (y) = 0.09142 0.45468
# Poissons Ratio (z) = 0.21479 0.24783
#
# Static dielectric constant tensor:
#      x y z
#    x 1.741370 0.000000 0.000000 
#    y 0.000000 1.770070 0.000000 
#    z 0.000000 0.000000 1.726410 
# 
# From -- ./inp_files/3011.got.cif
#   From: 2010.05.17/outbox.cif.g08.bks.cpg/sg48_2_cif.got.tgz:3011.got - 2010.06.03 20:39:00.
