data_PCOD9391597
_publ_section_title
;
Structure prediction by ZEFSAII (Michael W. Deem and Ramdas Pophale) SiO2 
 PCOD9391597
Probable space group: P N N N
;
_chemical_formula_sum "Si O2"
_cell_formula_units_Z 64
_cell_length_a 11.820492
_cell_length_b 19.005462
_cell_length_c 14.095067
_cell_angle_alpha 90.000000
_cell_angle_beta 90.000000
_cell_angle_gamma 90.000000
_cell_volume 3166.511935
_symmetry_space_group_name_H-M "P N N N"
_symmetry_group_IT_number 48
_space_group.IT_coordinate_system_code '2'
_symmetry_cell_setting 'orthorhombic'
loop_
_space_group_symop_operation_xyz
x,y,z
1/2-x,1/2-y,z
x,1/2-y,1/2-z
1/2-x,y,1/2-z
-x,-y,-z
1/2+x,1/2+y,-z
-x,1/2+y,1/2+z
1/2+x,-y,1/2+z
loop_
_atom_site_type_symbol
_atom_site_label
_atom_site_fract_x
_atom_site_fract_y
_atom_site_fract_z
Si Si1 0.507019 0.139889 0.924787
Si Si2 0.471501 0.889106 0.450009
Si Si3 0.215892 0.538819 0.856512
Si Si4 0.916347 0.953280 0.876204
Si Si5 0.747272 0.331682 0.477831
Si Si6 0.877688 0.728739 0.361153
Si Si7 0.306401 0.444928 0.475941
Si Si8 0.534089 0.494156 0.670845
O O1 0.466466 0.217582 0.904557
O O2 0.403673 0.106724 0.986545
O O3 0.511694 0.089892 0.830485
O O4 0.628551 0.147383 0.973543
O O5 0.504497 0.903319 0.560299
O O6 0.353005 0.847471 0.452910
O O7 0.571915 0.847160 0.394198
O O8 0.443324 0.966508 0.409499
O O9 0.250000 0.520961 0.750000
O O10 0.255122 0.615248 0.888818
O O11 0.254865 0.482185 0.934796
O O12 0.081149 0.531059 0.861098
O O13 0.928816 0.964199 0.764066
O O14 0.793598 0.923949 0.905823
O O15 0.750000 0.250000 0.451698
O O16 0.750000 0.750000 0.394401
O O17 0.877353 0.750000 0.250000
O O18 0.375924 0.499931 0.413012
#
# Coordination Sequence:
#
# PCOD9391597 Si02
#       8
#     8   8   8   8   8   8   8   8
#     4  11  21  41  65  92 126 177 218 263 331 399
#     4  11  23  40  61  95 131 169 213 272 334 386
#     4  11  22  39  62  95 128 169 219 271 331 401
#     4  11  23  38  64  98 132 165 214 278 336 392
#     4  12  22  41  66  89 127 174 215 267 325 394
#     4  11  24  43  62  91 128 172 224 269 329 400
#     4  11  21  40  65  93 130 170 212 271 334 395
#     4  11  21  38  65  96 129 165 220 270 331 402
#
# _framework density 20.211514000000001
#
# number of rings (size 3 to 8) (size 9 to 14) (size 15 to 20)
#    0.000    0.875    5.000    3.375    1.750    0.250 
#    9.000    2.500    0.000    0.750    0.000    2.625 
#    0.000    0.000    0.000    0.000    0.000    0.000 
#
# Total GULP energy -356662.042253 kJ/mol
# GULP energy per Si atom -5572.844410 kJ/mol
# Density = 2.016551 g / cm^3
# Si number density = 20.211514 Si / 1000 Ang^3
#
#
#
# Elastic Constant Matrix: (Units=GPa)
#
#
# Indices 1 2 3 4 5 6 
#
# 1 112.5729 23.9159 14.9811 0.0000 0.0000 0.0000
# 2 23.9159 73.6487 12.5107 0.0000 0.0000 0.0000
# 3 14.9811 12.5107 78.2681 0.0000 0.0000 0.0000
# 4 0.0000 0.0000 0.0000 19.6886 0.0000 0.0000
# 5 0.0000 0.0000 0.0000 0.0000 15.1803 0.0000
# 6 0.0000 0.0000 0.0000 0.0000 0.0000 25.4875
#
#
#
# Elastic Compliance Matrix: (Units=1/GPa)
#
#
# Indices 1 2 3 4 5 6 
#
# 1 0.009686 -0.002909 -0.001389 0.000000 0.000000 0.000000
# 2 -0.002909 0.014831 -0.001814 0.000000 0.000000 0.000000
# 3 -0.001389 -0.001814 0.013332 0.000000 0.000000 0.000000
# 4 0.000000 0.000000 0.000000 0.050791 0.000000 0.000000
# 5 0.000000 0.000000 0.000000 0.000000 0.065875 0.000000
# 6 0.000000 0.000000 0.000000 0.000000 0.000000 0.039235
#
#
# Mechanical properties :
#
#
# Convention : Reuss Voigt Hill
#
# Bulk Modulus (GPa) = 39.02423 40.81167 39.91795
# Shear Modulus (GPa) = 23.30832 26.27675 24.79253
#
# Velocity S-wave (km/s) = 3.39959 3.60958 3.50616
# Velocity P-wave (km/s) = 5.89572 6.13256 6.01530
#
# Compressibility (1/GPa) = 0.02562511
#
# Stress axis : x y z
#
# Youngs Moduli (GPa) = 103.24098 67.42702 75.00547
#
# Poissons Ratio (x) = 0.19617 0.10418
# Poissons Ratio (y) = 0.30037 0.13604
# Poissons Ratio (z) = 0.14339 0.12230
#
# Static dielectric constant tensor:
#      x y z
#    x 1.791500 0.000000 0.000000 
#    y 0.000000 1.726260 0.000000 
#    z 0.000000 0.000000 1.763080 
# 
# From -- ./inp_files/26717.got.cif
#   From: 2010.05.17/outbox.cif.g08.bks.cpg/sg48_14_cif.got.tgz:26717.got - 2010.06.03 20:39:00.
