data_PCOD9391013
_publ_section_title
;
Structure prediction by ZEFSAII (Michael W. Deem and Ramdas Pophale) SiO2 
 PCOD9391013
Probable space group: P N N N
;
_chemical_formula_sum "Si O2"
_cell_formula_units_Z 64
_cell_length_a 23.988021
_cell_length_b 15.101575
_cell_length_c 8.579027
_cell_angle_alpha 90.000000
_cell_angle_beta 90.000000
_cell_angle_gamma 90.000000
_cell_volume 3107.811711
_symmetry_space_group_name_H-M "P N N N"
_symmetry_group_IT_number 48
_space_group.IT_coordinate_system_code '2'
_symmetry_cell_setting 'orthorhombic'
loop_
_space_group_symop_operation_xyz
x,y,z
1/2-x,1/2-y,z
x,1/2-y,1/2-z
1/2-x,y,1/2-z
-x,-y,-z
1/2+x,1/2+y,-z
-x,1/2+y,1/2+z
1/2+x,-y,1/2+z
loop_
_atom_site_type_symbol
_atom_site_label
_atom_site_fract_x
_atom_site_fract_y
_atom_site_fract_z
Si Si1 0.859648 0.099359 0.939737
Si Si2 0.224215 0.156213 0.580444
Si Si3 0.543276 0.777428 0.575542
Si Si4 0.243079 0.971408 0.434486
Si Si5 0.907062 0.613136 0.095990
Si Si6 0.881052 0.061950 0.575360
Si Si7 0.914651 0.259594 0.071109
Si Si8 0.557594 0.540113 0.069529
O O1 0.796962 0.079580 0.993610
O O2 0.874682 0.073882 0.761097
O O3 0.875051 0.200895 0.963822
O O4 0.897911 0.036781 0.045144
O O5 0.250000 0.250000 0.524482
O O6 0.250000 0.142387 0.750000
O O7 0.157452 0.146980 0.604467
O O8 0.243851 0.074983 0.474841
O O9 0.559231 0.750000 0.750000
O O10 0.560463 0.699019 0.461025
O O11 0.476355 0.782189 0.565857
O O12 0.569157 0.871186 0.529777
O O13 0.250000 0.961747 0.250000
O O14 0.182877 0.936497 0.486664
O O15 0.935416 0.573944 0.252512
O O16 0.906280 0.532840 0.971418
O O17 0.914393 0.140790 0.492764
O O18 0.896098 0.250000 0.250000
O O19 0.500000 0.500000 0.000000
#
# Coordination Sequence:
#
# PCOD9391013 Si02
#       8
#     8   8   8   8   8   8   8   8
#     4  11  22  41  67  92 128 170 210 266 322 385
#     4  10  22  38  61  94 125 167 210 262 326 382
#     4  11  26  44  64  93 129 168 217 265 324 387
#     4   9  21  41  62  92 123 164 211 262 318 384
#     4  11  25  43  66  96 132 170 216 270 322 391
#     4  10  23  42  66  93 129 165 216 261 326 381
#     4  11  24  42  63  92 128 167 216 268 318 387
#     4  12  25  41  66  97 129 169 214 265 326 389
#
# _framework density 20.593267000000001
#
# number of rings (size 3 to 8) (size 9 to 14) (size 15 to 20)
#    0.000    1.375    1.250    3.000    8.750    3.250 
#    0.000    2.500    0.000    0.000    0.000    0.000 
#    0.000    0.000    0.000    0.000    0.000    0.000 
#
# Total GULP energy -357386.725708 kJ/mol
# GULP energy per Si atom -5584.167589 kJ/mol
# Density = 2.054640 g / cm^3
# Si number density = 20.593267 Si / 1000 Ang^3
#
#
#
# Elastic Constant Matrix: (Units=GPa)
#
#
# Indices 1 2 3 4 5 6 
#
# 1 13.9513 15.8336 10.9019 0.0000 0.0000 0.0000
# 2 15.8336 81.7662 4.6613 0.0000 0.0000 0.0000
# 3 10.9019 4.6613 44.7630 0.0000 0.0000 0.0000
# 4 0.0000 0.0000 0.0000 24.3485 0.0000 0.0000
# 5 0.0000 0.0000 0.0000 0.0000 20.7808 0.0000
# 6 0.0000 0.0000 0.0000 0.0000 0.0000 31.0383
#
#
#
# Elastic Compliance Matrix: (Units=1/GPa)
#
#
# Indices 1 2 3 4 5 6 
#
# 1 0.115765 -0.020934 -0.026014 0.000000 0.000000 0.000000
# 2 -0.020934 0.016089 0.003423 0.000000 0.000000 0.000000
# 3 -0.026014 0.003423 0.028319 0.000000 0.000000 0.000000
# 4 0.000000 0.000000 0.000000 0.041070 0.000000 0.000000
# 5 0.000000 0.000000 0.000000 0.000000 0.048121 0.000000
# 6 0.000000 0.000000 0.000000 0.000000 0.000000 0.032218
#
#
# Mechanical properties :
#
#
# Convention : Reuss Voigt Hill
#
# Bulk Modulus (GPa) = 13.67583 22.58602 18.13092
# Shear Modulus (GPa) = 12.72243 22.50578 17.61410
#
# Velocity S-wave (km/s) = 2.48825 3.30945 2.92778
# Velocity P-wave (km/s) = 3.86141 5.05912 4.50029
#
# Compressibility (1/GPa) = 0.07312172
#
# Stress axis : x y z
#
# Youngs Moduli (GPa) = 8.63822 62.15557 35.31188
#
# Poissons Ratio (x) = 1.30118 0.91861
# Poissons Ratio (y) = 0.18083 -0.12088
# Poissons Ratio (z) = 0.22472 -0.21277
#
# Static dielectric constant tensor:
#      x y z
#    x 1.785860 0.000000 0.000000 
#    y 0.000000 1.698120 0.000000 
#    z 0.000000 0.000000 1.728630 
# 
# From -- ./inp_files/16036.got.cif
#   From: 2010.05.17/outbox.cif.g08.bks.cpg/sg48_9_cif.got.tgz:16036.got - 2010.06.03 20:39:00.
