data_PCOD9391501
_publ_section_title
;
Structure prediction by ZEFSAII (Michael W. Deem and Ramdas Pophale) SiO2 
 PCOD9391501
Probable space group: P N N N
;
_chemical_formula_sum "Si O2"
_cell_formula_units_Z 64
_cell_length_a 13.327720
_cell_length_b 31.775454
_cell_length_c 9.696133
_cell_angle_alpha 90.000000
_cell_angle_beta 90.000000
_cell_angle_gamma 90.000000
_cell_volume 4106.257579
_symmetry_space_group_name_H-M "P N N N"
_symmetry_group_IT_number 48
_space_group.IT_coordinate_system_code '2'
_symmetry_cell_setting 'orthorhombic'
loop_
_space_group_symop_operation_xyz
x,y,z
1/2-x,1/2-y,z
x,1/2-y,1/2-z
1/2-x,y,1/2-z
-x,-y,-z
1/2+x,1/2+y,-z
-x,1/2+y,1/2+z
1/2+x,-y,1/2+z
loop_
_atom_site_type_symbol
_atom_site_label
_atom_site_fract_x
_atom_site_fract_y
_atom_site_fract_z
Si Si1 0.625751 0.201613 0.092986
Si Si2 0.140057 0.617395 0.521798
Si Si3 0.130612 0.793914 0.915070
Si Si4 0.350920 0.471364 0.169048
Si Si5 0.348429 0.477320 0.836169
Si Si6 0.057716 0.562361 0.285917
Si Si7 0.378761 0.888769 0.019398
Si Si8 0.560316 0.433682 0.253595
O O1 0.747587 0.203384 0.087564
O O2 0.595926 0.247839 0.036819
O O3 0.598739 0.200922 0.255210
O O4 0.590507 0.159312 0.017171
O O5 0.103399 0.664986 0.497894
O O6 0.082634 0.584035 0.429871
O O7 0.258051 0.611520 0.495977
O O8 0.113013 0.605330 0.677433
O O9 0.250000 0.459185 0.250000
O O10 0.382412 0.518264 0.219592
O O11 0.445533 0.441889 0.208875
O O12 0.338083 0.473373 0.002447
O O13 0.250000 0.466506 0.750000
O O14 0.441168 0.449150 0.785595
O O15 0.379635 0.524943 0.795148
O O16 0.091668 0.594564 0.168840
O O17 0.426380 0.922324 0.913103
#
# Coordination Sequence:
#
# PCOD9391501 Si02
#       8
#     8   8   8   8   8   8   8   8
#     4   8  14  26  40  72  98 128 165 204 236 287
#     4  11  17  33  49  73  99 142 165 200 245 292
#     4   8  14  24  46  65  99 133 164 197 244 287
#     4  11  23  38  53  71 100 129 164 213 257 290
#     4  11  23  38  54  70  98 132 166 209 255 294
#     4  11  23  36  49  72 104 130 169 210 246 292
#     4  11  21  29  51  76 102 134 171 204 238 294
#     4  11  21  34  52  73  99 129 173 205 238 300
#
# _framework density 15.585967
#
# number of rings (size 3 to 8) (size 9 to 14) (size 15 to 20)
#    0.000    1.750    3.750    3.750    3.500    1.000 
#    0.000    0.625    0.000    3.000    0.000    0.000 
#    0.000    6.000    0.000    0.000    0.000    0.000 
#
# Total GULP energy -356593.086326 kJ/mol
# GULP energy per Si atom -5571.766974 kJ/mol
# Density = 1.555049 g / cm^3
# Si number density = 15.585967 Si / 1000 Ang^3
#
#
#
# Elastic Constant Matrix: (Units=GPa)
#
#
# Indices 1 2 3 4 5 6 
#
# 1 77.0074 21.5436 10.8139 0.0000 0.0000 0.0000
# 2 21.5436 77.5778 -1.5022 0.0000 0.0000 0.0000
# 3 10.8139 -1.5022 22.0670 0.0000 0.0000 0.0000
# 4 0.0000 0.0000 0.0000 15.9927 0.0000 0.0000
# 5 0.0000 0.0000 0.0000 0.0000 21.5806 0.0000
# 6 0.0000 0.0000 0.0000 0.0000 0.0000 9.8662
#
#
#
# Elastic Compliance Matrix: (Units=1/GPa)
#
#
# Indices 1 2 3 4 5 6 
#
# 1 0.015314 -0.004404 -0.007804 0.000000 0.000000 0.000000
# 2 -0.004404 0.014174 0.003123 0.000000 0.000000 0.000000
# 3 -0.007804 0.003123 0.049354 0.000000 0.000000 0.000000
# 4 0.000000 0.000000 0.000000 0.062528 0.000000 0.000000
# 5 0.000000 0.000000 0.000000 0.000000 0.046338 0.000000
# 6 0.000000 0.000000 0.000000 0.000000 0.000000 0.101356
#
#
# Mechanical properties :
#
#
# Convention : Reuss Voigt Hill
#
# Bulk Modulus (GPa) = 16.48238 26.48477 21.48357
# Shear Modulus (GPa) = 15.26915 19.20769 17.23842
#
# Velocity S-wave (km/s) = 3.13337 3.51432 3.32930
# Velocity P-wave (km/s) = 4.86711 5.78765 5.34723
#
# Compressibility (1/GPa) = 0.06067086
#
# Stress axis : x y z
#
# Youngs Moduli (GPa) = 65.30102 70.55315 20.26192
#
# Poissons Ratio (x) = 0.31070 0.15813
# Poissons Ratio (y) = 0.28757 -0.06328
# Poissons Ratio (z) = 0.50963 -0.22033
#
# Static dielectric constant tensor:
#      x y z
#    x 1.503140 0.000000 0.000000 
#    y 0.000000 1.558750 0.000000 
#    z 0.000000 0.000000 1.511670 
# 
# From -- ./inp_files/11588.got.cif
#   From: 2010.05.17/outbox.cif.g08.bks.cpg/sg48_6_cif.got.tgz:11588.got - 2010.06.03 20:39:00.
