data_PCOD9391652
_publ_section_title
;
Structure prediction by ZEFSAII (Michael W. Deem and Ramdas Pophale) SiO2 
 PCOD9391652
Probable space group: P N N N
;
_chemical_formula_sum "Si O2"
_cell_formula_units_Z 60
_cell_length_a 21.566829
_cell_length_b 11.692745
_cell_length_c 11.714974
_cell_angle_alpha 90.000000
_cell_angle_beta 90.000000
_cell_angle_gamma 90.000000
_cell_volume 2954.228629
_symmetry_space_group_name_H-M "P N N N"
_symmetry_group_IT_number 48
_space_group.IT_coordinate_system_code '2'
_symmetry_cell_setting 'orthorhombic'
loop_
_space_group_symop_operation_xyz
x,y,z
1/2-x,1/2-y,z
x,1/2-y,1/2-z
1/2-x,y,1/2-z
-x,-y,-z
1/2+x,1/2+y,-z
-x,1/2+y,1/2+z
1/2+x,-y,1/2+z
loop_
_atom_site_type_symbol
_atom_site_label
_atom_site_fract_x
_atom_site_fract_y
_atom_site_fract_z
Si Si1 0.760599 0.613552 0.382799
Si Si2 0.092554 0.995531 0.229645
Si Si3 0.542249 0.088173 0.331439
Si Si4 0.968517 0.250000 0.750000
Si Si5 0.547801 0.820879 0.032359
Si Si6 0.108504 0.083795 0.993254
Si Si7 0.072257 0.656965 0.906785
Si Si8 0.650382 0.508054 0.522597
O O1 0.750000 0.750000 0.394136
O O2 0.750000 0.581605 0.250000
O O3 0.831521 0.594403 0.415457
O O4 0.716402 0.545379 0.471900
O O5 0.072270 0.862963 0.230796
O O6 0.131935 0.023858 0.343678
O O7 0.027898 0.066745 0.213044
O O8 0.126554 0.024268 0.111764
O O9 0.581381 0.097721 0.215249
O O10 0.559057 0.208440 0.390829
O O11 0.559738 0.989864 0.419926
O O12 0.013522 0.280340 0.854206
O O13 0.578949 0.707309 0.980809
O O14 0.493717 0.878966 0.959034
O O15 0.602572 0.910245 0.045507
O O16 0.128069 0.619349 0.988070
#
# Coordination Sequence:
#
# PCOD9391652 Si02
#       8
#     8   8   8   4   8   8   8   8
#     4  11  26  48  71  95 128 175 233 284 327 399
#     4  12  24  40  65  98 143 174 223 275 347 415
#     4  11  22  39  64  97 135 174 212 277 337 401
#     4  12  24  36  66 106 134 178 216 274 348 422
#     4  12  22  37  64  99 137 172 217 271 346 404
#     4  12  25  42  66  99 135 179 223 279 337 409
#     4  11  22  39  62  96 137 172 215 270 340 403
#     4  12  25  42  65  99 135 182 223 280 335 410
#
# _framework density 20.309868999999999
#
# number of rings (size 3 to 8) (size 9 to 14) (size 15 to 20)
#    0.000    0.400    6.667    3.200    1.867    1.067 
#    0.000    1.333    0.000    3.200    0.000    0.000 
#    0.000    0.000    0.000    0.000    0.000    0.000 
#
# Total GULP energy -334992.461327 kJ/mol
# GULP energy per Si atom -5583.207689 kJ/mol
# Density = 2.026364 g / cm^3
# Si number density = 20.309869 Si / 1000 Ang^3
#
#
#
# Elastic Constant Matrix: (Units=GPa)
#
#
# Indices 1 2 3 4 5 6 
#
# 1 58.8357 2.8236 49.3105 0.0000 0.0000 0.0000
# 2 2.8236 92.5250 34.1889 0.0000 0.0000 0.0000
# 3 49.3105 34.1889 114.5383 0.0000 0.0000 0.0000
# 4 0.0000 0.0000 0.0000 28.8383 0.0000 0.0000
# 5 0.0000 0.0000 0.0000 0.0000 59.7651 0.0000
# 6 0.0000 0.0000 0.0000 0.0000 0.0000 21.5451
#
#
#
# Elastic Compliance Matrix: (Units=1/GPa)
#
#
# Indices 1 2 3 4 5 6 
#
# 1 0.027865 0.004026 -0.013198 0.000000 0.000000 0.000000
# 2 0.004026 0.012730 -0.005533 0.000000 0.000000 0.000000
# 3 -0.013198 -0.005533 0.016064 0.000000 0.000000 0.000000
# 4 0.000000 0.000000 0.000000 0.034676 0.000000 0.000000
# 5 0.000000 0.000000 0.000000 0.000000 0.016732 0.000000
# 6 0.000000 0.000000 0.000000 0.000000 0.000000 0.046414
#
#
# Mechanical properties :
#
#
# Convention : Reuss Voigt Hill
#
# Bulk Modulus (GPa) = 36.69862 48.72722 42.71292
# Shear Modulus (GPa) = 25.91036 34.00144 29.95590
#
# Velocity S-wave (km/s) = 3.57564 4.09606 3.84467
# Velocity P-wave (km/s) = 5.92921 6.81280 6.38630
#
# Compressibility (1/GPa) = 0.02724898
#
# Stress axis : x y z
#
# Youngs Moduli (GPa) = 35.88794 78.55736 62.25018
#
# Poissons Ratio (x) = -0.31630 0.82157
# Poissons Ratio (y) = -0.14450 0.34444
# Poissons Ratio (z) = 0.47365 0.43467
#
# Static dielectric constant tensor:
#      x y z
#    x 1.711800 0.000000 0.000000 
#    y 0.000000 1.904150 0.000000 
#    z 0.000000 0.000000 1.794870 
# 
# From -- ./inp_files/22926.got.cif
#   From: 2010.05.17/outbox.cif.g08.bks.cpg/sg48_12_cif.got.tgz:22926.got - 2010.06.03 20:39:00.
