data_PCOD9391899
_publ_section_title
;
Structure prediction by ZEFSAII (Michael W. Deem and Ramdas Pophale) SiO2 
 PCOD9391899
Probable space group: P N N N
;
_chemical_formula_sum "Si O2"
_cell_formula_units_Z 48
_cell_length_a 14.546855
_cell_length_b 5.128387
_cell_length_c 28.368154
_cell_angle_alpha 90.000000
_cell_angle_beta 90.000000
_cell_angle_gamma 90.000000
_cell_volume 2116.318247
_symmetry_space_group_name_H-M "P N N N"
_symmetry_group_IT_number 48
_space_group.IT_coordinate_system_code '2'
_symmetry_cell_setting 'orthorhombic'
loop_
_space_group_symop_operation_xyz
x,y,z
1/2-x,1/2-y,z
x,1/2-y,1/2-z
1/2-x,y,1/2-z
-x,-y,-z
1/2+x,1/2+y,-z
-x,1/2+y,1/2+z
1/2+x,-y,1/2+z
loop_
_atom_site_type_symbol
_atom_site_label
_atom_site_fract_x
_atom_site_fract_y
_atom_site_fract_z
Si Si1 0.354824 0.177332 0.838017
Si Si2 0.900477 0.871255 0.607263
Si Si3 0.373595 0.386058 0.202613
Si Si4 0.250000 0.750000 0.360413
Si Si5 0.523998 0.750000 0.250000
Si Si6 0.898482 0.186899 0.100992
Si Si7 0.750000 0.250000 0.477772
Si Si8 0.250000 0.250000 0.040771
O O1 0.250000 0.250000 0.827449
O O2 0.411228 0.131482 0.790226
O O3 0.398909 0.412728 0.870098
O O4 0.353847 0.910329 0.866847
O O5 0.910255 0.806067 0.662509
O O6 0.834651 0.690434 0.575633
O O7 0.002229 0.813558 0.588603
O O8 0.835905 0.129517 0.610431
O O9 0.342689 0.250000 0.250000
O O10 0.294432 0.539791 0.175028
O O11 0.456656 0.563409 0.220803
O O12 0.834900 0.163941 0.055155
O O13 0.726211 0.501509 0.509051
#
# Coordination Sequence:
#
# PCOD9391899 Si02
#       8
#     8   8   8   4   4   8   4   4
#     4  12  24  47  75 113 157 205 254 320 378 462
#     4  12  27  47  76 109 156 200 253 321 392 456
#     4  12  25  44  66 105 151 202 254 305 361 462
#     4  12  25  47  69 104 152 214 255 314 379 455
#     4  12  27  41  70 114 154 202 270 301 377 462
#     4  12  26  49  82 111 151 203 258 321 399 464
#     4  12  27  52  81 113 147 198 259 332 397 488
#     4  12  28  50  79 112 156 191 260 328 400 476
#
# _framework density 22.680897999999999
#
# number of rings (size 3 to 8) (size 9 to 14) (size 15 to 20)
#    0.000    0.000    5.000    4.750    0.000    6.333 
#    0.000    1.667    0.000    0.000    0.000    0.000 
#    0.000    0.000    0.000    0.000    0.000    0.000 
#
# Total GULP energy -268347.491889 kJ/mol
# GULP energy per Si atom -5590.572748 kJ/mol
# Density = 2.262928 g / cm^3
# Si number density = 22.680898 Si / 1000 Ang^3
#
#
#
# Elastic Constant Matrix: (Units=GPa)
#
#
# Indices 1 2 3 4 5 6 
#
# 1 135.9872 -10.3767 24.5949 0.0000 0.0000 0.0000
# 2 -10.3767 86.6201 25.2822 0.0000 0.0000 0.0000
# 3 24.5949 25.2822 121.6318 0.0000 0.0000 0.0000
# 4 0.0000 0.0000 0.0000 32.4342 0.0000 0.0000
# 5 0.0000 0.0000 0.0000 0.0000 18.5410 0.0000
# 6 0.0000 0.0000 0.0000 0.0000 0.0000 8.1914
#
#
#
# Elastic Compliance Matrix: (Units=1/GPa)
#
#
# Indices 1 2 3 4 5 6 
#
# 1 0.007809 0.001486 -0.001888 0.000000 0.000000 0.000000
# 2 0.001486 0.012573 -0.002914 0.000000 0.000000 0.000000
# 3 -0.001888 -0.002914 0.009209 0.000000 0.000000 0.000000
# 4 0.000000 0.000000 0.000000 0.030832 0.000000 0.000000
# 5 0.000000 0.000000 0.000000 0.000000 0.053935 0.000000
# 6 0.000000 0.000000 0.000000 0.000000 0.000000 0.122079
#
#
# Mechanical properties :
#
#
# Convention : Reuss Voigt Hill
#
# Bulk Modulus (GPa) = 43.55441 47.02666 45.29053
# Shear Modulus (GPa) = 19.94253 32.14922 26.04587
#
# Velocity S-wave (km/s) = 2.96846 3.76900 3.39242
# Velocity P-wave (km/s) = 5.56721 6.30234 5.94615
#
# Compressibility (1/GPa) = 0.02295979
#
# Stress axis : x y z
#
# Youngs Moduli (GPa) = 128.06535 79.53385 108.58955
#
# Poissons Ratio (x) = -0.11822 0.20501
# Poissons Ratio (y) = -0.19036 0.31643
# Poissons Ratio (z) = 0.24178 0.23176
#
# Static dielectric constant tensor:
#      x y z
#    x 1.904250 0.000000 0.000000 
#    y 0.000000 1.913890 0.000000 
#    z 0.000000 0.000000 1.834550 
# 
# From -- ./inp_files/37932.got.cif
#   From: 2010.05.17/outbox.cif.g08.bks.cpg/sg48_19_cif.got.tgz:37932.got - 2010.06.03 20:39:00.
