data_PCOD9391399
_publ_section_title
;
Structure prediction by ZEFSAII (Michael W. Deem and Ramdas Pophale) SiO2 
 PCOD9391399
Probable space group: P N N N
;
_chemical_formula_sum "Si O2"
_cell_formula_units_Z 44
_cell_length_a 9.389716
_cell_length_b 27.093975
_cell_length_c 8.567891
_cell_angle_alpha 90.000000
_cell_angle_beta 90.000000
_cell_angle_gamma 90.000000
_cell_volume 2179.712001
_symmetry_space_group_name_H-M "P N N N"
_symmetry_group_IT_number 48
_space_group.IT_coordinate_system_code '2'
_symmetry_cell_setting 'orthorhombic'
loop_
_space_group_symop_operation_xyz
x,y,z
1/2-x,1/2-y,z
x,1/2-y,1/2-z
1/2-x,y,1/2-z
-x,-y,-z
1/2+x,1/2+y,-z
-x,1/2+y,1/2+z
1/2+x,-y,1/2+z
loop_
_atom_site_type_symbol
_atom_site_label
_atom_site_fract_x
_atom_site_fract_y
_atom_site_fract_z
Si Si1 0.934217 0.585391 0.396307
Si Si2 0.750000 0.750000 0.492680
Si Si3 0.502735 0.750000 0.250000
Si Si4 0.714741 0.091160 0.418134
Si Si5 0.196860 0.358246 0.083965
Si Si6 0.425318 0.646399 0.381505
Si Si7 0.250000 0.001248 0.750000
O O1 0.798306 0.615660 0.458039
O O2 0.874004 0.535319 0.319655
O O3 0.050697 0.581137 0.535336
O O4 0.009127 0.615566 0.259353
O O5 0.613854 0.764335 0.386486
O O6 0.782556 0.799423 0.583443
O O7 0.420806 0.702966 0.320980
O O8 0.750000 0.115962 0.250000
O O9 0.780213 0.124032 0.554330
O O10 0.788264 0.037539 0.388708
O O11 0.250000 0.377977 0.250000
O O12 0.035470 0.362645 0.025256
#
# Coordination Sequence:
#
# PCOD9391399 Si02
#       7
#     8   4   4   8   8   8   4
#     4  12  21  44  66  94 128 174 219 268 326 398
#     4   9  17  34  58  98 126 170 206 270 312 388
#     4   9  18  34  67  92 130 160 226 252 318 392
#     4  10  25  43  64  94 134 169 215 276 332 383
#     4  11  21  35  64  96 133 166 213 269 324 381
#     4  11  21  41  66  96 127 175 215 266 325 396
#     4  10  24  44  68  93 127 170 226 272 328 386
#
# _framework density 20.186152
#
# number of rings (size 3 to 8) (size 9 to 14) (size 15 to 20)
#    0.545    0.909    3.636    2.455    0.000    0.727 
#    0.000    1.818    0.000    1.091    0.000    0.000 
#    0.000    0.000    0.000    0.000    0.000    0.000 
#
# Total GULP energy -245100.154871 kJ/mol
# GULP energy per Si atom -5570.458065 kJ/mol
# Density = 2.014021 g / cm^3
# Si number density = 20.186152 Si / 1000 Ang^3
#
#
#
# Elastic Constant Matrix: (Units=GPa)
#
#
# Indices 1 2 3 4 5 6 
#
# 1 95.2276 31.6121 21.2036 0.0000 0.0000 0.0000
# 2 31.6121 94.0306 15.4780 0.0000 0.0000 0.0000
# 3 21.2036 15.4780 71.8404 0.0000 0.0000 0.0000
# 4 0.0000 0.0000 0.0000 8.2641 0.0000 0.0000
# 5 0.0000 0.0000 0.0000 0.0000 32.2630 0.0000
# 6 0.0000 0.0000 0.0000 0.0000 0.0000 49.4611
#
#
#
# Elastic Compliance Matrix: (Units=1/GPa)
#
#
# Indices 1 2 3 4 5 6 
#
# 1 0.012360 -0.003686 -0.002854 0.000000 0.000000 0.000000
# 2 -0.003686 0.012125 -0.001524 0.000000 0.000000 0.000000
# 3 -0.002854 -0.001524 0.015091 0.000000 0.000000 0.000000
# 4 0.000000 0.000000 0.000000 0.121005 0.000000 0.000000
# 5 0.000000 0.000000 0.000000 0.000000 0.030995 0.000000
# 6 0.000000 0.000000 0.000000 0.000000 0.000000 0.020218
#
#
# Mechanical properties :
#
#
# Convention : Reuss Voigt Hill
#
# Bulk Modulus (GPa) = 42.64876 44.18734 43.41805
# Shear Modulus (GPa) = 21.21003 30.85129 26.03066
#
# Velocity S-wave (km/s) = 3.24500 3.91364 3.59490
# Velocity P-wave (km/s) = 5.93411 6.50842 6.22789
#
# Compressibility (1/GPa) = 0.02344734
#
# Stress axis : x y z
#
# Youngs Moduli (GPa) = 80.90538 82.47548 66.26655
#
# Poissons Ratio (x) = 0.30397 0.18913
# Poissons Ratio (y) = 0.29818 0.10102
# Poissons Ratio (z) = 0.23091 0.12573
#
# Static dielectric constant tensor:
#      x y z
#    x 1.771400 0.000000 0.000000 
#    y 0.000000 1.711410 0.000000 
#    z 0.000000 0.000000 1.757600 
# 
# From -- ./inp_files/9388.got.cif
#   From: 2010.05.17/outbox.cif.g08.bks.cpg/sg48_5_cif.got.tgz:9388.got - 2010.06.03 20:39:00.
