data_PCOD9391336
_publ_section_title
;
Structure prediction by ZEFSAII (Michael W. Deem and Ramdas Pophale) SiO2 
 PCOD9391336
Probable space group: P N N N
;
_chemical_formula_sum "Si O2"
_cell_formula_units_Z 22
_cell_length_a 11.238767
_cell_length_b 5.513256
_cell_length_c 16.229027
_cell_angle_alpha 90.000000
_cell_angle_beta 90.000000
_cell_angle_gamma 90.000000
_cell_volume 1005.586210
_symmetry_space_group_name_H-M "P N N N"
_symmetry_group_IT_number 48
_space_group.IT_coordinate_system_code '2'
_symmetry_cell_setting 'orthorhombic'
loop_
_space_group_symop_operation_xyz
x,y,z
1/2-x,1/2-y,z
x,1/2-y,1/2-z
1/2-x,y,1/2-z
-x,-y,-z
1/2+x,1/2+y,-z
-x,1/2+y,1/2+z
1/2+x,-y,1/2+z
loop_
_atom_site_type_symbol
_atom_site_label
_atom_site_fract_x
_atom_site_fract_y
_atom_site_fract_z
Si Si1 0.305612 0.002286 0.383631
Si Si2 0.750000 0.250000 0.250000
Si Si3 0.565948 0.608241 0.166738
Si Si4 0.750000 0.750000 0.455675
O O1 0.250000 0.750000 0.353325
O O2 0.446245 0.999888 0.370135
O O3 0.250000 0.250000 0.347028
O O4 0.274660 0.032082 0.480701
O O5 0.664216 0.412662 0.193800
O O6 0.534643 0.750000 0.250000
O O7 0.634452 0.777427 0.101402
#
# Coordination Sequence:
#
# PCOD9391336 Si02
#       4
#     8   2   8   4
#     4  10  27  46  73 107 145 191 239 299 367 431
#     4  12  26  44  74 102 144 192 252 302 366 416
#     4  12  25  46  70 106 147 191 249 299 362 436
#     4  10  23  46  70 109 142 198 240 302 358 431
#
# _framework density 21.877786
#
# number of rings (size 3 to 8) (size 9 to 14) (size 15 to 20)
#    1.091    0.000    3.636    1.091    7.636    2.182 
#    0.000    0.000    0.000    0.000    0.000    0.000 
#    0.000    0.000    0.000    0.000    0.000    0.000 
#
# Total GULP energy -122862.758961 kJ/mol
# GULP energy per Si atom -5584.670862 kJ/mol
# Density = 2.182799 g / cm^3
# Si number density = 21.877786 Si / 1000 Ang^3
#
#
#
# Elastic Constant Matrix: (Units=GPa)
#
#
# Indices 1 2 3 4 5 6 
#
# 1 207.0632 75.9219 54.1979 0.0000 0.0000 0.0000
# 2 75.9219 116.0710 39.5567 0.0000 0.0000 0.0000
# 3 54.1979 39.5567 111.2046 0.0000 0.0000 0.0000
# 4 0.0000 0.0000 0.0000 40.5524 0.0000 0.0000
# 5 0.0000 0.0000 0.0000 0.0000 -15.7489 0.0000
# 6 0.0000 0.0000 0.0000 0.0000 0.0000 23.4795
#
#
#
# Elastic Compliance Matrix: (Units=1/GPa)
#
#
# Indices 1 2 3 4 5 6 
#
# 1 0.006703 -0.003722 -0.001943 0.000000 0.000000 0.000000
# 2 -0.003722 0.011871 -0.002409 0.000000 0.000000 0.000000
# 3 -0.001943 -0.002409 0.010796 0.000000 0.000000 0.000000
# 4 0.000000 0.000000 0.000000 0.024659 0.000000 0.000000
# 5 0.000000 0.000000 0.000000 0.000000 -0.063497 0.000000
# 6 0.000000 0.000000 0.000000 0.000000 0.000000 0.042590
#
#
# Mechanical properties :
#
#
# Convention : Reuss Voigt Hill
#
# Bulk Modulus (GPa) = 75.62688 85.96577 80.79632
# Shear Modulus (GPa) = 93.14953 27.30076 60.22514
#
# Velocity S-wave (km/s) = 6.53220 3.53636 5.25240
# Velocity P-wave (km/s) = 9.56743 7.48688 8.59038
#
# Compressibility (1/GPa) = 0.01322281
#
# Stress axis : x y z
#
# Youngs Moduli (GPa) = 149.19341 84.23953 92.62704
#
# Poissons Ratio (x) = 0.31355 0.17995
# Poissons Ratio (y) = 0.55532 0.22310
# Poissons Ratio (z) = 0.28984 0.20289
#
# Static dielectric constant tensor:
#      x y z
#    x 1.760450 0.000000 0.000000 
#    y 0.000000 1.837890 0.000000 
#    z 0.000000 0.000000 1.845480 
# 
# From -- ./inp_files/2710.got.cif
#   From: 2010.05.17/outbox.cif.g08.bks.cpg/sg48_2_cif.got.tgz:2710.got - 2010.06.03 20:39:00.
