data_PCOD9391694
_publ_section_title
;
Structure prediction by ZEFSAII (Michael W. Deem and Ramdas Pophale) SiO2 
 PCOD9391694
Probable space group: P N N N
;
_chemical_formula_sum "Si O2"
_cell_formula_units_Z 56
_cell_length_a 5.723742
_cell_length_b 31.825533
_cell_length_c 14.061789
_cell_angle_alpha 90.000000
_cell_angle_beta 90.000000
_cell_angle_gamma 90.000000
_cell_volume 2561.511513
_symmetry_space_group_name_H-M "P N N N"
_symmetry_group_IT_number 48
_space_group.IT_coordinate_system_code '2'
_symmetry_cell_setting 'orthorhombic'
loop_
_space_group_symop_operation_xyz
x,y,z
1/2-x,1/2-y,z
x,1/2-y,1/2-z
1/2-x,y,1/2-z
-x,-y,-z
1/2+x,1/2+y,-z
-x,1/2+y,1/2+z
1/2+x,-y,1/2+z
loop_
_atom_site_type_symbol
_atom_site_label
_atom_site_fract_x
_atom_site_fract_y
_atom_site_fract_z
Si Si1 0.283291 0.903808 0.356069
Si Si2 0.255084 0.505994 0.053542
Si Si3 0.075112 0.366841 0.993390
Si Si4 0.499394 0.818746 0.307715
Si Si5 0.335814 0.420786 0.144630
Si Si6 0.814889 0.347163 0.357385
Si Si7 0.395586 0.290691 0.000088
O O1 0.250000 0.918915 0.250000
O O2 0.290120 0.945876 0.416493
O O3 0.061002 0.881225 0.401391
O O4 0.478736 0.867377 0.348058
O O5 0.285053 0.470297 0.134816
O O6 0.500000 0.500000 0.000000
O O7 0.000000 0.500000 0.000000
O O8 0.904834 0.350875 0.075687
O O9 0.215073 0.402955 0.048553
O O10 0.217280 0.326296 0.968572
O O11 0.750000 0.812773 0.250000
O O12 0.471165 0.787499 0.399107
O O13 0.250000 0.814837 0.250000
O O14 0.250000 0.407732 0.250000
O O15 0.577237 0.394563 0.140681
O O16 0.750000 0.335991 0.250000
O O17 0.973185 0.312305 0.410716
O O18 0.250000 0.250000 0.027196
#
# Coordination Sequence:
#
# PCOD9391694 Si02
#       7
#     8   8   8   8   8   8   8
#     4  11  23  45  71 102 144 194 239 294 368 440
#     4  12  27  43  67 104 146 188 241 307 363 429
#     4  11  22  45  71  99 142 188 242 303 370 449
#     4  11  25  47  76 109 145 194 244 296 368 453
#     4  11  23  41  71  99 137 185 249 305 363 439
#     4  11  23  44  75 104 138 201 249 304 379 455
#     4  11  26  45  72 109 147 187 244 315 382 446
#
# _framework density 21.862090999999999
#
# number of rings (size 3 to 8) (size 9 to 14) (size 15 to 20)
#    0.000    0.857    4.286    3.000    2.000    3.143 
#    0.000    7.143    0.000    0.000    0.000    0.000 
#    0.000    0.000    0.000    0.000    0.000    0.000 
#
# Total GULP energy -311759.333829 kJ/mol
# GULP energy per Si atom -5567.130961 kJ/mol
# Density = 2.181233 g / cm^3
# Si number density = 21.862091 Si / 1000 Ang^3
#
#
#
# Elastic Constant Matrix: (Units=GPa)
#
#
# Indices 1 2 3 4 5 6 
#
# 1 91.5667 39.2813 60.1652 0.0000 0.0000 0.0000
# 2 39.2813 63.1653 9.8029 0.0000 0.0000 0.0000
# 3 60.1652 9.8029 92.4580 0.0000 0.0000 0.0000
# 4 0.0000 0.0000 0.0000 -72.2016 0.0000 0.0000
# 5 0.0000 0.0000 0.0000 0.0000 14.2695 0.0000
# 6 0.0000 0.0000 0.0000 0.0000 0.0000 78.5595
#
#
#
# Elastic Compliance Matrix: (Units=1/GPa)
#
#
# Indices 1 2 3 4 5 6 
#
# 1 0.028580 -0.015136 -0.016993 0.000000 0.000000 0.000000
# 2 -0.015136 0.024112 0.007293 0.000000 0.000000 0.000000
# 3 -0.016993 0.007293 0.021100 0.000000 0.000000 0.000000
# 4 0.000000 0.000000 0.000000 -0.013850 0.000000 0.000000
# 5 0.000000 0.000000 0.000000 0.000000 0.070080 0.000000
# 6 0.000000 0.000000 0.000000 0.000000 0.000000 0.012729
#
#
# Mechanical properties :
#
#
# Convention : Reuss Voigt Hill
#
# Bulk Modulus (GPa) = 41.45852 51.74322 46.60087
# Shear Modulus (GPa) = 24.94230 13.32149 19.13190
#
# Velocity S-wave (km/s) = 3.38137 2.47116 2.96145
# Velocity P-wave (km/s) = 5.85233 5.64461 5.74941
#
# Compressibility (1/GPa) = 0.02412049
#
# Stress axis : x y z
#
# Youngs Moduli (GPa) = 34.99010 41.47247 47.39291
#
# Poissons Ratio (x) = 0.62772 0.80534
# Poissons Ratio (y) = 0.52961 -0.34563
# Poissons Ratio (z) = 0.59458 -0.30245
#
# Static dielectric constant tensor:
#      x y z
#    x 1.933680 0.000000 0.000000 
#    y 0.000000 1.821840 0.000000 
#    z 0.000000 0.000000 0.565090 
# 
# From -- ./inp_files/24550.got.cif
#   From: 2010.05.17/outbox.cif.g08.bks.cpg/sg48_13_cif.got.tgz:24550.got - 2010.06.03 20:39:00.
