data_PCOD9391056
_publ_section_title
;
Structure prediction by ZEFSAII (Michael W. Deem and Ramdas Pophale) SiO2 
 PCOD9391056
Probable space group: P N N N
;
_chemical_formula_sum "Si O2"
_cell_formula_units_Z 38
_cell_length_a 11.557314
_cell_length_b 24.276327
_cell_length_c 6.027678
_cell_angle_alpha 90.000000
_cell_angle_beta 90.000000
_cell_angle_gamma 90.000000
_cell_volume 1691.180396
_symmetry_space_group_name_H-M "P N N N"
_symmetry_group_IT_number 48
_space_group.IT_coordinate_system_code '2'
_symmetry_cell_setting 'orthorhombic'
loop_
_space_group_symop_operation_xyz
x,y,z
1/2-x,1/2-y,z
x,1/2-y,1/2-z
1/2-x,y,1/2-z
-x,-y,-z
1/2+x,1/2+y,-z
-x,1/2+y,1/2+z
1/2+x,-y,1/2+z
loop_
_atom_site_type_symbol
_atom_site_label
_atom_site_fract_x
_atom_site_fract_y
_atom_site_fract_z
Si Si1 0.750000 0.389699 0.250000
Si Si2 0.955382 0.137083 0.555736
Si Si3 0.370893 0.959020 0.373888
Si Si4 0.616320 0.582388 0.810392
Si Si5 0.628617 0.679450 0.124325
Si Si6 0.250000 0.250000 0.250000
O O1 0.664907 0.354920 0.414834
O O2 0.834059 0.429568 0.395157
O O3 0.927937 0.086677 0.719113
O O4 0.047298 0.113789 0.380324
O O5 0.020695 0.184507 0.702011
O O6 0.250000 0.968497 0.250000
O O7 0.423976 0.020342 0.358075
O O8 0.750000 0.582571 0.750000
O O9 0.609717 0.619040 0.027815
O O10 0.750000 0.681884 0.250000
O O11 0.660999 0.716755 0.910523
#
# Coordination Sequence:
#
# PCOD9391056 Si02
#       6
#     4   8   8   8   8   2
#     4  10  22  40  56  92 140 188 244 268 318 394
#     4  11  22  39  61  93 136 191 225 279 328 411
#     4   9  21  35  59  89 139 190 239 274 319 391
#     4  11  21  37  60  95 136 189 229 276 335 411
#     4  12  24  41  67  94 134 178 223 283 367 425
#     4  12  26  48  64  98 136 170 222 304 368 468
#
# _framework density 22.469514
#
# number of rings (size 3 to 8) (size 9 to 14) (size 15 to 20)
#    0.000    1.263    3.158    2.211    1.474    5.053 
#    0.000    0.000    0.000    0.000    0.000    0.000 
#    0.000  642.526    0.000    0.000    0.000    0.000 
#
# Total GULP energy -211789.072289 kJ/mol
# GULP energy per Si atom -5573.396639 kJ/mol
# Density = 2.241837 g / cm^3
# Si number density = 22.469514 Si / 1000 Ang^3
#
#
#
# Elastic Constant Matrix: (Units=GPa)
#
#
# Indices 1 2 3 4 5 6 
#
# 1 128.3100 42.7792 58.7613 0.0000 0.0000 0.0000
# 2 42.7792 60.7436 44.3579 0.0000 0.0000 0.0000
# 3 58.7613 44.3579 122.5589 0.0000 0.0000 0.0000
# 4 0.0000 0.0000 0.0000 38.8527 0.0000 0.0000
# 5 0.0000 0.0000 0.0000 0.0000 37.5521 0.0000
# 6 0.0000 0.0000 0.0000 0.0000 0.0000 -3.9449
#
#
#
# Elastic Compliance Matrix: (Units=1/GPa)
#
#
# Indices 1 2 3 4 5 6 
#
# 1 0.011138 -0.005361 -0.003400 0.000000 0.000000 0.000000
# 2 -0.005361 0.024958 -0.006462 0.000000 0.000000 0.000000
# 3 -0.003400 -0.006462 0.012128 0.000000 0.000000 0.000000
# 4 0.000000 0.000000 0.000000 0.025738 0.000000 0.000000
# 5 0.000000 0.000000 0.000000 0.000000 0.026630 0.000000
# 6 0.000000 0.000000 0.000000 0.000000 0.000000 -0.253494
#
#
# Mechanical properties :
#
#
# Convention : Reuss Voigt Hill
#
# Bulk Modulus (GPa) = 56.25278 67.04547 61.64912
# Shear Modulus (GPa) = -42.90777 25.53961 -8.68408
#
# Velocity S-wave (km/s) = -4.37464 3.37506 -1.96805
# Velocity P-wave (km/s) = 0.65353 6.71500 4.72568
#
# Compressibility (1/GPa) = 0.01777690
#
# Stress axis : x y z
#
# Youngs Moduli (GPa) = 89.78186 40.06794 82.45186
#
# Poissons Ratio (x) = 0.21482 0.28031
# Poissons Ratio (y) = 0.48136 0.53283
# Poissons Ratio (z) = 0.30523 0.25893
#
# Static dielectric constant tensor:
#      x y z
#    x 1.790470 0.000000 0.000000 
#    y 0.000000 1.845860 0.000000 
#    z 0.000000 0.000000 1.895150 
# 
# From -- ./inp_files/2464.got.cif
#   From: 2010.05.17/outbox.cif.g08.bks.cpg/sg48_2_cif.got.tgz:2464.got - 2010.06.03 20:39:00.
