data_PCOD9391458
_publ_section_title
;
Structure prediction by ZEFSAII (Michael W. Deem and Ramdas Pophale) SiO2 
 PCOD9391458
Probable space group: P N N N
;
_chemical_formula_sum "Si O2"
_cell_formula_units_Z 48
_cell_length_a 8.417097
_cell_length_b 28.863501
_cell_length_c 9.309744
_cell_angle_alpha 90.000000
_cell_angle_beta 90.000000
_cell_angle_gamma 90.000000
_cell_volume 2261.773330
_symmetry_space_group_name_H-M "P N N N"
_symmetry_group_IT_number 48
_space_group.IT_coordinate_system_code '2'
_symmetry_cell_setting 'orthorhombic'
loop_
_space_group_symop_operation_xyz
x,y,z
1/2-x,1/2-y,z
x,1/2-y,1/2-z
1/2-x,y,1/2-z
-x,-y,-z
1/2+x,1/2+y,-z
-x,1/2+y,1/2+z
1/2+x,-y,1/2+z
loop_
_atom_site_type_symbol
_atom_site_label
_atom_site_fract_x
_atom_site_fract_y
_atom_site_fract_z
Si Si1 0.934944 0.407403 0.788670
Si Si2 0.938922 0.751223 0.585665
Si Si3 0.453511 0.654780 0.036866
Si Si4 0.931101 0.900547 0.787774
Si Si5 0.085665 0.847794 0.545352
Si Si6 0.429630 0.504623 0.674205
O O1 0.750000 0.416523 0.750000
O O2 0.974340 0.361437 0.698914
O O3 0.024711 0.454826 0.762175
O O4 0.969562 0.391149 0.949732
O O5 0.750000 0.750000 0.593635
O O6 0.002539 0.750000 0.750000
O O7 0.984820 0.705182 0.501279
O O8 0.001868 0.798888 0.518812
O O9 0.537857 0.613018 0.951031
O O10 0.269442 0.655704 0.992819
O O11 0.750000 0.889951 0.750000
O O12 0.043987 0.864252 0.704438
O O13 0.974150 0.952196 0.740051
O O14 0.250000 0.512845 0.750000
O O15 0.500000 0.500000 0.500000
#
# Coordination Sequence:
#
# PCOD9391458 Si02
#       6
#     8   8   8   8   8   8
#     4  10  25  46  69  98 140 177 228 288 354 417
#     4  11  23  39  63  97 136 175 227 283 346 419
#     4  11  24  41  69 100 129 182 226 287 348 417
#     4  12  25  42  68  98 136 177 231 284 351 416
#     4  11  22  43  68  96 135 175 228 283 346 423
#     4  12  27  46  74 104 141 189 239 292 359 434
#
# _framework density 21.222287000000001
#
# number of rings (size 3 to 8) (size 9 to 14) (size 15 to 20)
#    0.000    0.833    3.333    3.500    4.667    3.333 
#    0.000    3.333    0.000    0.000    0.000    0.000 
#    0.000    0.000    0.000    0.000    0.000    0.000 
#
# Total GULP energy -267413.377446 kJ/mol
# GULP energy per Si atom -5571.112030 kJ/mol
# Density = 2.117398 g / cm^3
# Si number density = 21.222287 Si / 1000 Ang^3
#
#
#
# Elastic Constant Matrix: (Units=GPa)
#
#
# Indices 1 2 3 4 5 6 
#
# 1 49.3728 14.7774 6.2339 0.0000 0.0000 0.0000
# 2 14.7774 121.5263 -13.0941 0.0000 0.0000 0.0000
# 3 6.2339 -13.0941 21.0330 0.0000 0.0000 0.0000
# 4 0.0000 0.0000 0.0000 33.1436 0.0000 0.0000
# 5 0.0000 0.0000 0.0000 0.0000 9.4487 0.0000
# 6 0.0000 0.0000 0.0000 0.0000 0.0000 75.7273
#
#
#
# Elastic Compliance Matrix: (Units=1/GPa)
#
#
# Indices 1 2 3 4 5 6 
#
# 1 0.022495 -0.003702 -0.008972 0.000000 0.000000 0.000000
# 2 -0.003702 0.009430 0.006968 0.000000 0.000000 0.000000
# 3 -0.008972 0.006968 0.054541 0.000000 0.000000 0.000000
# 4 0.000000 0.000000 0.000000 0.030172 0.000000 0.000000
# 5 0.000000 0.000000 0.000000 0.000000 0.105835 0.000000
# 6 0.000000 0.000000 0.000000 0.000000 0.000000 0.013205
#
#
# Mechanical properties :
#
#
# Convention : Reuss Voigt Hill
#
# Bulk Modulus (GPa) = 13.32391 23.08517 18.20454
# Shear Modulus (GPa) = 18.37506 35.93158 27.15332
#
# Velocity S-wave (km/s) = 2.94570 4.11920 3.58085
# Velocity P-wave (km/s) = 4.22628 5.79009 5.06886
#
# Compressibility (1/GPa) = 0.07505304
#
# Stress axis : x y z
#
# Youngs Moduli (GPa) = 44.45444 106.04922 18.33474
#
# Poissons Ratio (x) = 0.39260 0.16450
# Poissons Ratio (y) = 0.16457 -0.12775
# Poissons Ratio (z) = 0.39884 -0.73891
#
# Static dielectric constant tensor:
#      x y z
#    x 1.782410 0.000000 0.000000 
#    y 0.000000 1.705440 0.000000 
#    z 0.000000 0.000000 1.918570 
# 
# From -- ./inp_files/9504.got.cif
#   From: 2010.05.17/outbox.cif.g08.bks.cpg/sg48_5_cif.got.tgz:9504.got - 2010.06.03 20:39:00.
