data_PCOD9391798
_publ_section_title
;
Structure prediction by ZEFSAII (Michael W. Deem and Ramdas Pophale) SiO2 
 PCOD9391798
Probable space group: P N N N
;
_chemical_formula_sum "Si O2"
_cell_formula_units_Z 32
_cell_length_a 20.812264
_cell_length_b 7.673650
_cell_length_c 8.433041
_cell_angle_alpha 90.000000
_cell_angle_beta 90.000000
_cell_angle_gamma 90.000000
_cell_volume 1346.807496
_symmetry_space_group_name_H-M "P N N N"
_symmetry_group_IT_number 48
_space_group.IT_coordinate_system_code '2'
_symmetry_cell_setting 'orthorhombic'
loop_
_space_group_symop_operation_xyz
x,y,z
1/2-x,1/2-y,z
x,1/2-y,1/2-z
1/2-x,y,1/2-z
-x,-y,-z
1/2+x,1/2+y,-z
-x,1/2+y,1/2+z
1/2+x,-y,1/2+z
loop_
_atom_site_type_symbol
_atom_site_label
_atom_site_fract_x
_atom_site_fract_y
_atom_site_fract_z
Si Si1 0.496285 0.297117 0.938440
Si Si2 0.140531 0.298507 0.071107
Si Si3 0.314984 0.507573 0.849826
Si Si4 0.867195 0.348155 0.045153
O O1 0.489526 0.250000 0.750000
O O2 0.562843 0.210291 0.991755
O O3 0.500000 0.500000 0.000000
O O4 0.434941 0.216584 0.027836
O O5 0.152127 0.250000 0.250000
O O6 0.161264 0.497309 0.057538
O O7 0.173224 0.166586 0.946949
O O8 0.250000 0.502405 0.750000
O O9 0.369031 0.557022 0.718027
O O10 0.322062 0.679433 0.955531
#
# Coordination Sequence:
#
# PCOD9391798 Si02
#       4
#     8   8   8   8
#     4  12  25  45  76 116 168 209 259 332 405 491
#     4  12  27  45  77 117 160 205 258 333 404 481
#     4  11  26  49  77 106 149 209 275 330 393 481
#     4  11  24  44  76 107 151 205 265 316 394 469
#
# _framework density 23.759892000000001
#
# number of rings (size 3 to 8) (size 9 to 14) (size 15 to 20)
#    0.000    0.500    2.500    6.000    7.000    3.000 
#    0.000    2.500    5.500    0.000    0.000    0.000 
#    0.000    0.000    0.000    0.000    0.000    0.000 
#
# Total GULP energy -179126.170070 kJ/mol
# GULP energy per Si atom -5597.692815 kJ/mol
# Density = 2.370581 g / cm^3
# Si number density = 23.759892 Si / 1000 Ang^3
#
#
#
# Elastic Constant Matrix: (Units=GPa)
#
#
# Indices 1 2 3 4 5 6 
#
# 1 101.5492 62.0762 22.5425 0.0000 0.0000 0.0000
# 2 62.0762 207.1962 55.3115 0.0000 0.0000 0.0000
# 3 22.5425 55.3115 80.7611 0.0000 0.0000 0.0000
# 4 0.0000 0.0000 0.0000 44.4217 0.0000 0.0000
# 5 0.0000 0.0000 0.0000 0.0000 43.0147 0.0000
# 6 0.0000 0.0000 0.0000 0.0000 0.0000 28.6757
#
#
#
# Elastic Compliance Matrix: (Units=1/GPa)
#
#
# Indices 1 2 3 4 5 6 
#
# 1 0.012134 -0.003342 -0.001098 0.000000 0.000000 0.000000
# 2 -0.003342 0.006827 -0.003743 0.000000 0.000000 0.000000
# 3 -0.001098 -0.003743 0.015252 0.000000 0.000000 0.000000
# 4 0.000000 0.000000 0.000000 0.022512 0.000000 0.000000
# 5 0.000000 0.000000 0.000000 0.000000 0.023248 0.000000
# 6 0.000000 0.000000 0.000000 0.000000 0.000000 0.034873
#
#
# Mechanical properties :
#
#
# Convention : Reuss Voigt Hill
#
# Bulk Modulus (GPa) = 56.03088 74.37409 65.20248
# Shear Modulus (GPa) = 36.45380 39.86084 38.15732
#
# Velocity S-wave (km/s) = 3.92121 4.10036 4.01178
# Velocity P-wave (km/s) = 6.64338 7.33400 6.99722
#
# Compressibility (1/GPa) = 0.01784730
#
# Stress axis : x y z
#
# Youngs Moduli (GPa) = 82.41082 146.48123 65.56577
#
# Poissons Ratio (x) = 0.48959 0.07198
# Poissons Ratio (y) = 0.27545 0.24539
# Poissons Ratio (z) = 0.09048 0.54822
#
# Static dielectric constant tensor:
#      x y z
#    x 1.898170 0.000000 0.000000 
#    y 0.000000 1.963780 0.000000 
#    z 0.000000 0.000000 1.988110 
# 
# From -- ./inp_files/14748.got.cif
#   From: 2010.05.17/outbox.cif.g08.bks.cpg/sg48_8_cif.got.tgz:14748.got - 2010.06.03 20:39:00.
