data_PCOD9391431
_publ_section_title
;
Structure prediction by ZEFSAII (Michael W. Deem and Ramdas Pophale) SiO2 
 PCOD9391431
Probable space group: P N N N
;
_chemical_formula_sum "Si O2"
_cell_formula_units_Z 38
_cell_length_a 25.595380
_cell_length_b 5.018501
_cell_length_c 12.183506
_cell_angle_alpha 90.000000
_cell_angle_beta 90.000000
_cell_angle_gamma 90.000000
_cell_volume 1564.976708
_symmetry_space_group_name_H-M "P N N N"
_symmetry_group_IT_number 48
_space_group.IT_coordinate_system_code '2'
_symmetry_cell_setting 'orthorhombic'
loop_
_space_group_symop_operation_xyz
x,y,z
1/2-x,1/2-y,z
x,1/2-y,1/2-z
1/2-x,y,1/2-z
-x,-y,-z
1/2+x,1/2+y,-z
-x,1/2+y,1/2+z
1/2+x,-y,1/2+z
loop_
_atom_site_type_symbol
_atom_site_label
_atom_site_fract_x
_atom_site_fract_y
_atom_site_fract_z
Si Si1 0.711195 0.005119 0.578139
Si Si2 0.554507 0.348644 0.576053
Si Si3 0.445915 0.155205 0.574281
Si Si4 0.155222 0.957989 0.850738
Si Si5 0.250000 0.250000 0.750000
Si Si6 0.643082 0.250000 0.750000
O O1 0.750000 0.250000 0.580801
O O2 0.669967 0.080762 0.480216
O O3 0.678860 0.026351 0.691817
O O4 0.750000 0.750000 0.564426
O O5 0.500041 0.246504 0.629280
O O6 0.554464 0.645549 0.528815
O O7 0.603375 0.340460 0.655555
O O8 0.555884 0.147124 0.471316
O O9 0.392346 0.166941 0.640562
O O10 0.143158 0.750000 0.750000
O O11 0.211158 0.071313 0.817507
#
# Coordination Sequence:
#
# PCOD9391431 Si02
#       6
#     8   8   8   8   2   4
#     4  12  29  51  75 112 162 210 269 332 402 480
#     4  10  24  47  76 114 149 206 256 326 395 486
#     4  10  24  49  75 108 159 196 264 325 403 469
#     4  12  27  48  79 113 156 213 271 338 404 479
#     4  12  26  42  76 106 152 204 274 324 400 474
#     4  12  27  49  84 114 161 213 268 326 402 498
#
# _framework density 24.281510000000001
#
# number of rings (size 3 to 8) (size 9 to 14) (size 15 to 20)
#    0.000    0.842    3.158    1.895    5.895    5.053 
#    7.579    0.000    0.000    0.000    0.000    0.000 
#    0.000    0.000    0.000    0.000    0.000    0.000 
#
# Total GULP energy -211772.179239 kJ/mol
# GULP energy per Si atom -5572.952085 kJ/mol
# Density = 2.422624 g / cm^3
# Si number density = 24.281510 Si / 1000 Ang^3
#
#
#
# Elastic Constant Matrix: (Units=GPa)
#
#
# Indices 1 2 3 4 5 6 
#
# 1 200.0099 41.1709 61.9064 0.0000 0.0000 0.0000
# 2 41.1709 90.6730 28.3469 0.0000 0.0000 0.0000
# 3 61.9064 28.3469 133.2142 0.0000 0.0000 0.0000
# 4 0.0000 0.0000 0.0000 9.8382 0.0000 0.0000
# 5 0.0000 0.0000 0.0000 0.0000 58.3984 0.0000
# 6 0.0000 0.0000 0.0000 0.0000 0.0000 40.9694
#
#
#
# Elastic Compliance Matrix: (Units=1/GPa)
#
#
# Indices 1 2 3 4 5 6 
#
# 1 0.006174 -0.002042 -0.002434 0.000000 0.000000 0.000000
# 2 -0.002042 0.012490 -0.001709 0.000000 0.000000 0.000000
# 3 -0.002434 -0.001709 0.009002 0.000000 0.000000 0.000000
# 4 0.000000 0.000000 0.000000 0.101644 0.000000 0.000000
# 5 0.000000 0.000000 0.000000 0.000000 0.017124 0.000000
# 6 0.000000 0.000000 0.000000 0.000000 0.000000 0.024408
#
#
# Mechanical properties :
#
#
# Convention : Reuss Voigt Hill
#
# Bulk Modulus (GPa) = 65.38218 76.30505 70.84362
# Shear Modulus (GPa) = 26.55188 41.33940 33.94564
#
# Velocity S-wave (km/s) = 3.31040 4.13062 3.74305
# Velocity P-wave (km/s) = 6.44956 7.36497 6.92241
#
# Compressibility (1/GPa) = 0.01529469
#
# Stress axis : x y z
#
# Youngs Moduli (GPa) = 161.98007 80.06344 111.09101
#
# Poissons Ratio (x) = 0.16350 0.27044
# Poissons Ratio (y) = 0.33078 0.18983
# Poissons Ratio (z) = 0.39433 0.13681
#
# Static dielectric constant tensor:
#      x y z
#    x 2.385050 0.000000 0.000000 
#    y 0.000000 1.832620 0.000000 
#    z 0.000000 0.000000 2.158410 
# 
# From -- ./inp_files/23539.got.cif
#   From: 2010.05.17/outbox.cif.g08.bks.cpg/sg48_12_cif.got.tgz:23539.got - 2010.06.03 20:39:00.
