data_PCOD9391065
_publ_section_title
;
Structure prediction by ZEFSAII (Michael W. Deem and Ramdas Pophale) SiO2 
 PCOD9391065
Probable space group: P N N N
;
_chemical_formula_sum "Si O2"
_cell_formula_units_Z 40
_cell_length_a 10.220320
_cell_length_b 14.429209
_cell_length_c 12.025908
_cell_angle_alpha 90.000000
_cell_angle_beta 90.000000
_cell_angle_gamma 90.000000
_cell_volume 1773.474282
_symmetry_space_group_name_H-M "P N N N"
_symmetry_group_IT_number 48
_space_group.IT_coordinate_system_code '2'
_symmetry_cell_setting 'orthorhombic'
loop_
_space_group_symop_operation_xyz
x,y,z
1/2-x,1/2-y,z
x,1/2-y,1/2-z
1/2-x,y,1/2-z
-x,-y,-z
1/2+x,1/2+y,-z
-x,1/2+y,1/2+z
1/2+x,-y,1/2+z
loop_
_atom_site_type_symbol
_atom_site_label
_atom_site_fract_x
_atom_site_fract_y
_atom_site_fract_z
Si Si1 0.206067 0.899347 0.374886
Si Si2 0.440457 0.276549 0.620735
Si Si3 0.961393 0.106026 0.013162
Si Si4 0.103982 0.641903 0.756159
Si Si5 0.590227 0.579545 0.552541
O O1 0.250000 0.880457 0.250000
O O2 0.077640 0.834419 0.383552
O O3 0.313826 0.875394 0.467667
O O4 0.191329 0.011258 0.386761
O O5 0.408288 0.250000 0.750000
O O6 0.455471 0.180172 0.555988
O O7 0.358975 0.348469 0.541364
O O8 0.969815 0.118653 0.143809
O O9 0.000000 0.000000 0.000000
O O10 0.124257 0.750000 0.750000
O O11 0.250000 0.596335 0.750000
O O12 0.009955 0.624373 0.860046
O O13 0.500000 0.500000 0.500000
#
# Coordination Sequence:
#
# PCOD9391065 Si02
#       5
#     8   8   8   8   8
#     4  11  22  40  69  99 127 170 226 281 333 389
#     4  11  22  40  67  95 128 167 222 278 326 395
#     4  12  25  40  61  96 130 167 220 271 328 389
#     4  11  22  38  63  92 124 161 208 266 325 387
#     4  10  22  40  64  94 131 166 212 272 342 390
#
# _framework density 22.554596
#
# number of rings (size 3 to 8) (size 9 to 14) (size 15 to 20)
#    0.000    1.000    4.000    4.200    5.600    0.000 
#    0.000    1.000    0.000    1.200    0.000    0.000 
#    0.000    0.000    0.000    0.000    0.000    0.000 
#
# Total GULP energy -223015.140707 kJ/mol
# GULP energy per Si atom -5575.378518 kJ/mol
# Density = 2.250326 g / cm^3
# Si number density = 22.554596 Si / 1000 Ang^3
#
#
#
# Elastic Constant Matrix: (Units=GPa)
#
#
# Indices 1 2 3 4 5 6 
#
# 1 58.1353 11.6727 12.0193 0.0000 0.0000 0.0000
# 2 11.6727 148.4836 51.2319 0.0000 0.0000 0.0000
# 3 12.0193 51.2319 162.7688 0.0000 0.0000 0.0000
# 4 0.0000 0.0000 0.0000 29.4388 0.0000 0.0000
# 5 0.0000 0.0000 0.0000 0.0000 -193.5843 0.0000
# 6 0.0000 0.0000 0.0000 0.0000 0.0000 97.1121
#
#
#
# Elastic Compliance Matrix: (Units=1/GPa)
#
#
# Indices 1 2 3 4 5 6 
#
# 1 0.017613 -0.001050 -0.000970 0.000000 0.000000 0.000000
# 2 -0.001050 0.007618 -0.002320 0.000000 0.000000 0.000000
# 3 -0.000970 -0.002320 0.006946 0.000000 0.000000 0.000000
# 4 0.000000 0.000000 0.000000 0.033969 0.000000 0.000000
# 5 0.000000 0.000000 0.000000 0.000000 -0.005166 0.000000
# 6 0.000000 0.000000 0.000000 0.000000 0.000000 0.010297
#
#
# Mechanical properties :
#
#
# Convention : Reuss Voigt Hill
#
# Bulk Modulus (GPa) = 42.56098 57.69284 50.12691
# Shear Modulus (GPa) = 56.95485 6.22424 31.58955
#
# Velocity S-wave (km/s) = 5.03059 1.66302 3.74649
# Velocity P-wave (km/s) = 7.25628 5.41500 6.40218
#
# Compressibility (1/GPa) = 0.02349570
#
# Stress axis : x y z
#
# Youngs Moduli (GPa) = 56.77745 131.27092 143.97585
#
# Poissons Ratio (x) = 0.13782 0.13967
# Poissons Ratio (y) = 0.05961 0.33405
# Poissons Ratio (z) = 0.05508 0.30458
#
# Static dielectric constant tensor:
#      x y z
#    x 2.121330 0.000000 0.000000 
#    y 0.000000 1.724460 0.000000 
#    z 0.000000 0.000000 1.938380 
# 
# From -- ./inp_files/19764.got.cif
#   From: 2010.05.17/outbox.cif.g08.bks.cpg/sg48_10_cif.got.tgz:19764.got - 2010.06.03 20:39:00.
