data_PCOD9391063
_publ_section_title
;
Structure prediction by ZEFSAII (Michael W. Deem and Ramdas Pophale) SiO2 
 PCOD9391063
Probable space group: P N N N
;
_chemical_formula_sum "Si O2"
_cell_formula_units_Z 46
_cell_length_a 8.247670
_cell_length_b 13.480802
_cell_length_c 17.596090
_cell_angle_alpha 90.000000
_cell_angle_beta 90.000000
_cell_angle_gamma 90.000000
_cell_volume 1956.424896
_symmetry_space_group_name_H-M "P N N N"
_symmetry_group_IT_number 48
_space_group.IT_coordinate_system_code '2'
_symmetry_cell_setting 'orthorhombic'
loop_
_space_group_symop_operation_xyz
x,y,z
1/2-x,1/2-y,z
x,1/2-y,1/2-z
1/2-x,y,1/2-z
-x,-y,-z
1/2+x,1/2+y,-z
-x,1/2+y,1/2+z
1/2+x,-y,1/2+z
loop_
_atom_site_type_symbol
_atom_site_label
_atom_site_fract_x
_atom_site_fract_y
_atom_site_fract_z
Si Si1 0.423085 0.368785 0.501364
Si Si2 0.250000 0.750000 0.250000
Si Si3 0.407194 0.920574 0.842428
Si Si4 0.867580 0.520549 0.424945
Si Si5 0.750000 0.750000 0.250000
Si Si6 0.588673 0.174626 0.525483
Si Si7 0.991198 0.111548 0.670056
Si Si8 0.250000 0.750000 0.750000
O O1 0.488413 0.604262 0.576697
O O2 0.252884 0.423613 0.515216
O O3 0.443930 0.250975 0.507442
O O4 0.514711 0.400326 0.579109
O O5 0.347259 0.678684 0.304032
O O6 0.245186 0.987542 0.855226
O O7 0.360327 0.821015 0.800967
O O8 0.515276 0.000368 0.797893
O O9 0.900612 0.411793 0.461537
O O10 0.013534 0.599363 0.409097
O O11 0.857556 0.821199 0.303043
O O12 0.750000 0.250000 0.528328
#
# Coordination Sequence:
#
# PCOD9391063 Si02
#       8
#     8   2   8   8   2   8   8   2
#     4  11  23  41  69 102 139 179 237 296 354 419
#     4  10  24  44  64 100 136 188 216 278 364 410
#     4  11  23  43  71  98 136 186 243 290 357 433
#     4  10  22  40  63  99 141 181 225 294 359 421
#     4  10  22  42  60 100 140 176 242 274 364 444
#     4  11  22  36  62 102 140 172 225 291 360 420
#     4  10  23  40  69  96 138 182 225 290 346 429
#     4  12  26  46  76 100 140 198 232 312 352 432
#
# _framework density 23.512276
#
# number of rings (size 3 to 8) (size 9 to 14) (size 15 to 20)
#    0.000    1.391    1.739    4.174    6.087    0.000 
#    0.000    0.000   11.478    0.000    0.000    0.000 
#    0.000    0.000    0.000    0.000    0.000    0.000 
#
# Total GULP energy -256217.971614 kJ/mol
# GULP energy per Si atom -5569.955905 kJ/mol
# Density = 2.345876 g / cm^3
# Si number density = 23.512276 Si / 1000 Ang^3
#
#
#
# Elastic Constant Matrix: (Units=GPa)
#
#
# Indices 1 2 3 4 5 6 
#
# 1 83.0951 56.8822 28.5534 0.0000 0.0000 0.0000
# 2 56.8822 244.6155 51.1776 0.0000 0.0000 0.0000
# 3 28.5534 51.1776 85.4805 0.0000 0.0000 0.0000
# 4 0.0000 0.0000 0.0000 -2.7197 0.0000 0.0000
# 5 0.0000 0.0000 0.0000 0.0000 20.5276 0.0000
# 6 0.0000 0.0000 0.0000 0.0000 0.0000 74.9919
#
#
#
# Elastic Compliance Matrix: (Units=1/GPa)
#
#
# Indices 1 2 3 4 5 6 
#
# 1 0.015115 -0.002811 -0.003366 0.000000 0.000000 0.000000
# 2 -0.002811 0.005196 -0.002172 0.000000 0.000000 0.000000
# 3 -0.003366 -0.002172 0.014123 0.000000 0.000000 0.000000
# 4 0.000000 0.000000 0.000000 -0.367690 0.000000 0.000000
# 5 0.000000 0.000000 0.000000 0.000000 0.048715 0.000000
# 6 0.000000 0.000000 0.000000 0.000000 0.000000 0.013335
#
#
# Mechanical properties :
#
#
# Convention : Reuss Voigt Hill
#
# Bulk Modulus (GPa) = 56.37998 76.26862 66.32430
# Shear Modulus (GPa) = -20.11301 36.99847 8.44273
#
# Velocity S-wave (km/s) = -2.92794 3.97114 1.89699
# Velocity P-wave (km/s) = 3.54973 7.31675 5.75045
#
# Compressibility (1/GPa) = 0.01773679
#
# Stress axis : x y z
#
# Youngs Moduli (GPa) = 66.15919 192.45433 70.80415
#
# Poissons Ratio (x) = 0.54090 0.23835
# Poissons Ratio (y) = 0.18594 0.15379
# Poissons Ratio (z) = 0.22271 0.41803
#
# Static dielectric constant tensor:
#      x y z
#    x 2.120060 0.000000 0.000000 
#    y 0.000000 1.967030 0.000000 
#    z 0.000000 0.000000 1.244970 
# 
# From -- ./inp_files/37491.got.cif
#   From: 2010.05.17/outbox.cif.g08.bks.cpg/sg48_19_cif.got.tgz:37491.got - 2010.06.03 20:39:00.
