data_PCOD9391764
_publ_section_title
;
Structure prediction by ZEFSAII (Michael W. Deem and Ramdas Pophale) SiO2 
 PCOD9391764
Probable space group: P N N N
;
_chemical_formula_sum "Si O2"
_cell_formula_units_Z 40
_cell_length_a 5.901935
_cell_length_b 11.796791
_cell_length_c 24.314516
_cell_angle_alpha 90.000000
_cell_angle_beta 90.000000
_cell_angle_gamma 90.000000
_cell_volume 1692.871277
_symmetry_space_group_name_H-M "P N N N"
_symmetry_group_IT_number 48
_space_group.IT_coordinate_system_code '2'
_symmetry_cell_setting 'orthorhombic'
loop_
_space_group_symop_operation_xyz
x,y,z
1/2-x,1/2-y,z
x,1/2-y,1/2-z
1/2-x,y,1/2-z
-x,-y,-z
1/2+x,1/2+y,-z
-x,1/2+y,1/2+z
1/2+x,-y,1/2+z
loop_
_atom_site_type_symbol
_atom_site_label
_atom_site_fract_x
_atom_site_fract_y
_atom_site_fract_z
Si Si1 0.569055 0.147542 0.656553
Si Si2 0.750000 0.750000 0.750000
Si Si3 0.912777 0.573255 0.939603
Si Si4 0.250000 0.250000 0.750000
Si Si5 0.750000 0.250000 0.418680
Si Si6 0.091955 0.391623 0.345241
Si Si7 0.735151 0.616678 0.048870
O O1 0.750000 0.250000 0.650067
O O2 0.405925 0.182919 0.706687
O O3 0.445291 0.117699 0.598357
O O4 0.639203 0.021217 0.671650
O O5 0.903964 0.677170 0.710188
O O6 0.805809 0.625227 0.885293
O O7 0.091961 0.670429 0.956027
O O8 0.043484 0.454769 0.930519
O O9 0.723854 0.563885 0.987245
O O10 0.618583 0.156537 0.381078
O O11 0.750000 0.750000 0.039052
#
# Coordination Sequence:
#
# PCOD9391764 Si02
#       7
#     8   2   8   2   4   8   8
#     4  12  28  50  79 113 153 204 260 320 394 460
#     4  12  28  46  72 104 146 196 260 314 372 448
#     4  11  25  48  73 113 156 192 258 317 388 472
#     4  12  30  52  70 116 152 200 262 326 366 458
#     4  12  22  49  74 106 154 201 244 324 386 446
#     4  12  27  47  74 110 153 200 259 322 382 463
#     4  11  23  48  74 109 150 199 248 313 388 479
#
# _framework density 23.628495000000001
#
# number of rings (size 3 to 8) (size 9 to 14) (size 15 to 20)
#    0.000    0.400    5.000    2.700    2.800    2.800 
#   14.400    0.000    0.000    0.000    0.000    0.000 
#    0.000    0.000    0.000    0.000    0.000    0.000 
#
# Total GULP energy -222991.873130 kJ/mol
# GULP energy per Si atom -5574.796828 kJ/mol
# Density = 2.357472 g / cm^3
# Si number density = 23.628495 Si / 1000 Ang^3
#
#
#
# Elastic Constant Matrix: (Units=GPa)
#
#
# Indices 1 2 3 4 5 6 
#
# 1 70.1125 55.1201 43.7669 0.0000 0.0000 0.0000
# 2 55.1201 167.3398 44.1228 0.0000 0.0000 0.0000
# 3 43.7669 44.1228 138.7108 0.0000 0.0000 0.0000
# 4 0.0000 0.0000 0.0000 98.9325 0.0000 0.0000
# 5 0.0000 0.0000 0.0000 0.0000 16.3363 0.0000
# 6 0.0000 0.0000 0.0000 0.0000 0.0000 18.8839
#
#
#
# Elastic Compliance Matrix: (Units=1/GPa)
#
#
# Indices 1 2 3 4 5 6 
#
# 1 0.022108 -0.005941 -0.005086 0.000000 0.000000 0.000000
# 2 -0.005941 0.008120 -0.000708 0.000000 0.000000 0.000000
# 3 -0.005086 -0.000708 0.009039 0.000000 0.000000 0.000000
# 4 0.000000 0.000000 0.000000 0.010108 0.000000 0.000000
# 5 0.000000 0.000000 0.000000 0.000000 0.061213 0.000000
# 6 0.000000 0.000000 0.000000 0.000000 0.000000 0.052955
#
#
# Mechanical properties :
#
#
# Convention : Reuss Voigt Hill
#
# Bulk Modulus (GPa) = 63.30491 73.57587 68.44039
# Shear Modulus (GPa) = 26.00374 42.37409 34.18892
#
# Velocity S-wave (km/s) = 3.32101 4.23939 3.80799
# Velocity P-wave (km/s) = 6.44635 7.42761 6.95431
#
# Compressibility (1/GPa) = 0.01579656
#
# Stress axis : x y z
#
# Youngs Moduli (GPa) = 45.23156 123.15895 110.62871
#
# Poissons Ratio (x) = 0.73172 0.56265
# Poissons Ratio (y) = 0.26873 0.07834
# Poissons Ratio (z) = 0.23004 0.08721
#
# Static dielectric constant tensor:
#      x y z
#    x 2.101600 0.000000 0.000000 
#    y 0.000000 1.874480 0.000000 
#    z 0.000000 0.000000 1.906640 
# 
# From -- ./inp_files/37010.got.cif
#   From: 2010.05.17/outbox.cif.g08.bks.cpg/sg48_19_cif.got.tgz:37010.got - 2010.06.03 20:39:00.
