data_PCOD9391236
_publ_section_title
;
Structure prediction by ZEFSAII (Michael W. Deem and Ramdas Pophale) SiO2 
 PCOD9391236
Probable space group: P N N N
;
_chemical_formula_sum "Si O2"
_cell_formula_units_Z 40
_cell_length_a 15.195488
_cell_length_b 14.826684
_cell_length_c 8.127157
_cell_angle_alpha 90.000000
_cell_angle_beta 90.000000
_cell_angle_gamma 90.000000
_cell_volume 1831.037897
_symmetry_space_group_name_H-M "P N N N"
_symmetry_group_IT_number 48
_space_group.IT_coordinate_system_code '2'
_symmetry_cell_setting 'orthorhombic'
loop_
_space_group_symop_operation_xyz
x,y,z
1/2-x,1/2-y,z
x,1/2-y,1/2-z
1/2-x,y,1/2-z
-x,-y,-z
1/2+x,1/2+y,-z
-x,1/2+y,1/2+z
1/2+x,-y,1/2+z
loop_
_atom_site_type_symbol
_atom_site_label
_atom_site_fract_x
_atom_site_fract_y
_atom_site_fract_z
Si Si1 0.591102 0.955291 0.062124
Si Si2 0.531613 0.763677 0.947463
Si Si3 0.840906 0.279298 0.440964
Si Si4 0.080745 0.065157 0.950243
Si Si5 0.769594 0.042279 0.934025
O O1 0.595807 0.951378 0.258240
O O2 0.585133 0.852651 0.994953
O O3 0.500000 0.000000 0.000000
O O4 0.676044 0.012717 0.007355
O O5 0.531614 0.750000 0.750000
O O6 0.429028 0.767094 0.005307
O O7 0.562494 0.670371 0.025195
O O8 0.750000 0.250000 0.522673
O O9 0.838735 0.250000 0.250000
O O10 0.828760 0.386055 0.463183
O O11 0.164981 0.042445 0.062259
O O12 0.000000 0.000000 0.000000
O O13 0.750000 0.073770 0.750000
#
# Coordination Sequence:
#
# PCOD9391236 Si02
#       5
#     8   8   8   8   8
#     4  12  27  44  72 105 147 191 242 292 366 431
#     4  11  23  45  72 104 141 189 239 298 362 432
#     4  10  23  39  71 100 141 181 237 291 367 420
#     4  12  25  46  72 102 148 192 240 300 358 433
#     4  12  26  46  72 108 141 190 242 299 364 435
#
# _framework density 21.845531999999999
#
# number of rings (size 3 to 8) (size 9 to 14) (size 15 to 20)
#    0.000    0.600    2.000    6.000    8.400    1.200 
#    3.600    4.000    0.000    0.000    0.000    0.000 
#    0.000    0.000    0.000    0.000    0.000    0.000 
#
# Total GULP energy -223462.908277 kJ/mol
# GULP energy per Si atom -5586.572707 kJ/mol
# Density = 2.179581 g / cm^3
# Si number density = 21.845532 Si / 1000 Ang^3
#
#
#
# Elastic Constant Matrix: (Units=GPa)
#
#
# Indices 1 2 3 4 5 6 
#
# 1 81.9003 1.8312 20.8393 0.0000 0.0000 0.0000
# 2 1.8312 95.5860 37.5189 0.0000 0.0000 0.0000
# 3 20.8393 37.5189 123.6892 0.0000 0.0000 0.0000
# 4 0.0000 0.0000 0.0000 41.1018 0.0000 0.0000
# 5 0.0000 0.0000 0.0000 0.0000 22.4686 0.0000
# 6 0.0000 0.0000 0.0000 0.0000 0.0000 -392.7124
#
#
#
# Elastic Compliance Matrix: (Units=1/GPa)
#
#
# Indices 1 2 3 4 5 6 
#
# 1 0.012796 0.000682 -0.002363 0.000000 0.000000 0.000000
# 2 0.000682 0.011912 -0.003728 0.000000 0.000000 0.000000
# 3 -0.002363 -0.003728 0.009614 0.000000 0.000000 0.000000
# 4 0.000000 0.000000 0.000000 0.024330 0.000000 0.000000
# 5 0.000000 0.000000 0.000000 0.000000 0.044506 0.000000
# 6 0.000000 0.000000 0.000000 0.000000 0.000000 -0.002546
#
#
# Mechanical properties :
#
#
# Convention : Reuss Voigt Hill
#
# Bulk Modulus (GPa) = 42.54556 46.83935 44.69245
# Shear Modulus (GPa) = 41.92376 -49.76265 -3.91945
#
# Velocity S-wave (km/s) = 4.38551 -4.77795 -1.34092
# Velocity P-wave (km/s) = 6.72023 2.99177 4.25504
#
# Compressibility (1/GPa) = 0.02350422
#
# Stress axis : x y z
#
# Youngs Moduli (GPa) = 78.14983 83.94815 104.01741
#
# Poissons Ratio (x) = -0.05728 0.24578
# Poissons Ratio (y) = -0.05332 0.38781
# Poissons Ratio (z) = 0.18466 0.31298
#
# Static dielectric constant tensor:
#      x y z
#    x 1.930630 0.000000 0.000000 
#    y 0.000000 1.986080 0.000000 
#    z 0.000000 0.000000 1.441190 
# 
# From -- ./inp_files/12323.got.cif
#   From: 2010.05.17/outbox.cif.g08.bks.cpg/sg48_7_cif.got.tgz:12323.got - 2010.06.03 20:39:00.
