data_PCOD9391388
_publ_section_title
;
Structure prediction by ZEFSAII (Michael W. Deem and Ramdas Pophale) SiO2 
 PCOD9391388
Probable space group: P N N N
;
_chemical_formula_sum "Si O2"
_cell_formula_units_Z 32
_cell_length_a 11.814798
_cell_length_b 7.435669
_cell_length_c 14.210789
_cell_angle_alpha 90.000000
_cell_angle_beta 90.000000
_cell_angle_gamma 90.000000
_cell_volume 1248.430990
_symmetry_space_group_name_H-M "P N N N"
_symmetry_group_IT_number 48
_space_group.IT_coordinate_system_code '2'
_symmetry_cell_setting 'orthorhombic'
loop_
_space_group_symop_operation_xyz
x,y,z
1/2-x,1/2-y,z
x,1/2-y,1/2-z
1/2-x,y,1/2-z
-x,-y,-z
1/2+x,1/2+y,-z
-x,1/2+y,1/2+z
1/2+x,-y,1/2+z
loop_
_atom_site_type_symbol
_atom_site_label
_atom_site_fract_x
_atom_site_fract_y
_atom_site_fract_z
Si Si1 0.045296 0.132926 0.579500
Si Si2 0.221024 0.550308 0.618874
Si Si3 0.152282 0.098726 0.058966
Si Si4 0.002687 0.466057 0.268055
O O1 0.062981 0.306293 0.512979
O O2 0.170100 0.077028 0.616962
O O3 0.976381 0.085697 0.675000
O O4 0.000000 0.000000 0.500000
O O5 0.250000 0.750000 0.649905
O O6 0.194419 0.558555 0.508057
O O7 0.116317 0.483854 0.681715
O O8 0.250000 0.250000 0.076522
O O9 0.099648 0.025423 0.153764
O O10 0.995331 0.250000 0.250000
#
# Coordination Sequence:
#
# PCOD9391388 Si02
#       4
#     8   8   8   8
#     4  11  22  40  64  97 132 173 227 290 343 422
#     4  11  22  40  66  95 131 175 228 282 351 419
#     4  10  24  43  64  99 136 176 228 291 354 429
#     4  12  22  39  71  95 129 180 230 283 354 421
#
# _framework density 25.632175
#
# number of rings (size 3 to 8) (size 9 to 14) (size 15 to 20)
#    0.000    1.000    5.000    1.500    0.000    1.500 
#    0.000    3.750    0.000    1.500    0.000    0.000 
#    0.000    0.000    0.000    0.000    0.000    0.000 
#
# Total GULP energy -178837.803218 kJ/mol
# GULP energy per Si atom -5588.681351 kJ/mol
# Density = 2.557383 g / cm^3
# Si number density = 25.632175 Si / 1000 Ang^3
#
#
#
# Elastic Constant Matrix: (Units=GPa)
#
#
# Indices 1 2 3 4 5 6 
#
# 1 64.4495 10.8634 66.6994 0.0000 0.0000 0.0000
# 2 10.8634 83.2143 39.2728 0.0000 0.0000 0.0000
# 3 66.6994 39.2728 260.8389 0.0000 0.0000 0.0000
# 4 0.0000 0.0000 0.0000 2.8783 0.0000 0.0000
# 5 0.0000 0.0000 0.0000 0.0000 25.1010 0.0000
# 6 0.0000 0.0000 0.0000 0.0000 0.0000 34.2115
#
#
#
# Elastic Compliance Matrix: (Units=1/GPa)
#
#
# Indices 1 2 3 4 5 6 
#
# 1 0.021104 -0.000224 -0.005363 0.000000 0.000000 0.000000
# 2 -0.000224 0.012939 -0.001891 0.000000 0.000000 0.000000
# 3 -0.005363 -0.001891 0.005490 0.000000 0.000000 0.000000
# 4 0.000000 0.000000 0.000000 0.347432 0.000000 0.000000
# 5 0.000000 0.000000 0.000000 0.000000 0.039839 0.000000
# 6 0.000000 0.000000 0.000000 0.000000 0.000000 0.029230
#
#
# Mechanical properties :
#
#
# Convention : Reuss Voigt Hill
#
# Bulk Modulus (GPa) = 40.68843 71.35267 56.02055
# Shear Modulus (GPa) = 10.43448 31.88264 21.15856
#
# Velocity S-wave (km/s) = 2.01982 3.53065 2.87621
# Velocity P-wave (km/s) = 4.62039 6.67220 5.73874
#
# Compressibility (1/GPa) = 0.02457701
#
# Stress axis : x y z
#
# Youngs Moduli (GPa) = 47.38500 77.28709 182.15680
#
# Poissons Ratio (x) = 0.01732 0.97686
# Poissons Ratio (y) = 0.01062 0.34442
# Poissons Ratio (z) = 0.25411 0.14613
#
# Static dielectric constant tensor:
#      x y z
#    x 1.570730 0.000000 0.000000 
#    y 0.000000 2.091250 0.000000 
#    z 0.000000 0.000000 2.061650 
# 
# From -- ./inp_files/10079.got.cif
#   From: 2010.05.17/outbox.cif.g08.bks.cpg/sg48_6_cif.got.tgz:10079.got - 2010.06.03 20:39:00.
