data_PCOD9391671
_publ_section_title
;
Structure prediction by ZEFSAII (Michael W. Deem and Ramdas Pophale) SiO2 
 PCOD9391671
Probable space group: P N N N
;
_chemical_formula_sum "Si O2"
_cell_formula_units_Z 30
_cell_length_a 6.901059
_cell_length_b 16.768061
_cell_length_c 11.221890
_cell_angle_alpha 90.000000
_cell_angle_beta 90.000000
_cell_angle_gamma 90.000000
_cell_volume 1298.567690
_symmetry_space_group_name_H-M "P N N N"
_symmetry_group_IT_number 48
_space_group.IT_coordinate_system_code '2'
_symmetry_cell_setting 'orthorhombic'
loop_
_space_group_symop_operation_xyz
x,y,z
1/2-x,1/2-y,z
x,1/2-y,1/2-z
1/2-x,y,1/2-z
-x,-y,-z
1/2+x,1/2+y,-z
-x,1/2+y,1/2+z
1/2+x,-y,1/2+z
loop_
_atom_site_type_symbol
_atom_site_label
_atom_site_fract_x
_atom_site_fract_y
_atom_site_fract_z
Si Si1 0.485567 0.743081 0.387816
Si Si2 0.750000 0.250000 0.250000
Si Si3 0.986384 0.368530 0.423193
Si Si4 0.895186 0.073484 0.555792
Si Si5 0.750000 0.976337 0.750000
O O1 0.250000 0.750000 0.388056
O O2 0.542974 0.750000 0.250000
O O3 0.567842 0.812352 0.471417
O O4 0.506682 0.656430 0.446142
O O5 0.881948 0.307449 0.331328
O O6 0.812836 0.416440 0.490070
O O7 0.136441 0.422108 0.347020
O O8 0.889110 0.041028 0.689746
O O9 0.000000 0.000000 0.500000
#
# Coordination Sequence:
#
# PCOD9391671 Si02
#       5
#     8   2   8   8   4
#     4   9  18  39  68  90 129 182 232 273 351 434
#     4  12  20  42  66  96 132 186 230 290 348 426
#     4  11  23  42  67 101 139 186 238 284 359 441
#     4  11  22  42  64 100 137 180 228 291 357 419
#     4  12  26  39  71 102 144 178 234 306 361 418
#
# _framework density 23.102374999999999
#
# number of rings (size 3 to 8) (size 9 to 14) (size 15 to 20)
#    0.000    1.333    4.000    5.600    0.000    0.533 
#    0.000    0.000    0.000    1.600    0.000    0.000 
#    0.000    0.000    0.000    0.000    0.000    0.000 
#
# Total GULP energy -167458.343186 kJ/mol
# GULP energy per Si atom -5581.944773 kJ/mol
# Density = 2.304979 g / cm^3
# Si number density = 23.102375 Si / 1000 Ang^3
#
#
#
# Elastic Constant Matrix: (Units=GPa)
#
#
# Indices 1 2 3 4 5 6 
#
# 1 99.0545 69.6015 30.2648 0.0000 0.0000 0.0000
# 2 69.6015 147.0849 44.8859 0.0000 0.0000 0.0000
# 3 30.2648 44.8859 113.7501 0.0000 0.0000 0.0000
# 4 0.0000 0.0000 0.0000 59.9096 0.0000 0.0000
# 5 0.0000 0.0000 0.0000 0.0000 28.7773 0.0000
# 6 0.0000 0.0000 0.0000 0.0000 0.0000 28.8556
#
#
#
# Elastic Compliance Matrix: (Units=1/GPa)
#
#
# Indices 1 2 3 4 5 6 
#
# 1 0.015313 -0.006825 -0.001381 0.000000 0.000000 0.000000
# 2 -0.006825 0.010771 -0.002435 0.000000 0.000000 0.000000
# 3 -0.001381 -0.002435 0.010119 0.000000 0.000000 0.000000
# 4 0.000000 0.000000 0.000000 0.016692 0.000000 0.000000
# 5 0.000000 0.000000 0.000000 0.000000 0.034750 0.000000
# 6 0.000000 0.000000 0.000000 0.000000 0.000000 0.034655
#
#
# Mechanical properties :
#
#
# Convention : Reuss Voigt Hill
#
# Bulk Modulus (GPa) = 67.01210 72.15489 69.58350
# Shear Modulus (GPa) = 33.65754 37.85099 35.75427
#
# Velocity S-wave (km/s) = 3.82106 4.05211 3.93828
# Velocity P-wave (km/s) = 6.96684 7.29337 7.13198
#
# Compressibility (1/GPa) = 0.01492268
#
# Stress axis : x y z
#
# Youngs Moduli (GPa) = 65.30465 92.84011 98.82052
#
# Poissons Ratio (x) = 0.63360 0.13649
# Poissons Ratio (y) = 0.44568 0.24058
# Poissons Ratio (z) = 0.09020 0.22602
#
# Static dielectric constant tensor:
#      x y z
#    x 1.947740 0.000000 0.000000 
#    y 0.000000 1.852950 0.000000 
#    z 0.000000 0.000000 1.811170 
# 
# From -- ./inp_files/11903.got.cif
#   From: 2010.05.17/outbox.cif.g08.bks.cpg/sg48_6_cif.got.tgz:11903.got - 2010.06.03 20:39:00.
