data_PCOD9391102
_publ_section_title
;
Structure prediction by ZEFSAII (Michael W. Deem and Ramdas Pophale) SiO2 
 PCOD9391102
Probable space group: P N N N
;
_chemical_formula_sum "Si O2"
_cell_formula_units_Z 64
_cell_length_a 8.720596
_cell_length_b 24.309307
_cell_length_c 15.805506
_cell_angle_alpha 90.000000
_cell_angle_beta 90.000000
_cell_angle_gamma 90.000000
_cell_volume 3350.635223
_symmetry_space_group_name_H-M "P N N N"
_symmetry_group_IT_number 48
_space_group.IT_coordinate_system_code '2'
_symmetry_cell_setting 'orthorhombic'
loop_
_space_group_symop_operation_xyz
x,y,z
1/2-x,1/2-y,z
x,1/2-y,1/2-z
1/2-x,y,1/2-z
-x,-y,-z
1/2+x,1/2+y,-z
-x,1/2+y,1/2+z
1/2+x,-y,1/2+z
loop_
_atom_site_type_symbol
_atom_site_label
_atom_site_fract_x
_atom_site_fract_y
_atom_site_fract_z
Si Si1 0.066077 0.938902 0.497235
Si Si2 0.933442 0.633779 0.154193
Si Si3 0.433442 0.133779 0.654193
Si Si4 0.568145 0.750000 0.588543
Si Si5 0.066081 0.862233 0.845301
Si Si6 0.433923 0.561098 0.002765
Si Si7 0.066081 0.637767 0.845301
Si Si8 0.067004 0.750000 0.400160
O O1 0.250000 0.940830 0.493771
O O2 0.021921 0.905179 0.581861
O O3 0.003994 0.905721 0.416489
O O4 0.000000 0.000000 0.500000
O O5 0.968178 0.615451 0.250000
O O6 0.750000 0.635481 0.143887
O O7 0.999269 0.694902 0.140677
O O8 0.503994 0.094279 0.583511
O O9 0.499269 0.194902 0.640677
O O10 0.750000 0.750000 0.574671
O O11 0.516926 0.804651 0.637404
O O12 0.516926 0.695349 0.637404
O O13 0.482751 0.750000 0.498317
O O14 0.250000 0.853216 0.852020
O O15 0.033451 0.881701 0.750000
O O16 0.021921 0.905179 0.918139
O O17 0.500000 0.500000 0.000000
O O18 0.250000 0.750000 0.393380
#
# Coordination Sequence:
#
# PCOD9391102 Si02
#       8
#     8   8   8   8   8   8   8   8
#     4  11  24  42  65  91 124 167 212 260 311 365
#     4  11  24  42  65  94 128 165 206 257 315 371
#     4  11  24  42  65  94 128 165 206 257 315 371
#     4  12  23  36  61  94 128 162 201 251 310 369
#     4  10  22  41  64  90 123 164 206 250 308 373
#     4  11  24  42  65  91 124 167 212 260 311 365
#     4  10  22  41  64  90 123 164 206 250 308 373
#     4  12  23  38  63  94 128 166 205 251 312 377
#
# _framework density 19.100854000000002
#
# number of rings (size 3 to 8) (size 9 to 14) (size 15 to 20)
#    0.000    1.000    2.500    4.500    0.000    7.500 
#    0.000    2.500    0.000    0.000    0.000    0.000 
#    0.000    0.000    0.000    0.000    0.000    0.000 
#
# Total GULP energy -358032.888992 kJ/mol
# GULP energy per Si atom -5594.263890 kJ/mol
# Density = 1.905738 g / cm^3
# Si number density = 19.100854 Si / 1000 Ang^3
#
#
#
# Elastic Constant Matrix: (Units=GPa)
#
#
# Indices 1 2 3 4 5 6 
#
# 1 70.0142 59.4814 67.1788 0.0000 0.0000 0.0000
# 2 59.4814 170.6095 92.6950 0.0000 0.0000 0.0000
# 3 67.1788 92.6950 178.7666 0.0000 0.0000 0.0000
# 4 0.0000 0.0000 0.0000 -3.5729 0.0000 0.0000
# 5 0.0000 0.0000 0.0000 0.0000 30.6851 0.0000
# 6 0.0000 0.0000 0.0000 0.0000 0.0000 37.9877
#
#
#
# Elastic Compliance Matrix: (Units=1/GPa)
#
#
# Indices 1 2 3 4 5 6 
#
# 1 0.025118 -0.005052 -0.006820 0.000000 0.000000 0.000000
# 2 -0.005052 0.009176 -0.002860 0.000000 0.000000 0.000000
# 3 -0.006820 -0.002860 0.009639 0.000000 0.000000 0.000000
# 4 0.000000 0.000000 0.000000 -0.279888 0.000000 0.000000
# 5 0.000000 0.000000 0.000000 0.000000 0.032589 0.000000
# 6 0.000000 0.000000 0.000000 0.000000 0.000000 0.026324
#
#
# Mechanical properties :
#
#
# Convention : Reuss Voigt Hill
#
# Bulk Modulus (GPa) = 69.10151 95.34453 82.22302
# Shear Modulus (GPa) = -35.02523 26.35566 -4.33478
#
# Velocity S-wave (km/s) = -4.28682 3.71862 -1.50809
# Velocity P-wave (km/s) = 3.42831 8.27419 6.33307
#
# Compressibility (1/GPa) = 0.01447146
#
# Stress axis : x y z
#
# Youngs Moduli (GPa) = 39.81163 108.97518 103.74037
#
# Poissons Ratio (x) = 0.55055 0.70747
# Poissons Ratio (y) = 0.20113 0.29666
# Poissons Ratio (z) = 0.27150 0.31163
#
# Static dielectric constant tensor:
#      x y z
#    x 1.639380 0.000000 0.000000 
#    y 0.000000 1.619770 0.000000 
#    z 0.000000 0.000000 1.671440 
# 
# From -- ./inp_files/25739.got.cif
#   From: 2010.05.17/outbox.cif.g08.bks.cpg/sg48_13_cif.got.tgz:25739.got - 2010.06.03 20:39:00.
