data_PCOD9391174
_publ_section_title
;
Structure prediction by ZEFSAII (Michael W. Deem and Ramdas Pophale) SiO2 
 PCOD9391174
Probable space group: P N N N
;
_chemical_formula_sum "Si O2"
_cell_formula_units_Z 36
_cell_length_a 4.902909
_cell_length_b 18.128997
_cell_length_c 18.050129
_cell_angle_alpha 90.000000
_cell_angle_beta 90.000000
_cell_angle_gamma 90.000000
_cell_volume 1604.382513
_symmetry_space_group_name_H-M "P N N N"
_symmetry_group_IT_number 48
_space_group.IT_coordinate_system_code '2'
_symmetry_cell_setting 'orthorhombic'
loop_
_space_group_symop_operation_xyz
x,y,z
1/2-x,1/2-y,z
x,1/2-y,1/2-z
1/2-x,y,1/2-z
-x,-y,-z
1/2+x,1/2+y,-z
-x,1/2+y,1/2+z
1/2+x,-y,1/2+z
loop_
_atom_site_type_symbol
_atom_site_label
_atom_site_fract_x
_atom_site_fract_y
_atom_site_fract_z
Si Si1 0.750000 0.250000 0.620607
Si Si2 0.627683 0.409607 0.641954
Si Si3 0.250000 0.250000 0.984696
Si Si4 0.504586 0.965610 0.609641
Si Si5 0.750000 0.493683 0.250000
Si Si6 0.000230 0.896867 0.526691
O O1 0.657155 0.323656 0.662385
O O2 0.497044 0.223421 0.568685
O O3 0.461074 0.456237 0.702434
O O4 0.482170 0.410520 0.561386
O O5 0.919568 0.448373 0.625612
O O6 0.093056 0.311833 0.032056
O O7 0.787383 0.937907 0.578116
O O8 0.287420 0.930435 0.553146
O O9 0.407201 0.943364 0.690947
#
# Coordination Sequence:
#
# PCOD9391174 Si02
#       6
#     4   8   4   8   4   8
#     4  10  24  42  71  94 148 175 240 284 350 413
#     4  11  25  45  71 104 138 193 235 293 343 425
#     4  10  22  44  68 112 128 174 220 310 358 418
#     4  12  25  44  67 105 135 185 231 295 338 423
#     4  12  28  44  67  99 154 182 238 276 356 413
#     4  11  24  42  78  97 139 169 241 292 359 402
#
# _framework density 22.438538999999999
#
# number of rings (size 3 to 8) (size 9 to 14) (size 15 to 20)
#    0.000    0.889    2.222    4.667    9.333    0.000 
#    0.000    3.333    0.000    4.000    0.000    0.000 
#    0.000    0.000    0.000    0.000    0.000    0.000 
#
# Total GULP energy -200872.592037 kJ/mol
# GULP energy per Si atom -5579.794223 kJ/mol
# Density = 2.238747 g / cm^3
# Si number density = 22.438539 Si / 1000 Ang^3
#
#
#
# Elastic Constant Matrix: (Units=GPa)
#
#
# Indices 1 2 3 4 5 6 
#
# 1 107.9547 10.3700 11.8906 0.0000 0.0000 0.0000
# 2 10.3700 91.2396 16.5240 0.0000 0.0000 0.0000
# 3 11.8906 16.5240 128.2237 0.0000 0.0000 0.0000
# 4 0.0000 0.0000 0.0000 6.1625 0.0000 0.0000
# 5 0.0000 0.0000 0.0000 0.0000 46.7738 0.0000
# 6 0.0000 0.0000 0.0000 0.0000 0.0000 31.6041
#
#
#
# Elastic Compliance Matrix: (Units=1/GPa)
#
#
# Indices 1 2 3 4 5 6 
#
# 1 0.009436 -0.000936 -0.000754 0.000000 0.000000 0.000000
# 2 -0.000936 0.011315 -0.001371 0.000000 0.000000 0.000000
# 3 -0.000754 -0.001371 0.008046 0.000000 0.000000 0.000000
# 4 0.000000 0.000000 0.000000 0.162272 0.000000 0.000000
# 5 0.000000 0.000000 0.000000 0.000000 0.021380 0.000000
# 6 0.000000 0.000000 0.000000 0.000000 0.000000 0.031642
#
#
# Mechanical properties :
#
#
# Convention : Reuss Voigt Hill
#
# Bulk Modulus (GPa) = 44.10473 44.99856 44.55164
# Shear Modulus (GPa) = 19.39713 36.15029 27.77371
#
# Velocity S-wave (km/s) = 2.94335 4.01818 3.52201
# Velocity P-wave (km/s) = 5.59013 6.45177 6.03635
#
# Compressibility (1/GPa) = 0.02267331
#
# Stress axis : x y z
#
# Youngs Moduli (GPa) = 105.97552 88.37918 124.29221
#
# Poissons Ratio (x) = 0.08271 0.09377
# Poissons Ratio (y) = 0.09918 0.17045
# Poissons Ratio (z) = 0.07995 0.12120
#
# Static dielectric constant tensor:
#      x y z
#    x 1.906540 0.000000 0.000000 
#    y 0.000000 1.947300 0.000000 
#    z 0.000000 0.000000 1.843120 
# 
# From -- ./inp_files/29398.got.cif
#   From: 2010.05.17/outbox.cif.g08.bks.cpg/sg48_15_cif.got.tgz:29398.got - 2010.06.03 20:39:00.
