data_PCOD9391864
_publ_section_title
;
Structure prediction by ZEFSAII (Michael W. Deem and Ramdas Pophale) SiO2 
 PCOD9391864
Probable space group: P N N N
;
_chemical_formula_sum "Si O2"
_cell_formula_units_Z 32
_cell_length_a 13.675670
_cell_length_b 8.326844
_cell_length_c 12.049033
_cell_angle_alpha 90.000000
_cell_angle_beta 90.000000
_cell_angle_gamma 90.000000
_cell_volume 1372.085689
_symmetry_space_group_name_H-M "P N N N"
_symmetry_group_IT_number 48
_space_group.IT_coordinate_system_code '2'
_symmetry_cell_setting 'orthorhombic'
loop_
_space_group_symop_operation_xyz
x,y,z
1/2-x,1/2-y,z
x,1/2-y,1/2-z
1/2-x,y,1/2-z
-x,-y,-z
1/2+x,1/2+y,-z
-x,1/2+y,1/2+z
1/2+x,-y,1/2+z
loop_
_atom_site_type_symbol
_atom_site_label
_atom_site_fract_x
_atom_site_fract_y
_atom_site_fract_z
Si Si1 0.648520 0.502027 0.907407
Si Si2 0.750000 0.250000 0.750000
Si Si3 0.466695 0.250000 0.250000
Si Si4 0.954257 0.278638 0.026303
Si Si5 0.750000 0.750000 0.250000
Si Si6 0.660903 0.909773 0.039014
O O1 0.686449 0.364039 0.826563
O O2 0.595533 0.623896 0.822031
O O3 0.586734 0.396441 0.996506
O O4 0.736728 0.590686 0.970910
O O5 0.535043 0.178323 0.156004
O O6 0.880536 0.419247 0.992839
O O7 0.063971 0.300338 0.979686
O O8 0.690912 0.866338 0.165257
#
# Coordination Sequence:
#
# PCOD9391864 Si02
#       6
#     8   2   4   8   2   8
#     4  12  26  51  74 116 156 202 262 327 386 473
#     4  12  24  44  80 102 148 220 244 316 398 456
#     4  12  28  43  83 106 150 204 257 318 396 467
#     4  11  26  47  74 114 155 197 268 323 388 482
#     4  12  28  42  82 102 162 204 250 324 410 456
#     4  11  26  48  72 114 153 206 257 328 394 472
#
# _framework density 23.322158999999999
#
# number of rings (size 3 to 8) (size 9 to 14) (size 15 to 20)
#    0.000    0.500    2.500    3.750   10.500    3.500 
#    0.000    0.000    0.000    0.000    0.000    0.000 
#    0.000    0.000    0.000    0.000    0.000    0.000 
#
# Total GULP energy -178461.833504 kJ/mol
# GULP energy per Si atom -5576.932297 kJ/mol
# Density = 2.326908 g / cm^3
# Si number density = 23.322159 Si / 1000 Ang^3
#
#
#
# Elastic Constant Matrix: (Units=GPa)
#
#
# Indices 1 2 3 4 5 6 
#
# 1 133.2868 77.2707 49.6850 0.0000 0.0000 0.0000
# 2 77.2707 149.8997 34.7155 0.0000 0.0000 0.0000
# 3 49.6850 34.7155 137.4774 0.0000 0.0000 0.0000
# 4 0.0000 0.0000 0.0000 62.8292 0.0000 0.0000
# 5 0.0000 0.0000 0.0000 0.0000 7.5877 0.0000
# 6 0.0000 0.0000 0.0000 0.0000 0.0000 17.8522
#
#
#
# Elastic Compliance Matrix: (Units=1/GPa)
#
#
# Indices 1 2 3 4 5 6 
#
# 1 0.011676 -0.005355 -0.002868 0.000000 0.000000 0.000000
# 2 -0.005355 0.009541 -0.000474 0.000000 0.000000 0.000000
# 3 -0.002868 -0.000474 0.008430 0.000000 0.000000 0.000000
# 4 0.000000 0.000000 0.000000 0.015916 0.000000 0.000000
# 5 0.000000 0.000000 0.000000 0.000000 0.131791 0.000000
# 6 0.000000 0.000000 0.000000 0.000000 0.000000 0.056015
#
#
# Mechanical properties :
#
#
# Convention : Reuss Voigt Hill
#
# Bulk Modulus (GPa) = 81.60349 82.66736 82.13542
# Shear Modulus (GPa) = 19.61960 34.92002 27.26981
#
# Velocity S-wave (km/s) = 2.90357 3.87368 3.42316
# Velocity P-wave (km/s) = 6.80489 7.45184 7.13570
#
# Compressibility (1/GPa) = 0.01225438
#
# Stress axis : x y z
#
# Youngs Moduli (GPa) = 85.64756 104.80962 118.62395
#
# Poissons Ratio (x) = 0.56121 0.34016
# Poissons Ratio (y) = 0.45860 0.05624
# Poissons Ratio (z) = 0.24560 0.04969
#
# Static dielectric constant tensor:
#      x y z
#    x 1.912100 0.000000 0.000000 
#    y 0.000000 1.952560 0.000000 
#    z 0.000000 0.000000 1.889110 
# 
# From -- ./inp_files/10359.got.cif
#   From: 2010.05.17/outbox.cif.g08.bks.cpg/sg48_6_cif.got.tgz:10359.got - 2010.06.03 20:39:00.
