data_PCOD9391264
_publ_section_title
;
Structure prediction by ZEFSAII (Michael W. Deem and Ramdas Pophale) SiO2 
 PCOD9391264
Probable space group: P N N N
;
_chemical_formula_sum "Si O2"
_cell_formula_units_Z 52
_cell_length_a 14.928389
_cell_length_b 19.792863
_cell_length_c 9.134122
_cell_angle_alpha 90.000000
_cell_angle_beta 90.000000
_cell_angle_gamma 90.000000
_cell_volume 2698.909797
_symmetry_space_group_name_H-M "P N N N"
_symmetry_group_IT_number 48
_space_group.IT_coordinate_system_code '2'
_symmetry_cell_setting 'orthorhombic'
loop_
_space_group_symop_operation_xyz
x,y,z
1/2-x,1/2-y,z
x,1/2-y,1/2-z
1/2-x,y,1/2-z
-x,-y,-z
1/2+x,1/2+y,-z
-x,1/2+y,1/2+z
1/2+x,-y,1/2+z
loop_
_atom_site_type_symbol
_atom_site_label
_atom_site_fract_x
_atom_site_fract_y
_atom_site_fract_z
Si Si1 0.402492 0.991482 0.428795
Si Si2 0.352064 0.929222 0.707805
Si Si3 0.667722 0.633148 0.859949
Si Si4 0.491480 0.679764 0.684455
Si Si5 0.934882 0.809127 0.359655
Si Si6 0.750000 0.750000 0.443291
Si Si7 0.984071 0.965446 0.339610
O O1 0.350031 0.062136 0.439277
O O2 0.500000 0.000000 0.500000
O O3 0.359226 0.934274 0.530820
O O4 0.426996 0.977548 0.259561
O O5 0.250000 0.923190 0.750000
O O6 0.412751 0.872513 0.784134
O O7 0.398767 0.996611 0.770397
O O8 0.750000 0.624547 0.750000
O O9 0.578683 0.651610 0.769574
O O10 0.693101 0.696138 0.962220
O O11 0.462281 0.750000 0.750000
O O12 0.522109 0.695552 0.520281
O O13 0.968167 0.750000 0.250000
O O14 0.827419 0.795584 0.367986
O O15 0.960175 0.886349 0.324227
O O16 0.000000 0.000000 0.500000
#
# Coordination Sequence:
#
# PCOD9391264 Si02
#       7
#     8   8   8   8   8   4   8
#     4  10  23  41  69  92 130 178 230 279 332 407
#     4  11  26  43  68 100 128 178 235 293 340 402
#     4  12  21  40  68 101 134 181 223 266 345 434
#     4  12  23  44  70  89 133 182 225 280 342 421
#     4  12  27  40  64 103 141 179 221 280 359 427
#     4  12  26  38  62 110 142 176 214 276 368 436
#     4  11  23  45  69  98 140 183 229 281 353 426
#
# _framework density 19.267037999999999
#
# number of rings (size 3 to 8) (size 9 to 14) (size 15 to 20)
#    0.000    0.615    7.692    0.462    8.615    0.308 
#    0.000    0.000    0.000    0.000    0.000    0.000 
#    0.000    0.000    0.000    0.000    0.000    0.000 
#
# Total GULP energy -290065.832939 kJ/mol
# GULP energy per Si atom -5578.189095 kJ/mol
# Density = 1.922319 g / cm^3
# Si number density = 19.267038 Si / 1000 Ang^3
#
#
#
# Elastic Constant Matrix: (Units=GPa)
#
#
# Indices 1 2 3 4 5 6 
#
# 1 102.1606 43.1498 33.1847 0.0000 0.0000 0.0000
# 2 43.1498 141.6714 38.4188 0.0000 0.0000 0.0000
# 3 33.1847 38.4188 104.6777 0.0000 0.0000 0.0000
# 4 0.0000 0.0000 0.0000 23.5111 0.0000 0.0000
# 5 0.0000 0.0000 0.0000 0.0000 41.8389 0.0000
# 6 0.0000 0.0000 0.0000 0.0000 0.0000 46.9141
#
#
#
# Elastic Compliance Matrix: (Units=1/GPa)
#
#
# Indices 1 2 3 4 5 6 
#
# 1 0.011888 -0.002886 -0.002709 0.000000 0.000000 0.000000
# 2 -0.002886 0.008539 -0.002219 0.000000 0.000000 0.000000
# 3 -0.002709 -0.002219 0.011227 0.000000 0.000000 0.000000
# 4 0.000000 0.000000 0.000000 0.042533 0.000000 0.000000
# 5 0.000000 0.000000 0.000000 0.000000 0.023901 0.000000
# 6 0.000000 0.000000 0.000000 0.000000 0.000000 0.021316
#
#
# Mechanical properties :
#
#
# Convention : Reuss Voigt Hill
#
# Bulk Modulus (GPa) = 62.40481 64.22406 63.31443
# Shear Modulus (GPa) = 35.61917 38.03659 36.82788
#
# Velocity S-wave (km/s) = 4.30433 4.44799 4.37675
# Velocity P-wave (km/s) = 7.56060 7.73211 7.64684
#
# Compressibility (1/GPa) = 0.01602441
#
# Stress axis : x y z
#
# Youngs Moduli (GPa) = 84.12181 117.10435 89.07454
#
# Poissons Ratio (x) = 0.33796 0.24133
# Poissons Ratio (y) = 0.24277 0.19768
# Poissons Ratio (z) = 0.22792 0.25988
#
# Static dielectric constant tensor:
#      x y z
#    x 1.628080 0.000000 0.000000 
#    y 0.000000 1.695390 0.000000 
#    z 0.000000 0.000000 1.797700 
# 
# From -- ./inp_files/13046.got.cif
#   From: 2010.05.17/outbox.cif.g08.bks.cpg/sg48_7_cif.got.tgz:13046.got - 2010.06.03 20:39:00.
