data_PCOD9391335
_publ_section_title
;
Structure prediction by ZEFSAII (Michael W. Deem and Ramdas Pophale) SiO2 
 PCOD9391335
Probable space group: P N N N
;
_chemical_formula_sum "Si O2"
_cell_formula_units_Z 26
_cell_length_a 4.972604
_cell_length_b 9.130660
_cell_length_c 23.599915
_cell_angle_alpha 90.000000
_cell_angle_beta 90.000000
_cell_angle_gamma 90.000000
_cell_volume 1071.510633
_symmetry_space_group_name_H-M "P N N N"
_symmetry_group_IT_number 48
_space_group.IT_coordinate_system_code '2'
_symmetry_cell_setting 'orthorhombic'
loop_
_space_group_symop_operation_xyz
x,y,z
1/2-x,1/2-y,z
x,1/2-y,1/2-z
1/2-x,y,1/2-z
-x,-y,-z
1/2+x,1/2+y,-z
-x,1/2+y,1/2+z
1/2+x,-y,1/2+z
loop_
_atom_site_type_symbol
_atom_site_label
_atom_site_fract_x
_atom_site_fract_y
_atom_site_fract_z
Si Si1 0.472359 0.534789 0.841950
Si Si2 0.053139 0.887502 0.380244
Si Si3 0.180492 0.094421 0.040796
Si Si4 0.750000 0.250000 0.250000
O O1 0.760040 0.460568 0.831968
O O2 0.517265 0.623511 0.900605
O O3 0.405844 0.642513 0.792006
O O4 0.248971 0.410015 0.857220
O O5 0.250000 0.750000 0.395502
O O6 0.077861 0.994142 0.435069
O O7 0.250000 0.250000 0.014404
O O8 0.000000 0.000000 0.000000
#
# Coordination Sequence:
#
# PCOD9391335 Si02
#       4
#     8   8   8   2
#     4  10  25  42  72 101 139 189 242 292 371 429
#     4  10  23  46  69 102 149 180 242 296 373 440
#     4  10  24  43  70 107 142 193 248 303 371 444
#     4  12  24  50  74 102 148 186 250 310 354 474
#
# _framework density 24.264804000000002
#
# number of rings (size 3 to 8) (size 9 to 14) (size 15 to 20)
#    1.846    0.000    0.000    2.769    4.308    3.692 
#    2.769    4.615    0.000    0.000    0.000    0.000 
#    0.000    0.000    0.000    0.000    0.000    0.000 
#
# Total GULP energy -144864.049600 kJ/mol
# GULP energy per Si atom -5571.694215 kJ/mol
# Density = 2.420958 g / cm^3
# Si number density = 24.264804 Si / 1000 Ang^3
#
#
#
# Elastic Constant Matrix: (Units=GPa)
#
#
# Indices 1 2 3 4 5 6 
#
# 1 113.9666 2.0977 -1.1707 0.0000 0.0000 0.0000
# 2 2.0977 117.8672 10.3654 0.0000 0.0000 0.0000
# 3 -1.1707 10.3654 94.0978 0.0000 0.0000 0.0000
# 4 0.0000 0.0000 0.0000 20.5664 0.0000 0.0000
# 5 0.0000 0.0000 0.0000 0.0000 21.2626 0.0000
# 6 0.0000 0.0000 0.0000 0.0000 0.0000 20.2494
#
#
#
# Elastic Compliance Matrix: (Units=1/GPa)
#
#
# Indices 1 2 3 4 5 6 
#
# 1 0.008779 -0.000167 0.000128 0.000000 0.000000 0.000000
# 2 -0.000167 0.008570 -0.000946 0.000000 0.000000 0.000000
# 3 0.000128 -0.000946 0.010733 0.000000 0.000000 0.000000
# 4 0.000000 0.000000 0.000000 0.048623 0.000000 0.000000
# 5 0.000000 0.000000 0.000000 0.000000 0.047031 0.000000
# 6 0.000000 0.000000 0.000000 0.000000 0.000000 0.049384
#
#
# Mechanical properties :
#
#
# Convention : Reuss Voigt Hill
#
# Bulk Modulus (GPa) = 38.29899 38.72406 38.51153
# Shear Modulus (GPa) = 27.20413 33.39162 30.29788
#
# Velocity S-wave (km/s) = 3.35197 3.71365 3.53744
# Velocity P-wave (km/s) = 5.54968 5.86361 5.70880
#
# Compressibility (1/GPa) = 0.02611035
#
# Stress axis : x y z
#
# Youngs Moduli (GPa) = 113.90952 116.68190 93.17008
#
# Poissons Ratio (x) = 0.01954 -0.01189
# Poissons Ratio (y) = 0.01908 0.08815
# Poissons Ratio (z) = -0.01454 0.11040
#
# Static dielectric constant tensor:
#      x y z
#    x 1.965260 0.000000 0.000000 
#    y 0.000000 2.002050 0.000000 
#    z 0.000000 0.000000 1.882790 
# 
# From -- ./inp_files/36926.got.cif
#   From: 2010.05.17/outbox.cif.g08.bks.cpg/sg48_19_cif.got.tgz:36926.got - 2010.06.03 20:39:00.
