data_PCOD9391710
_publ_section_title
;
Structure prediction by ZEFSAII (Michael W. Deem and Ramdas Pophale) SiO2 
 PCOD9391710
Probable space group: P N N N
;
_chemical_formula_sum "Si O2"
_cell_formula_units_Z 50
_cell_length_a 10.816903
_cell_length_b 15.192741
_cell_length_c 15.554559
_cell_angle_alpha 90.000000
_cell_angle_beta 90.000000
_cell_angle_gamma 90.000000
_cell_volume 2556.211427
_symmetry_space_group_name_H-M "P N N N"
_symmetry_group_IT_number 48
_space_group.IT_coordinate_system_code '2'
_symmetry_cell_setting 'orthorhombic'
loop_
_space_group_symop_operation_xyz
x,y,z
1/2-x,1/2-y,z
x,1/2-y,1/2-z
1/2-x,y,1/2-z
-x,-y,-z
1/2+x,1/2+y,-z
-x,1/2+y,1/2+z
1/2+x,-y,1/2+z
loop_
_atom_site_type_symbol
_atom_site_label
_atom_site_fract_x
_atom_site_fract_y
_atom_site_fract_z
Si Si1 0.250000 0.250000 0.750000
Si Si2 0.775915 0.471422 0.348621
Si Si3 0.917806 0.633581 0.377610
Si Si4 0.383738 0.719903 0.849590
Si Si5 0.452922 0.058037 0.921901
Si Si6 0.894177 0.357094 0.761046
Si Si7 0.106466 0.232832 0.473388
O O1 0.167268 0.310471 0.688641
O O2 0.750000 0.494770 0.250000
O O3 0.847441 0.545713 0.400384
O O4 0.859462 0.384679 0.351442
O O5 0.637585 0.484485 0.381715
O O6 0.937596 0.692687 0.459695
O O7 0.035705 0.607081 0.322277
O O8 0.250000 0.750000 0.886820
O O9 0.389457 0.750000 0.750000
O O10 0.502596 0.759161 0.898854
O O11 0.541849 0.101063 0.846984
O O12 0.395216 0.143496 0.969935
O O13 0.500000 0.000000 0.000000
O O14 0.907855 0.250000 0.750000
O O15 0.750000 0.376877 0.750000
O O16 0.250000 0.250000 0.447026
#
# Coordination Sequence:
#
# PCOD9391710 Si02
#       7
#     2   8   8   8   8   8   8
#     4  12  16  32  62 100 120 176 216 270 340 440
#     4  12  22  42  74 100 126 180 246 290 332 434
#     4  12  20  37  70  95 134 173 229 284 359 415
#     4  11  26  48  73  94 136 197 246 282 356 436
#     4  12  25  43  71 106 146 184 231 298 368 433
#     4  11  23  40  63 101 141 181 228 288 361 433
#     4  12  25  45  69 108 143 185 236 299 370 425
#
# _framework density 19.560196999999999
#
# number of rings (size 3 to 8) (size 9 to 14) (size 15 to 20)
#    0.000    0.320    8.800    0.960    0.000    3.520 
#    2.880    0.000    0.000    0.000    0.000    0.000 
#    0.000    0.000    0.000    0.000    0.000    0.000 
#
# Total GULP energy -278400.063378 kJ/mol
# GULP energy per Si atom -5568.001268 kJ/mol
# Density = 1.951568 g / cm^3
# Si number density = 19.560197 Si / 1000 Ang^3
#
#
#
# Elastic Constant Matrix: (Units=GPa)
#
#
# Indices 1 2 3 4 5 6 
#
# 1 135.7666 5.7762 57.6992 0.0000 0.0000 0.0000
# 2 5.7762 79.4348 17.1013 0.0000 0.0000 0.0000
# 3 57.6992 17.1013 97.6051 0.0000 0.0000 0.0000
# 4 0.0000 0.0000 0.0000 33.1910 0.0000 0.0000
# 5 0.0000 0.0000 0.0000 0.0000 153.1837 0.0000
# 6 0.0000 0.0000 0.0000 0.0000 0.0000 16.1382
#
#
#
# Elastic Compliance Matrix: (Units=1/GPa)
#
#
# Indices 1 2 3 4 5 6 
#
# 1 0.009861 0.000559 -0.005927 0.000000 0.000000 0.000000
# 2 0.000559 0.013114 -0.002628 0.000000 0.000000 0.000000
# 3 -0.005927 -0.002628 0.014210 0.000000 0.000000 0.000000
# 4 0.000000 0.000000 0.000000 0.030129 0.000000 0.000000
# 5 0.000000 0.000000 0.000000 0.000000 0.006528 0.000000
# 6 0.000000 0.000000 0.000000 0.000000 0.000000 0.061965
#
#
# Mechanical properties :
#
#
# Convention : Reuss Voigt Hill
#
# Bulk Modulus (GPa) = 47.18772 52.66220 49.92496
# Shear Modulus (GPa) = 31.47377 55.98458 43.72918
#
# Velocity S-wave (km/s) = 4.01568 5.35573 4.73336
# Velocity P-wave (km/s) = 6.75852 8.07630 7.44662
#
# Compressibility (1/GPa) = 0.02119195
#
# Stress axis : x y z
#
# Youngs Moduli (GPa) = 101.41202 76.25379 70.37461
#
# Poissons Ratio (x) = -0.04263 0.41712
# Poissons Ratio (y) = -0.05669 0.18496
# Poissons Ratio (z) = 0.60108 0.20041
#
# Static dielectric constant tensor:
#      x y z
#    x 1.708590 0.000000 0.000000 
#    y 0.000000 1.591030 0.000000 
#    z 0.000000 0.000000 1.626100 
# 
# From -- ./inp_files/26498.got.cif
#   From: 2010.05.17/outbox.cif.g08.bks.cpg/sg48_14_cif.got.tgz:26498.got - 2010.06.03 20:39:00.
