data_PCOD9391991
_publ_section_title
;
Structure prediction by ZEFSAII (Michael W. Deem and Ramdas Pophale) SiO2 
 PCOD9391991
Probable space group: P C C M
;
_chemical_formula_sum "Si O2"
_cell_formula_units_Z 56
_cell_length_a 30.323415
_cell_length_b 13.890122
_cell_length_c 8.713521
_cell_angle_alpha 90.000000
_cell_angle_beta 90.000000
_cell_angle_gamma 90.000000
_cell_volume 3670.099614
_symmetry_space_group_name_H-M "P C C M"
_symmetry_group_IT_number 49
_symmetry_cell_setting 'orthorhombic'
loop_
_space_group_symop_operation_xyz
x,y,z
-x,-y,z
x,-y,1/2-z
-x,y,1/2-z
-x,-y,-z
x,y,-z
-x,y,1/2+z
x,-y,1/2+z
loop_
_atom_site_type_symbol
_atom_site_label
_atom_site_fract_x
_atom_site_fract_y
_atom_site_fract_z
Si Si1 0.909856 0.395091 0.184552
Si Si2 0.732391 0.392336 0.682845
Si Si3 0.635061 0.391294 0.684207
Si Si4 0.818018 0.296313 0.816339
Si Si5 0.867403 0.103016 0.184259
Si Si6 0.454807 0.609411 0.183511
Si Si7 0.952571 0.204653 0.683448
O O1 0.920064 0.500000 0.250000
O O2 0.859282 0.365712 0.224143
O O3 0.939893 0.311325 0.255922
O O4 0.914088 0.393199 0.000000
O O5 0.736513 0.500000 0.750000
O O6 0.734046 0.400399 0.500000
O O7 0.683648 0.351334 0.722697
O O8 0.772978 0.329693 0.740840
O O9 0.637012 0.500000 0.750000
O O10 0.629838 0.394377 0.500000
O O11 0.591256 0.345928 0.758251
O O12 0.833649 0.188821 0.774604
O O13 0.813103 0.300714 0.000000
O O14 0.914372 0.135043 0.253459
O O15 0.854395 0.000000 0.250000
O O16 0.870899 0.100154 0.000000
O O17 0.454118 0.500000 0.250000
O O18 0.500000 0.653469 0.250000
O O19 0.456224 0.605784 0.000000
O O20 0.952989 0.203675 0.500000
O O21 0.000000 0.177507 0.750000
#
# Coordination Sequence:
#
# PCOD9391991 Si02
#       7
#     8   8   8   8   8   8   8
#     4  10  20  34  50  71  96 124 155 186 218 256
#     4  10  19  28  42  62  87 117 149 183 221 260
#     4   9  16  25  34  49  72 100 136 178 217 256
#     4   9  19  33  49  68  92 116 144 179 215 257
#     4  10  21  38  57  77  96 117 144 178 217 260
#     4  10  16  22  32  45  63  92 130 175 220 260
#     4  11  22  37  55  75  98 123 149 181 216 256
#
# _framework density 15.258440999999999
#
# number of rings (size 3 to 8) (size 9 to 14) (size 15 to 20)
#    0.000    2.143    0.000    6.857    0.000    6.857 
#    0.000    2.857    0.000    0.000    0.000    0.000 
#    0.000    0.000    0.000    0.000    0.000    0.714 
#
# Total GULP energy -312275.012423 kJ/mol
# GULP energy per Si atom -5576.339508 kJ/mol
# Density = 1.522371 g / cm^3
# Si number density = 15.258441 Si / 1000 Ang^3
#
#
#
# Elastic Constant Matrix: (Units=GPa)
#
#
# Indices 1 2 3 4 5 6 
#
# 1 128.2058 18.1902 45.5290 0.0000 0.0000 0.0000
# 2 18.1902 47.1217 17.5807 0.0000 0.0000 0.0000
# 3 45.5290 17.5807 83.0982 0.0000 0.0000 0.0000
# 4 0.0000 0.0000 0.0000 20.3469 0.0000 0.0000
# 5 0.0000 0.0000 0.0000 0.0000 27.4205 0.0000
# 6 0.0000 0.0000 0.0000 0.0000 0.0000 6.8929
#
#
#
# Elastic Compliance Matrix: (Units=1/GPa)
#
#
# Indices 1 2 3 4 5 6 
#
# 1 0.009845 -0.001941 -0.004983 0.000000 0.000000 0.000000
# 2 -0.001941 0.023423 -0.003892 0.000000 0.000000 0.000000
# 3 -0.004983 -0.003892 0.015588 0.000000 0.000000 0.000000
# 4 0.000000 0.000000 0.000000 0.049148 0.000000 0.000000
# 5 0.000000 0.000000 0.000000 0.000000 0.036469 0.000000
# 6 0.000000 0.000000 0.000000 0.000000 0.000000 0.145078
#
#
# Mechanical properties :
#
#
# Convention : Reuss Voigt Hill
#
# Bulk Modulus (GPa) = 36.73390 46.78064 41.75727
# Shear Modulus (GPa) = 16.11565 22.74044 19.42804
#
# Velocity S-wave (km/s) = 3.25342 3.86470 3.57216
# Velocity P-wave (km/s) = 6.18383 7.11617 6.66632
#
# Compressibility (1/GPa) = 0.02722281
#
# Stress axis : x y z
#
# Youngs Moduli (GPa) = 101.57334 42.69303 64.15308
#
# Poissons Ratio (x) = 0.08288 0.31970
# Poissons Ratio (y) = 0.19718 0.24968
# Poissons Ratio (z) = 0.50618 0.16616
#
# Static dielectric constant tensor:
#      x y z
#    x 1.556350 0.000000 0.000000 
#    y 0.000000 1.476500 0.000000 
#    z 0.000000 0.000000 1.508230 
# 
# From -- ./inp_files/7021.got.cif
#   From: 2010.05.17/outbox.cif.g08.bks.cpg/sg49_4_cif.got.tgz:7021.got - 2010.06.03 21:02:19.
