data_PCOD9391949
_publ_section_title
;
Structure prediction by ZEFSAII (Michael W. Deem and Ramdas Pophale) SiO2 
 PCOD9391949
Probable space group: P N N N
;
_chemical_formula_sum "Si O2"
_cell_formula_units_Z 56
_cell_length_a 21.000000
_cell_length_b 12.000000
_cell_length_c 12.000000
_cell_angle_alpha 90.000000
_cell_angle_beta 90.000000
_cell_angle_gamma 90.000000
_cell_volume 3024.000000
_symmetry_space_group_name_H-M "P N N N"
_symmetry_group_IT_number 48
_space_group.IT_coordinate_system_code '2'
_symmetry_cell_setting 'orthorhombic'
loop_
_space_group_symop_operation_xyz
x,y,z
1/2-x,1/2-y,z
x,1/2-y,1/2-z
1/2-x,y,1/2-z
-x,-y,-z
1/2+x,1/2+y,-z
-x,1/2+y,1/2+z
1/2+x,-y,1/2+z
loop_
_atom_site_type_symbol
_atom_site_label
_atom_site_fract_x
_atom_site_fract_y
_atom_site_fract_z
Si Si1 0.417270 0.555190 0.234770
Si Si2 0.192537 0.914560 0.407430
Si Si3 0.170708 0.650283 0.443376
Si Si4 0.898784 0.019826 0.413256
Si Si5 0.990177 0.609542 0.576169
Si Si6 0.624153 0.136906 0.311670
Si Si7 0.502878 0.336236 0.559747
O O1 0.353659 0.541336 0.310113
O O2 0.392172 0.623850 0.127926
O O3 0.444908 0.441493 0.177251
O O4 0.463768 0.626530 0.319464
O O5 0.180435 0.782015 0.425602
O O6 0.268509 0.916778 0.395641
O O7 0.166049 0.974123 0.517139
O O8 0.163911 0.621873 0.574331
O O9 0.881456 0.044995 0.285427
O O10 0.946707 0.113039 0.468682
O O11 0.938347 0.908248 0.434651
O O12 0.981798 0.714060 0.488543
O O13 0.000000 0.500000 0.500000
O O14 0.052904 0.646014 0.641987
O O15 0.645016 0.250000 0.250000
#
# Coordination Sequence:
#
# PCOD9391949 Si02
#       7
#     8   8   8   8   8   8   8
#     4  11  22  37  60  84 127 164 200 260 314 373
#     4  10  22  37  57  86 120 164 205 249 314 375
#     4  11  22  36  57  88 121 162 206 254 315 379
#     4  10  20  38  57  84 124 165 199 257 314 373
#     4  12  24  36  58  94 125 167 207 257 320 381
#     4  12  20  37  58  88 129 157 206 254 315 388
#     4  10  22  38  58  88 123 164 211 254 317 385
#
# _framework density 18.518519000000001
#
# number of rings (size 3 to 8) (size 9 to 14) (size 15 to 20)
#    0.000    1.143    5.714    1.714    2.000    1.714 
#    0.000    0.000    0.000    0.857    0.000    6.000 
#    4.286    0.000    0.000    0.000    0.000    0.000 
#
# Total GULP energy -311746.593585 kJ/mol
# GULP energy per Si atom -5566.903457 kJ/mol
# Density = 1.847637 g / cm^3
# Si number density = 18.518519 Si / 1000 Ang^3
#
#
#
# Elastic Constant Matrix: (Units=GPa)
#
#
# Indices 1 2 3 4 5 6 
#
# 1 84.4743 31.9681 26.9678 0.0000 0.0000 0.0000
# 2 31.9681 102.5820 38.8067 0.0000 0.0000 0.0000
# 3 26.9678 38.8067 121.1684 0.0000 0.0000 0.0000
# 4 0.0000 0.0000 0.0000 31.3581 0.0000 0.0000
# 5 0.0000 0.0000 0.0000 0.0000 27.7534 0.0000
# 6 0.0000 0.0000 0.0000 0.0000 0.0000 23.8574
#
#
#
# Elastic Compliance Matrix: (Units=1/GPa)
#
#
# Indices 1 2 3 4 5 6 
#
# 1 0.013806 -0.003573 -0.001928 0.000000 0.000000 0.000000
# 2 -0.003573 0.012017 -0.003053 0.000000 0.000000 0.000000
# 3 -0.001928 -0.003053 0.009660 0.000000 0.000000 0.000000
# 4 0.000000 0.000000 0.000000 0.031890 0.000000 0.000000
# 5 0.000000 0.000000 0.000000 0.000000 0.036032 0.000000
# 6 0.000000 0.000000 0.000000 0.000000 0.000000 0.041916
#
#
# Mechanical properties :
#
#
# Convention : Reuss Voigt Hill
#
# Bulk Modulus (GPa) = 54.42693 55.96778 55.19735
# Shear Modulus (GPa) = 29.66421 30.62591 30.14506
#
# Velocity S-wave (km/s) = 4.00668 4.07111 4.03902
# Velocity P-wave (km/s) = 7.13155 7.23787 7.18490
#
# Compressibility (1/GPa) = 0.01837326
#
# Stress axis : x y z
#
# Youngs Moduli (GPa) = 72.43430 83.21659 103.51855
#
# Poissons Ratio (x) = 0.29732 0.19962
# Poissons Ratio (y) = 0.25879 0.31609
# Poissons Ratio (z) = 0.13968 0.25410
#
# Static dielectric constant tensor:
#      x y z
#    x 1.679260 0.000000 0.000000 
#    y 0.000000 1.669720 0.000000 
#    z 0.000000 0.000000 1.744350 
# 
# From -- ./inp_files/22880.got.cif
#   From: 2010.05.17/outbox.ucp.g08.bks.cvg/sg48_12_cif.got.tgz:22880.got - 2010.06.11 16:38:40.
