data_PCOD9391739
_publ_section_title
;
Structure prediction by ZEFSAII (Michael W. Deem and Ramdas Pophale) SiO2 
 PCOD9391739
Probable space group: P N N N
;
_chemical_formula_sum "Si O2"
_cell_formula_units_Z 32
_cell_length_a 14.632048
_cell_length_b 10.767997
_cell_length_c 10.020133
_cell_angle_alpha 90.000000
_cell_angle_beta 90.000000
_cell_angle_gamma 90.000000
_cell_volume 1578.750602
_symmetry_space_group_name_H-M "P N N N"
_symmetry_group_IT_number 48
_space_group.IT_coordinate_system_code '2'
_symmetry_cell_setting 'orthorhombic'
loop_
_space_group_symop_operation_xyz
x,y,z
1/2-x,1/2-y,z
x,1/2-y,1/2-z
1/2-x,y,1/2-z
-x,-y,-z
1/2+x,1/2+y,-z
-x,1/2+y,1/2+z
1/2+x,-y,1/2+z
loop_
_atom_site_type_symbol
_atom_site_label
_atom_site_fract_x
_atom_site_fract_y
_atom_site_fract_z
Si Si1 0.622838 0.651821 0.628222
Si Si2 0.153505 0.135329 0.674508
Si Si3 0.750000 0.053751 0.750000
Si Si4 0.409833 0.857880 0.859989
Si Si5 0.750000 0.250000 0.542501
O O1 0.635195 0.750000 0.750000
O O2 0.664736 0.671122 0.481194
O O3 0.671044 0.529866 0.686473
O O4 0.515238 0.642595 0.596117
O O5 0.104465 0.250000 0.750000
O O6 0.250000 0.122276 0.750000
O O7 0.108971 0.999356 0.684042
O O8 0.709340 0.142965 0.636697
O O9 0.403712 0.750000 0.750000
O O10 0.330399 0.816238 0.960986
#
# Coordination Sequence:
#
# PCOD9391739 Si02
#       5
#     8   8   4   8   4
#     4  11  26  45  70  98 141 183 233 287 351 418
#     4  11  25  42  67 101 134 180 226 283 344 413
#     4  11  25  40  70 100 137 187 228 288 350 421
#     4  11  24  45  70 102 137 182 232 293 346 417
#     4  11  23  42  72 100 137 183 234 288 353 408
#
# _framework density 20.269193999999999
#
# number of rings (size 3 to 8) (size 9 to 14) (size 15 to 20)
#    0.000    1.000    2.500    3.000    7.000    2.000 
#    0.000    5.000    0.000    0.000    0.000    0.000 
#    0.000    0.000    0.000    0.000    0.000    0.000 
#
# Total GULP energy -178470.287584 kJ/mol
# GULP energy per Si atom -5577.196487 kJ/mol
# Density = 2.022306 g / cm^3
# Si number density = 20.269194 Si / 1000 Ang^3
#
#
#
# Elastic Constant Matrix: (Units=GPa)
#
#
# Indices 1 2 3 4 5 6 
#
# 1 110.5985 49.1919 59.0893 0.0000 0.0000 0.0000
# 2 49.1919 174.8064 70.6624 0.0000 0.0000 0.0000
# 3 59.0893 70.6624 141.5248 0.0000 0.0000 0.0000
# 4 0.0000 0.0000 0.0000 38.2312 0.0000 0.0000
# 5 0.0000 0.0000 0.0000 0.0000 75.2206 0.0000
# 6 0.0000 0.0000 0.0000 0.0000 0.0000 73.7289
#
#
#
# Elastic Compliance Matrix: (Units=1/GPa)
#
#
# Indices 1 2 3 4 5 6 
#
# 1 0.012027 -0.001697 -0.004174 0.000000 0.000000 0.000000
# 2 -0.001697 0.007407 -0.002990 0.000000 0.000000 0.000000
# 3 -0.004174 -0.002990 0.010301 0.000000 0.000000 0.000000
# 4 0.000000 0.000000 0.000000 0.026157 0.000000 0.000000
# 5 0.000000 0.000000 0.000000 0.000000 0.013294 0.000000
# 6 0.000000 0.000000 0.000000 0.000000 0.000000 0.013563
#
#
# Mechanical properties :
#
#
# Convention : Reuss Voigt Hill
#
# Bulk Modulus (GPa) = 83.24116 87.20187 85.22152
# Shear Modulus (GPa) = 47.85873 53.96855 50.91364
#
# Velocity S-wave (km/s) = 4.86444 5.16563 5.01730
# Velocity P-wave (km/s) = 8.52686 8.87094 8.70060
#
# Compressibility (1/GPa) = 0.01201329
#
# Stress axis : x y z
#
# Youngs Moduli (GPa) = 83.14922 135.01365 97.07562
#
# Poissons Ratio (x) = 0.22914 0.40519
# Poissons Ratio (y) = 0.14111 0.29021
# Poissons Ratio (z) = 0.34706 0.40363
#
# Static dielectric constant tensor:
#      x y z
#    x 1.755600 0.000000 0.000000 
#    y 0.000000 1.745650 0.000000 
#    z 0.000000 0.000000 0.227650 
# 
# From -- ./inp_files/10317.got.cif
#   From: 2010.05.17/outbox.cif.g08.bks.cpg/sg48_6_cif.got.tgz:10317.got - 2010.06.03 20:39:00.
