data_PCOD9391309
_publ_section_title
;
Structure prediction by ZEFSAII (Michael W. Deem and Ramdas Pophale) SiO2 
 PCOD9391309
Probable space group: P N N N
;
_chemical_formula_sum "Si O2"
_cell_formula_units_Z 40
_cell_length_a 8.148599
_cell_length_b 23.910063
_cell_length_c 8.929583
_cell_angle_alpha 90.000000
_cell_angle_beta 90.000000
_cell_angle_gamma 90.000000
_cell_volume 1739.782047
_symmetry_space_group_name_H-M "P N N N"
_symmetry_group_IT_number 48
_space_group.IT_coordinate_system_code '2'
_symmetry_cell_setting 'orthorhombic'
loop_
_space_group_symop_operation_xyz
x,y,z
1/2-x,1/2-y,z
x,1/2-y,1/2-z
1/2-x,y,1/2-z
-x,-y,-z
1/2+x,1/2+y,-z
-x,1/2+y,1/2+z
1/2+x,-y,1/2+z
loop_
_atom_site_type_symbol
_atom_site_label
_atom_site_fract_x
_atom_site_fract_y
_atom_site_fract_z
Si Si1 0.683237 0.312617 0.418637
Si Si2 0.883733 0.097595 0.644463
Si Si3 0.092527 0.411936 0.573991
Si Si4 0.729933 0.033863 0.421394
Si Si5 0.208186 0.188697 0.424400
O O1 0.750000 0.250000 0.440580
O O2 0.750000 0.328235 0.250000
O O3 0.710718 0.349214 0.569811
O O4 0.487034 0.316974 0.422614
O O5 0.750000 0.067677 0.750000
O O6 0.892061 0.056282 0.505035
O O7 0.035599 0.104129 0.755977
O O8 0.200694 0.467948 0.567434
O O9 0.187914 0.359888 0.502804
O O10 0.931052 0.432659 0.481539
O O11 0.750000 0.047420 0.250000
O O12 0.250000 0.250000 0.488388
O O13 0.250000 0.188302 0.250000
#
# Coordination Sequence:
#
# PCOD9391309 Si02
#       5
#     8   8   8   8   8
#     4  11  25  45  75 103 137 195 248 293 368 457
#     4  10  24  42  69 103 145 188 241 306 365 434
#     4  10  25  46  69 112 151 185 252 309 374 434
#     4  10  23  43  75 102 148 202 245 297 371 453
#     4  11  26  45  74 105 146 191 243 311 363 443
#
# _framework density 22.991385999999999
#
# number of rings (size 3 to 8) (size 9 to 14) (size 15 to 20)
#    0.000    1.600    0.000    3.000   16.800    5.200 
#    0.000    1.000    0.000    0.000    0.000    0.000 
#    0.000    0.000    0.000    0.000    0.000    0.000 
#
# Total GULP energy -223055.434176 kJ/mol
# GULP energy per Si atom -5576.385854 kJ/mol
# Density = 2.293906 g / cm^3
# Si number density = 22.991386 Si / 1000 Ang^3
#
#
#
# Elastic Constant Matrix: (Units=GPa)
#
#
# Indices 1 2 3 4 5 6 
#
# 1 100.5743 62.3471 46.1354 0.0000 0.0000 0.0000
# 2 62.3471 214.1964 79.7874 0.0000 0.0000 0.0000
# 3 46.1354 79.7874 152.6829 0.0000 0.0000 0.0000
# 4 0.0000 0.0000 0.0000 49.4808 0.0000 0.0000
# 5 0.0000 0.0000 0.0000 0.0000 35.1756 0.0000
# 6 0.0000 0.0000 0.0000 0.0000 0.0000 37.4126
#
#
#
# Elastic Compliance Matrix: (Units=1/GPa)
#
#
# Indices 1 2 3 4 5 6 
#
# 1 0.012795 -0.002836 -0.002384 0.000000 0.000000 0.000000
# 2 -0.002836 0.006426 -0.002501 0.000000 0.000000 0.000000
# 3 -0.002384 -0.002501 0.008577 0.000000 0.000000 0.000000
# 4 0.000000 0.000000 0.000000 0.020210 0.000000 0.000000
# 5 0.000000 0.000000 0.000000 0.000000 0.028429 0.000000
# 6 0.000000 0.000000 0.000000 0.000000 0.000000 0.026729
#
#
# Mechanical properties :
#
#
# Convention : Reuss Voigt Hill
#
# Bulk Modulus (GPa) = 80.93872 93.77704 87.35788
# Shear Modulus (GPa) = 40.74142 43.02606 41.88374
#
# Velocity S-wave (km/s) = 4.21412 4.33066 4.27279
# Velocity P-wave (km/s) = 7.67846 8.11681 7.90067
#
# Compressibility (1/GPa) = 0.01235503
#
# Stress axis : x y z
#
# Youngs Moduli (GPa) = 78.15766 155.62450 116.59393
#
# Poissons Ratio (x) = 0.44138 0.27796
# Poissons Ratio (y) = 0.22167 0.29159
# Poissons Ratio (z) = 0.18633 0.38920
#
# Static dielectric constant tensor:
#      x y z
#    x 2.347080 0.000000 0.000000 
#    y 0.000000 1.924180 0.000000 
#    z 0.000000 0.000000 0.336400 
# 
# From -- ./inp_files/9040.got.cif
#   From: 2010.05.17/outbox.cif.g08.bks.cpg/sg48_5_cif.got.tgz:9040.got - 2010.06.03 20:39:00.
