data_PCOD9391898
_publ_section_title
;
Structure prediction by ZEFSAII (Michael W. Deem and Ramdas Pophale) SiO2 
 PCOD9391898
Probable space group: P N N N
;
_chemical_formula_sum "Si O2"
_cell_formula_units_Z 30
_cell_length_a 13.772409
_cell_length_b 4.885634
_cell_length_c 17.641722
_cell_angle_alpha 90.000000
_cell_angle_beta 90.000000
_cell_angle_gamma 90.000000
_cell_volume 1187.057660
_symmetry_space_group_name_H-M "P N N N"
_symmetry_group_IT_number 48
_space_group.IT_coordinate_system_code '2'
_symmetry_cell_setting 'orthorhombic'
loop_
_space_group_symop_operation_xyz
x,y,z
1/2-x,1/2-y,z
x,1/2-y,1/2-z
1/2-x,y,1/2-z
-x,-y,-z
1/2+x,1/2+y,-z
-x,1/2+y,1/2+z
1/2+x,-y,1/2+z
loop_
_atom_site_type_symbol
_atom_site_label
_atom_site_fract_x
_atom_site_fract_y
_atom_site_fract_z
Si Si1 0.913303 0.057729 0.643773
Si Si2 0.349996 0.576676 0.522318
Si Si3 0.921426 0.559799 0.387882
Si Si4 0.066447 0.750000 0.750000
Si Si5 0.750000 0.250000 0.750000
O O1 0.877319 0.972304 0.560937
O O2 0.820061 0.078346 0.696335
O O3 0.968563 0.345308 0.628904
O O4 0.995431 0.907024 0.692349
O O5 0.250000 0.750000 0.521956
O O6 0.363039 0.317471 0.577754
O O7 0.421675 0.811415 0.552938
O O8 0.878268 0.449664 0.307959
#
# Coordination Sequence:
#
# PCOD9391898 Si02
#       5
#     8   8   8   4   2
#     4  12  26  49  77 115 160 200 254 324 409 476
#     4  12  28  49  80 115 155 202 270 322 383 467
#     4  12  26  50  79 111 153 214 255 318 399 468
#     4  12  26  47  81 108 156 212 260 318 397 485
#     4  12  24  46  76 124 152 202 246 344 398 476
#
# _framework density 25.272572
#
# number of rings (size 3 to 8) (size 9 to 14) (size 15 to 20)
#    0.000    0.000    6.667    2.400    3.733    0.533 
#    4.800    0.667    5.867    0.000    0.000    0.000 
#    0.000    0.000    0.000    0.000    0.000    0.000 
#
# Total GULP energy -167905.209688 kJ/mol
# GULP energy per Si atom -5596.840323 kJ/mol
# Density = 2.521505 g / cm^3
# Si number density = 25.272572 Si / 1000 Ang^3
#
#
#
# Elastic Constant Matrix: (Units=GPa)
#
#
# Indices 1 2 3 4 5 6 
#
# 1 74.0871 24.0585 50.8638 0.0000 0.0000 0.0000
# 2 24.0585 135.9047 92.5137 0.0000 0.0000 0.0000
# 3 50.8638 92.5137 230.9283 0.0000 0.0000 0.0000
# 4 0.0000 0.0000 0.0000 55.5315 0.0000 0.0000
# 5 0.0000 0.0000 0.0000 0.0000 40.0002 0.0000
# 6 0.0000 0.0000 0.0000 0.0000 0.0000 22.5471
#
#
#
# Elastic Compliance Matrix: (Units=1/GPa)
#
#
# Indices 1 2 3 4 5 6 
#
# 1 0.015937 -0.000594 -0.003272 0.000000 0.000000 0.000000
# 2 -0.000594 0.010139 -0.003931 0.000000 0.000000 0.000000
# 3 -0.003272 -0.003931 0.006626 0.000000 0.000000 0.000000
# 4 0.000000 0.000000 0.000000 0.018008 0.000000 0.000000
# 5 0.000000 0.000000 0.000000 0.000000 0.025000 0.000000
# 6 0.000000 0.000000 0.000000 0.000000 0.000000 0.044352
#
#
# Mechanical properties :
#
#
# Convention : Reuss Voigt Hill
#
# Bulk Modulus (GPa) = 58.45285 86.19912 72.32598
# Shear Modulus (GPa) = 35.37099 41.84804 38.60952
#
# Velocity S-wave (km/s) = 3.74516 4.07365 3.91285
# Velocity P-wave (km/s) = 6.47153 7.50386 7.00674
#
# Compressibility (1/GPa) = 0.01710781
#
# Stress axis : x y z
#
# Youngs Moduli (GPa) = 62.74680 98.62663 150.91983
#
# Poissons Ratio (x) = 0.05855 0.49388
# Poissons Ratio (y) = 0.03725 0.59330
# Poissons Ratio (z) = 0.20534 0.38772
#
# Static dielectric constant tensor:
#      x y z
#    x 2.033430 0.000000 0.000000 
#    y 0.000000 2.072740 0.000000 
#    z 0.000000 0.000000 1.987190 
# 
# From -- ./inp_files/29171.got.cif
#   From: 2010.05.17/outbox.cif.g08.bks.cpg/sg48_15_cif.got.tgz:29171.got - 2010.06.03 20:39:00.
