data_PCOD9391330
_publ_section_title
;
Structure prediction by ZEFSAII (Michael W. Deem and Ramdas Pophale) SiO2 
 PCOD9391330
Probable space group: P N N N
;
_chemical_formula_sum "Si O2"
_cell_formula_units_Z 20
_cell_length_a 20.719621
_cell_length_b 7.274095
_cell_length_c 5.573502
_cell_angle_alpha 90.000000
_cell_angle_beta 90.000000
_cell_angle_gamma 90.000000
_cell_volume 840.018667
_symmetry_space_group_name_H-M "P N N N"
_symmetry_group_IT_number 48
_space_group.IT_coordinate_system_code '2'
_symmetry_cell_setting 'orthorhombic'
loop_
_space_group_symop_operation_xyz
x,y,z
1/2-x,1/2-y,z
x,1/2-y,1/2-z
1/2-x,y,1/2-z
-x,-y,-z
1/2+x,1/2+y,-z
-x,1/2+y,1/2+z
1/2+x,-y,1/2+z
loop_
_atom_site_type_symbol
_atom_site_label
_atom_site_fract_x
_atom_site_fract_y
_atom_site_fract_z
Si Si1 0.910491 0.426077 0.126358
Si Si2 0.509559 0.750000 0.250000
Si Si3 0.275969 0.459140 0.495783
O O1 0.879335 0.250000 0.250000
O O2 0.944365 0.574838 0.300532
O O3 0.853494 0.531310 0.991488
O O4 0.964198 0.329339 0.958812
O O5 0.250000 0.250000 0.494811
O O6 0.250000 0.544880 0.250000
O O7 0.250000 0.533603 0.750000
#
# Coordination Sequence:
#
# PCOD9391330 Si02
#       3
#     8   4   8
#     4  11  24  45  73 104 147 188 251 301 374 442
#     4  10  24  46  70 110 142 190 242 310 374 434
#     4  10  23  45  72 102 142 195 239 298 362 429
#
# _framework density 23.808994999999999
#
# number of rings (size 3 to 8) (size 9 to 14) (size 15 to 20)
#    0.000    1.600    0.000    3.600    5.600    0.800 
#   28.800    0.000    0.000    0.000    0.000    0.000 
#    0.000    0.000    0.000    0.000    0.000    0.000 
#
# Total GULP energy -111610.625224 kJ/mol
# GULP energy per Si atom -5580.531261 kJ/mol
# Density = 2.375480 g / cm^3
# Si number density = 23.808995 Si / 1000 Ang^3
#
#
#
# Elastic Constant Matrix: (Units=GPa)
#
#
# Indices 1 2 3 4 5 6 
#
# 1 140.3622 71.0150 33.4216 0.0000 0.0000 0.0000
# 2 71.0150 184.8991 27.1811 0.0000 0.0000 0.0000
# 3 33.4216 27.1811 132.9122 0.0000 0.0000 0.0000
# 4 0.0000 0.0000 0.0000 10.0460 0.0000 0.0000
# 5 0.0000 0.0000 0.0000 0.0000 31.1498 0.0000
# 6 0.0000 0.0000 0.0000 0.0000 0.0000 110.7640
#
#
#
# Elastic Compliance Matrix: (Units=1/GPa)
#
#
# Indices 1 2 3 4 5 6 
#
# 1 0.009175 -0.003283 -0.001636 0.000000 0.000000 0.000000
# 2 -0.003283 0.006751 -0.000555 0.000000 0.000000 0.000000
# 3 -0.001636 -0.000555 0.008049 0.000000 0.000000 0.000000
# 4 0.000000 0.000000 0.000000 0.099542 0.000000 0.000000
# 5 0.000000 0.000000 0.000000 0.000000 0.032103 0.000000
# 6 0.000000 0.000000 0.000000 0.000000 0.000000 0.009028
#
#
# Mechanical properties :
#
#
# Convention : Reuss Voigt Hill
#
# Bulk Modulus (GPa) = 76.76648 80.15654 78.46151
# Shear Modulus (GPa) = 27.78729 52.16235 39.97482
#
# Velocity S-wave (km/s) = 3.41998 4.68575 4.10198
# Velocity P-wave (km/s) = 6.92153 7.93817 7.44722
#
# Compressibility (1/GPa) = 0.01302652
#
# Stress axis : x y z
#
# Youngs Moduli (GPa) = 108.99010 148.12534 124.24590
#
# Poissons Ratio (x) = 0.48637 0.20322
# Poissons Ratio (y) = 0.35787 0.06895
# Poissons Ratio (z) = 0.17827 0.08220
#
# Static dielectric constant tensor:
#      x y z
#    x 1.899560 0.000000 0.000000 
#    y 0.000000 1.902530 0.000000 
#    z 0.000000 0.000000 1.954650 
# 
# From -- ./inp_files/590.got.cif
#   From: 2010.05.17/outbox.cif.g08.bks.cpg/sg48_1_cif.got.tgz:590.got - 2010.06.03 20:39:00.
