data_PCOD9391542
_publ_section_title
;
Structure prediction by ZEFSAII (Michael W. Deem and Ramdas Pophale) SiO2 
 PCOD9391542
Probable space group: P N N N
;
_chemical_formula_sum "Si O2"
_cell_formula_units_Z 48
_cell_length_a 10.604040
_cell_length_b 25.550079
_cell_length_c 9.768439
_cell_angle_alpha 90.000000
_cell_angle_beta 90.000000
_cell_angle_gamma 90.000000
_cell_volume 2646.602835
_symmetry_space_group_name_H-M "P N N N"
_symmetry_group_IT_number 48
_space_group.IT_coordinate_system_code '2'
_symmetry_cell_setting 'orthorhombic'
loop_
_space_group_symop_operation_xyz
x,y,z
1/2-x,1/2-y,z
x,1/2-y,1/2-z
1/2-x,y,1/2-z
-x,-y,-z
1/2+x,1/2+y,-z
-x,1/2+y,1/2+z
1/2+x,-y,1/2+z
loop_
_atom_site_type_symbol
_atom_site_label
_atom_site_fract_x
_atom_site_fract_y
_atom_site_fract_z
Si Si1 0.782875 0.371383 0.902127
Si Si2 0.986400 0.438554 0.012301
Si Si3 0.952318 0.847892 0.326295
Si Si4 0.883893 0.725382 0.951857
Si Si5 0.486789 0.668239 0.017753
Si Si6 0.900147 0.870580 0.744607
O O1 0.750000 0.391927 0.750000
O O2 0.661132 0.344041 0.964117
O O3 0.903260 0.333740 0.873987
O O4 0.843315 0.417587 0.992054
O O5 0.039501 0.416187 0.153910
O O6 0.000000 0.500000 0.000000
O O7 0.059012 0.405915 0.891447
O O8 0.865827 0.807999 0.408726
O O9 0.949110 0.844585 0.164184
O O10 0.750000 0.750000 0.912426
O O11 0.926258 0.683614 0.838074
O O12 0.980197 0.772193 0.979676
O O13 0.543691 0.633988 0.895333
O O14 0.750000 0.876519 0.750000
#
# Coordination Sequence:
#
# PCOD9391542 Si02
#       6
#     8   8   8   8   8   8
#     4   8  18  38  61  85 117 152 196 249 296 363
#     4   9  20  42  67  83 116 158 202 256 315 362
#     4   8  20  38  57  92 113 155 209 245 295 371
#     4  11  21  37  58  85 124 168 203 243 301 364
#     4  11  20  34  63  84 126 157 193 252 301 362
#     4  11  23  40  58  90 124 161 206 252 306 374
#
# _framework density 18.136457
#
# number of rings (size 3 to 8) (size 9 to 14) (size 15 to 20)
#    1.000    1.333    1.667    1.000    0.000    3.333 
#    0.000    3.333    7.333    0.000    0.000    0.000 
#    0.000    0.000    0.000    0.000    0.000    0.000 
#
# Total GULP energy -267350.783123 kJ/mol
# GULP energy per Si atom -5569.807982 kJ/mol
# Density = 1.809518 g / cm^3
# Si number density = 18.136457 Si / 1000 Ang^3
#
#
#
# Elastic Constant Matrix: (Units=GPa)
#
#
# Indices 1 2 3 4 5 6 
#
# 1 73.4412 40.6492 41.2457 0.0000 0.0000 0.0000
# 2 40.6492 121.7963 48.4576 0.0000 0.0000 0.0000
# 3 41.2457 48.4576 136.7041 0.0000 0.0000 0.0000
# 4 0.0000 0.0000 0.0000 7.3227 0.0000 0.0000
# 5 0.0000 0.0000 0.0000 0.0000 29.3306 0.0000
# 6 0.0000 0.0000 0.0000 0.0000 0.0000 -0.2696
#
#
#
# Elastic Compliance Matrix: (Units=1/GPa)
#
#
# Indices 1 2 3 4 5 6 
#
# 1 0.018342 -0.004563 -0.003916 0.000000 0.000000 0.000000
# 2 -0.004563 0.010694 -0.002414 0.000000 0.000000 0.000000
# 3 -0.003916 -0.002414 0.009352 0.000000 0.000000 0.000000
# 4 0.000000 0.000000 0.000000 0.136561 0.000000 0.000000
# 5 0.000000 0.000000 0.000000 0.000000 0.034094 0.000000
# 6 0.000000 0.000000 0.000000 0.000000 0.000000 -3.708799
#
#
# Mechanical properties :
#
#
# Convention : Reuss Voigt Hill
#
# Bulk Modulus (GPa) = 60.23839 65.84962 63.04401
# Shear Modulus (GPa) = -1.43991 20.71603 9.63806
#
# Velocity S-wave (km/s) = -0.89200 3.38336 2.30775
# Velocity P-wave (km/s) = 5.67673 7.18676 6.47591
#
# Compressibility (1/GPa) = 0.01660071
#
# Stress axis : x y z
#
# Youngs Moduli (GPa) = 54.52092 93.51245 106.92524
#
# Poissons Ratio (x) = 0.42672 0.41876
# Poissons Ratio (y) = 0.24879 0.25810
# Poissons Ratio (z) = 0.21353 0.22572
#
# Static dielectric constant tensor:
#      x y z
#    x 1.655340 0.000000 0.000000 
#    y 0.000000 1.605090 0.000000 
#    z 0.000000 0.000000 1.657950 
# 
# From -- ./inp_files/11361.got.cif
#   From: 2010.05.17/outbox.cif.g08.bks.cpg/sg48_6_cif.got.tgz:11361.got - 2010.06.03 20:39:00.
