data_PCOD9391016
_publ_section_title
;
Structure prediction by ZEFSAII (Michael W. Deem and Ramdas Pophale) SiO2 
 PCOD9391016
Probable space group: P N N N
;
_chemical_formula_sum "Si O2"
_cell_formula_units_Z 38
_cell_length_a 18.765695
_cell_length_b 18.440597
_cell_length_c 5.148822
_cell_angle_alpha 90.000000
_cell_angle_beta 90.000000
_cell_angle_gamma 90.000000
_cell_volume 1781.753040
_symmetry_space_group_name_H-M "P N N N"
_symmetry_group_IT_number 48
_space_group.IT_coordinate_system_code '2'
_symmetry_cell_setting 'orthorhombic'
loop_
_space_group_symop_operation_xyz
x,y,z
1/2-x,1/2-y,z
x,1/2-y,1/2-z
1/2-x,y,1/2-z
-x,-y,-z
1/2+x,1/2+y,-z
-x,1/2+y,1/2+z
1/2+x,-y,1/2+z
loop_
_atom_site_type_symbol
_atom_site_label
_atom_site_fract_x
_atom_site_fract_y
_atom_site_fract_z
Si Si1 0.080878 0.974479 0.301001
Si Si2 0.330231 0.512356 0.827398
Si Si3 0.027519 0.250000 0.250000
Si Si4 0.359625 0.155814 0.577894
Si Si5 0.250000 0.250000 0.250000
Si Si6 0.535542 0.621348 0.498542
O O1 0.010675 0.925391 0.297347
O O2 0.120208 0.972722 0.578832
O O3 0.055864 0.058903 0.294144
O O4 0.134239 0.951177 0.076737
O O5 0.250000 0.530515 0.750000
O O6 0.333591 0.427591 0.915334
O O7 0.075969 0.305771 0.417492
O O8 0.988426 0.190260 0.419946
O O9 0.294943 0.200018 0.449169
O O10 0.393375 0.156602 0.870373
#
# Coordination Sequence:
#
# PCOD9391016 Si02
#       6
#     8   8   4   8   2   8
#     4  10  23  40  62  92 123 171 207 273 315 383
#     4  11  23  39  65  89 128 167 217 257 325 380
#     4  11  20  37  58  90 119 163 210 264 305 390
#     4  10  23  37  58  88 127 173 212 256 296 381
#     4  10  24  40  58  86 140 178 220 238 312 360
#     4  10  22  38  62  86 128 162 222 260 329 362
#
# _framework density 21.327309
#
# number of rings (size 3 to 8) (size 9 to 14) (size 15 to 20)
#    0.000    1.684    2.105    1.263    5.895    5.895 
#    0.000    1.053    0.000    0.000    0.000    0.737 
#    0.000    0.000    0.421    0.000    0.000    0.000 
#
# Total GULP energy -211555.869447 kJ/mol
# GULP energy per Si atom -5567.259722 kJ/mol
# Density = 2.127877 g / cm^3
# Si number density = 21.327309 Si / 1000 Ang^3
#
#
#
# Elastic Constant Matrix: (Units=GPa)
#
#
# Indices 1 2 3 4 5 6 
#
# 1 85.8913 14.4142 47.8251 0.0000 0.0000 0.0000
# 2 14.4142 71.8481 38.2707 0.0000 0.0000 0.0000
# 3 47.8251 38.2707 100.3339 0.0000 0.0000 0.0000
# 4 0.0000 0.0000 0.0000 11.7462 0.0000 0.0000
# 5 0.0000 0.0000 0.0000 0.0000 27.0928 0.0000
# 6 0.0000 0.0000 0.0000 0.0000 0.0000 5.7870
#
#
#
# Elastic Compliance Matrix: (Units=1/GPa)
#
#
# Indices 1 2 3 4 5 6 
#
# 1 0.015914 0.001064 -0.007991 0.000000 0.000000 0.000000
# 2 0.001064 0.017538 -0.007197 0.000000 0.000000 0.000000
# 3 -0.007991 -0.007197 0.016521 0.000000 0.000000 0.000000
# 4 0.000000 0.000000 0.000000 0.085134 0.000000 0.000000
# 5 0.000000 0.000000 0.000000 0.000000 0.036910 0.000000
# 6 0.000000 0.000000 0.000000 0.000000 0.000000 0.172801
#
#
# Mechanical properties :
#
#
# Convention : Reuss Voigt Hill
#
# Bulk Modulus (GPa) = 46.03055 51.01038 48.52047
# Shear Modulus (GPa) = 13.14722 19.42941 16.28832
#
# Velocity S-wave (km/s) = 2.48554 3.02157 2.76657
# Velocity P-wave (km/s) = 5.46507 6.01190 5.74499
#
# Compressibility (1/GPa) = 0.02172470
#
# Stress axis : x y z
#
# Youngs Moduli (GPa) = 62.83914 57.01817 60.52928
#
# Poissons Ratio (x) = -0.06067 0.48370
# Poissons Ratio (y) = -0.06686 0.43562
# Poissons Ratio (z) = 0.50216 0.41035
#
# Static dielectric constant tensor:
#      x y z
#    x 1.807460 0.000000 0.000000 
#    y 0.000000 1.798790 0.000000 
#    z 0.000000 0.000000 1.957180 
# 
# From -- ./inp_files/4246.got.cif
#   From: 2010.05.17/outbox.cif.g08.bks.cpg/sg48_3_cif.got.tgz:4246.got - 2010.06.03 20:39:00.
