data_PCOD9391641
_publ_section_title
;
Structure prediction by ZEFSAII (Michael W. Deem and Ramdas Pophale) SiO2 
 PCOD9391641
Probable space group: P N N N
;
_chemical_formula_sum "Si O2"
_cell_formula_units_Z 64
_cell_length_a 18.550217
_cell_length_b 11.290459
_cell_length_c 15.933798
_cell_angle_alpha 90.000000
_cell_angle_beta 90.000000
_cell_angle_gamma 90.000000
_cell_volume 3337.182054
_symmetry_space_group_name_H-M "P N N N"
_symmetry_group_IT_number 48
_space_group.IT_coordinate_system_code '2'
_symmetry_cell_setting 'orthorhombic'
loop_
_space_group_symop_operation_xyz
x,y,z
1/2-x,1/2-y,z
x,1/2-y,1/2-z
1/2-x,y,1/2-z
-x,-y,-z
1/2+x,1/2+y,-z
-x,1/2+y,1/2+z
1/2+x,-y,1/2+z
loop_
_atom_site_type_symbol
_atom_site_label
_atom_site_fract_x
_atom_site_fract_y
_atom_site_fract_z
Si Si1 0.931105 0.822105 0.667824
Si Si2 0.814882 0.331569 0.988925
Si Si3 0.108060 0.802850 0.161589
Si Si4 0.941920 0.780137 0.343909
Si Si5 0.246103 0.420133 0.065011
Si Si6 0.177266 0.027408 0.223837
Si Si7 0.052353 0.964460 0.578671
Si Si8 0.365015 0.284603 0.009629
O O1 0.947201 0.750000 0.750000
O O2 0.914891 0.733499 0.590818
O O3 0.999365 0.894327 0.638952
O O4 0.865438 0.908880 0.699956
O O5 0.750000 0.250000 0.026591
O O6 0.878755 0.388340 0.046949
O O7 0.850819 0.250210 0.917522
O O8 0.781810 0.447433 0.943153
O O9 0.134592 0.750000 0.250000
O O10 0.122427 0.942336 0.174786
O O11 0.025628 0.759494 0.154014
O O12 0.915727 0.750000 0.250000
O O13 0.904335 0.717458 0.421869
O O14 0.929844 0.916577 0.370258
O O15 0.282233 0.387814 0.155901
O O16 0.316261 0.400265 0.008884
O O17 0.187246 0.329599 0.027561
O O18 0.250000 0.957225 0.250000
O O19 0.000000 0.000000 0.500000
#
# Coordination Sequence:
#
# PCOD9391641 Si02
#       8
#     8   8   8   8   8   8   8   8
#     4  12  23  38  64  99 136 176 219 277 348 422
#     4  12  23  40  64  96 133 185 230 277 348 421
#     4  11  23  34  56  94 128 170 215 272 336 407
#     4  11  23  43  69  94 126 174 240 285 329 398
#     4  11  22  37  61  95 132 170 215 272 344 409
#     4  12  23  35  59  98 144 172 210 277 352 428
#     4  12  23  43  70  94 132 187 233 277 347 429
#     4  11  22  40  64  94 131 174 220 273 341 408
#
# _framework density 19.177856999999999
#
# number of rings (size 3 to 8) (size 9 to 14) (size 15 to 20)
#    0.000    0.500    7.500    2.250    0.000    0.250 
#    0.000    4.375    0.000    1.875    0.000    0.000 
#    0.000    0.000    0.000    0.000    0.000    0.000 
#
# Total GULP energy -356534.078848 kJ/mol
# GULP energy per Si atom -5570.844982 kJ/mol
# Density = 1.913421 g / cm^3
# Si number density = 19.177857 Si / 1000 Ang^3
#
#
#
# Elastic Constant Matrix: (Units=GPa)
#
#
# Indices 1 2 3 4 5 6 
#
# 1 95.2715 25.8098 56.7469 0.0000 0.0000 0.0000
# 2 25.8098 44.3880 33.2866 0.0000 0.0000 0.0000
# 3 56.7469 33.2866 134.1620 0.0000 0.0000 0.0000
# 4 0.0000 0.0000 0.0000 32.1023 0.0000 0.0000
# 5 0.0000 0.0000 0.0000 0.0000 34.0555 0.0000
# 6 0.0000 0.0000 0.0000 0.0000 0.0000 -1.3780
#
#
#
# Elastic Compliance Matrix: (Units=1/GPa)
#
#
# Indices 1 2 3 4 5 6 
#
# 1 0.014823 -0.004813 -0.005076 0.000000 0.000000 0.000000
# 2 -0.004813 0.029241 -0.005219 0.000000 0.000000 0.000000
# 3 -0.005076 -0.005219 0.010896 0.000000 0.000000 0.000000
# 4 0.000000 0.000000 0.000000 0.031150 0.000000 0.000000
# 5 0.000000 0.000000 0.000000 0.000000 0.029364 0.000000
# 6 0.000000 0.000000 0.000000 0.000000 0.000000 -0.725709
#
#
# Mechanical properties :
#
#
# Convention : Reuss Voigt Hill
#
# Bulk Modulus (GPa) = 40.41346 56.16756 48.29051
# Shear Modulus (GPa) = -8.74476 23.48785 7.37155
#
# Velocity S-wave (km/s) = -2.13769 3.50342 1.96268
# Velocity P-wave (km/s) = 3.87631 6.76140 5.51101
#
# Compressibility (1/GPa) = 0.02474423
#
# Stress axis : x y z
#
# Youngs Moduli (GPa) = 67.46050 34.19855 91.78074
#
# Poissons Ratio (x) = 0.16459 0.46586
# Poissons Ratio (y) = 0.32468 0.47902
# Poissons Ratio (z) = 0.34242 0.17849
#
# Static dielectric constant tensor:
#      x y z
#    x 1.694020 0.000000 0.000000 
#    y 0.000000 1.729880 0.000000 
#    z 0.000000 0.000000 1.669290 
# 
# From -- ./inp_files/28062.got.cif
#   From: 2010.05.17/outbox.cif.g08.bks.cpg/sg48_15_cif.got.tgz:28062.got - 2010.06.03 20:39:00.
