data_PCOD9391130
_publ_section_title
;
Structure prediction by ZEFSAII (Michael W. Deem and Ramdas Pophale) SiO2 
 PCOD9391130
Probable space group: P N N N
;
_chemical_formula_sum "Si O2"
_cell_formula_units_Z 58
_cell_length_a 19.866761
_cell_length_b 16.661574
_cell_length_c 8.552787
_cell_angle_alpha 90.000000
_cell_angle_beta 90.000000
_cell_angle_gamma 90.000000
_cell_volume 2831.070927
_symmetry_space_group_name_H-M "P N N N"
_symmetry_group_IT_number 48
_space_group.IT_coordinate_system_code '2'
_symmetry_cell_setting 'orthorhombic'
loop_
_space_group_symop_operation_xyz
x,y,z
1/2-x,1/2-y,z
x,1/2-y,1/2-z
1/2-x,y,1/2-z
-x,-y,-z
1/2+x,1/2+y,-z
-x,1/2+y,1/2+z
1/2+x,-y,1/2+z
loop_
_atom_site_type_symbol
_atom_site_label
_atom_site_fract_x
_atom_site_fract_y
_atom_site_fract_z
Si Si1 0.015983 0.683749 0.132616
Si Si2 0.152190 0.896322 0.350405
Si Si3 0.082451 0.318996 0.128806
Si Si4 0.703312 0.990122 0.119258
Si Si5 0.928970 0.559294 0.312372
Si Si6 0.074332 0.025212 0.162682
Si Si7 0.250000 0.750000 0.250000
Si Si8 0.229531 0.159191 0.434699
O O1 0.043864 0.750000 0.250000
O O2 0.078962 0.629520 0.085513
O O3 0.958745 0.639217 0.234118
O O4 0.978723 0.710369 0.976667
O O5 0.197669 0.816703 0.323549
O O6 0.189283 0.953498 0.472193
O O7 0.127805 0.954584 0.206607
O O8 0.099200 0.250000 0.250000
O O9 0.072188 0.402941 0.214368
O O10 0.149983 0.336158 0.037726
O O11 0.750000 0.029982 0.250000
O O12 0.631764 0.971455 0.203983
O O13 0.745629 0.913465 0.051759
O O14 0.908075 0.562187 0.493816
O O15 0.997911 0.507333 0.325283
O O16 0.250000 0.250000 0.470893
O O17 0.250000 0.143346 0.250000
#
# Coordination Sequence:
#
# PCOD9391130 Si02
#       8
#     8   8   8   8   8   8   2   8
#     4  11  22  42  68 101 139 172 226 294 336 399
#     4  11  25  48  72  96 130 174 237 281 360 410
#     4  12  22  39  66 100 137 185 221 265 331 406
#     4  12  27  42  69 102 137 187 225 284 339 412
#     4  10  22  42  66 104 133 171 229 272 343 391
#     4  10  22  42  74  96 132 177 222 284 325 421
#     4  12  28  48  74  96 118 180 228 296 356 440
#     4  11  24  43  61  96 143 185 231 267 325 407
#
# _framework density 20.486946
#
# number of rings (size 3 to 8) (size 9 to 14) (size 15 to 20)
#    0.000    0.966    4.828    1.655    4.828    3.586 
#    0.000    1.724    0.000    0.000    0.000    0.000 
#    0.000    0.000    0.000    0.000    0.000    0.000 
#
# Total GULP energy -323092.152654 kJ/mol
# GULP energy per Si atom -5570.554356 kJ/mol
# Density = 2.044032 g / cm^3
# Si number density = 20.486946 Si / 1000 Ang^3
#
#
#
# Elastic Constant Matrix: (Units=GPa)
#
#
# Indices 1 2 3 4 5 6 
#
# 1 80.5726 11.9293 38.0396 0.0000 0.0000 0.0000
# 2 11.9293 43.8966 21.4913 0.0000 0.0000 0.0000
# 3 38.0396 21.4913 52.5364 0.0000 0.0000 0.0000
# 4 0.0000 0.0000 0.0000 66.9558 0.0000 0.0000
# 5 0.0000 0.0000 0.0000 0.0000 32.9797 0.0000
# 6 0.0000 0.0000 0.0000 0.0000 0.0000 39.8868
#
#
#
# Elastic Compliance Matrix: (Units=1/GPa)
#
#
# Indices 1 2 3 4 5 6 
#
# 1 0.018992 0.001965 -0.014555 0.000000 0.000000 0.000000
# 2 0.001965 0.028689 -0.013159 0.000000 0.000000 0.000000
# 3 -0.014555 -0.013159 0.034956 0.000000 0.000000 0.000000
# 4 0.000000 0.000000 0.000000 0.014935 0.000000 0.000000
# 5 0.000000 0.000000 0.000000 0.000000 0.030322 0.000000
# 6 0.000000 0.000000 0.000000 0.000000 0.000000 0.025071
#
#
# Mechanical properties :
#
#
# Convention : Reuss Voigt Hill
#
# Bulk Modulus (GPa) = 32.11374 35.54733 33.83053
# Shear Modulus (GPa) = 23.27283 35.00083 29.13683
#
# Velocity S-wave (km/s) = 3.37409 4.13782 3.77532
# Velocity P-wave (km/s) = 5.55775 6.34173 5.96264
#
# Compressibility (1/GPa) = 0.03113932
#
# Stress axis : x y z
#
# Youngs Moduli (GPa) = 52.65383 34.85631 28.60731
#
# Poissons Ratio (x) = -0.06849 0.41638
# Poissons Ratio (y) = -0.10345 0.37643
# Poissons Ratio (z) = 0.76638 0.45866
#
# Static dielectric constant tensor:
#      x y z
#    x 1.752200 0.000000 0.000000 
#    y 0.000000 1.700720 0.000000 
#    z 0.000000 0.000000 1.888260 
# 
# From -- ./inp_files/14432.got.cif
#   From: 2010.05.17/outbox.cif.g08.bks.cpg/sg48_8_cif.got.tgz:14432.got - 2010.06.03 20:39:00.
