data_PCOD9391675
_publ_section_title
;
Structure prediction by ZEFSAII (Michael W. Deem and Ramdas Pophale) SiO2 
 PCOD9391675
Probable space group: P N N N
;
_chemical_formula_sum "Si O2"
_cell_formula_units_Z 34
_cell_length_a 13.331978
_cell_length_b 14.893550
_cell_length_c 8.129341
_cell_angle_alpha 90.000000
_cell_angle_beta 90.000000
_cell_angle_gamma 90.000000
_cell_volume 1614.165859
_symmetry_space_group_name_H-M "P N N N"
_symmetry_group_IT_number 48
_space_group.IT_coordinate_system_code '2'
_symmetry_cell_setting 'orthorhombic'
loop_
_space_group_symop_operation_xyz
x,y,z
1/2-x,1/2-y,z
x,1/2-y,1/2-z
1/2-x,y,1/2-z
-x,-y,-z
1/2+x,1/2+y,-z
-x,1/2+y,1/2+z
1/2+x,-y,1/2+z
loop_
_atom_site_type_symbol
_atom_site_label
_atom_site_fract_x
_atom_site_fract_y
_atom_site_fract_z
Si Si1 0.219009 0.474024 0.939181
Si Si2 0.750000 0.250000 0.750000
Si Si3 0.588547 0.368378 0.568205
Si Si4 0.918620 0.494704 0.638632
Si Si5 0.398051 0.166747 0.133493
O O1 0.250000 0.467549 0.750000
O O2 0.130993 0.547901 0.961222
O O3 0.309463 0.510400 0.053771
O O4 0.184034 0.377728 0.011604
O O5 0.678718 0.305941 0.628006
O O6 0.554647 0.414363 0.738391
O O7 0.499171 0.318819 0.473235
O O8 0.919319 0.584959 0.743500
O O9 0.000000 0.500000 0.500000
O O10 0.371118 0.250000 0.250000
#
# Coordination Sequence:
#
# PCOD9391675 Si02
#       5
#     8   2   8   8   8
#     4  11  22  44  70  97 134 184 231 275 344 411
#     4  12  24  40  70 100 140 164 222 292 356 392
#     4  11  23  42  65  98 134 174 223 285 345 410
#     4  11  22  42  68  97 133 180 222 277 340 412
#     4  11  25  42  65  98 136 179 229 286 337 408
#
# _framework density 21.063510999999998
#
# number of rings (size 3 to 8) (size 9 to 14) (size 15 to 20)
#    0.000    0.941    2.353    7.765    3.294    3.765 
#    0.000    1.176    0.000    0.000    0.000    0.000 
#    0.000    0.000    0.000    0.000    0.000    0.000 
#
# Total GULP energy -190081.852519 kJ/mol
# GULP energy per Si atom -5590.642721 kJ/mol
# Density = 2.101557 g / cm^3
# Si number density = 21.063511 Si / 1000 Ang^3
#
#
#
# Elastic Constant Matrix: (Units=GPa)
#
#
# Indices 1 2 3 4 5 6 
#
# 1 82.4669 7.8676 42.1657 0.0000 0.0000 0.0000
# 2 7.8676 70.4650 36.6079 0.0000 0.0000 0.0000
# 3 42.1657 36.6079 154.8170 0.0000 0.0000 0.0000
# 4 0.0000 0.0000 0.0000 16.6590 0.0000 0.0000
# 5 0.0000 0.0000 0.0000 0.0000 53.2763 0.0000
# 6 0.0000 0.0000 0.0000 0.0000 0.0000 6.0860
#
#
#
# Elastic Compliance Matrix: (Units=1/GPa)
#
#
# Indices 1 2 3 4 5 6 
#
# 1 0.014102 0.000480 -0.003954 0.000000 0.000000 0.000000
# 2 0.000480 0.016195 -0.003960 0.000000 0.000000 0.000000
# 3 -0.003954 -0.003960 0.008473 0.000000 0.000000 0.000000
# 4 0.000000 0.000000 0.000000 0.060028 0.000000 0.000000
# 5 0.000000 0.000000 0.000000 0.000000 0.018770 0.000000
# 6 0.000000 0.000000 0.000000 0.000000 0.000000 0.164311
#
#
# Mechanical properties :
#
#
# Convention : Reuss Voigt Hill
#
# Bulk Modulus (GPa) = 41.83982 53.44792 47.64387
# Shear Modulus (GPa) = 16.40878 29.94479 23.17678
#
# Velocity S-wave (km/s) = 2.79411 3.77456 3.32072
# Velocity P-wave (km/s) = 5.50601 6.66529 6.11319
#
# Compressibility (1/GPa) = 0.02390068
#
# Stress axis : x y z
#
# Youngs Moduli (GPa) = 70.91120 61.74638 118.02694
#
# Poissons Ratio (x) = -0.02962 0.46671
# Poissons Ratio (y) = -0.03402 0.46741
# Poissons Ratio (z) = 0.28040 0.24453
#
# Static dielectric constant tensor:
#      x y z
#    x 1.823400 0.000000 0.000000 
#    y 0.000000 1.778840 0.000000 
#    z 0.000000 0.000000 1.656940 
# 
# From -- ./inp_files/10282.got.cif
#   From: 2010.05.17/outbox.cif.g08.bks.cpg/sg48_6_cif.got.tgz:10282.got - 2010.06.03 20:39:00.
