data_PCOD9391020
_publ_section_title
;
Structure prediction by ZEFSAII (Michael W. Deem and Ramdas Pophale) SiO2 
 PCOD9391020
Probable space group: P N N N
;
_chemical_formula_sum "Si O2"
_cell_formula_units_Z 24
_cell_length_a 17.416812
_cell_length_b 10.364608
_cell_length_c 5.995440
_cell_angle_alpha 90.000000
_cell_angle_beta 90.000000
_cell_angle_gamma 90.000000
_cell_volume 1082.287410
_symmetry_space_group_name_H-M "P N N N"
_symmetry_group_IT_number 48
_space_group.IT_coordinate_system_code '2'
_symmetry_cell_setting 'orthorhombic'
loop_
_space_group_symop_operation_xyz
x,y,z
1/2-x,1/2-y,z
x,1/2-y,1/2-z
1/2-x,y,1/2-z
-x,-y,-z
1/2+x,1/2+y,-z
-x,1/2+y,1/2+z
1/2+x,-y,1/2+z
loop_
_atom_site_type_symbol
_atom_site_label
_atom_site_fract_x
_atom_site_fract_y
_atom_site_fract_z
Si Si1 0.926126 0.869202 0.906690
Si Si2 0.064487 0.520801 0.808515
Si Si3 0.660968 0.391770 0.684642
O O1 0.901405 0.750000 0.750000
O O2 0.017001 0.887275 0.857636
O O3 0.879174 0.992171 0.816144
O O4 0.918007 0.889976 0.172511
O O5 0.138246 0.580563 0.927631
O O6 0.000000 0.500000 0.000000
O O7 0.631460 0.250000 0.750000
O O8 0.750000 0.395233 0.750000
#
# Coordination Sequence:
#
# PCOD9391020 Si02
#       3
#     8   8   8
#     4  10  22  38  64  96 125 171 227 286 342 404
#     4   9  21  37  61  92 129 165 221 278 342 402
#     4  10  23  40  60  91 135 179 222 278 345 416
#
# _framework density 22.175256999999998
#
# number of rings (size 3 to 8) (size 9 to 14) (size 15 to 20)
#    0.000    2.333    0.000    0.000   14.000    6.000 
#    0.000    3.333    0.000    8.000    0.000    0.000 
#    0.000    0.000    0.000    0.000    0.000    0.000 
#
# Total GULP energy -133676.179165 kJ/mol
# GULP energy per Si atom -5569.840799 kJ/mol
# Density = 2.212479 g / cm^3
# Si number density = 22.175257 Si / 1000 Ang^3
#
#
#
# Elastic Constant Matrix: (Units=GPa)
#
#
# Indices 1 2 3 4 5 6 
#
# 1 89.2503 48.1106 39.3352 0.0000 0.0000 0.0000
# 2 48.1106 190.9868 71.5370 0.0000 0.0000 0.0000
# 3 39.3352 71.5370 137.4299 0.0000 0.0000 0.0000
# 4 0.0000 0.0000 0.0000 42.1819 0.0000 0.0000
# 5 0.0000 0.0000 0.0000 0.0000 34.0710 0.0000
# 6 0.0000 0.0000 0.0000 0.0000 0.0000 26.5957
#
#
#
# Elastic Compliance Matrix: (Units=1/GPa)
#
#
# Indices 1 2 3 4 5 6 
#
# 1 0.013694 -0.002461 -0.002638 0.000000 0.000000 0.000000
# 2 -0.002461 0.006947 -0.002911 0.000000 0.000000 0.000000
# 3 -0.002638 -0.002911 0.009547 0.000000 0.000000 0.000000
# 4 0.000000 0.000000 0.000000 0.023707 0.000000 0.000000
# 5 0.000000 0.000000 0.000000 0.000000 0.029350 0.000000
# 6 0.000000 0.000000 0.000000 0.000000 0.000000 0.037600
#
#
# Mechanical properties :
#
#
# Convention : Reuss Voigt Hill
#
# Bulk Modulus (GPa) = 70.59424 81.73698 76.16561
# Shear Modulus (GPa) = 35.31350 37.81534 36.56442
#
# Velocity S-wave (km/s) = 3.99491 4.13400 4.06505
# Velocity P-wave (km/s) = 7.29266 7.72827 7.51362
#
# Compressibility (1/GPa) = 0.01416546
#
# Stress axis : x y z
#
# Youngs Moduli (GPa) = 73.02451 143.95715 104.74446
#
# Poissons Ratio (x) = 0.35434 0.27634
# Poissons Ratio (y) = 0.17974 0.30495
# Poissons Ratio (z) = 0.19266 0.41912
#
# Static dielectric constant tensor:
#      x y z
#    x 1.811950 0.000000 0.000000 
#    y 0.000000 1.891360 0.000000 
#    z 0.000000 0.000000 2.095790 
# 
# From -- ./inp_files/1590.got.cif
#   From: 2010.05.17/outbox.cif.g08.bks.cpg/sg48_1_cif.got.tgz:1590.got - 2010.06.03 20:39:00.
