data_PCOD9391358
_publ_section_title
;
Structure prediction by ZEFSAII (Michael W. Deem and Ramdas Pophale) SiO2 
 PCOD9391358
Probable space group: P N N N
;
_chemical_formula_sum "Si O2"
_cell_formula_units_Z 34
_cell_length_a 9.537548
_cell_length_b 10.504766
_cell_length_c 15.157534
_cell_angle_alpha 90.000000
_cell_angle_beta 90.000000
_cell_angle_gamma 90.000000
_cell_volume 1518.628935
_symmetry_space_group_name_H-M "P N N N"
_symmetry_group_IT_number 48
_space_group.IT_coordinate_system_code '2'
_symmetry_cell_setting 'orthorhombic'
loop_
_space_group_symop_operation_xyz
x,y,z
1/2-x,1/2-y,z
x,1/2-y,1/2-z
1/2-x,y,1/2-z
-x,-y,-z
1/2+x,1/2+y,-z
-x,1/2+y,1/2+z
1/2+x,-y,1/2+z
loop_
_atom_site_type_symbol
_atom_site_label
_atom_site_fract_x
_atom_site_fract_y
_atom_site_fract_z
Si Si1 0.855122 0.629532 0.553293
Si Si2 0.092908 0.051125 0.229769
Si Si3 0.000760 0.320064 0.627406
Si Si4 0.250000 0.250000 0.750000
Si Si5 0.913222 0.033758 0.586102
O O1 0.750000 0.750000 0.546845
O O2 0.947104 0.632684 0.643669
O O3 0.952665 0.627340 0.467810
O O4 0.744260 0.513054 0.563130
O O5 0.250000 0.094254 0.250000
O O6 0.028948 0.041405 0.327080
O O7 0.092179 0.908552 0.190040
O O8 0.145077 0.319682 0.683655
O O9 0.934779 0.181804 0.609994
O O10 0.000000 0.000000 0.500000
#
# Coordination Sequence:
#
# PCOD9391358 Si02
#       5
#     8   8   8   2   8
#     4  11  23  40  64  95 131 170 214 264 334 395
#     4  10  24  40  65  95 128 168 215 268 327 384
#     4  12  22  42  66  98 128 168 226 273 322 391
#     4  12  20  36  70  92 124 164 216 278 320 374
#     4  11  21  39  62  91 129 167 211 270 318 382
#
# _framework density 22.388615000000001
#
# number of rings (size 3 to 8) (size 9 to 14) (size 15 to 20)
#    0.000    0.941    5.882    0.706    0.000   10.824 
#    0.000    0.000    0.000    0.000    0.000    1.647 
#    0.000    0.000    0.000    0.000    0.000    0.000 
#
# Total GULP energy -189496.277430 kJ/mol
# GULP energy per Si atom -5573.419924 kJ/mol
# Density = 2.233766 g / cm^3
# Si number density = 22.388615 Si / 1000 Ang^3
#
#
#
# Elastic Constant Matrix: (Units=GPa)
#
#
# Indices 1 2 3 4 5 6 
#
# 1 46.0419 20.0633 27.8255 0.0000 0.0000 0.0000
# 2 20.0633 93.5644 26.3875 0.0000 0.0000 0.0000
# 3 27.8255 26.3875 245.8665 0.0000 0.0000 0.0000
# 4 0.0000 0.0000 0.0000 39.0313 0.0000 0.0000
# 5 0.0000 0.0000 0.0000 0.0000 50.4742 0.0000
# 6 0.0000 0.0000 0.0000 0.0000 0.0000 12.4328
#
#
#
# Elastic Compliance Matrix: (Units=1/GPa)
#
#
# Indices 1 2 3 4 5 6 
#
# 1 0.025202 -0.004743 -0.002343 0.000000 0.000000 0.000000
# 2 -0.004743 0.011914 -0.000742 0.000000 0.000000 0.000000
# 3 -0.002343 -0.000742 0.004412 0.000000 0.000000 0.000000
# 4 0.000000 0.000000 0.000000 0.025620 0.000000 0.000000
# 5 0.000000 0.000000 0.000000 0.000000 0.019812 0.000000
# 6 0.000000 0.000000 0.000000 0.000000 0.000000 0.080432
#
#
# Mechanical properties :
#
#
# Convention : Reuss Voigt Hill
#
# Bulk Modulus (GPa) = 38.65208 59.33616 48.99412
# Shear Modulus (GPa) = 26.08593 41.13409 33.61001
#
# Velocity S-wave (km/s) = 3.41712 4.29100 3.87875
# Velocity P-wave (km/s) = 5.73329 7.14917 6.48001
#
# Compressibility (1/GPa) = 0.02587183
#
# Stress axis : x y z
#
# Youngs Moduli (GPa) = 39.67870 83.93348 226.65199
#
# Poissons Ratio (x) = 0.39813 0.53108
# Poissons Ratio (y) = 0.18821 0.16814
# Poissons Ratio (z) = 0.09297 0.06227
#
# Static dielectric constant tensor:
#      x y z
#    x 2.114910 0.000000 0.000000 
#    y 0.000000 1.942000 0.000000 
#    z 0.000000 0.000000 1.870530 
# 
# From -- ./inp_files/11986.got.cif
#   From: 2010.05.17/outbox.cif.g08.bks.cpg/sg48_6_cif.got.tgz:11986.got - 2010.06.03 20:39:00.
