data_PCOD9391829
_publ_section_title
;
Structure prediction by ZEFSAII (Michael W. Deem and Ramdas Pophale) SiO2 
 PCOD9391829
Probable space group: P N N N
;
_chemical_formula_sum "Si O2"
_cell_formula_units_Z 32
_cell_length_a 8.561710
_cell_length_b 10.611961
_cell_length_c 13.713788
_cell_angle_alpha 90.000000
_cell_angle_beta 90.000000
_cell_angle_gamma 90.000000
_cell_volume 1245.987227
_symmetry_space_group_name_H-M "P N N N"
_symmetry_group_IT_number 48
_space_group.IT_coordinate_system_code '2'
_symmetry_cell_setting 'orthorhombic'
loop_
_space_group_symop_operation_xyz
x,y,z
1/2-x,1/2-y,z
x,1/2-y,1/2-z
1/2-x,y,1/2-z
-x,-y,-z
1/2+x,1/2+y,-z
-x,1/2+y,1/2+z
1/2+x,-y,1/2+z
loop_
_atom_site_type_symbol
_atom_site_label
_atom_site_fract_x
_atom_site_fract_y
_atom_site_fract_z
Si Si1 0.328891 0.618317 0.961795
Si Si2 0.316840 0.123730 0.858569
Si Si3 0.156808 0.541587 0.148216
Si Si4 0.067062 0.265370 0.140804
O O1 0.250000 0.750000 0.929375
O O2 0.256553 0.498941 0.908351
O O3 0.502301 0.655679 0.929082
O O4 0.283151 0.595081 0.073071
O O5 0.250000 0.250000 0.907381
O O6 0.250000 0.118955 0.750000
O O7 0.504655 0.130798 0.850287
O O8 0.250000 0.522891 0.250000
O O9 0.068688 0.412795 0.112324
O O10 0.250000 0.250000 0.150049
O O11 0.996349 0.250000 0.250000
#
# Coordination Sequence:
#
# PCOD9391829 Si02
#       4
#     8   8   8   8
#     4  12  28  49  86 117 166 221 276 344 412 501
#     4  11  27  53  83 121 169 219 282 341 422 502
#     4  12  27  55  80 122 171 219 277 350 418 497
#     4  11  24  50  83 123 162 219 284 345 414 504
#
# _framework density 25.682448000000001
#
# number of rings (size 3 to 8) (size 9 to 14) (size 15 to 20)
#    0.000    0.500    5.000    2.250    0.000    6.500 
#    0.000    0.000    0.000    0.000    0.000    0.000 
#    0.000    0.000    0.000    0.000    0.000    0.000 
#
# Total GULP energy -179056.137309 kJ/mol
# GULP energy per Si atom -5595.504291 kJ/mol
# Density = 2.562399 g / cm^3
# Si number density = 25.682448 Si / 1000 Ang^3
#
#
#
# Elastic Constant Matrix: (Units=GPa)
#
#
# Indices 1 2 3 4 5 6 
#
# 1 157.6005 64.7695 77.5510 0.0000 0.0000 0.0000
# 2 64.7695 184.3863 60.7564 0.0000 0.0000 0.0000
# 3 77.5510 60.7564 154.3724 0.0000 0.0000 0.0000
# 4 0.0000 0.0000 0.0000 35.0473 0.0000 0.0000
# 5 0.0000 0.0000 0.0000 0.0000 9.9742 0.0000
# 6 0.0000 0.0000 0.0000 0.0000 0.0000 42.9596
#
#
#
# Elastic Compliance Matrix: (Units=1/GPa)
#
#
# Indices 1 2 3 4 5 6 
#
# 1 0.008982 -0.001917 -0.003758 0.000000 0.000000 0.000000
# 2 -0.001917 0.006641 -0.001651 0.000000 0.000000 0.000000
# 3 -0.003758 -0.001651 0.009015 0.000000 0.000000 0.000000
# 4 0.000000 0.000000 0.000000 0.028533 0.000000 0.000000
# 5 0.000000 0.000000 0.000000 0.000000 0.100258 0.000000
# 6 0.000000 0.000000 0.000000 0.000000 0.000000 0.023278
#
#
# Mechanical properties :
#
#
# Convention : Reuss Voigt Hill
#
# Bulk Modulus (GPa) = 100.12676 100.27924 100.20300
# Shear Modulus (GPa) = 25.68230 37.14837 31.41534
#
# Velocity S-wave (km/s) = 3.16570 3.80735 3.50125
# Velocity P-wave (km/s) = 7.24108 7.64581 7.44620
#
# Compressibility (1/GPa) = 0.00998734
#
# Stress axis : x y z
#
# Youngs Moduli (GPa) = 111.33277 150.58832 110.92319
#
# Poissons Ratio (x) = 0.28866 0.41683
# Poissons Ratio (y) = 0.21342 0.18309
# Poissons Ratio (z) = 0.41837 0.24856
#
# Static dielectric constant tensor:
#      x y z
#    x 2.006730 0.000000 0.000000 
#    y 0.000000 2.143650 0.000000 
#    z 0.000000 0.000000 2.041880 
# 
# From -- ./inp_files/24807.got.cif
#   From: 2010.05.17/outbox.cif.g08.bks.cpg/sg48_13_cif.got.tgz:24807.got - 2010.06.03 20:39:00.
