data_PCOD9391695
_publ_section_title
;
Structure prediction by ZEFSAII (Michael W. Deem and Ramdas Pophale) SiO2 
 PCOD9391695
Probable space group: P N N N
;
_chemical_formula_sum "Si O2"
_cell_formula_units_Z 40
_cell_length_a 15.493237
_cell_length_b 15.018918
_cell_length_c 7.568679
_cell_angle_alpha 90.000000
_cell_angle_beta 90.000000
_cell_angle_gamma 90.000000
_cell_volume 1761.168451
_symmetry_space_group_name_H-M "P N N N"
_symmetry_group_IT_number 48
_space_group.IT_coordinate_system_code '2'
_symmetry_cell_setting 'orthorhombic'
loop_
_space_group_symop_operation_xyz
x,y,z
1/2-x,1/2-y,z
x,1/2-y,1/2-z
1/2-x,y,1/2-z
-x,-y,-z
1/2+x,1/2+y,-z
-x,1/2+y,1/2+z
1/2+x,-y,1/2+z
loop_
_atom_site_type_symbol
_atom_site_label
_atom_site_fract_x
_atom_site_fract_y
_atom_site_fract_z
Si Si1 0.934179 0.017817 0.240881
Si Si2 0.817909 0.636340 0.400927
Si Si3 0.889896 0.436176 0.863458
Si Si4 0.750000 0.924260 0.750000
Si Si5 0.109870 0.750000 0.250000
Si Si6 0.510753 0.804752 0.567691
O O1 0.896316 0.056851 0.424382
O O2 0.975739 0.097302 0.125613
O O3 0.860259 0.960201 0.146587
O O4 0.012087 0.950698 0.294475
O O5 0.750000 0.658625 0.250000
O O6 0.763352 0.632093 0.577578
O O7 0.900794 0.693498 0.456232
O O8 0.833426 0.515793 0.786528
O O9 0.849111 0.345285 0.790668
O O10 0.056174 0.736724 0.430427
O O11 0.519984 0.750000 0.750000
#
# Coordination Sequence:
#
# PCOD9391695 Si02
#       6
#     8   8   8   4   4   8
#     4  11  22  45  73  99 132 190 236 271 342 415
#     4  12  25  44  72 102 139 184 233 285 342 409
#     4  11  23  41  76  99 135 180 229 283 347 419
#     4  12  24  43  71 104 136 176 234 286 345 413
#     4  12  24  43  71 104 136 176 234 286 345 413
#     4  12  25  44  72 102 139 184 233 285 342 409
#
# _framework density 22.712195000000001
#
# number of rings (size 3 to 8) (size 9 to 14) (size 15 to 20)
#    0.000    0.400    8.000    1.800    0.000    2.000 
#    0.000    3.000    0.000    0.600    0.000    0.000 
#    0.000    0.000    0.000    0.000    0.000    0.000 
#
# Total GULP energy -223757.705199 kJ/mol
# GULP energy per Si atom -5593.942630 kJ/mol
# Density = 2.266050 g / cm^3
# Si number density = 22.712195 Si / 1000 Ang^3
#
#
#
# Elastic Constant Matrix: (Units=GPa)
#
#
# Indices 1 2 3 4 5 6 
#
# 1 77.2528 22.1733 49.7721 0.0000 0.0000 0.0000
# 2 22.1733 59.4228 3.4935 0.0000 0.0000 0.0000
# 3 49.7721 3.4935 154.5803 0.0000 0.0000 0.0000
# 4 0.0000 0.0000 0.0000 20.7557 0.0000 0.0000
# 5 0.0000 0.0000 0.0000 0.0000 39.9733 0.0000
# 6 0.0000 0.0000 0.0000 0.0000 0.0000 -473.1997
#
#
#
# Elastic Compliance Matrix: (Units=1/GPa)
#
#
# Indices 1 2 3 4 5 6 
#
# 1 0.018601 -0.006597 -0.005840 0.000000 0.000000 0.000000
# 2 -0.006597 0.019191 0.001691 0.000000 0.000000 0.000000
# 3 -0.005840 0.001691 0.008311 0.000000 0.000000 0.000000
# 4 0.000000 0.000000 0.000000 0.048180 0.000000 0.000000
# 5 0.000000 0.000000 0.000000 0.000000 0.025017 0.000000
# 6 0.000000 0.000000 0.000000 0.000000 0.000000 -0.002113
#
#
# Mechanical properties :
#
#
# Convention : Reuss Voigt Hill
#
# Bulk Modulus (GPa) = 40.63520 49.12597 44.88059
# Shear Modulus (GPa) = 34.04078 -68.10633 -17.03278
#
# Velocity S-wave (km/s) = 3.87562 -5.48195 -2.74147
# Velocity P-wave (km/s) = 6.16096 4.28862 3.12771
#
# Compressibility (1/GPa) = 0.02460920
#
# Stress axis : x y z
#
# Youngs Moduli (GPa) = 53.76150 52.10794 120.31826
#
# Poissons Ratio (x) = 0.34378 0.70266
# Poissons Ratio (y) = 0.35469 -0.20340
# Poissons Ratio (z) = 0.31397 -0.08809
#
# Static dielectric constant tensor:
#      x y z
#    x 1.895350 0.000000 0.000000 
#    y 0.000000 1.868420 0.000000 
#    z 0.000000 0.000000 1.804040 
# 
# From -- ./inp_files/12365.got.cif
#   From: 2010.05.17/outbox.cif.g08.bks.cpg/sg48_7_cif.got.tgz:12365.got - 2010.06.03 20:39:00.
