data_PCOD9391713
_publ_section_title
;
Structure prediction by ZEFSAII (Michael W. Deem and Ramdas Pophale) SiO2 
 PCOD9391713
Probable space group: P N N N
;
_chemical_formula_sum "Si O2"
_cell_formula_units_Z 40
_cell_length_a 12.483385
_cell_length_b 9.535469
_cell_length_c 14.384037
_cell_angle_alpha 90.000000
_cell_angle_beta 90.000000
_cell_angle_gamma 90.000000
_cell_volume 1712.202847
_symmetry_space_group_name_H-M "P N N N"
_symmetry_group_IT_number 48
_space_group.IT_coordinate_system_code '2'
_symmetry_cell_setting 'orthorhombic'
loop_
_space_group_symop_operation_xyz
x,y,z
1/2-x,1/2-y,z
x,1/2-y,1/2-z
1/2-x,y,1/2-z
-x,-y,-z
1/2+x,1/2+y,-z
-x,1/2+y,1/2+z
1/2+x,-y,1/2+z
loop_
_atom_site_type_symbol
_atom_site_label
_atom_site_fract_x
_atom_site_fract_y
_atom_site_fract_z
Si Si1 0.365656 0.818462 0.613037
Si Si2 0.423468 0.391927 0.782330
Si Si3 0.256897 0.399419 0.359668
Si Si4 0.641073 0.165856 0.607476
Si Si5 0.995488 0.945453 0.606264
O O1 0.250000 0.750000 0.640858
O O2 0.369789 0.804788 0.501146
O O3 0.463670 0.711297 0.633786
O O4 0.378990 0.976657 0.654213
O O5 0.363415 0.250000 0.750000
O O6 0.530907 0.330916 0.834544
O O7 0.445386 0.463021 0.682843
O O8 0.250000 0.250000 0.407263
O O9 0.250000 0.386030 0.250000
O O10 0.166620 0.501721 0.391355
O O11 0.371041 0.463763 0.376291
O O12 0.750000 0.250000 0.640577
O O13 0.000000 0.000000 0.500000
#
# Coordination Sequence:
#
# PCOD9391713 Si02
#       5
#     8   8   8   8   8
#     4  11  26  49  72  99 148 204 252 308 381 456
#     4  12  25  42  72 107 141 189 249 310 373 463
#     4  11  23  40  70 105 139 180 235 302 373 437
#     4  11  23  44  73 109 146 184 240 315 385 445
#     4  12  25  45  68 103 147 194 246 305 378 450
#
# _framework density 23.361718
#
# number of rings (size 3 to 8) (size 9 to 14) (size 15 to 20)
#    0.000    0.600    2.000    7.200    2.800    3.200 
#    0.000    2.000    0.000    0.000    0.000    0.000 
#    0.000    0.000    0.000    0.000    0.000    0.000 
#
# Total GULP energy -222941.474563 kJ/mol
# GULP energy per Si atom -5573.536864 kJ/mol
# Density = 2.330855 g / cm^3
# Si number density = 23.361718 Si / 1000 Ang^3
#
#
#
# Elastic Constant Matrix: (Units=GPa)
#
#
# Indices 1 2 3 4 5 6 
#
# 1 91.0160 29.4733 31.3778 0.0000 0.0000 0.0000
# 2 29.4733 143.4328 23.4424 0.0000 0.0000 0.0000
# 3 31.3778 23.4424 125.7751 0.0000 0.0000 0.0000
# 4 0.0000 0.0000 0.0000 56.6396 0.0000 0.0000
# 5 0.0000 0.0000 0.0000 0.0000 178.0031 0.0000
# 6 0.0000 0.0000 0.0000 0.0000 0.0000 43.5521
#
#
#
# Elastic Compliance Matrix: (Units=1/GPa)
#
#
# Indices 1 2 3 4 5 6 
#
# 1 0.012630 -0.002146 -0.002751 0.000000 0.000000 0.000000
# 2 -0.002146 0.007555 -0.000873 0.000000 0.000000 0.000000
# 3 -0.002751 -0.000873 0.008800 0.000000 0.000000 0.000000
# 4 0.000000 0.000000 0.000000 0.017656 0.000000 0.000000
# 5 0.000000 0.000000 0.000000 0.000000 0.005618 0.000000
# 6 0.000000 0.000000 0.000000 0.000000 0.000000 0.022961
#
#
# Mechanical properties :
#
#
# Convention : Reuss Voigt Hill
#
# Bulk Modulus (GPa) = 57.31910 58.75680 58.03795
# Shear Modulus (GPa) = 54.01047 74.03431 64.02239
#
# Velocity S-wave (km/s) = 4.81346 5.63553 5.24064
# Velocity P-wave (km/s) = 7.44858 8.21895 7.84323
#
# Compressibility (1/GPa) = 0.01744619
#
# Stress axis : x y z
#
# Youngs Moduli (GPa) = 79.17445 132.35412 113.64011
#
# Poissons Ratio (x) = 0.28400 0.31263
# Poissons Ratio (y) = 0.16989 0.09920
# Poissons Ratio (z) = 0.21781 0.11553
#
# Static dielectric constant tensor:
#      x y z
#    x 1.889720 0.000000 0.000000 
#    y 0.000000 2.101090 0.000000 
#    z 0.000000 0.000000 1.729060 
# 
# From -- ./inp_files/27052.got.cif
#   From: 2010.05.17/outbox.cif.g08.bks.cpg/sg48_14_cif.got.tgz:27052.got - 2010.06.03 20:39:00.
