data_PCOD9391629
_publ_section_title
;
Structure prediction by ZEFSAII (Michael W. Deem and Ramdas Pophale) SiO2 
 PCOD9391629
Probable space group: P N N N
;
_chemical_formula_sum "Si O2"
_cell_formula_units_Z 34
_cell_length_a 10.390232
_cell_length_b 15.202183
_cell_length_c 9.327556
_cell_angle_alpha 90.000000
_cell_angle_beta 90.000000
_cell_angle_gamma 90.000000
_cell_volume 1473.326723
_symmetry_space_group_name_H-M "P N N N"
_symmetry_group_IT_number 48
_space_group.IT_coordinate_system_code '2'
_symmetry_cell_setting 'orthorhombic'
loop_
_space_group_symop_operation_xyz
x,y,z
1/2-x,1/2-y,z
x,1/2-y,1/2-z
1/2-x,y,1/2-z
-x,-y,-z
1/2+x,1/2+y,-z
-x,1/2+y,1/2+z
1/2+x,-y,1/2+z
loop_
_atom_site_type_symbol
_atom_site_label
_atom_site_fract_x
_atom_site_fract_y
_atom_site_fract_z
Si Si1 0.410353 0.159784 0.332703
Si Si2 0.102106 0.986160 0.695201
Si Si3 0.451113 0.620040 0.109260
Si Si4 0.250000 0.750000 0.250000
Si Si5 0.247493 0.490119 0.085315
O O1 0.397470 0.250000 0.250000
O O2 0.477275 0.172331 0.485499
O O3 0.280578 0.111371 0.389253
O O4 0.501183 0.091253 0.240456
O O5 0.250000 0.973315 0.750000
O O6 0.133188 0.992912 0.523968
O O7 0.040710 0.074401 0.768710
O O8 0.344598 0.687496 0.162892
O O9 0.374724 0.539945 0.031162
O O10 0.250000 0.523597 0.250000
#
# Coordination Sequence:
#
# PCOD9391629 Si02
#       5
#     8   8   8   2   8
#     4  11  25  40  70 109 143 185 249 305 365 428
#     4  11  21  44  76  99 139 201 232 287 375 437
#     4  11  24  44  68 103 143 189 241 302 363 445
#     4  12  28  44  64 100 150 172 238 314 360 420
#     4  11  23  44  69 101 147 189 242 293 362 447
#
# _framework density 23.077024999999999
#
# number of rings (size 3 to 8) (size 9 to 14) (size 15 to 20)
#    0.000    0.941    5.882    1.412    3.294    6.588 
#    0.000    0.588    0.000    0.000    0.000    0.000 
#    0.000    0.000    0.000    0.000    0.000    0.000 
#
# Total GULP energy -189567.012622 kJ/mol
# GULP energy per Si atom -5575.500371 kJ/mol
# Density = 2.302450 g / cm^3
# Si number density = 23.077025 Si / 1000 Ang^3
#
#
#
# Elastic Constant Matrix: (Units=GPa)
#
#
# Indices 1 2 3 4 5 6 
#
# 1 149.7537 43.8099 60.4083 0.0000 0.0000 0.0000
# 2 43.8099 136.3743 45.5530 0.0000 0.0000 0.0000
# 3 60.4083 45.5530 152.6831 0.0000 0.0000 0.0000
# 4 0.0000 0.0000 0.0000 39.8340 0.0000 0.0000
# 5 0.0000 0.0000 0.0000 0.0000 53.6282 0.0000
# 6 0.0000 0.0000 0.0000 0.0000 0.0000 33.8428
#
#
#
# Elastic Compliance Matrix: (Units=1/GPa)
#
#
# Indices 1 2 3 4 5 6 
#
# 1 0.008303 -0.001744 -0.002765 0.000000 0.000000 0.000000
# 2 -0.001744 0.008511 -0.001849 0.000000 0.000000 0.000000
# 3 -0.002765 -0.001849 0.008195 0.000000 0.000000 0.000000
# 4 0.000000 0.000000 0.000000 0.025104 0.000000 0.000000
# 5 0.000000 0.000000 0.000000 0.000000 0.018647 0.000000
# 6 0.000000 0.000000 0.000000 0.000000 0.000000 0.029548
#
#
# Mechanical properties :
#
#
# Convention : Reuss Voigt Hill
#
# Bulk Modulus (GPa) = 81.34610 82.03926 81.69268
# Shear Modulus (GPa) = 43.43231 44.73032 44.08132
#
# Velocity S-wave (km/s) = 4.34298 4.40740 4.37530
# Velocity P-wave (km/s) = 7.77656 7.84395 7.81033
#
# Compressibility (1/GPa) = 0.01229315
#
# Stress axis : x y z
#
# Youngs Moduli (GPa) = 120.43761 117.49980 122.02403
#
# Poissons Ratio (x) = 0.20490 0.33737
# Poissons Ratio (y) = 0.21002 0.22565
# Poissons Ratio (z) = 0.33299 0.21728
#
# Static dielectric constant tensor:
#      x y z
#    x 2.047480 0.000000 0.000000 
#    y 0.000000 2.076590 0.000000 
#    z 0.000000 0.000000 2.168350 
# 
# From -- ./inp_files/10336.got.cif
#   From: 2010.05.17/outbox.cif.g08.bks.cpg/sg48_6_cif.got.tgz:10336.got - 2010.06.03 20:39:00.
