data_PCOD9391494
_publ_section_title
;
Structure prediction by ZEFSAII (Michael W. Deem and Ramdas Pophale) SiO2 
 PCOD9391494
Probable space group: P N N N
;
_chemical_formula_sum "Si O2"
_cell_formula_units_Z 32
_cell_length_a 11.695454
_cell_length_b 5.391961
_cell_length_c 20.571874
_cell_angle_alpha 90.000000
_cell_angle_beta 90.000000
_cell_angle_gamma 90.000000
_cell_volume 1297.291830
_symmetry_space_group_name_H-M "P N N N"
_symmetry_group_IT_number 48
_space_group.IT_coordinate_system_code '2'
_symmetry_cell_setting 'orthorhombic'
loop_
_space_group_symop_operation_xyz
x,y,z
1/2-x,1/2-y,z
x,1/2-y,1/2-z
1/2-x,y,1/2-z
-x,-y,-z
1/2+x,1/2+y,-z
-x,1/2+y,1/2+z
1/2+x,-y,1/2+z
loop_
_atom_site_type_symbol
_atom_site_label
_atom_site_fract_x
_atom_site_fract_y
_atom_site_fract_z
Si Si1 0.132757 0.364725 0.842829
Si Si2 0.082227 0.647947 0.584407
Si Si3 0.554796 0.250000 0.750000
Si Si4 0.835877 0.925743 0.862171
Si Si5 0.250000 0.750000 0.029892
O O1 0.250000 0.250000 0.816589
O O2 0.143646 0.628015 0.877086
O O3 0.036101 0.417300 0.789218
O O4 0.101480 0.138562 0.892996
O O5 0.137166 0.700266 0.513699
O O6 0.948540 0.679065 0.601775
O O7 0.622286 0.380676 0.807727
O O8 0.750000 0.750000 0.824666
O O9 0.753372 0.027005 0.919173
#
# Coordination Sequence:
#
# PCOD9391494 Si02
#       5
#     8   8   4   8   4
#     4  11  22  48  81 116 148 203 256 344 390 458
#     4  11  26  48  80 116 155 201 271 324 403 460
#     4  10  27  53  72 114 158 202 274 310 396 486
#     4  11  29  51  78 114 160 221 257 328 399 479
#     4  12  26  51  78 115 158 204 268 338 388 482
#
# _framework density 24.666768000000001
#
# number of rings (size 3 to 8) (size 9 to 14) (size 15 to 20)
#    0.000    1.000    2.500    1.125   10.500    5.500 
#    4.500    5.000    0.000    0.000    0.000    0.000 
#    0.000    0.000    0.000    0.000    0.000    0.000 
#
# Total GULP energy -178393.872818 kJ/mol
# GULP energy per Si atom -5574.808526 kJ/mol
# Density = 2.461063 g / cm^3
# Si number density = 24.666768 Si / 1000 Ang^3
#
#
#
# Elastic Constant Matrix: (Units=GPa)
#
#
# Indices 1 2 3 4 5 6 
#
# 1 156.4074 47.3596 55.0850 0.0000 0.0000 0.0000
# 2 47.3596 102.7156 36.9052 0.0000 0.0000 0.0000
# 3 55.0850 36.9052 150.4461 0.0000 0.0000 0.0000
# 4 0.0000 0.0000 0.0000 -21.3173 0.0000 0.0000
# 5 0.0000 0.0000 0.0000 0.0000 -16.3393 0.0000
# 6 0.0000 0.0000 0.0000 0.0000 0.0000 34.2584
#
#
#
# Elastic Compliance Matrix: (Units=1/GPa)
#
#
# Indices 1 2 3 4 5 6 
#
# 1 0.008064 -0.002914 -0.002238 0.000000 0.000000 0.000000
# 2 -0.002914 0.011730 -0.001810 0.000000 0.000000 0.000000
# 3 -0.002238 -0.001810 0.007910 0.000000 0.000000 0.000000
# 4 0.000000 0.000000 0.000000 -0.046910 0.000000 0.000000
# 5 0.000000 0.000000 0.000000 0.000000 -0.061202 0.000000
# 6 0.000000 0.000000 0.000000 0.000000 0.000000 0.029190
#
#
# Mechanical properties :
#
#
# Convention : Reuss Voigt Hill
#
# Bulk Modulus (GPa) = 72.57105 76.47430 74.52268
# Shear Modulus (GPa) = -152.90204 17.33498 -67.78353
#
# Velocity S-wave (km/s) = -7.88173 2.65385 -5.24780
# Velocity P-wave (km/s) = 7.30372 6.36088 2.53807
#
# Compressibility (1/GPa) = 0.01377960
#
# Stress axis : x y z
#
# Youngs Moduli (GPa) = 124.00703 85.25361 126.41686
#
# Poissons Ratio (x) = 0.24844 0.28289
# Poissons Ratio (y) = 0.36137 0.22886
# Poissons Ratio (z) = 0.27750 0.15434
#
# Static dielectric constant tensor:
#      x y z
#    x 1.977350 0.000000 0.000000 
#    y 0.000000 2.690160 0.000000 
#    z 0.000000 0.000000 1.997160 
# 
# From -- ./inp_files/33905.got.cif
#   From: 2010.05.17/outbox.cif.g08.bks.cpg/sg48_17_cif.got.tgz:33905.got - 2010.06.03 20:39:00.
