data_PCOD9391567
_publ_section_title
;
Structure prediction by ZEFSAII (Michael W. Deem and Ramdas Pophale) SiO2 
 PCOD9391567
Probable space group: P N N N
;
_chemical_formula_sum "Si O2"
_cell_formula_units_Z 40
_cell_length_a 10.917972
_cell_length_b 8.571546
_cell_length_c 19.981789
_cell_angle_alpha 90.000000
_cell_angle_beta 90.000000
_cell_angle_gamma 90.000000
_cell_volume 1869.973728
_symmetry_space_group_name_H-M "P N N N"
_symmetry_group_IT_number 48
_space_group.IT_coordinate_system_code '2'
_symmetry_cell_setting 'orthorhombic'
loop_
_space_group_symop_operation_xyz
x,y,z
1/2-x,1/2-y,z
x,1/2-y,1/2-z
1/2-x,y,1/2-z
-x,-y,-z
1/2+x,1/2+y,-z
-x,1/2+y,1/2+z
1/2+x,-y,1/2+z
loop_
_atom_site_type_symbol
_atom_site_label
_atom_site_fract_x
_atom_site_fract_y
_atom_site_fract_z
Si Si1 0.382790 0.328236 0.559652
Si Si2 0.521535 0.859443 0.317537
Si Si3 0.242353 0.938938 0.171374
Si Si4 0.623775 0.177794 0.322853
Si Si5 0.457409 0.119920 0.089068
O O1 0.250000 0.250000 0.567877
O O2 0.458014 0.244269 0.617841
O O3 0.414601 0.310545 0.481614
O O4 0.426878 0.505373 0.573705
O O5 0.510326 0.750000 0.250000
O O6 0.401935 0.959318 0.336855
O O7 0.626102 0.991179 0.313179
O O8 0.250000 0.750000 0.163143
O O9 0.250000 0.978370 0.250000
O O10 0.344104 0.029125 0.126934
O O11 0.750000 0.250000 0.349999
O O12 0.607255 0.250000 0.250000
O O13 0.514153 0.245733 0.366282
#
# Coordination Sequence:
#
# PCOD9391567 Si02
#       5
#     8   8   8   8   8
#     4  11  25  45  66  98 140 190 235 286 356 418
#     4  12  24  44  76 104 139 186 240 294 355 430
#     4  11  20  41  73 103 135 179 244 292 356 417
#     4  11  25  45  70 106 142 181 236 293 356 417
#     4  11  25  47  66 102 148 182 236 296 346 426
#
# _framework density 21.390674000000001
#
# number of rings (size 3 to 8) (size 9 to 14) (size 15 to 20)
#    0.000    0.800    4.000    3.600    2.800    2.800 
#    7.200    2.000    0.000    0.000    0.000    0.000 
#    0.000    0.000    0.000    0.000    0.000    0.000 
#
# Total GULP energy -222720.488822 kJ/mol
# GULP energy per Si atom -5568.012221 kJ/mol
# Density = 2.134199 g / cm^3
# Si number density = 21.390674 Si / 1000 Ang^3
#
#
#
# Elastic Constant Matrix: (Units=GPa)
#
#
# Indices 1 2 3 4 5 6 
#
# 1 123.5336 49.6129 64.9924 0.0000 0.0000 0.0000
# 2 49.6129 87.3522 52.4245 0.0000 0.0000 0.0000
# 3 64.9924 52.4245 150.3944 0.0000 0.0000 0.0000
# 4 0.0000 0.0000 0.0000 33.3592 0.0000 0.0000
# 5 0.0000 0.0000 0.0000 0.0000 5.9580 0.0000
# 6 0.0000 0.0000 0.0000 0.0000 0.0000 56.1118
#
#
#
# Elastic Compliance Matrix: (Units=1/GPa)
#
#
# Indices 1 2 3 4 5 6 
#
# 1 0.011775 -0.004595 -0.003487 0.000000 0.000000 0.000000
# 2 -0.004595 0.016270 -0.003685 0.000000 0.000000 0.000000
# 3 -0.003487 -0.003685 0.009441 0.000000 0.000000 0.000000
# 4 0.000000 0.000000 0.000000 0.029977 0.000000 0.000000
# 5 0.000000 0.000000 0.000000 0.000000 0.167842 0.000000
# 6 0.000000 0.000000 0.000000 0.000000 0.000000 0.017822
#
#
# Mechanical properties :
#
#
# Convention : Reuss Voigt Hill
#
# Bulk Modulus (GPa) = 71.68221 77.25996 74.47109
# Shear Modulus (GPa) = 17.77395 32.03582 24.90489
#
# Velocity S-wave (km/s) = 2.88570 3.87415 3.41587
# Velocity P-wave (km/s) = 6.68481 7.49727 7.10267
#
# Compressibility (1/GPa) = 0.01395046
#
# Stress axis : x y z
#
# Youngs Moduli (GPa) = 84.92707 61.46426 105.92521
#
# Poissons Ratio (x) = 0.28244 0.36933
# Poissons Ratio (y) = 0.39025 0.39039
# Poissons Ratio (z) = 0.29611 0.22653
#
# Static dielectric constant tensor:
#      x y z
#    x 1.883270 0.000000 0.000000 
#    y 0.000000 2.095540 0.000000 
#    z 0.000000 0.000000 1.094950 
# 
# From -- ./inp_files/10708.got.cif
#   From: 2010.05.17/outbox.cif.g08.bks.cpg/sg48_6_cif.got.tgz:10708.got - 2010.06.03 20:39:00.
