data_PCOD9391338
_publ_section_title
;
Structure prediction by ZEFSAII (Michael W. Deem and Ramdas Pophale) SiO2 
 PCOD9391338
Probable space group: P N N N
;
_chemical_formula_sum "Si O2"
_cell_formula_units_Z 46
_cell_length_a 10.903123
_cell_length_b 16.626510
_cell_length_c 12.132921
_cell_angle_alpha 90.000000
_cell_angle_beta 90.000000
_cell_angle_gamma 90.000000
_cell_volume 2199.466639
_symmetry_space_group_name_H-M "P N N N"
_symmetry_group_IT_number 48
_space_group.IT_coordinate_system_code '2'
_symmetry_cell_setting 'orthorhombic'
loop_
_space_group_symop_operation_xyz
x,y,z
1/2-x,1/2-y,z
x,1/2-y,1/2-z
1/2-x,y,1/2-z
-x,-y,-z
1/2+x,1/2+y,-z
-x,1/2+y,1/2+z
1/2+x,-y,1/2+z
loop_
_atom_site_type_symbol
_atom_site_label
_atom_site_fract_x
_atom_site_fract_y
_atom_site_fract_z
Si Si1 0.005574 0.568251 0.409412
Si Si2 0.750000 0.250000 0.250000
Si Si3 0.634684 0.788130 0.530293
Si Si4 0.750000 0.631031 0.750000
Si Si5 0.081385 0.662695 0.922807
Si Si6 0.720347 0.127731 0.871143
Si Si7 0.031669 0.487361 0.184352
O O1 0.148350 0.592406 0.403518
O O2 0.968333 0.528166 0.291806
O O3 0.000000 0.500000 0.500000
O O4 0.928969 0.643637 0.456003
O O5 0.838460 0.305252 0.177753
O O6 0.750000 0.750000 0.467076
O O7 0.695693 0.823756 0.642563
O O8 0.538466 0.718575 0.563217
O O9 0.865018 0.575977 0.779632
O O10 0.050624 0.568603 0.895666
O O11 0.162139 0.678651 0.031625
O O12 0.750000 0.161841 0.750000
O O13 0.615069 0.059482 0.861422
#
# Coordination Sequence:
#
# PCOD9391338 Si02
#       7
#     8   2   8   4   8   8   8
#     4  11  22  40  70 100 141 187 239 301 366 449
#     4  12  28  44  56 104 148 180 234 300 376 424
#     4  12  25  40  69 104 145 191 246 304 377 445
#     4  12  19  40  68 104 137 186 242 296 357 440
#     4  12  26  43  70 105 147 189 242 310 374 439
#     4  10  23  46  72 101 134 184 245 296 365 445
#     4  11  21  41  71 106 137 187 251 297 367 444
#
# _framework density 20.914161
#
# number of rings (size 3 to 8) (size 9 to 14) (size 15 to 20)
#    0.000    0.696    6.087    2.870    2.435    0.000 
#    0.000   10.000    0.000    4.174    0.000    0.000 
#    0.000    0.000    0.000    0.000    0.000    0.000 
#
# Total GULP energy -256586.635429 kJ/mol
# GULP energy per Si atom -5577.970335 kJ/mol
# Density = 2.086656 g / cm^3
# Si number density = 20.914161 Si / 1000 Ang^3
#
#
#
# Elastic Constant Matrix: (Units=GPa)
#
#
# Indices 1 2 3 4 5 6 
#
# 1 85.0915 39.7001 73.0106 0.0000 0.0000 0.0000
# 2 39.7001 109.7326 60.5806 0.0000 0.0000 0.0000
# 3 73.0106 60.5806 132.5421 0.0000 0.0000 0.0000
# 4 0.0000 0.0000 0.0000 32.3117 0.0000 0.0000
# 5 0.0000 0.0000 0.0000 0.0000 49.6809 0.0000
# 6 0.0000 0.0000 0.0000 0.0000 0.0000 46.2253
#
#
#
# Elastic Compliance Matrix: (Units=1/GPa)
#
#
# Indices 1 2 3 4 5 6 
#
# 1 0.022530 -0.001738 -0.011616 0.000000 0.000000 0.000000
# 2 -0.001738 0.012323 -0.004675 0.000000 0.000000 0.000000
# 3 -0.011616 -0.004675 0.016080 0.000000 0.000000 0.000000
# 4 0.000000 0.000000 0.000000 0.030949 0.000000 0.000000
# 5 0.000000 0.000000 0.000000 0.000000 0.020128 0.000000
# 6 0.000000 0.000000 0.000000 0.000000 0.000000 0.021633
#
#
# Mechanical properties :
#
#
# Convention : Reuss Voigt Hill
#
# Bulk Modulus (GPa) = 67.22845 74.88317 71.05581
# Shear Modulus (GPa) = 30.36567 35.91523 33.14045
#
# Velocity S-wave (km/s) = 3.81454 4.14849 3.98501
# Velocity P-wave (km/s) = 7.18440 7.67003 7.43119
#
# Compressibility (1/GPa) = 0.01487466
#
# Stress axis : x y z
#
# Youngs Moduli (GPa) = 44.38545 81.15048 62.18814
#
# Poissons Ratio (x) = 0.14105 0.72239
# Poissons Ratio (y) = 0.07715 0.29072
# Poissons Ratio (z) = 0.51559 0.37937
#
# Static dielectric constant tensor:
#      x y z
#    x 1.681730 0.000000 0.000000 
#    y 0.000000 1.851560 0.000000 
#    z 0.000000 0.000000 1.793160 
# 
# From -- ./inp_files/20125.got.cif
#   From: 2010.05.17/outbox.cif.g08.bks.cpg/sg48_11_cif.got.tgz:20125.got - 2010.06.03 20:39:00.
