data_PCOD9391189
_publ_section_title
;
Structure prediction by ZEFSAII (Michael W. Deem and Ramdas Pophale) SiO2 
 PCOD9391189
Probable space group: P N N N
;
_chemical_formula_sum "Si O2"
_cell_formula_units_Z 32
_cell_length_a 16.633676
_cell_length_b 6.359386
_cell_length_c 13.517253
_cell_angle_alpha 90.000000
_cell_angle_beta 90.000000
_cell_angle_gamma 90.000000
_cell_volume 1429.854567
_symmetry_space_group_name_H-M "P N N N"
_symmetry_group_IT_number 48
_space_group.IT_coordinate_system_code '2'
_symmetry_cell_setting 'orthorhombic'
loop_
_space_group_symop_operation_xyz
x,y,z
1/2-x,1/2-y,z
x,1/2-y,1/2-z
1/2-x,y,1/2-z
-x,-y,-z
1/2+x,1/2+y,-z
-x,1/2+y,1/2+z
1/2+x,-y,1/2+z
loop_
_atom_site_type_symbol
_atom_site_label
_atom_site_fract_x
_atom_site_fract_y
_atom_site_fract_z
Si Si1 0.380459 0.438940 0.105990
Si Si2 0.987011 0.342636 0.149215
Si Si3 0.522482 0.250000 0.750000
Si Si4 0.324640 0.591863 0.893903
Si Si5 0.750000 0.750000 0.250000
Si Si6 0.250000 0.250000 0.250000
O O1 0.442813 0.246137 0.078312
O O2 0.426721 0.622274 0.167003
O O3 0.308394 0.376199 0.177978
O O4 0.341700 0.512492 0.003939
O O5 0.023512 0.250000 0.250000
O O6 0.904309 0.223684 0.132671
O O7 0.976549 0.583908 0.179390
O O8 0.250000 0.750000 0.890356
O O9 0.303903 0.401890 0.819455
#
# Coordination Sequence:
#
# PCOD9391189 Si02
#       6
#     8   8   4   8   2   2
#     4  11  25  43  72 108 149 189 244 306 377 454
#     4  10  22  47  69 107 148 194 246 298 374 449
#     4  10  22  44  76 104 148 198 226 317 369 443
#     4  12  28  45  74 109 145 197 255 308 370 454
#     4  12  28  54  72  98 152 202 240 326 356 440
#     4  12  22  46  68 106 156 180 254 302 372 458
#
# _framework density 22.379897
#
# number of rings (size 3 to 8) (size 9 to 14) (size 15 to 20)
#    0.000    1.000    3.750    3.375    3.500   12.000 
#    0.000    0.000    0.000    4.500    0.000    0.000 
#    0.000    0.000    0.000    0.000    0.000    0.000 
#
# Total GULP energy -178625.390242 kJ/mol
# GULP energy per Si atom -5582.043445 kJ/mol
# Density = 2.232896 g / cm^3
# Si number density = 22.379897 Si / 1000 Ang^3
#
#
#
# Elastic Constant Matrix: (Units=GPa)
#
#
# Indices 1 2 3 4 5 6 
#
# 1 155.2907 95.2983 58.4645 0.0000 0.0000 0.0000
# 2 95.2983 171.8947 88.6371 0.0000 0.0000 0.0000
# 3 58.4645 88.6371 155.5714 0.0000 0.0000 0.0000
# 4 0.0000 0.0000 0.0000 30.0539 0.0000 0.0000
# 5 0.0000 0.0000 0.0000 0.0000 12.9390 0.0000
# 6 0.0000 0.0000 0.0000 0.0000 0.0000 3.9054
#
#
#
# Elastic Compliance Matrix: (Units=1/GPa)
#
#
# Indices 1 2 3 4 5 6 
#
# 1 0.009836 -0.005023 -0.000835 0.000000 0.000000 0.000000
# 2 -0.005023 0.010802 -0.004267 0.000000 0.000000 0.000000
# 3 -0.000835 -0.004267 0.009173 0.000000 0.000000 0.000000
# 4 0.000000 0.000000 0.000000 0.033274 0.000000 0.000000
# 5 0.000000 0.000000 0.000000 0.000000 0.077286 0.000000
# 6 0.000000 0.000000 0.000000 0.000000 0.000000 0.256057
#
#
# Mechanical properties :
#
#
# Convention : Reuss Voigt Hill
#
# Bulk Modulus (GPa) = 104.57882 107.50630 106.04256
# Shear Modulus (GPa) = 11.90859 25.40345 18.65602
#
# Velocity S-wave (km/s) = 2.30926 3.37278 2.89036
# Velocity P-wave (km/s) = 7.34442 7.95668 7.65668
#
# Compressibility (1/GPa) = 0.00956217
#
# Stress axis : x y z
#
# Youngs Moduli (GPa) = 101.66605 92.57164 109.01732
#
# Poissons Ratio (x) = 0.46496 0.09100
# Poissons Ratio (y) = 0.51064 0.46519
# Poissons Ratio (z) = 0.08487 0.39502
#
# Static dielectric constant tensor:
#      x y z
#    x 1.842320 0.000000 0.000000 
#    y 0.000000 1.968750 0.000000 
#    z 0.000000 0.000000 1.875330 
# 
# From -- ./inp_files/4067.got.cif
#   From: 2010.05.17/outbox.cif.g08.bks.cpg/sg48_3_cif.got.tgz:4067.got - 2010.06.03 20:39:00.
