data_PCOD9391457
_publ_section_title
;
Structure prediction by ZEFSAII (Michael W. Deem and Ramdas Pophale) SiO2 
 PCOD9391457
Probable space group: P N N N
;
_chemical_formula_sum "Si O2"
_cell_formula_units_Z 46
_cell_length_a 11.390065
_cell_length_b 8.333093
_cell_length_c 24.181367
_cell_angle_alpha 90.000000
_cell_angle_beta 90.000000
_cell_angle_gamma 90.000000
_cell_volume 2295.161655
_symmetry_space_group_name_H-M "P N N N"
_symmetry_group_IT_number 48
_space_group.IT_coordinate_system_code '2'
_symmetry_cell_setting 'orthorhombic'
loop_
_space_group_symop_operation_xyz
x,y,z
1/2-x,1/2-y,z
x,1/2-y,1/2-z
1/2-x,y,1/2-z
-x,-y,-z
1/2+x,1/2+y,-z
-x,1/2+y,1/2+z
1/2+x,-y,1/2+z
loop_
_atom_site_type_symbol
_atom_site_label
_atom_site_fract_x
_atom_site_fract_y
_atom_site_fract_z
Si Si1 0.250000 0.250000 0.750000
Si Si2 0.619980 0.590172 0.149733
Si Si3 0.222380 0.064121 0.543882
Si Si4 0.895313 0.563894 0.692967
Si Si5 0.865333 0.944970 0.683385
Si Si6 0.982784 0.128705 0.588042
Si Si7 0.250000 0.750000 0.027713
O O1 0.323880 0.360709 0.791919
O O2 0.717676 0.542866 0.104480
O O3 0.512891 0.470182 0.159873
O O4 0.556157 0.742873 0.123204
O O5 0.250000 0.250000 0.525626
O O6 0.081427 0.056658 0.547740
O O7 0.266963 0.915546 0.507106
O O8 0.874514 0.754065 0.690349
O O9 0.768941 0.498407 0.673240
O O10 0.906532 0.498281 0.755851
O O11 0.939519 0.998761 0.631706
O O12 0.869448 0.213272 0.561387
#
# Coordination Sequence:
#
# PCOD9391457 Si02
#       7
#     2   8   8   8   8   8   4
#     4  12  20  40  64  96 136 176 206 268 338 400
#     4  11  22  39  64  93 129 171 213 260 338 402
#     4  10  25  46  62  97 133 172 220 283 332 400
#     4   9  19  35  60  92 130 171 201 266 330 394
#     4   9  19  37  58  93 131 162 217 264 323 392
#     4  11  22  43  63  95 126 168 224 279 324 402
#     4  12  26  44  72  92 128 178 234 284 338 380
#
# _framework density 20.042162000000001
#
# number of rings (size 3 to 8) (size 9 to 14) (size 15 to 20)
#    0.000    1.739    2.609    3.652    2.435    2.783 
#    6.261    1.739    0.000    0.000    0.000    0.000 
#    0.000    0.000    0.000    0.000    0.000    0.000 
#
# Total GULP energy -256379.616015 kJ/mol
# GULP energy per Si atom -5573.469913 kJ/mol
# Density = 1.999654 g / cm^3
# Si number density = 20.042162 Si / 1000 Ang^3
#
#
#
# Elastic Constant Matrix: (Units=GPa)
#
#
# Indices 1 2 3 4 5 6 
#
# 1 133.3812 34.5623 51.1260 0.0000 0.0000 0.0000
# 2 34.5623 61.5901 41.5623 0.0000 0.0000 0.0000
# 3 51.1260 41.5623 74.6225 0.0000 0.0000 0.0000
# 4 0.0000 0.0000 0.0000 21.4768 0.0000 0.0000
# 5 0.0000 0.0000 0.0000 0.0000 27.8683 0.0000
# 6 0.0000 0.0000 0.0000 0.0000 0.0000 59.8560
#
#
#
# Elastic Compliance Matrix: (Units=1/GPa)
#
#
# Indices 1 2 3 4 5 6 
#
# 1 0.010268 -0.001626 -0.006129 0.000000 0.000000 0.000000
# 2 -0.001626 0.026271 -0.013518 0.000000 0.000000 0.000000
# 3 -0.006129 -0.013518 0.025129 0.000000 0.000000 0.000000
# 4 0.000000 0.000000 0.000000 0.046562 0.000000 0.000000
# 5 0.000000 0.000000 0.000000 0.000000 0.035883 0.000000
# 6 0.000000 0.000000 0.000000 0.000000 0.000000 0.016707
#
#
# Mechanical properties :
#
#
# Convention : Reuss Voigt Hill
#
# Bulk Modulus (GPa) = 52.29676 58.23277 55.26477
# Shear Modulus (GPa) = 23.83889 31.32976 27.58433
#
# Velocity S-wave (km/s) = 3.45256 3.95801 3.71390
# Velocity P-wave (km/s) = 6.48410 7.07149 6.78416
#
# Compressibility (1/GPa) = 0.01912164
#
# Stress axis : x y z
#
# Youngs Moduli (GPa) = 97.38951 38.06455 39.79396
#
# Poissons Ratio (x) = 0.06189 0.24391
# Poissons Ratio (y) = 0.15834 0.53795
# Poissons Ratio (z) = 0.59694 0.51457
#
# Static dielectric constant tensor:
#      x y z
#    x 1.754920 0.000000 0.000000 
#    y 0.000000 1.738420 0.000000 
#    z 0.000000 0.000000 1.752420 
# 
# From -- ./inp_files/36284.got.cif
#   From: 2010.05.17/outbox.cif.g08.bks.cpg/sg48_19_cif.got.tgz:36284.got - 2010.06.03 20:39:00.
