data_PCOD9391586
_publ_section_title
;
Structure prediction by ZEFSAII (Michael W. Deem and Ramdas Pophale) SiO2 
 PCOD9391586
Probable space group: P N N N
;
_chemical_formula_sum "Si O2"
_cell_formula_units_Z 40
_cell_length_a 16.272412
_cell_length_b 21.191576
_cell_length_c 5.607429
_cell_angle_alpha 90.000000
_cell_angle_beta 90.000000
_cell_angle_gamma 90.000000
_cell_volume 1933.654913
_symmetry_space_group_name_H-M "P N N N"
_symmetry_group_IT_number 48
_space_group.IT_coordinate_system_code '2'
_symmetry_cell_setting 'orthorhombic'
loop_
_space_group_symop_operation_xyz
x,y,z
1/2-x,1/2-y,z
x,1/2-y,1/2-z
1/2-x,y,1/2-z
-x,-y,-z
1/2+x,1/2+y,-z
-x,1/2+y,1/2+z
1/2+x,-y,1/2+z
loop_
_atom_site_type_symbol
_atom_site_label
_atom_site_fract_x
_atom_site_fract_y
_atom_site_fract_z
Si Si1 0.299588 0.891357 0.004836
Si Si2 0.468633 0.100829 0.450100
Si Si3 0.930066 0.020113 0.682265
Si Si4 0.056029 0.692852 0.908802
Si Si5 0.888728 0.732783 0.489551
O O1 0.250000 0.889940 0.250000
O O2 0.352742 0.955586 0.033170
O O3 0.250000 0.887965 0.750000
O O4 0.365666 0.834958 0.037708
O O5 0.529793 0.074766 0.652605
O O6 0.523675 0.133864 0.246389
O O7 0.411505 0.159105 0.523245
O O8 0.418467 0.041042 0.350146
O O9 0.000000 0.000000 0.500000
O O10 0.088764 0.750000 0.750000
O O11 0.973821 0.724736 0.017718
O O12 0.842198 0.750000 0.250000
O O13 0.853851 0.750000 0.750000
#
# Coordination Sequence:
#
# PCOD9391586 Si02
#       5
#     8   8   8   8   8
#     4  12  26  41  56  83 123 163 203 242 293 357
#     4   9  19  34  58  86 107 148 206 252 296 333
#     4  11  21  36  62  79 109 157 208 254 296 338
#     4   9  19  39  57  81 115 158 196 240 282 348
#     4   9  18  31  53  81 114 143 178 245 291 336
#
# _framework density 20.686212999999999
#
# number of rings (size 3 to 8) (size 9 to 14) (size 15 to 20)
#    0.000    2.400    2.000    2.400    5.600    3.600 
#    0.000    5.000    0.000    0.000    0.000    0.000 
#    0.000   12.800   24.000    0.000    0.000    0.200 
#
# Total GULP energy -222749.483889 kJ/mol
# GULP energy per Si atom -5568.737097 kJ/mol
# Density = 2.063913 g / cm^3
# Si number density = 20.686213 Si / 1000 Ang^3
#
#
#
# Elastic Constant Matrix: (Units=GPa)
#
#
# Indices 1 2 3 4 5 6 
#
# 1 75.1114 25.6790 30.4316 0.0000 0.0000 0.0000
# 2 25.6790 117.6901 38.8462 0.0000 0.0000 0.0000
# 3 30.4316 38.8462 125.9280 0.0000 0.0000 0.0000
# 4 0.0000 0.0000 0.0000 36.3729 0.0000 0.0000
# 5 0.0000 0.0000 0.0000 0.0000 14.8821 0.0000
# 6 0.0000 0.0000 0.0000 0.0000 0.0000 11.9611
#
#
#
# Elastic Compliance Matrix: (Units=1/GPa)
#
#
# Indices 1 2 3 4 5 6 
#
# 1 0.015326 -0.002362 -0.002975 0.000000 0.000000 0.000000
# 2 -0.002362 0.009824 -0.002460 0.000000 0.000000 0.000000
# 3 -0.002975 -0.002460 0.009419 0.000000 0.000000 0.000000
# 4 0.000000 0.000000 0.000000 0.027493 0.000000 0.000000
# 5 0.000000 0.000000 0.000000 0.000000 0.067195 0.000000
# 6 0.000000 0.000000 0.000000 0.000000 0.000000 0.083604
#
#
# Mechanical properties :
#
#
# Convention : Reuss Voigt Hill
#
# Bulk Modulus (GPa) = 52.69942 56.51588 54.60765
# Shear Modulus (GPa) = 21.29650 27.56141 24.42896
#
# Velocity S-wave (km/s) = 3.21207 3.65411 3.44019
# Velocity P-wave (km/s) = 6.26797 6.72184 6.49887
#
# Compressibility (1/GPa) = 0.01897554
#
# Stress axis : x y z
#
# Youngs Moduli (GPa) = 65.24650 101.78981 106.17078
#
# Poissons Ratio (x) = 0.24044 0.31587
# Poissons Ratio (y) = 0.15412 0.26115
# Poissons Ratio (z) = 0.19412 0.25038
#
# Static dielectric constant tensor:
#      x y z
#    x 1.779300 0.000000 0.000000 
#    y 0.000000 1.748760 0.000000 
#    z 0.000000 0.000000 1.864790 
# 
# From -- ./inp_files/4374.got.cif
#   From: 2010.05.17/outbox.cif.g08.bks.cpg/sg48_3_cif.got.tgz:4374.got - 2010.06.03 20:39:00.
