data_PCOD9391968
_publ_section_title
;
Structure prediction by ZEFSAII (Michael W. Deem and Ramdas Pophale) SiO2 
 PCOD9391968
Probable space group: P N N N
;
_chemical_formula_sum "Si O2"
_cell_formula_units_Z 58
_cell_length_a 12.000000
_cell_length_b 9.000000
_cell_length_c 27.000000
_cell_angle_alpha 90.000000
_cell_angle_beta 90.000000
_cell_angle_gamma 90.000000
_cell_volume 2916.000000
_symmetry_space_group_name_H-M "P N N N"
_symmetry_group_IT_number 48
_space_group.IT_coordinate_system_code '2'
_symmetry_cell_setting 'orthorhombic'
loop_
_space_group_symop_operation_xyz
x,y,z
1/2-x,1/2-y,z
x,1/2-y,1/2-z
1/2-x,y,1/2-z
-x,-y,-z
1/2+x,1/2+y,-z
-x,1/2+y,1/2+z
1/2+x,-y,1/2+z
loop_
_atom_site_type_symbol
_atom_site_label
_atom_site_fract_x
_atom_site_fract_y
_atom_site_fract_z
Si Si1 0.795489 0.086573 0.965632
Si Si2 0.622240 0.717116 0.808818
Si Si3 0.877184 0.801515 0.385563
Si Si4 0.459075 0.958500 0.373725
Si Si5 0.576293 0.310405 0.064248
Si Si6 0.405384 0.374560 0.497584
Si Si7 0.399709 0.623966 0.657471
Si Si8 0.250000 0.750000 0.750000
O O1 0.750000 0.250000 0.952640
O O2 0.869928 0.047516 0.918271
O O3 0.704572 0.958365 0.977163
O O4 0.858892 0.123048 0.017226
O O5 0.750000 0.750000 0.824538
O O6 0.616417 0.750000 0.750000
O O7 0.589924 0.550136 0.827130
O O8 0.526556 0.819728 0.833431
O O9 0.750000 0.750000 0.377320
O O10 0.890072 0.817837 0.445876
O O11 0.977248 0.695573 0.366484
O O12 0.891566 0.951968 0.354734
O O13 0.555454 0.058153 0.397725
O O14 0.461706 0.244630 0.039830
O O15 0.630993 0.191834 0.102312
O O16 0.500000 0.500000 0.500000
O O17 0.329999 0.667359 0.708069
#
# Coordination Sequence:
#
# PCOD9391968 Si02
#       8
#     8   8   8   8   8   8   8   2
#     4  12  23  37  62  97 145 183 229 281 353 439
#     4  10  24  49  76 101 131 178 244 308 370 442
#     4  12  26  43  67 107 153 188 236 303 373 431
#     4  11  26  41  66 100 137 181 237 290 352 438
#     4  11  24  43  65  96 141 190 234 286 353 434
#     4  12  23  39  61  99 141 191 234 283 353 438
#     4  11  26  46  77 100 142 188 249 305 364 431
#     4  12  28  48  80 108 132 196 262 306 364 446
#
# _framework density 19.890260999999999
#
# number of rings (size 3 to 8) (size 9 to 14) (size 15 to 20)
#    0.000    0.690    4.828    1.241   12.552    0.000 
#    0.000    2.414    0.000    1.655    0.000    0.000 
#    0.000    0.000    0.000    0.000    0.000    0.000 
#
# Total GULP energy -323544.159257 kJ/mol
# GULP energy per Si atom -5578.347573 kJ/mol
# Density = 1.984499 g / cm^3
# Si number density = 19.890261 Si / 1000 Ang^3
#
#
#
# Elastic Constant Matrix: (Units=GPa)
#
#
# Indices 1 2 3 4 5 6 
#
# 1 130.6824 55.8173 43.3595 0.0000 0.0000 0.0000
# 2 55.8173 115.6064 52.8387 0.0000 0.0000 0.0000
# 3 43.3595 52.8387 128.5537 0.0000 0.0000 0.0000
# 4 0.0000 0.0000 0.0000 24.7657 0.0000 0.0000
# 5 0.0000 0.0000 0.0000 0.0000 27.9192 0.0000
# 6 0.0000 0.0000 0.0000 0.0000 0.0000 28.5464
#
#
#
# Elastic Compliance Matrix: (Units=1/GPa)
#
#
# Indices 1 2 3 4 5 6 
#
# 1 0.009932 -0.004019 -0.001698 0.000000 0.000000 0.000000
# 2 -0.004019 0.012278 -0.003691 0.000000 0.000000 0.000000
# 3 -0.001698 -0.003691 0.009868 0.000000 0.000000 0.000000
# 4 0.000000 0.000000 0.000000 0.040378 0.000000 0.000000
# 5 0.000000 0.000000 0.000000 0.000000 0.035818 0.000000
# 6 0.000000 0.000000 0.000000 0.000000 0.000000 0.035031
#
#
# Mechanical properties :
#
#
# Convention : Reuss Voigt Hill
#
# Bulk Modulus (GPa) = 75.40215 75.43037 75.41626
# Shear Modulus (GPa) = 30.02246 31.10140 30.56193
#
# Velocity S-wave (km/s) = 3.88932 3.95859 3.92411
# Velocity P-wave (km/s) = 7.62630 7.67460 7.65049
#
# Compressibility (1/GPa) = 0.01326222
#
# Stress axis : x y z
#
# Youngs Moduli (GPa) = 100.68154 81.44930 101.33263
#
# Poissons Ratio (x) = 0.32738 0.17206
# Poissons Ratio (y) = 0.40469 0.37398
# Poissons Ratio (z) = 0.17095 0.30060
#
# Static dielectric constant tensor:
#      x y z
#    x 1.760210 0.000000 0.000000 
#    y 0.000000 1.797040 0.000000 
#    z 0.000000 0.000000 1.685910 
# 
# From -- ./inp_files/37769.got.cif
#   From: 2010.05.17/outbox.ucp.g08.bks.cvg/sg48_19_cif.got.tgz:37769.got - 2010.06.11 16:38:40.
