data_PCOD9391451
_publ_section_title
;
Structure prediction by ZEFSAII (Michael W. Deem and Ramdas Pophale) SiO2 
 PCOD9391451
Probable space group: P N N N
;
_chemical_formula_sum "Si O2"
_cell_formula_units_Z 56
_cell_length_a 15.158828
_cell_length_b 11.579845
_cell_length_c 14.076528
_cell_angle_alpha 90.000000
_cell_angle_beta 90.000000
_cell_angle_gamma 90.000000
_cell_volume 2470.949787
_symmetry_space_group_name_H-M "P N N N"
_symmetry_group_IT_number 48
_space_group.IT_coordinate_system_code '2'
_symmetry_cell_setting 'orthorhombic'
loop_
_space_group_symop_operation_xyz
x,y,z
1/2-x,1/2-y,z
x,1/2-y,1/2-z
1/2-x,y,1/2-z
-x,-y,-z
1/2+x,1/2+y,-z
-x,1/2+y,1/2+z
1/2+x,-y,1/2+z
loop_
_atom_site_type_symbol
_atom_site_label
_atom_site_fract_x
_atom_site_fract_y
_atom_site_fract_z
Si Si1 0.994353 0.311382 0.663440
Si Si2 0.939969 0.389608 0.472373
Si Si3 0.261383 0.871393 0.021759
Si Si4 0.999449 0.077029 0.229189
Si Si5 0.338964 0.178832 0.906692
Si Si6 0.415451 0.454028 0.430678
Si Si7 0.178985 0.581857 0.829657
O O1 0.945041 0.250000 0.750000
O O2 0.003078 0.443788 0.694664
O O3 0.087988 0.248939 0.650821
O O4 0.952403 0.302111 0.559675
O O5 0.834733 0.419955 0.484516
O O6 0.984462 0.355705 0.371432
O O7 0.000000 0.500000 0.500000
O O8 0.250000 0.750000 0.074705
O O9 0.331683 0.957463 0.069242
O O10 0.309703 0.843337 0.922762
O O11 0.912003 0.108142 0.283309
O O12 0.065440 0.076178 0.320155
O O13 0.250000 0.250000 0.909917
O O14 0.321472 0.052843 0.861431
O O15 0.378581 0.154099 0.010411
O O16 0.500000 0.500000 0.500000
O O17 0.250000 0.601557 0.750000
#
# Coordination Sequence:
#
# PCOD9391451 Si02
#       7
#     8   8   8   8   8   8   8
#     4  11  22  39  69 101 132 174 238 294 346 413
#     4  10  25  43  66  93 140 186 232 289 355 422
#     4  11  25  40  65  99 140 179 234 289 351 429
#     4  11  21  42  67  97 138 184 222 287 360 435
#     4  11  24  37  69 104 136 171 235 301 357 415
#     4  11  23  44  69 100 142 185 222 296 373 429
#     4  11  20  37  63  99 137 166 223 290 368 399
#
# _framework density 22.663349
#
# number of rings (size 3 to 8) (size 9 to 14) (size 15 to 20)
#    0.000    1.143    5.714    0.857   10.000    0.286 
#    0.000    5.000    0.000    0.857    0.000    0.000 
#    0.000    0.000    0.000    0.000    0.000    0.000 
#
# Total GULP energy -311985.199102 kJ/mol
# GULP energy per Si atom -5571.164270 kJ/mol
# Density = 2.261177 g / cm^3
# Si number density = 22.663349 Si / 1000 Ang^3
#
#
#
# Elastic Constant Matrix: (Units=GPa)
#
#
# Indices 1 2 3 4 5 6 
#
# 1 94.4876 9.4207 55.9272 0.0000 0.0000 0.0000
# 2 9.4207 59.9645 33.6338 0.0000 0.0000 0.0000
# 3 55.9272 33.6338 193.4120 0.0000 0.0000 0.0000
# 4 0.0000 0.0000 0.0000 18.6796 0.0000 0.0000
# 5 0.0000 0.0000 0.0000 0.0000 38.2158 0.0000
# 6 0.0000 0.0000 0.0000 0.0000 0.0000 12.7696
#
#
#
# Elastic Compliance Matrix: (Units=1/GPa)
#
#
# Indices 1 2 3 4 5 6 
#
# 1 0.012769 0.000072 -0.003705 0.000000 0.000000 0.000000
# 2 0.000072 0.018479 -0.003234 0.000000 0.000000 0.000000
# 3 -0.003705 -0.003234 0.006804 0.000000 0.000000 0.000000
# 4 0.000000 0.000000 0.000000 0.053534 0.000000 0.000000
# 5 0.000000 0.000000 0.000000 0.000000 0.026167 0.000000
# 6 0.000000 0.000000 0.000000 0.000000 0.000000 0.078311
#
#
# Mechanical properties :
#
#
# Convention : Reuss Voigt Hill
#
# Bulk Modulus (GPa) = 41.12167 60.64752 50.88460
# Shear Modulus (GPa) = 22.94577 30.52517 26.73547
#
# Velocity S-wave (km/s) = 3.18537 3.67399 3.43837
# Velocity P-wave (km/s) = 5.63141 6.69447 6.18582
#
# Compressibility (1/GPa) = 0.02431808
#
# Stress axis : x y z
#
# Youngs Moduli (GPa) = 78.31390 54.11452 146.97135
#
# Poissons Ratio (x) = -0.00389 0.54451
# Poissons Ratio (y) = -0.00563 0.47535
# Poissons Ratio (z) = 0.29014 0.17502
#
# Static dielectric constant tensor:
#      x y z
#    x 1.956920 0.000000 0.000000 
#    y 0.000000 1.822490 0.000000 
#    z 0.000000 0.000000 1.825480 
# 
# From -- ./inp_files/27328.got.cif
#   From: 2010.05.17/outbox.cif.g08.bks.cpg/sg48_14_cif.got.tgz:27328.got - 2010.06.03 20:39:00.
