data_PCOD9391688
_publ_section_title
;
Structure prediction by ZEFSAII (Michael W. Deem and Ramdas Pophale) SiO2 
 PCOD9391688
Probable space group: P N N N
;
_chemical_formula_sum "Si O2"
_cell_formula_units_Z 34
_cell_length_a 8.376855
_cell_length_b 12.731162
_cell_length_c 14.472307
_cell_angle_alpha 90.000000
_cell_angle_beta 90.000000
_cell_angle_gamma 90.000000
_cell_volume 1543.429544
_symmetry_space_group_name_H-M "P N N N"
_symmetry_group_IT_number 48
_space_group.IT_coordinate_system_code '2'
_symmetry_cell_setting 'orthorhombic'
loop_
_space_group_symop_operation_xyz
x,y,z
1/2-x,1/2-y,z
x,1/2-y,1/2-z
1/2-x,y,1/2-z
-x,-y,-z
1/2+x,1/2+y,-z
-x,1/2+y,1/2+z
1/2+x,-y,1/2+z
loop_
_atom_site_type_symbol
_atom_site_label
_atom_site_fract_x
_atom_site_fract_y
_atom_site_fract_z
Si Si1 0.785492 0.919583 0.849971
Si Si2 0.842743 0.422682 0.402741
Si Si3 0.303376 0.859066 0.094986
Si Si4 0.250000 0.750000 0.750000
Si Si5 0.325155 0.140815 0.951619
O O1 0.750000 0.870181 0.750000
O O2 0.970479 0.928022 0.878184
O O3 0.718027 0.037022 0.846220
O O4 0.700222 0.866545 0.937536
O O5 0.807666 0.376033 0.504343
O O6 0.776742 0.341187 0.328841
O O7 0.759353 0.537880 0.407009
O O8 0.250000 0.750000 0.138494
O O9 0.487378 0.857719 0.066024
O O10 0.250000 0.250000 0.918159
#
# Coordination Sequence:
#
# PCOD9391688 Si02
#       5
#     8   8   8   2   8
#     4  11  25  40  67 100 139 174 232 286 331 405
#     4  11  24  43  68 101 138 174 228 277 348 403
#     4  11  22  44  68  95 140 186 226 278 349 410
#     4  12  28  40  76 100 134 168 226 286 336 388
#     4  11  24  44  71  99 136 186 226 275 352 412
#
# _framework density 22.028863999999999
#
# number of rings (size 3 to 8) (size 9 to 14) (size 15 to 20)
#    0.000    0.941    1.176    8.471    6.588    0.941 
#    0.000    0.588    0.000    0.000    0.000    0.000 
#    0.000    0.000    0.000    0.000    0.000    0.000 
#
# Total GULP energy -189727.923830 kJ/mol
# GULP energy per Si atom -5580.233054 kJ/mol
# Density = 2.197872 g / cm^3
# Si number density = 22.028864 Si / 1000 Ang^3
#
#
#
# Elastic Constant Matrix: (Units=GPa)
#
#
# Indices 1 2 3 4 5 6 
#
# 1 222.2729 31.4066 22.5904 0.0000 0.0000 0.0000
# 2 31.4066 161.7251 43.1906 0.0000 0.0000 0.0000
# 3 22.5904 43.1906 123.0728 0.0000 0.0000 0.0000
# 4 0.0000 0.0000 0.0000 117.5814 0.0000 0.0000
# 5 0.0000 0.0000 0.0000 0.0000 -15.2800 0.0000
# 6 0.0000 0.0000 0.0000 0.0000 0.0000 11.3371
#
#
#
# Elastic Compliance Matrix: (Units=1/GPa)
#
#
# Indices 1 2 3 4 5 6 
#
# 1 0.004665 -0.000747 -0.000594 0.000000 0.000000 0.000000
# 2 -0.000747 0.006942 -0.002299 0.000000 0.000000 0.000000
# 3 -0.000594 -0.002299 0.009041 0.000000 0.000000 0.000000
# 4 0.000000 0.000000 0.000000 0.008505 0.000000 0.000000
# 5 0.000000 0.000000 0.000000 0.000000 -0.065445 0.000000
# 6 0.000000 0.000000 0.000000 0.000000 0.000000 0.088206
#
#
# Mechanical properties :
#
#
# Convention : Reuss Voigt Hill
#
# Bulk Modulus (GPa) = 74.80773 77.93845 76.37309
# Shear Modulus (GPa) = 78.55308 50.05326 64.30317
#
# Velocity S-wave (km/s) = 5.97801 4.77190 5.40868
# Velocity P-wave (km/s) = 9.03778 8.11285 8.58777
#
# Compressibility (1/GPa) = 0.01336760
#
# Stress axis : x y z
#
# Youngs Moduli (GPa) = 214.36532 144.04078 110.60511
#
# Poissons Ratio (x) = 0.10764 0.06570
# Poissons Ratio (y) = 0.16019 0.25430
# Poissons Ratio (z) = 0.12734 0.33118
#
# Static dielectric constant tensor:
#      x y z
#    x 1.790870 0.000000 0.000000 
#    y 0.000000 1.787030 0.000000 
#    z 0.000000 0.000000 1.790840 
# 
# From -- ./inp_files/24869.got.cif
#   From: 2010.05.17/outbox.cif.g08.bks.cpg/sg48_13_cif.got.tgz:24869.got - 2010.06.03 20:39:00.
