data_PCOD9391561
_publ_section_title
;
Structure prediction by ZEFSAII (Michael W. Deem and Ramdas Pophale) SiO2 
 PCOD9391561
Probable space group: P N N N
;
_chemical_formula_sum "Si O2"
_cell_formula_units_Z 48
_cell_length_a 12.005062
_cell_length_b 9.707617
_cell_length_c 18.322728
_cell_angle_alpha 90.000000
_cell_angle_beta 90.000000
_cell_angle_gamma 90.000000
_cell_volume 2135.340688
_symmetry_space_group_name_H-M "P N N N"
_symmetry_group_IT_number 48
_space_group.IT_coordinate_system_code '2'
_symmetry_cell_setting 'orthorhombic'
loop_
_space_group_symop_operation_xyz
x,y,z
1/2-x,1/2-y,z
x,1/2-y,1/2-z
1/2-x,y,1/2-z
-x,-y,-z
1/2+x,1/2+y,-z
-x,1/2+y,1/2+z
1/2+x,-y,1/2+z
loop_
_atom_site_type_symbol
_atom_site_label
_atom_site_fract_x
_atom_site_fract_y
_atom_site_fract_z
Si Si1 0.298376 0.096547 0.676312
Si Si2 0.294733 0.455821 0.981070
Si Si3 0.601835 0.696081 0.544835
Si Si4 0.059175 0.659855 0.320624
Si Si5 0.639691 0.852088 0.697993
Si Si6 0.881620 0.230871 0.978353
O O1 0.250000 0.250000 0.670648
O O2 0.250000 0.032298 0.750000
O O3 0.266847 0.017359 0.602924
O O4 0.429341 0.121245 0.681688
O O5 0.357099 0.309244 0.985995
O O6 0.182183 0.434822 0.029442
O O7 0.383497 0.567300 0.006872
O O8 0.632677 0.767199 0.621844
O O9 0.470393 0.688070 0.528436
O O10 0.088838 0.750000 0.250000
O O11 0.112913 0.508665 0.320297
O O12 0.089781 0.745543 0.393066
O O13 0.567145 0.750000 0.750000
O O14 0.750000 0.870596 0.750000
O O15 0.750000 0.250000 0.992217
#
# Coordination Sequence:
#
# PCOD9391561 Si02
#       6
#     8   8   8   8   8   8
#     4  11  20  39  67 100 130 177 237 284 340 422
#     4  11  20  40  73  94 127 183 241 279 343 425
#     4  11  22  43  72  97 128 184 239 282 340 430
#     4  12  25  40  69 104 143 178 227 296 357 417
#     4  11  25  44  68  98 135 181 234 286 355 423
#     4  12  27  43  66 103 145 184 227 295 366 420
#
# _framework density 22.478849
#
# number of rings (size 3 to 8) (size 9 to 14) (size 15 to 20)
#    0.000    0.667    6.667    3.500    2.333    0.667 
#    3.000    0.000    0.000    0.000    0.000    0.000 
#    0.000    0.000    0.000    0.000    0.000    0.000 
#
# Total GULP energy -267542.083453 kJ/mol
# GULP energy per Si atom -5573.793405 kJ/mol
# Density = 2.242769 g / cm^3
# Si number density = 22.478849 Si / 1000 Ang^3
#
#
#
# Elastic Constant Matrix: (Units=GPa)
#
#
# Indices 1 2 3 4 5 6 
#
# 1 125.7281 -7.2925 32.0984 0.0000 0.0000 0.0000
# 2 -7.2925 19.3230 13.0374 0.0000 0.0000 0.0000
# 3 32.0984 13.0374 191.6954 0.0000 0.0000 0.0000
# 4 0.0000 0.0000 0.0000 -1.1668 0.0000 0.0000
# 5 0.0000 0.0000 0.0000 0.0000 22.7972 0.0000
# 6 0.0000 0.0000 0.0000 0.0000 0.0000 11.7261
#
#
#
# Elastic Compliance Matrix: (Units=1/GPa)
#
#
# Indices 1 2 3 4 5 6 
#
# 1 0.008659 0.004451 -0.001753 0.000000 0.000000 0.000000
# 2 0.004451 0.056528 -0.004590 0.000000 0.000000 0.000000
# 3 -0.001753 -0.004590 0.005822 0.000000 0.000000 0.000000
# 4 0.000000 0.000000 0.000000 -0.857072 0.000000 0.000000
# 5 0.000000 0.000000 0.000000 0.000000 0.043865 0.000000
# 6 0.000000 0.000000 0.000000 0.000000 0.000000 0.085280
#
#
# Mechanical properties :
#
#
# Convention : Reuss Voigt Hill
#
# Bulk Modulus (GPa) = 14.87522 45.82591 30.35057
# Shear Modulus (GPa) = -7.92738 26.59818 9.33540
#
# Velocity S-wave (km/s) = -1.87996 3.44358 2.04009
# Velocity P-wave (km/s) = 1.38545 6.02009 4.36812
#
# Compressibility (1/GPa) = 0.06722589
#
# Stress axis : x y z
#
# Youngs Moduli (GPa) = 115.48339 17.69030 171.75538
#
# Poissons Ratio (x) = -0.07873 0.30102
# Poissons Ratio (y) = -0.51396 0.78832
# Poissons Ratio (z) = 0.20240 0.08119
#
# Static dielectric constant tensor:
#      x y z
#    x 1.853840 0.000000 0.000000 
#    y 0.000000 1.677750 0.000000 
#    z 0.000000 0.000000 1.882800 
# 
# From -- ./inp_files/31028.got.cif
#   From: 2010.05.17/outbox.cif.g08.bks.cpg/sg48_16_cif.got.tgz:31028.got - 2010.06.03 20:39:00.
