data_PCOD9391636
_publ_section_title
;
Structure prediction by ZEFSAII (Michael W. Deem and Ramdas Pophale) SiO2 
 PCOD9391636
Probable space group: P N N N
;
_chemical_formula_sum "Si O2"
_cell_formula_units_Z 64
_cell_length_a 9.978960
_cell_length_b 10.597885
_cell_length_c 31.800245
_cell_angle_alpha 90.000000
_cell_angle_beta 90.000000
_cell_angle_gamma 90.000000
_cell_volume 3363.062592
_symmetry_space_group_name_H-M "P N N N"
_symmetry_group_IT_number 48
_space_group.IT_coordinate_system_code '2'
_symmetry_cell_setting 'orthorhombic'
loop_
_space_group_symop_operation_xyz
x,y,z
1/2-x,1/2-y,z
x,1/2-y,1/2-z
1/2-x,y,1/2-z
-x,-y,-z
1/2+x,1/2+y,-z
-x,1/2+y,1/2+z
1/2+x,-y,1/2+z
loop_
_atom_site_type_symbol
_atom_site_label
_atom_site_fract_x
_atom_site_fract_y
_atom_site_fract_z
Si Si1 0.906691 0.886320 0.172304
Si Si2 0.742384 0.064952 0.557327
Si Si3 0.366249 0.834855 0.969576
Si Si4 0.971743 0.951527 0.408172
Si Si5 0.122024 0.337778 0.490630
Si Si6 0.033991 0.340767 0.579559
Si Si7 0.110378 0.418083 0.816031
Si Si8 0.097586 0.903063 0.244420
O O1 0.917081 0.905676 0.122265
O O2 0.902200 0.734163 0.178080
O O3 0.768231 0.939601 0.190968
O O4 0.034042 0.931041 0.198895
O O5 0.806854 0.116665 0.514002
O O6 0.627419 0.152780 0.576688
O O7 0.867636 0.041062 0.587291
O O8 0.662471 0.939620 0.543909
O O9 0.250000 0.750000 0.949496
O O10 0.494363 0.746846 0.978629
O O11 0.408993 0.952116 0.941265
O O12 0.928967 0.807588 0.418899
O O13 0.929290 0.977294 0.360587
O O14 0.250000 0.250000 0.495762
O O15 0.090694 0.397276 0.536317
O O16 0.007483 0.452174 0.779253
O O17 0.099941 0.750000 0.250000
O O18 0.250000 0.947243 0.250000
#
# Coordination Sequence:
#
# PCOD9391636 Si02
#       8
#     8   8   8   8   8   8   8   8
#     4   9  19  31  50  77 107 147 188 226 270 349
#     4  12  23  38  57  81 115 154 199 254 292 348
#     4  12  24  41  57  80 111 158 205 253 297 340
#     4  11  22  37  56  81 114 153 196 243 293 344
#     4  12  24  39  58  77 112 160 204 246 296 341
#     4  11  23  35  54  83 115 148 200 239 292 344
#     4   9  19  32  52  74 109 148 183 227 278 340
#     4   9  17  31  49  75 109 148 182 216 277 346
#
# _framework density 19.030273000000001
#
# number of rings (size 3 to 8) (size 9 to 14) (size 15 to 20)
#    0.000    1.375    3.750    2.250    7.000    1.500 
#    0.000    0.000    0.000    0.000    0.000    0.000 
#    0.000    7.000    1.500    0.000    0.000    0.000 
#
# Total GULP energy -357538.221345 kJ/mol
# GULP energy per Si atom -5586.534709 kJ/mol
# Density = 1.898696 g / cm^3
# Si number density = 19.030273 Si / 1000 Ang^3
#
#
#
# Elastic Constant Matrix: (Units=GPa)
#
#
# Indices 1 2 3 4 5 6 
#
# 1 134.8103 28.9753 38.1816 0.0000 0.0000 0.0000
# 2 28.9753 25.2293 12.3150 0.0000 0.0000 0.0000
# 3 38.1816 12.3150 78.9304 0.0000 0.0000 0.0000
# 4 0.0000 0.0000 0.0000 6.1260 0.0000 0.0000
# 5 0.0000 0.0000 0.0000 0.0000 29.9236 0.0000
# 6 0.0000 0.0000 0.0000 0.0000 0.0000 23.5637
#
#
#
# Elastic Compliance Matrix: (Units=1/GPa)
#
#
# Indices 1 2 3 4 5 6 
#
# 1 0.010683 -0.010550 -0.003522 0.000000 0.000000 0.000000
# 2 -0.010550 0.053323 -0.003216 0.000000 0.000000 0.000000
# 3 -0.003522 -0.003216 0.014875 0.000000 0.000000 0.000000
# 4 0.000000 0.000000 0.000000 0.163239 0.000000 0.000000
# 5 0.000000 0.000000 0.000000 0.000000 0.033418 0.000000
# 6 0.000000 0.000000 0.000000 0.000000 0.000000 0.042438
#
#
# Mechanical properties :
#
#
# Convention : Reuss Voigt Hill
#
# Bulk Modulus (GPa) = 22.57100 44.21263 33.39182
# Shear Modulus (GPa) = 13.61214 22.55586 18.08400
#
# Velocity S-wave (km/s) = 2.67739 3.44650 3.08600
# Velocity P-wave (km/s) = 4.63079 6.25468 5.50296
#
# Compressibility (1/GPa) = 0.04430464
#
# Stress axis : x y z
#
# Youngs Moduli (GPa) = 93.60868 18.75378 67.22809
#
# Poissons Ratio (x) = 0.19785 0.23675
# Poissons Ratio (y) = 0.98756 0.21622
# Poissons Ratio (z) = 0.32965 0.06032
#
# Static dielectric constant tensor:
#      x y z
#    x 1.695090 0.000000 0.000000 
#    y 0.000000 1.681690 0.000000 
#    z 0.000000 0.000000 1.667940 
# 
# From -- ./inp_files/38832.got.cif
#   From: 2010.05.17/outbox.cif.g08.bks.cpg/sg48_20_cif.got.tgz:38832.got - 2010.06.03 20:39:00.
