data_PCOD9391546
_publ_section_title
;
Structure prediction by ZEFSAII (Michael W. Deem and Ramdas Pophale) SiO2 
 PCOD9391546
Probable space group: P N N N
;
_chemical_formula_sum "Si O2"
_cell_formula_units_Z 58
_cell_length_a 28.141898
_cell_length_b 9.169182
_cell_length_c 11.815189
_cell_angle_alpha 90.000000
_cell_angle_beta 90.000000
_cell_angle_gamma 90.000000
_cell_volume 3048.769920
_symmetry_space_group_name_H-M "P N N N"
_symmetry_group_IT_number 48
_space_group.IT_coordinate_system_code '2'
_symmetry_cell_setting 'orthorhombic'
loop_
_space_group_symop_operation_xyz
x,y,z
1/2-x,1/2-y,z
x,1/2-y,1/2-z
1/2-x,y,1/2-z
-x,-y,-z
1/2+x,1/2+y,-z
-x,1/2+y,1/2+z
1/2+x,-y,1/2+z
loop_
_atom_site_type_symbol
_atom_site_label
_atom_site_fract_x
_atom_site_fract_y
_atom_site_fract_z
Si Si1 0.699956 0.788749 0.938690
Si Si2 0.914830 0.405649 0.693472
Si Si3 0.402893 0.349508 0.536922
Si Si4 0.686888 0.517434 0.774076
Si Si5 0.926132 0.097876 0.285719
Si Si6 0.468433 0.114008 0.173494
Si Si7 0.554465 0.978203 0.461734
Si Si8 0.250000 0.750000 0.250000
O O1 0.750000 0.750000 0.999005
O O2 0.690647 0.643733 0.865828
O O3 0.706142 0.917140 0.844659
O O4 0.652470 0.824755 0.007175
O O5 0.910881 0.250000 0.750000
O O6 0.868791 0.489982 0.738327
O O7 0.961886 0.475863 0.746255
O O8 0.916862 0.431861 0.558845
O O9 0.404996 0.467318 0.638471
O O10 0.435089 0.410354 0.433735
O O11 0.427401 0.189297 0.546467
O O12 0.713567 0.366801 0.806235
O O13 0.900339 0.250000 0.250000
O O14 0.975984 0.138734 0.348965
O O15 0.938269 0.037111 0.162807
O O16 0.451226 0.250000 0.250000
O O17 0.500000 0.000000 0.500000
#
# Coordination Sequence:
#
# PCOD9391546 Si02
#       8
#     8   8   8   8   8   8   8   2
#     4  11  21  38  64  90 124 168 212 261 325 393
#     4  12  24  34  60  95 131 166 204 262 322 387
#     4  12  24  40  67  91 129 171 220 274 321 393
#     4  11  20  36  56  92 133 164 199 257 323 399
#     4  11  26  42  60  89 126 173 221 266 323 384
#     4  11  20  41  60  88 127 168 213 257 324 391
#     4  12  24  41  61  89 127 168 216 264 316 384
#     4  12  20  34  56  92 136 168 192 248 336 390
#
# _framework density 19.024066000000001
#
# number of rings (size 3 to 8) (size 9 to 14) (size 15 to 20)
#    0.000    0.552    7.586    2.069    3.862    0.000 
#    0.000    0.000    0.000    1.655    0.000    0.966 
#    0.000    0.000    0.000    0.000    0.000    0.000 
#
# Total GULP energy -323072.476028 kJ/mol
# GULP energy per Si atom -5570.215104 kJ/mol
# Density = 1.898077 g / cm^3
# Si number density = 19.024066 Si / 1000 Ang^3
#
#
#
# Elastic Constant Matrix: (Units=GPa)
#
#
# Indices 1 2 3 4 5 6 
#
# 1 84.7464 51.9953 34.4522 0.0000 0.0000 0.0000
# 2 51.9953 113.9904 55.6269 0.0000 0.0000 0.0000
# 3 34.4522 55.6269 103.6141 0.0000 0.0000 0.0000
# 4 0.0000 0.0000 0.0000 29.3366 0.0000 0.0000
# 5 0.0000 0.0000 0.0000 0.0000 20.1113 0.0000
# 6 0.0000 0.0000 0.0000 0.0000 0.0000 17.1200
#
#
#
# Elastic Compliance Matrix: (Units=1/GPa)
#
#
# Indices 1 2 3 4 5 6 
#
# 1 0.016680 -0.006642 -0.001980 0.000000 0.000000 0.000000
# 2 -0.006642 0.014532 -0.005593 0.000000 0.000000 0.000000
# 3 -0.001980 -0.005593 0.013312 0.000000 0.000000 0.000000
# 4 0.000000 0.000000 0.000000 0.034087 0.000000 0.000000
# 5 0.000000 0.000000 0.000000 0.000000 0.049723 0.000000
# 6 0.000000 0.000000 0.000000 0.000000 0.000000 0.058411
#
#
# Mechanical properties :
#
#
# Convention : Reuss Voigt Hill
#
# Bulk Modulus (GPa) = 62.13747 65.16665 63.65206
# Shear Modulus (GPa) = 22.67147 23.99867 23.33507
#
# Velocity S-wave (km/s) = 3.45588 3.55560 3.50610
# Velocity P-wave (km/s) = 6.97550 7.15441 7.06552
#
# Compressibility (1/GPa) = 0.01609335
#
# Stress axis : x y z
#
# Youngs Moduli (GPa) = 59.95155 68.81482 75.11789
#
# Poissons Ratio (x) = 0.45707 0.14876
# Poissons Ratio (y) = 0.39820 0.42014
# Poissons Ratio (z) = 0.11872 0.38489
#
# Static dielectric constant tensor:
#      x y z
#    x 1.713610 0.000000 0.000000 
#    y 0.000000 1.472440 0.000000 
#    z 0.000000 0.000000 1.634550 
# 
# From -- ./inp_files/11537.got.cif
#   From: 2010.05.17/outbox.cif.g08.bks.cpg/sg48_6_cif.got.tgz:11537.got - 2010.06.03 20:39:00.
