data_PCOD9391902
_publ_section_title
;
Structure prediction by ZEFSAII (Michael W. Deem and Ramdas Pophale) SiO2 
 PCOD9391902
Probable space group: P N N N
;
_chemical_formula_sum "Si O2"
_cell_formula_units_Z 20
_cell_length_a 19.495438
_cell_length_b 8.330131
_cell_length_c 4.667718
_cell_angle_alpha 90.000000
_cell_angle_beta 90.000000
_cell_angle_gamma 90.000000
_cell_volume 758.035314
_symmetry_space_group_name_H-M "P N N N"
_symmetry_group_IT_number 48
_space_group.IT_coordinate_system_code '2'
_symmetry_cell_setting 'orthorhombic'
loop_
_space_group_symop_operation_xyz
x,y,z
1/2-x,1/2-y,z
x,1/2-y,1/2-z
1/2-x,y,1/2-z
-x,-y,-z
1/2+x,1/2+y,-z
-x,1/2+y,1/2+z
1/2+x,-y,1/2+z
loop_
_atom_site_type_symbol
_atom_site_label
_atom_site_fract_x
_atom_site_fract_y
_atom_site_fract_z
Si Si1 0.067419 0.938194 0.655885
Si Si2 0.345064 0.020889 0.380058
Si Si3 0.750000 0.750000 0.250000
Si Si4 0.750000 0.250000 0.750000
O O1 0.064977 0.750000 0.750000
O O2 0.130823 0.508615 0.053341
O O3 0.084072 0.028536 0.948830
O O4 0.000000 0.000000 0.500000
O O5 0.298404 0.154908 0.526499
O O6 0.299347 0.862960 0.434071
#
# Coordination Sequence:
#
# PCOD9391902 Si02
#       4
#     8   8   2   2
#     4  12  27  50  81 116 161 223 286 349 416 500
#     4  12  28  49  81 118 165 217 281 351 426 503
#     4  12  32  48  82 130 172 220 280 368 428 512
#     4  12  24  52  82 110 160 216 284 336 428 512
#
# _framework density 26.383997000000001
#
# number of rings (size 3 to 8) (size 9 to 14) (size 15 to 20)
#    0.000    0.000    4.000    3.600    5.600    7.200 
#    0.000    0.000    0.000    0.000    0.000    0.000 
#    0.000    0.000    0.000    0.000    0.000    0.000 
#
# Total GULP energy -111810.726044 kJ/mol
# GULP energy per Si atom -5590.536302 kJ/mol
# Density = 2.632395 g / cm^3
# Si number density = 26.383997 Si / 1000 Ang^3
#
#
#
# Elastic Constant Matrix: (Units=GPa)
#
#
# Indices 1 2 3 4 5 6 
#
# 1 144.7174 66.8010 51.7639 0.0000 0.0000 0.0000
# 2 66.8010 158.1018 64.1826 0.0000 0.0000 0.0000
# 3 51.7639 64.1826 177.5953 0.0000 0.0000 0.0000
# 4 0.0000 0.0000 0.0000 49.6802 0.0000 0.0000
# 5 0.0000 0.0000 0.0000 0.0000 42.9422 0.0000
# 6 0.0000 0.0000 0.0000 0.0000 0.0000 27.1007
#
#
#
# Elastic Compliance Matrix: (Units=1/GPa)
#
#
# Indices 1 2 3 4 5 6 
#
# 1 0.008890 -0.003169 -0.001446 0.000000 0.000000 0.000000
# 2 -0.003169 0.008542 -0.002163 0.000000 0.000000 0.000000
# 3 -0.001446 -0.002163 0.006834 0.000000 0.000000 0.000000
# 4 0.000000 0.000000 0.000000 0.020129 0.000000 0.000000
# 5 0.000000 0.000000 0.000000 0.000000 0.023287 0.000000
# 6 0.000000 0.000000 0.000000 0.000000 0.000000 0.036899
#
#
# Mechanical properties :
#
#
# Convention : Reuss Voigt Hill
#
# Bulk Modulus (GPa) = 93.37575 93.98996 93.68285
# Shear Modulus (GPa) = 41.08168 43.78909 42.43539
#
# Velocity S-wave (km/s) = 3.95025 4.07834 4.01481
# Velocity P-wave (km/s) = 7.50159 7.60778 7.55487
#
# Compressibility (1/GPa) = 0.01070942
#
# Stress axis : x y z
#
# Youngs Moduli (GPa) = 112.48452 117.06323 146.32582
#
# Poissons Ratio (x) = 0.37101 0.21156
# Poissons Ratio (y) = 0.35650 0.31657
# Poissons Ratio (z) = 0.16263 0.25326
#
# Static dielectric constant tensor:
#      x y z
#    x 2.081770 0.000000 0.000000 
#    y 0.000000 2.106210 0.000000 
#    z 0.000000 0.000000 0.974030 
# 
# From -- ./inp_files/3824.got.cif
#   From: 2010.05.17/outbox.cif.g08.bks.cpg/sg48_2_cif.got.tgz:3824.got - 2010.06.03 20:39:00.
