data_PCOD9391618
_publ_section_title
;
Structure prediction by ZEFSAII (Michael W. Deem and Ramdas Pophale) SiO2 
 PCOD9391618
Probable space group: P N N N
;
_chemical_formula_sum "Si O2"
_cell_formula_units_Z 48
_cell_length_a 13.705480
_cell_length_b 14.708420
_cell_length_c 11.524346
_cell_angle_alpha 90.000000
_cell_angle_beta 90.000000
_cell_angle_gamma 90.000000
_cell_volume 2323.146307
_symmetry_space_group_name_H-M "P N N N"
_symmetry_group_IT_number 48
_space_group.IT_coordinate_system_code '2'
_symmetry_cell_setting 'orthorhombic'
loop_
_space_group_symop_operation_xyz
x,y,z
1/2-x,1/2-y,z
x,1/2-y,1/2-z
1/2-x,y,1/2-z
-x,-y,-z
1/2+x,1/2+y,-z
-x,1/2+y,1/2+z
1/2+x,-y,1/2+z
loop_
_atom_site_type_symbol
_atom_site_label
_atom_site_fract_x
_atom_site_fract_y
_atom_site_fract_z
Si Si1 0.150922 0.848856 0.192448
Si Si2 0.519939 0.031213 0.835863
Si Si3 0.281231 0.353496 0.115325
Si Si4 0.194960 0.843495 0.919664
Si Si5 0.335489 0.496648 0.537767
Si Si6 0.986827 0.649663 0.700622
O O1 0.137624 0.750000 0.250000
O O2 0.250000 0.888298 0.250000
O O3 0.061407 0.911551 0.229272
O O4 0.168430 0.840440 0.056455
O O5 0.410165 0.051531 0.874443
O O6 0.522529 0.925563 0.800544
O O7 0.592870 0.045736 0.944115
O O8 0.250000 0.250000 0.088066
O O9 0.250000 0.369415 0.250000
O O10 0.397886 0.365874 0.111826
O O11 0.228675 0.424827 0.032622
O O12 0.250000 0.750000 0.889483
O O13 0.094150 0.855082 0.852325
O O14 0.267855 0.927849 0.903714
O O15 0.970686 0.750000 0.750000
#
# Coordination Sequence:
#
# PCOD9391618 Si02
#       6
#     8   8   8   8   8   8
#     4  11  21  41  67  94 128 168 219 268 318 390
#     4  11  23  39  64  94 129 173 217 263 323 387
#     4  11  21  41  67  94 128 168 219 268 318 390
#     4  12  25  42  67  98 132 173 218 270 331 391
#     4  11  23  39  64  94 129 173 217 263 323 387
#     4  12  25  42  67  98 132 173 218 270 331 391
#
# _framework density 20.661633999999999
#
# number of rings (size 3 to 8) (size 9 to 14) (size 15 to 20)
#    0.000    0.667    6.667    2.000    0.000    9.000 
#    0.000    0.000    0.000    0.000    0.000    2.333 
#    0.000    0.000    0.000    0.000    0.000    0.000 
#
# Total GULP energy -268645.530950 kJ/mol
# GULP energy per Si atom -5596.781895 kJ/mol
# Density = 2.061461 g / cm^3
# Si number density = 20.661634 Si / 1000 Ang^3
#
#
#
# Elastic Constant Matrix: (Units=GPa)
#
#
# Indices 1 2 3 4 5 6 
#
# 1 178.1597 59.7570 33.1876 0.0000 0.0000 0.0000
# 2 59.7570 95.3357 16.0532 0.0000 0.0000 0.0000
# 3 33.1876 16.0532 44.0284 0.0000 0.0000 0.0000
# 4 0.0000 0.0000 0.0000 0.1488 0.0000 0.0000
# 5 0.0000 0.0000 0.0000 0.0000 49.3145 0.0000
# 6 0.0000 0.0000 0.0000 0.0000 0.0000 34.1849
#
#
#
# Elastic Compliance Matrix: (Units=1/GPa)
#
#
# Indices 1 2 3 4 5 6 
#
# 1 0.007827 -0.004168 -0.004380 0.000000 0.000000 0.000000
# 2 -0.004168 0.013395 -0.001742 0.000000 0.000000 0.000000
# 3 -0.004380 -0.001742 0.026649 0.000000 0.000000 0.000000
# 4 0.000000 0.000000 0.000000 6.721145 0.000000 0.000000
# 5 0.000000 0.000000 0.000000 0.000000 0.020278 0.000000
# 6 0.000000 0.000000 0.000000 0.000000 0.000000 0.029253
#
#
# Mechanical properties :
#
#
# Convention : Reuss Voigt Hill
#
# Bulk Modulus (GPa) = 36.64234 59.50215 48.07224
# Shear Modulus (GPa) = 0.73012 30.63137 15.68074
#
# Velocity S-wave (km/s) = 0.59509 3.85453 2.75786
# Velocity P-wave (km/s) = 4.27144 6.97645 5.78429
#
# Compressibility (1/GPa) = 0.02729084
#
# Stress axis : x y z
#
# Youngs Moduli (GPa) = 127.76282 74.65243 37.52446
#
# Poissons Ratio (x) = 0.31119 0.16436
# Poissons Ratio (y) = 0.53258 0.06537
# Poissons Ratio (z) = 0.55959 0.13004
#
# Static dielectric constant tensor:
#      x y z
#    x 1.753030 0.000000 0.000000 
#    y 0.000000 1.718300 0.000000 
#    z 0.000000 0.000000 1.736890 
# 
# From -- ./inp_files/26452.got.cif
#   From: 2010.05.17/outbox.cif.g08.bks.cpg/sg48_14_cif.got.tgz:26452.got - 2010.06.03 20:39:00.
