data_PCOD9391480
_publ_section_title
;
Structure prediction by ZEFSAII (Michael W. Deem and Ramdas Pophale) SiO2 
 PCOD9391480
Probable space group: P N N N
;
_chemical_formula_sum "Si O2"
_cell_formula_units_Z 64
_cell_length_a 7.438919
_cell_length_b 14.550287
_cell_length_c 23.317506
_cell_angle_alpha 90.000000
_cell_angle_beta 90.000000
_cell_angle_gamma 90.000000
_cell_volume 2523.849691
_symmetry_space_group_name_H-M "P N N N"
_symmetry_group_IT_number 48
_space_group.IT_coordinate_system_code '2'
_symmetry_cell_setting 'orthorhombic'
loop_
_space_group_symop_operation_xyz
x,y,z
1/2-x,1/2-y,z
x,1/2-y,1/2-z
1/2-x,y,1/2-z
-x,-y,-z
1/2+x,1/2+y,-z
-x,1/2+y,1/2+z
1/2+x,-y,1/2+z
loop_
_atom_site_type_symbol
_atom_site_label
_atom_site_fract_x
_atom_site_fract_y
_atom_site_fract_z
Si Si1 0.034262 0.547993 0.941312
Si Si2 0.571210 0.794452 0.882992
Si Si3 0.925436 0.116885 0.052886
Si Si4 0.023652 0.208805 0.815745
Si Si5 0.988918 0.407261 0.580370
Si Si6 0.600337 0.403829 0.638433
Si Si7 0.537613 0.851415 0.763968
Si Si8 0.539678 0.961653 0.254999
O O1 0.210022 0.609921 0.946392
O O2 0.881552 0.622900 0.926303
O O3 0.041625 0.461312 0.899136
O O4 0.000000 0.500000 0.000000
O O5 0.750000 0.750000 0.856914
O O6 0.478539 0.707560 0.912091
O O7 0.484800 0.852107 0.831206
O O8 0.996404 0.121386 0.986854
O O9 0.974225 0.016970 0.080071
O O10 0.072686 0.250000 0.750000
O O11 0.941190 0.113653 0.793335
O O12 0.102819 0.158020 0.874670
O O13 0.941931 0.299614 0.843037
O O14 0.781554 0.399872 0.601460
O O15 0.575879 0.460165 0.697336
O O16 0.475694 0.750000 0.750000
O O17 0.750000 0.859377 0.750000
O O18 0.453083 0.933067 0.727055
O O19 0.750000 0.931263 0.250000
#
# Coordination Sequence:
#
# PCOD9391480 Si02
#       8
#     8   8   8   8   8   8   8   8
#     4  12  26  48  76 108 153 206 258 320 397 475
#     4  12  26  48  77 112 151 202 260 324 397 479
#     4  11  28  47  75 115 155 206 257 336 400 478
#     4  10  26  45  75 107 149 203 261 322 397 471
#     4  11  25  47  75 109 152 199 268 324 391 483
#     4  11  24  46  73 102 152 201 257 319 391 467
#     4  11  25  46  75 107 146 200 259 322 397 471
#     4  11  27  47  70 111 153 202 259 334 400 480
#
# _framework density 25.358084999999999
#
# number of rings (size 3 to 8) (size 9 to 14) (size 15 to 20)
#    0.000    0.875    3.750    1.500    8.750    6.500 
#    2.250    0.000    0.000    0.000    0.000    0.000 
#    0.000    0.000    0.000    0.000    0.000    0.000 
#
# Total GULP energy -356368.492187 kJ/mol
# GULP energy per Si atom -5568.257690 kJ/mol
# Density = 2.530037 g / cm^3
# Si number density = 25.358085 Si / 1000 Ang^3
#
#
#
# Elastic Constant Matrix: (Units=GPa)
#
#
# Indices 1 2 3 4 5 6 
#
# 1 61.0435 26.2310 13.5717 0.0000 0.0000 0.0000
# 2 26.2310 218.3499 61.5381 0.0000 0.0000 0.0000
# 3 13.5717 61.5381 138.3292 0.0000 0.0000 0.0000
# 4 0.0000 0.0000 0.0000 49.4665 0.0000 0.0000
# 5 0.0000 0.0000 0.0000 0.0000 -6.8246 0.0000
# 6 0.0000 0.0000 0.0000 0.0000 0.0000 32.1599
#
#
#
# Elastic Compliance Matrix: (Units=1/GPa)
#
#
# Indices 1 2 3 4 5 6 
#
# 1 0.017368 -0.001836 -0.000887 0.000000 0.000000 0.000000
# 2 -0.001836 0.005431 -0.002236 0.000000 0.000000 0.000000
# 3 -0.000887 -0.002236 0.008311 0.000000 0.000000 0.000000
# 4 0.000000 0.000000 0.000000 0.020216 0.000000 0.000000
# 5 0.000000 0.000000 0.000000 0.000000 -0.146528 0.000000
# 6 0.000000 0.000000 0.000000 0.000000 0.000000 0.031095
#
#
# Mechanical properties :
#
#
# Convention : Reuss Voigt Hill
#
# Bulk Modulus (GPa) = 47.18983 68.93380 58.06182
# Shear Modulus (GPa) = -106.09869 36.05247 -35.02311
#
# Velocity S-wave (km/s) = -6.47542 3.77468 -3.72040
# Velocity P-wave (km/s) = 6.10395 6.80006 2.11926
#
# Compressibility (1/GPa) = 0.02119101
#
# Stress axis : x y z
#
# Youngs Moduli (GPa) = 57.57671 184.14456 120.32629
#
# Poissons Ratio (x) = 0.33818 0.10673
# Poissons Ratio (y) = 0.10574 0.26901
# Poissons Ratio (z) = 0.05107 0.41169
#
# Static dielectric constant tensor:
#      x y z
#    x -11.388100 0.000000 0.000000 
#    y 0.000000 2.118940 0.000000 
#    z 0.000000 0.000000 2.114330 
# 
# From -- ./inp_files/36005.got.cif
#   From: 2010.05.17/outbox.cif.g08.bks.cpg/sg48_19_cif.got.tgz:36005.got - 2010.06.03 20:39:00.
