data_PCOD9391034
_publ_section_title
;
Structure prediction by ZEFSAII (Michael W. Deem and Ramdas Pophale) SiO2 
 PCOD9391034
Probable space group: P N N N
;
_chemical_formula_sum "Si O2"
_cell_formula_units_Z 44
_cell_length_a 13.994511
_cell_length_b 18.431549
_cell_length_c 8.482094
_cell_angle_alpha 90.000000
_cell_angle_beta 90.000000
_cell_angle_gamma 90.000000
_cell_volume 2187.875697
_symmetry_space_group_name_H-M "P N N N"
_symmetry_group_IT_number 48
_space_group.IT_coordinate_system_code '2'
_symmetry_cell_setting 'orthorhombic'
loop_
_space_group_symop_operation_xyz
x,y,z
1/2-x,1/2-y,z
x,1/2-y,1/2-z
1/2-x,y,1/2-z
-x,-y,-z
1/2+x,1/2+y,-z
-x,1/2+y,1/2+z
1/2+x,-y,1/2+z
loop_
_atom_site_type_symbol
_atom_site_label
_atom_site_fract_x
_atom_site_fract_y
_atom_site_fract_z
Si Si1 0.750000 0.449694 0.250000
Si Si2 0.126571 0.065526 0.562606
Si Si3 0.087623 0.055769 0.206027
Si Si4 0.605959 0.422497 0.012745
Si Si5 0.202961 0.171899 0.034707
Si Si6 0.024139 0.330803 0.702585
O O1 0.671492 0.501841 0.331993
O O2 0.802770 0.404329 0.383767
O O3 0.089949 0.040021 0.391248
O O4 0.214062 0.120277 0.529259
O O5 0.049319 0.112442 0.659099
O O6 0.147813 0.129503 0.174961
O O7 0.130868 0.992947 0.093943
O O8 0.981738 0.062199 0.133548
O O9 0.561610 0.363619 0.898222
O O10 0.250000 0.250000 0.067194
O O11 0.120671 0.176289 0.901884
O O12 0.999631 0.250000 0.750000
#
# Coordination Sequence:
#
# PCOD9391034 Si02
#       6
#     4   8   8   8   8   8
#     4  12  22  38  63  88 123 166 220 266 316 366
#     4  12  21  34  62  94 127 168 201 252 320 391
#     4  10  22  39  57  91 133 165 211 258 316 382
#     4  10  23  42  58  86 125 166 215 270 307 375
#     4  11  20  35  56  93 140 174 199 244 320 405
#     4  11  22  39  60  90 133 170 206 257 326 391
#
# _framework density 20.110833
#
# number of rings (size 3 to 8) (size 9 to 14) (size 15 to 20)
#    0.000    1.091    5.455    2.727    0.000    4.364 
#    0.000    0.000    0.000    0.000    0.000   20.364 
#    0.000    0.000    0.000    0.000    0.000    0.000 
#
# Total GULP energy -245932.582486 kJ/mol
# GULP energy per Si atom -5589.376875 kJ/mol
# Density = 2.006506 g / cm^3
# Si number density = 20.110833 Si / 1000 Ang^3
#
#
#
# Elastic Constant Matrix: (Units=GPa)
#
#
# Indices 1 2 3 4 5 6 
#
# 1 66.7883 54.6222 52.6206 0.0000 0.0000 0.0000
# 2 54.6222 74.2821 47.7738 0.0000 0.0000 0.0000
# 3 52.6206 47.7738 135.2332 0.0000 0.0000 0.0000
# 4 0.0000 0.0000 0.0000 18.7902 0.0000 0.0000
# 5 0.0000 0.0000 0.0000 0.0000 41.5048 0.0000
# 6 0.0000 0.0000 0.0000 0.0000 0.0000 29.0197
#
#
#
# Elastic Compliance Matrix: (Units=1/GPa)
#
#
# Indices 1 2 3 4 5 6 
#
# 1 0.042202 -0.026490 -0.007063 0.000000 0.000000 0.000000
# 2 -0.026490 0.034048 -0.001720 0.000000 0.000000 0.000000
# 3 -0.007063 -0.001720 0.010751 0.000000 0.000000 0.000000
# 4 0.000000 0.000000 0.000000 0.053219 0.000000 0.000000
# 5 0.000000 0.000000 0.000000 0.000000 0.024094 0.000000
# 6 0.000000 0.000000 0.000000 0.000000 0.000000 0.034459
#
#
# Mechanical properties :
#
#
# Convention : Reuss Voigt Hill
#
# Bulk Modulus (GPa) = 60.77821 65.14854 62.96337
# Shear Modulus (GPa) = 18.19470 25.94872 22.07171
#
# Velocity S-wave (km/s) = 3.01112 3.59595 3.31645
# Velocity P-wave (km/s) = 6.50971 7.05026 6.78537
#
# Compressibility (1/GPa) = 0.01645327
#
# Stress axis : x y z
#
# Youngs Moduli (GPa) = 23.69540 29.37043 93.01656
#
# Poissons Ratio (x) = 0.77803 0.65699
# Poissons Ratio (y) = 0.62770 0.16003
# Poissons Ratio (z) = 0.16736 0.05053
#
# Static dielectric constant tensor:
#      x y z
#    x 1.709310 0.000000 0.000000 
#    y 0.000000 1.699560 0.000000 
#    z 0.000000 0.000000 1.762440 
# 
# From -- ./inp_files/12671.got.cif
#   From: 2010.05.17/outbox.cif.g08.bks.cpg/sg48_7_cif.got.tgz:12671.got - 2010.06.03 20:39:00.
