data_PCOD9391295
_publ_section_title
;
Structure prediction by ZEFSAII (Michael W. Deem and Ramdas Pophale) SiO2 
 PCOD9391295
Probable space group: P N N N
;
_chemical_formula_sum "Si O2"
_cell_formula_units_Z 48
_cell_length_a 28.992492
_cell_length_b 5.410766
_cell_length_c 13.967236
_cell_angle_alpha 90.000000
_cell_angle_beta 90.000000
_cell_angle_gamma 90.000000
_cell_volume 2191.062519
_symmetry_space_group_name_H-M "P N N N"
_symmetry_group_IT_number 48
_space_group.IT_coordinate_system_code '2'
_symmetry_cell_setting 'orthorhombic'
loop_
_space_group_symop_operation_xyz
x,y,z
1/2-x,1/2-y,z
x,1/2-y,1/2-z
1/2-x,y,1/2-z
-x,-y,-z
1/2+x,1/2+y,-z
-x,1/2+y,1/2+z
1/2+x,-y,1/2+z
loop_
_atom_site_type_symbol
_atom_site_label
_atom_site_fract_x
_atom_site_fract_y
_atom_site_fract_z
Si Si1 0.472398 0.239464 0.616640
Si Si2 0.750000 0.250000 0.085876
Si Si3 0.711064 0.931825 0.913676
Si Si4 0.832306 0.250000 0.750000
Si Si5 0.885966 0.750000 0.250000
Si Si6 0.325510 0.750000 0.750000
Si Si7 0.129191 0.162262 0.148555
Si Si8 0.974968 0.762012 0.612824
O O1 0.421473 0.229505 0.660791
O O2 0.498502 0.492040 0.644981
O O3 0.472244 0.251914 0.502131
O O4 0.499348 0.988926 0.643260
O O5 0.707549 0.301217 0.158182
O O6 0.769420 0.454046 0.011701
O O7 0.750000 0.750000 0.876707
O O8 0.663947 0.773091 0.928790
O O9 0.700399 0.124039 0.829474
O O10 0.867183 0.374845 0.671221
O O11 0.856019 0.499443 0.238890
O O12 0.150271 0.250000 0.250000
O O13 0.078067 0.259037 0.142761
#
# Coordination Sequence:
#
# PCOD9391295 Si02
#       8
#     8   4   8   4   4   4   8   8
#     4  10  24  42  69 100 141 184 239 291 367 424
#     4  11  28  49  74 104 140 197 238 319 374 434
#     4  11  25  43  70 100 141 191 240 296 375 442
#     4  10  24  44  60 111 140 187 240 291 362 459
#     4  12  26  48  78 109 142 195 239 313 370 438
#     4  11  30  50  78 108 150 182 264 312 371 438
#     4  10  24  38  65  98 140 189 232 294 349 436
#     4  10  23  43  65 103 142 186 235 294 349 445
#
# _framework density 21.90718
#
# number of rings (size 3 to 8) (size 9 to 14) (size 15 to 20)
#    0.000    1.500    0.000    2.000   11.667   10.000 
#    0.000    0.000    0.000    0.000    0.000    0.000 
#    0.000    0.000    0.000    0.000    0.000    0.000 
#
# Total GULP energy -267626.690035 kJ/mol
# GULP energy per Si atom -5575.556042 kJ/mol
# Density = 2.185732 g / cm^3
# Si number density = 21.907180 Si / 1000 Ang^3
#
#
#
# Elastic Constant Matrix: (Units=GPa)
#
#
# Indices 1 2 3 4 5 6 
#
# 1 154.2242 74.7650 35.9116 0.0000 0.0000 0.0000
# 2 74.7650 126.1313 35.6751 0.0000 0.0000 0.0000
# 3 35.9116 35.6751 125.5223 0.0000 0.0000 0.0000
# 4 0.0000 0.0000 0.0000 -22.1466 0.0000 0.0000
# 5 0.0000 0.0000 0.0000 0.0000 48.5439 0.0000
# 6 0.0000 0.0000 0.0000 0.0000 0.0000 27.9578
#
#
#
# Elastic Compliance Matrix: (Units=1/GPa)
#
#
# Indices 1 2 3 4 5 6 
#
# 1 0.009258 -0.005153 -0.001184 0.000000 0.000000 0.000000
# 2 -0.005153 0.011489 -0.001791 0.000000 0.000000 0.000000
# 3 -0.001184 -0.001791 0.008815 0.000000 0.000000 0.000000
# 4 0.000000 0.000000 0.000000 -0.045154 0.000000 0.000000
# 5 0.000000 0.000000 0.000000 0.000000 0.020600 0.000000
# 6 0.000000 0.000000 0.000000 0.000000 0.000000 0.035768
#
#
# Mechanical properties :
#
#
# Convention : Reuss Voigt Hill
#
# Bulk Modulus (GPa) = 75.15736 77.62014 76.38875
# Shear Modulus (GPa) = 81.34465 28.17277 54.75871
#
# Velocity S-wave (km/s) = 6.10017 3.58998 5.00500
# Velocity P-wave (km/s) = 9.16503 7.25894 8.26711
#
# Compressibility (1/GPa) = 0.01330542
#
# Stress axis : x y z
#
# Youngs Moduli (GPa) = 108.01831 87.03893 113.44833
#
# Poissons Ratio (x) = 0.44848 0.13434
# Poissons Ratio (y) = 0.55658 0.20321
# Poissons Ratio (z) = 0.12791 0.15590
#
# Static dielectric constant tensor:
#      x y z
#    x 1.768840 0.000000 0.000000 
#    y 0.000000 -0.272240 0.000000 
#    z 0.000000 0.000000 1.920100 
# 
# From -- ./inp_files/28810.got.cif
#   From: 2010.05.17/outbox.cif.g08.bks.cpg/sg48_15_cif.got.tgz:28810.got - 2010.06.03 20:39:00.
