data_PCOD9391526
_publ_section_title
;
Structure prediction by ZEFSAII (Michael W. Deem and Ramdas Pophale) SiO2 
 PCOD9391526
Probable space group: P N N N
;
_chemical_formula_sum "Si O2"
_cell_formula_units_Z 58
_cell_length_a 17.398537
_cell_length_b 16.598667
_cell_length_c 10.170184
_cell_angle_alpha 90.000000
_cell_angle_beta 90.000000
_cell_angle_gamma 90.000000
_cell_volume 2937.073086
_symmetry_space_group_name_H-M "P N N N"
_symmetry_group_IT_number 48
_space_group.IT_coordinate_system_code '2'
_symmetry_cell_setting 'orthorhombic'
loop_
_space_group_symop_operation_xyz
x,y,z
1/2-x,1/2-y,z
x,1/2-y,1/2-z
1/2-x,y,1/2-z
-x,-y,-z
1/2+x,1/2+y,-z
-x,1/2+y,1/2+z
1/2+x,-y,1/2+z
loop_
_atom_site_type_symbol
_atom_site_label
_atom_site_fract_x
_atom_site_fract_y
_atom_site_fract_z
Si Si1 0.652830 0.636008 0.949868
Si Si2 0.923140 0.943263 0.495949
Si Si3 0.141060 0.602194 0.745825
Si Si4 0.468963 0.153940 0.237430
Si Si5 0.740140 0.160732 0.468881
Si Si6 0.339857 0.089086 0.727057
Si Si7 0.764468 0.003035 0.600877
Si Si8 0.750000 0.750000 0.750000
O O1 0.578271 0.618747 0.861158
O O2 0.711838 0.562275 0.969958
O O3 0.697630 0.698908 0.853335
O O4 0.631367 0.644340 0.104378
O O5 0.929667 0.871494 0.601270
O O6 0.895315 0.906885 0.356148
O O7 0.851000 0.994832 0.550221
O O8 0.000000 0.000000 0.500000
O O9 0.165423 0.656337 0.622559
O O10 0.192286 0.632838 0.868009
O O11 0.158794 0.509275 0.711215
O O12 0.052355 0.614665 0.770180
O O13 0.474086 0.250000 0.250000
O O14 0.750000 0.250000 0.519128
O O15 0.736070 0.092739 0.577175
O O16 0.250000 0.111451 0.750000
O O17 0.750000 0.980950 0.750000
#
# Coordination Sequence:
#
# PCOD9391526 Si02
#       8
#     8   8   8   8   8   8   8   2
#     4  12  24  42  70  96 133 169 238 282 332 411
#     4  12  23  43  69  97 135 182 220 272 352 406
#     4  11  19  39  67  96 127 167 217 268 336 401
#     4  12  25  41  65  98 134 171 219 275 340 403
#     4  11  21  38  65  96 132 170 218 274 335 404
#     4  12  22  41  70 103 128 171 230 279 324 410
#     4  12  22  40  65  95 127 177 225 274 323 413
#     4  12  24  48  70  92 126 190 218 284 360 400
#
# _framework density 19.747551000000001
#
# number of rings (size 3 to 8) (size 9 to 14) (size 15 to 20)
#    0.000    0.276    9.655    1.655    0.000    0.828 
#    2.483    2.414    0.000    0.000    0.000    0.000 
#    0.000    0.000    0.000    0.000    0.000    0.000 
#
# Total GULP energy -323315.946032 kJ/mol
# GULP energy per Si atom -5574.412863 kJ/mol
# Density = 1.970260 g / cm^3
# Si number density = 19.747551 Si / 1000 Ang^3
#
#
#
# Elastic Constant Matrix: (Units=GPa)
#
#
# Indices 1 2 3 4 5 6 
#
# 1 81.1483 3.6495 34.1901 0.0000 0.0000 0.0000
# 2 3.6495 70.9278 21.8906 0.0000 0.0000 0.0000
# 3 34.1901 21.8906 135.1357 0.0000 0.0000 0.0000
# 4 0.0000 0.0000 0.0000 30.8891 0.0000 0.0000
# 5 0.0000 0.0000 0.0000 0.0000 12.0376 0.0000
# 6 0.0000 0.0000 0.0000 0.0000 0.0000 9.4955
#
#
#
# Elastic Compliance Matrix: (Units=1/GPa)
#
#
# Indices 1 2 3 4 5 6 
#
# 1 0.013804 0.000387 -0.003555 0.000000 0.000000 0.000000
# 2 0.000387 0.014852 -0.002504 0.000000 0.000000 0.000000
# 3 -0.003555 -0.002504 0.008705 0.000000 0.000000 0.000000
# 4 0.000000 0.000000 0.000000 0.032374 0.000000 0.000000
# 5 0.000000 0.000000 0.000000 0.000000 0.083073 0.000000
# 6 0.000000 0.000000 0.000000 0.000000 0.000000 0.105313
#
#
# Mechanical properties :
#
#
# Convention : Reuss Voigt Hill
#
# Bulk Modulus (GPa) = 38.43705 45.18582 41.81144
# Shear Modulus (GPa) = 17.97680 25.64987 21.81334
#
# Velocity S-wave (km/s) = 3.02044 3.60792 3.32717
# Velocity P-wave (km/s) = 5.62766 6.34725 5.99825
#
# Compressibility (1/GPa) = 0.02601657
#
# Stress axis : x y z
#
# Youngs Moduli (GPa) = 72.44510 67.33248 114.87655
#
# Poissons Ratio (x) = -0.02605 0.40839
# Poissons Ratio (y) = -0.02803 0.28762
# Poissons Ratio (z) = 0.25755 0.16858
#
# Static dielectric constant tensor:
#      x y z
#    x 1.713610 0.000000 0.000000 
#    y 0.000000 1.731100 0.000000 
#    z 0.000000 0.000000 1.969900 
# 
# From -- ./inp_files/14425.got.cif
#   From: 2010.05.17/outbox.cif.g08.bks.cpg/sg48_8_cif.got.tgz:14425.got - 2010.06.03 20:39:00.
