data_PCOD9391782
_publ_section_title
;
Structure prediction by ZEFSAII (Michael W. Deem and Ramdas Pophale) SiO2 
 PCOD9391782
Probable space group: P N N N
;
_chemical_formula_sum "Si O2"
_cell_formula_units_Z 34
_cell_length_a 8.742259
_cell_length_b 9.402932
_cell_length_c 19.993564
_cell_angle_alpha 90.000000
_cell_angle_beta 90.000000
_cell_angle_gamma 90.000000
_cell_volume 1643.528280
_symmetry_space_group_name_H-M "P N N N"
_symmetry_group_IT_number 48
_space_group.IT_coordinate_system_code '2'
_symmetry_cell_setting 'orthorhombic'
loop_
_space_group_symop_operation_xyz
x,y,z
1/2-x,1/2-y,z
x,1/2-y,1/2-z
1/2-x,y,1/2-z
-x,-y,-z
1/2+x,1/2+y,-z
-x,1/2+y,1/2+z
1/2+x,-y,1/2+z
loop_
_atom_site_type_symbol
_atom_site_label
_atom_site_fract_x
_atom_site_fract_y
_atom_site_fract_z
Si Si1 0.090053 0.566846 0.135873
Si Si2 0.600435 0.579835 0.910672
Si Si3 0.416036 0.707137 0.672615
Si Si4 0.250000 0.750000 0.250000
Si Si5 0.916123 0.805672 0.061565
O O1 0.233536 0.482707 0.104953
O O2 0.148491 0.652446 0.200941
O O3 0.959929 0.455258 0.157724
O O4 0.030363 0.678929 0.081136
O O5 0.548314 0.698301 0.859389
O O6 0.481307 0.448738 0.905053
O O7 0.591720 0.651487 0.983670
O O8 0.250000 0.750000 0.643563
O O9 0.412857 0.750000 0.750000
O O10 0.750000 0.750000 0.083156
#
# Coordination Sequence:
#
# PCOD9391782 Si02
#       5
#     8   8   8   2   8
#     4  12  24  45  70  97 136 180 232 280 336 422
#     4  11  24  44  68 100 136 178 232 276 348 406
#     4  11  25  43  67 100 136 179 226 288 346 403
#     4  12  24  44  72 100 132 184 238 272 344 408
#     4  11  24  42  68 100 135 176 224 284 341 401
#
# _framework density 20.687201000000002
#
# number of rings (size 3 to 8) (size 9 to 14) (size 15 to 20)
#    0.000    0.706    2.353    4.941    0.000    8.471 
#    0.000    0.000    0.000    0.000    0.000    0.000 
#    0.000    0.000    0.000    0.000    0.000    0.000 
#
# Total GULP energy -190153.532007 kJ/mol
# GULP energy per Si atom -5592.750941 kJ/mol
# Density = 2.064012 g / cm^3
# Si number density = 20.687201 Si / 1000 Ang^3
#
#
#
# Elastic Constant Matrix: (Units=GPa)
#
#
# Indices 1 2 3 4 5 6 
#
# 1 120.7796 69.0835 30.5641 0.0000 0.0000 0.0000
# 2 69.0835 157.6991 47.7004 0.0000 0.0000 0.0000
# 3 30.5641 47.7004 66.7157 0.0000 0.0000 0.0000
# 4 0.0000 0.0000 0.0000 38.6730 0.0000 0.0000
# 5 0.0000 0.0000 0.0000 0.0000 -140.6680 0.0000
# 6 0.0000 0.0000 0.0000 0.0000 0.0000 53.0708
#
#
#
# Elastic Compliance Matrix: (Units=1/GPa)
#
#
# Indices 1 2 3 4 5 6 
#
# 1 0.011270 -0.004307 -0.002084 0.000000 0.000000 0.000000
# 2 -0.004307 0.009737 -0.004989 0.000000 0.000000 0.000000
# 3 -0.002084 -0.004989 0.019510 0.000000 0.000000 0.000000
# 4 0.000000 0.000000 0.000000 0.025858 0.000000 0.000000
# 5 0.000000 0.000000 0.000000 0.000000 -0.007109 0.000000
# 6 0.000000 0.000000 0.000000 0.000000 0.000000 0.018843
#
#
# Mechanical properties :
#
#
# Convention : Reuss Voigt Hill
#
# Bulk Modulus (GPa) = 56.30977 71.09892 63.70435
# Shear Modulus (GPa) = 46.82198 3.40494 25.11346
#
# Velocity S-wave (km/s) = 4.76261 1.28432 3.48797
# Velocity P-wave (km/s) = 7.58432 6.05330 6.86165
#
# Compressibility (1/GPa) = 0.01775891
#
# Stress axis : x y z
#
# Youngs Moduli (GPa) = 88.72854 102.70271 51.25478
#
# Poissons Ratio (x) = 0.44233 0.10681
# Poissons Ratio (y) = 0.38214 0.25569
# Poissons Ratio (z) = 0.18490 0.51234
#
# Static dielectric constant tensor:
#      x y z
#    x 1.763320 0.000000 0.000000 
#    y 0.000000 1.732700 0.000000 
#    z 0.000000 0.000000 1.666550 
# 
# From -- ./inp_files/8730.got.cif
#   From: 2010.05.17/outbox.cif.g08.bks.cpg/sg48_5_cif.got.tgz:8730.got - 2010.06.03 20:39:00.
