data_PCOD9391460
_publ_section_title
;
Structure prediction by ZEFSAII (Michael W. Deem and Ramdas Pophale) SiO2 
 PCOD9391460
Probable space group: P N N N
;
_chemical_formula_sum "Si O2"
_cell_formula_units_Z 32
_cell_length_a 6.556449
_cell_length_b 13.565432
_cell_length_c 16.990837
_cell_angle_alpha 90.000000
_cell_angle_beta 90.000000
_cell_angle_gamma 90.000000
_cell_volume 1511.183105
_symmetry_space_group_name_H-M "P N N N"
_symmetry_group_IT_number 48
_space_group.IT_coordinate_system_code '2'
_symmetry_cell_setting 'orthorhombic'
loop_
_space_group_symop_operation_xyz
x,y,z
1/2-x,1/2-y,z
x,1/2-y,1/2-z
1/2-x,y,1/2-z
-x,-y,-z
1/2+x,1/2+y,-z
-x,1/2+y,1/2+z
1/2+x,-y,1/2+z
loop_
_atom_site_type_symbol
_atom_site_label
_atom_site_fract_x
_atom_site_fract_y
_atom_site_fract_z
Si Si1 0.750000 0.750000 0.976089
Si Si2 0.750000 0.250000 0.250000
Si Si3 0.593576 0.394658 0.979999
Si Si4 0.143017 0.565805 0.172692
Si Si5 0.566480 0.380042 0.385621
Si Si6 0.750000 0.250000 0.750000
O O1 0.575952 0.690691 0.022410
O O2 0.635252 0.831918 0.923388
O O3 0.621562 0.319009 0.308095
O O4 0.755884 0.371487 0.049287
O O5 0.500000 0.500000 0.000000
O O6 0.702256 0.411175 0.897403
O O7 0.250000 0.517131 0.250000
O O8 0.100883 0.675605 0.203765
O O9 0.974029 0.493199 0.138466
#
# Coordination Sequence:
#
# PCOD9391460 Si02
#       6
#     4   2   8   8   8   2
#     4  12  26  45  74 107 148 192 244 306 365 455
#     4  12  28  44  76 114 152 188 248 310 390 442
#     4  12  26  47  73 109 143 204 241 304 380 439
#     4  10  25  46  74 102 150 192 250 305 362 441
#     4  12  27  45  74 109 149 191 246 307 373 447
#     4   8  24  38  72 100 136 202 230 304 358 428
#
# _framework density 21.175463000000001
#
# number of rings (size 3 to 8) (size 9 to 14) (size 15 to 20)
#    0.750    0.000    5.000    0.750   10.500    0.000 
#    0.000    0.000    0.000    2.250    0.000    0.000 
#    0.000    0.000    0.000    0.000    0.000    0.000 
#
# Total GULP energy -178657.993564 kJ/mol
# GULP energy per Si atom -5583.062299 kJ/mol
# Density = 2.112727 g / cm^3
# Si number density = 21.175463 Si / 1000 Ang^3
#
#
#
# Elastic Constant Matrix: (Units=GPa)
#
#
# Indices 1 2 3 4 5 6 
#
# 1 87.8175 49.3044 55.5737 0.0000 0.0000 0.0000
# 2 49.3044 150.5783 39.8784 0.0000 0.0000 0.0000
# 3 55.5737 39.8784 143.6782 0.0000 0.0000 0.0000
# 4 0.0000 0.0000 0.0000 21.5712 0.0000 0.0000
# 5 0.0000 0.0000 0.0000 0.0000 -3.9459 0.0000
# 6 0.0000 0.0000 0.0000 0.0000 0.0000 62.4786
#
#
#
# Elastic Compliance Matrix: (Units=1/GPa)
#
#
# Indices 1 2 3 4 5 6 
#
# 1 0.017213 -0.004180 -0.005498 0.000000 0.000000 0.000000
# 2 -0.004180 0.008183 -0.000654 0.000000 0.000000 0.000000
# 3 -0.005498 -0.000654 0.009268 0.000000 0.000000 0.000000
# 4 0.000000 0.000000 0.000000 0.046358 0.000000 0.000000
# 5 0.000000 0.000000 0.000000 0.000000 -0.253431 0.000000
# 6 0.000000 0.000000 0.000000 0.000000 0.000000 0.016005
#
#
# Mechanical properties :
#
#
# Convention : Reuss Voigt Hill
#
# Bulk Modulus (GPa) = 71.42930 74.62078 73.02504
# Shear Modulus (GPa) = -38.14723 31.84197 -3.15263
#
# Velocity S-wave (km/s) = -4.24899 3.88199 -1.22149
# Velocity P-wave (km/s) = 3.11984 7.44372 5.70711
#
# Compressibility (1/GPa) = 0.01399986
#
# Stress axis : x y z
#
# Youngs Moduli (GPa) = 58.09439 122.20290 107.89685
#
# Poissons Ratio (x) = 0.51084 0.59319
# Poissons Ratio (y) = 0.24285 0.07060
# Poissons Ratio (z) = 0.31939 0.07997
#
# Static dielectric constant tensor:
#      x y z
#    x 1.765010 0.000000 0.000000 
#    y 0.000000 1.776240 0.000000 
#    z 0.000000 0.000000 1.560250 
# 
# From -- ./inp_files/3028.got.cif
#   From: 2010.05.17/outbox.cif.g08.bks.cpg/sg48_2_cif.got.tgz:3028.got - 2010.06.03 20:39:00.
