data_PCOD9391727
_publ_section_title
;
Structure prediction by ZEFSAII (Michael W. Deem and Ramdas Pophale) SiO2 
 PCOD9391727
Probable space group: P N N N
;
_chemical_formula_sum "Si O2"
_cell_formula_units_Z 40
_cell_length_a 8.882971
_cell_length_b 13.474167
_cell_length_c 15.124933
_cell_angle_alpha 90.000000
_cell_angle_beta 90.000000
_cell_angle_gamma 90.000000
_cell_volume 1810.312831
_symmetry_space_group_name_H-M "P N N N"
_symmetry_group_IT_number 48
_space_group.IT_coordinate_system_code '2'
_symmetry_cell_setting 'orthorhombic'
loop_
_space_group_symop_operation_xyz
x,y,z
1/2-x,1/2-y,z
x,1/2-y,1/2-z
1/2-x,y,1/2-z
-x,-y,-z
1/2+x,1/2+y,-z
-x,1/2+y,1/2+z
1/2+x,-y,1/2+z
loop_
_atom_site_type_symbol
_atom_site_label
_atom_site_fract_x
_atom_site_fract_y
_atom_site_fract_z
Si Si1 0.822919 0.145374 0.536788
Si Si2 0.928640 0.636818 0.743920
Si Si3 0.872947 0.537106 0.567310
Si Si4 0.322090 0.560679 0.656464
Si Si5 0.818841 0.853263 0.428886
O O1 0.750000 0.250000 0.560109
O O2 0.793392 0.121965 0.432680
O O3 0.001992 0.148464 0.553803
O O4 0.735560 0.056366 0.586335
O O5 0.984102 0.750000 0.750000
O O6 0.750000 0.638970 0.750000
O O7 0.956483 0.583545 0.650906
O O8 0.001932 0.575061 0.822391
O O9 0.770783 0.619532 0.518846
O O10 0.000000 0.500000 0.500000
O O11 0.250000 0.592605 0.750000
O O12 0.287177 0.446596 0.634821
O O13 0.750000 0.750000 0.395985
#
# Coordination Sequence:
#
# PCOD9391727 Si02
#       5
#     8   8   8   8   8
#     4  11  24  42  68  96 132 175 229 272 327 407
#     4  11  24  38  66 100 140 172 216 286 350 398
#     4  11  23  42  65 100 137 178 224 274 342 410
#     4  11  25  42  63  96 134 169 215 284 335 396
#     4  11  24  43  68  91 130 179 230 267 328 408
#
# _framework density 22.09563
#
# number of rings (size 3 to 8) (size 9 to 14) (size 15 to 20)
#    0.000    1.000    0.000    8.400   11.200    0.400 
#    0.000    0.000    0.000    4.200    0.000    0.000 
#    0.000    0.000    0.000    0.000    0.000    0.000 
#
# Total GULP energy -223750.304971 kJ/mol
# GULP energy per Si atom -5593.757624 kJ/mol
# Density = 2.204534 g / cm^3
# Si number density = 22.095630 Si / 1000 Ang^3
#
#
#
# Elastic Constant Matrix: (Units=GPa)
#
#
# Indices 1 2 3 4 5 6 
#
# 1 96.3728 25.7277 -1.6337 0.0000 0.0000 0.0000
# 2 25.7277 124.0737 17.8121 0.0000 0.0000 0.0000
# 3 -1.6337 17.8121 64.5605 0.0000 0.0000 0.0000
# 4 0.0000 0.0000 0.0000 11.3905 0.0000 0.0000
# 5 0.0000 0.0000 0.0000 0.0000 42.7609 0.0000
# 6 0.0000 0.0000 0.0000 0.0000 0.0000 40.3693
#
#
#
# Elastic Compliance Matrix: (Units=1/GPa)
#
#
# Indices 1 2 3 4 5 6 
#
# 1 0.011040 -0.002425 0.000949 0.000000 0.000000 0.000000
# 2 -0.002425 0.008925 -0.002524 0.000000 0.000000 0.000000
# 3 0.000949 -0.002524 0.016210 0.000000 0.000000 0.000000
# 4 0.000000 0.000000 0.000000 0.087792 0.000000 0.000000
# 5 0.000000 0.000000 0.000000 0.000000 0.023386 0.000000
# 6 0.000000 0.000000 0.000000 0.000000 0.000000 0.024771
#
#
# Mechanical properties :
#
#
# Convention : Reuss Voigt Hill
#
# Bulk Modulus (GPa) = 35.49459 40.97991 38.23725
# Shear Modulus (GPa) = 26.38298 35.11088 30.74693
#
# Velocity S-wave (km/s) = 3.45923 3.99060 3.73438
# Velocity P-wave (km/s) = 5.66162 6.31032 5.99475
#
# Compressibility (1/GPa) = 0.02817331
#
# Stress axis : x y z
#
# Youngs Moduli (GPa) = 90.58025 112.04529 61.69167
#
# Poissons Ratio (x) = 0.27175 -0.05852
# Poissons Ratio (y) = 0.21969 0.15569
# Poissons Ratio (z) = -0.08592 0.28277
#
# Static dielectric constant tensor:
#      x y z
#    x 1.923210 0.000000 0.000000 
#    y 0.000000 1.798480 0.000000 
#    z 0.000000 0.000000 1.868930 
# 
# From -- ./inp_files/25095.got.cif
#   From: 2010.05.17/outbox.cif.g08.bks.cpg/sg48_13_cif.got.tgz:25095.got - 2010.06.03 20:39:00.
