data_PCOD9391318
_publ_section_title
;
Structure prediction by ZEFSAII (Michael W. Deem and Ramdas Pophale) SiO2 
 PCOD9391318
Probable space group: P N N N
;
_chemical_formula_sum "Si O2"
_cell_formula_units_Z 64
_cell_length_a 9.714290
_cell_length_b 10.988979
_cell_length_c 30.961442
_cell_angle_alpha 90.000000
_cell_angle_beta 90.000000
_cell_angle_gamma 90.000000
_cell_volume 3305.137922
_symmetry_space_group_name_H-M "P N N N"
_symmetry_group_IT_number 48
_space_group.IT_coordinate_system_code '2'
_symmetry_cell_setting 'orthorhombic'
loop_
_space_group_symop_operation_xyz
x,y,z
1/2-x,1/2-y,z
x,1/2-y,1/2-z
1/2-x,y,1/2-z
-x,-y,-z
1/2+x,1/2+y,-z
-x,1/2+y,1/2+z
1/2+x,-y,1/2+z
loop_
_atom_site_type_symbol
_atom_site_label
_atom_site_fract_x
_atom_site_fract_y
_atom_site_fract_z
Si Si1 0.665228 0.373252 0.521532
Si Si2 0.531461 0.498789 0.678031
Si Si3 0.343569 0.133846 0.981990
Si Si4 0.904946 0.891555 0.240732
Si Si5 0.243871 0.608167 0.379344
Si Si6 0.534252 0.503743 0.150134
Si Si7 0.298862 0.116568 0.880561
Si Si8 0.915973 0.245100 0.198133
O O1 0.750000 0.250000 0.510636
O O2 0.506046 0.351232 0.508110
O O3 0.705449 0.503058 0.500303
O O4 0.687305 0.393747 0.573141
O O5 0.511319 0.454052 0.726870
O O6 0.675094 0.470405 0.655964
O O7 0.421981 0.423976 0.649699
O O8 0.486616 0.637847 0.677489
O O9 0.250000 0.250000 0.995433
O O10 0.339067 0.126895 0.930187
O O11 0.899732 0.750000 0.250000
O O12 0.750000 0.943591 0.250000
O O13 0.948317 0.910680 0.191915
O O14 0.250000 0.750000 0.366058
O O15 0.090638 0.553213 0.378615
O O16 0.675307 0.521082 0.124200
O O17 0.527813 0.372094 0.172610
O O18 0.250000 0.250000 0.866282
O O19 0.750000 0.250000 0.193279
O O20 0.942931 0.250000 0.250000
#
# Coordination Sequence:
#
# PCOD9391318 Si02
#       8
#     8   8   8   8   8   8   8   8
#     4  10  23  46  68  98 139 171 206 267 334 390
#     4  12  22  40  63  89 128 167 214 263 320 373
#     4  10  23  44  71 100 131 172 217 264 321 394
#     4  11  20  33  59  90 120 160 215 272 311 364
#     4  11  25  44  65  94 130 169 206 268 330 380
#     4  12  24  40  61  95 125 168 220 258 325 379
#     4  11  21  38  65  96 122 161 218 274 310 372
#     4  11  22  42  63  86 127 171 216 266 313 373
#
# _framework density 19.363790999999999
#
# number of rings (size 3 to 8) (size 9 to 14) (size 15 to 20)
#    0.000    1.000    5.000    2.250    5.250    1.500 
#    4.500    1.875    0.000    0.000    0.000    0.000 
#    0.000    0.000    0.000    0.000    0.000    0.000 
#
# Total GULP energy -357375.394279 kJ/mol
# GULP energy per Si atom -5583.990536 kJ/mol
# Density = 1.931972 g / cm^3
# Si number density = 19.363791 Si / 1000 Ang^3
#
#
#
# Elastic Constant Matrix: (Units=GPa)
#
#
# Indices 1 2 3 4 5 6 
#
# 1 38.1869 3.7158 0.4370 0.0000 0.0000 0.0000
# 2 3.7158 134.3798 25.0178 0.0000 0.0000 0.0000
# 3 0.4370 25.0178 24.2359 0.0000 0.0000 0.0000
# 4 0.0000 0.0000 0.0000 28.8787 0.0000 0.0000
# 5 0.0000 0.0000 0.0000 0.0000 26.0597 0.0000
# 6 0.0000 0.0000 0.0000 0.0000 0.0000 28.5284
#
#
#
# Elastic Compliance Matrix: (Units=1/GPa)
#
#
# Indices 1 2 3 4 5 6 
#
# 1 0.026260 -0.000790 0.000342 0.000000 0.000000 0.000000
# 2 -0.000790 0.009236 -0.009519 0.000000 0.000000 0.000000
# 3 0.000342 -0.009519 0.051081 0.000000 0.000000 0.000000
# 4 0.000000 0.000000 0.000000 0.034628 0.000000 0.000000
# 5 0.000000 0.000000 0.000000 0.000000 0.038373 0.000000
# 6 0.000000 0.000000 0.000000 0.000000 0.000000 0.035053
#
#
# Mechanical properties :
#
#
# Convention : Reuss Voigt Hill
#
# Bulk Modulus (GPa) = 15.00553 28.34931 21.67742
# Shear Modulus (GPa) = 21.11669 27.86884 24.49276
#
# Velocity S-wave (km/s) = 3.30589 3.79783 3.56037
# Velocity P-wave (km/s) = 4.72631 5.82267 5.30290
#
# Compressibility (1/GPa) = 0.06664209
#
# Stress axis : x y z
#
# Youngs Moduli (GPa) = 38.08084 108.27577 19.57662
#
# Poissons Ratio (x) = 0.08551 -0.00669
# Poissons Ratio (y) = 0.03007 0.18636
# Poissons Ratio (z) = -0.01301 1.03072
#
# Static dielectric constant tensor:
#      x y z
#    x 1.701480 0.000000 0.000000 
#    y 0.000000 1.719130 0.000000 
#    z 0.000000 0.000000 1.650440 
# 
# From -- ./inp_files/38812.got.cif
#   From: 2010.05.17/outbox.cif.g08.bks.cpg/sg48_20_cif.got.tgz:38812.got - 2010.06.03 20:39:00.
