data_PCOD9391556
_publ_section_title
;
Structure prediction by ZEFSAII (Michael W. Deem and Ramdas Pophale) SiO2 
 PCOD9391556
Probable space group: P N N N
;
_chemical_formula_sum "Si O2"
_cell_formula_units_Z 56
_cell_length_a 14.411817
_cell_length_b 8.505342
_cell_length_c 27.880399
_cell_angle_alpha 90.000000
_cell_angle_beta 90.000000
_cell_angle_gamma 90.000000
_cell_volume 3417.507724
_symmetry_space_group_name_H-M "P N N N"
_symmetry_group_IT_number 48
_space_group.IT_coordinate_system_code '2'
_symmetry_cell_setting 'orthorhombic'
loop_
_space_group_symop_operation_xyz
x,y,z
1/2-x,1/2-y,z
x,1/2-y,1/2-z
1/2-x,y,1/2-z
-x,-y,-z
1/2+x,1/2+y,-z
-x,1/2+y,1/2+z
1/2+x,-y,1/2+z
loop_
_atom_site_type_symbol
_atom_site_label
_atom_site_fract_x
_atom_site_fract_y
_atom_site_fract_z
Si Si1 0.750000 0.250000 0.036287
Si Si2 0.947809 0.334780 0.992130
Si Si3 0.902009 0.863816 0.952029
Si Si4 0.007222 0.655614 0.400679
Si Si5 0.589720 0.252357 0.697269
Si Si6 0.750000 0.750000 0.614027
Si Si7 0.188816 0.089622 0.945789
Si Si8 0.757014 0.000246 0.696679
O O1 0.840902 0.306209 0.006304
O O2 0.727811 0.413910 0.064309
O O3 0.007188 0.213445 0.024588
O O4 0.961282 0.292745 0.936685
O O5 0.000000 0.500000 0.000000
O O6 0.839235 0.747283 0.920580
O O7 0.932395 0.006680 0.918211
O O8 0.842336 0.917718 0.998138
O O9 0.025116 0.705339 0.346512
O O10 0.901469 0.616908 0.413415
O O11 0.545172 0.250000 0.750000
O O12 0.674959 0.128574 0.697830
O O13 0.643107 0.416989 0.691086
O O14 0.757123 0.605926 0.650524
O O15 0.250000 0.250000 0.941250
O O16 0.750000 0.926216 0.750000
#
# Coordination Sequence:
#
# PCOD9391556 Si02
#       8
#     4   8   8   8   8   4   8   8
#     4  12  20  36  58  74 115 159 186 234 282 328
#     4  11  24  35  54  82 111 148 192 230 273 350
#     4  11  21  37  48  78 115 147 181 223 270 335
#     4  11  20  38  54  72 115 141 177 238 277 320
#     4   9  19  35  55  76 102 142 185 221 273 332
#     4  12  21  30  56  78 114 148 177 220 282 322
#     4  11  22  38  54  79 112 149 188 230 283 336
#     4   9  19  34  50  77 110 140 182 223 262 327
#
# _framework density 16.386209999999998
#
# number of rings (size 3 to 8) (size 9 to 14) (size 15 to 20)
#    0.000    1.429    5.000    3.643    2.000    1.143 
#    0.000    0.000    0.000    0.429    0.000    0.000 
#    0.000    1.429    0.000    0.000    0.000    0.000 
#
# Total GULP energy -311969.237726 kJ/mol
# GULP energy per Si atom -5570.879245 kJ/mol
# Density = 1.634891 g / cm^3
# Si number density = 16.386210 Si / 1000 Ang^3
#
#
#
# Elastic Constant Matrix: (Units=GPa)
#
#
# Indices 1 2 3 4 5 6 
#
# 1 83.3888 27.4493 40.0389 0.0000 0.0000 0.0000
# 2 27.4493 75.0645 24.2444 0.0000 0.0000 0.0000
# 3 40.0389 24.2444 125.2714 0.0000 0.0000 0.0000
# 4 0.0000 0.0000 0.0000 16.9712 0.0000 0.0000
# 5 0.0000 0.0000 0.0000 0.0000 22.2563 0.0000
# 6 0.0000 0.0000 0.0000 0.0000 0.0000 19.6404
#
#
#
# Elastic Compliance Matrix: (Units=1/GPa)
#
#
# Indices 1 2 3 4 5 6 
#
# 1 0.015367 -0.004302 -0.004079 0.000000 0.000000 0.000000
# 2 -0.004302 0.015414 -0.001608 0.000000 0.000000 0.000000
# 3 -0.004079 -0.001608 0.009598 0.000000 0.000000 0.000000
# 4 0.000000 0.000000 0.000000 0.058923 0.000000 0.000000
# 5 0.000000 0.000000 0.000000 0.000000 0.044931 0.000000
# 6 0.000000 0.000000 0.000000 0.000000 0.000000 0.050915
#
#
# Mechanical properties :
#
#
# Convention : Reuss Voigt Hill
#
# Bulk Modulus (GPa) = 49.01810 51.90997 50.46403
# Shear Modulus (GPa) = 22.53000 24.57306 23.55153
#
# Velocity S-wave (km/s) = 3.71204 3.87669 3.79526
# Velocity P-wave (km/s) = 6.95352 7.19626 7.07593
#
# Compressibility (1/GPa) = 0.02040063
#
# Stress axis : x y z
#
# Youngs Moduli (GPa) = 65.07663 64.87446 104.19269
#
# Poissons Ratio (x) = 0.27908 0.42499
# Poissons Ratio (y) = 0.27995 0.16757
# Poissons Ratio (z) = 0.26544 0.10434
#
# Static dielectric constant tensor:
#      x y z
#    x 1.563610 0.000000 0.000000 
#    y 0.000000 1.627000 0.000000 
#    z 0.000000 0.000000 1.529180 
# 
# From -- ./inp_files/39121.got.cif
#   From: 2010.05.17/outbox.cif.g08.bks.cpg/sg48_20_cif.got.tgz:39121.got - 2010.06.03 20:39:00.
