data_PCOD9391031
_publ_section_title
;
Structure prediction by ZEFSAII (Michael W. Deem and Ramdas Pophale) SiO2 
 PCOD9391031
Probable space group: P N N N
;
_chemical_formula_sum "Si O2"
_cell_formula_units_Z 34
_cell_length_a 6.254849
_cell_length_b 12.870253
_cell_length_c 19.280060
_cell_angle_alpha 90.000000
_cell_angle_beta 90.000000
_cell_angle_gamma 90.000000
_cell_volume 1552.073540
_symmetry_space_group_name_H-M "P N N N"
_symmetry_group_IT_number 48
_space_group.IT_coordinate_system_code '2'
_symmetry_cell_setting 'orthorhombic'
loop_
_space_group_symop_operation_xyz
x,y,z
1/2-x,1/2-y,z
x,1/2-y,1/2-z
1/2-x,y,1/2-z
-x,-y,-z
1/2+x,1/2+y,-z
-x,1/2+y,1/2+z
1/2+x,-y,1/2+z
loop_
_atom_site_type_symbol
_atom_site_label
_atom_site_fract_x
_atom_site_fract_y
_atom_site_fract_z
Si Si1 0.250000 0.750000 0.129618
Si Si2 0.056169 0.321133 0.517194
Si Si3 0.750000 0.750000 0.750000
Si Si4 0.250000 0.583746 0.250000
Si Si5 0.296878 0.531053 0.548527
Si Si6 0.059737 0.913897 0.701805
O O1 0.453738 0.746302 0.079205
O O2 0.259499 0.652630 0.181064
O O3 0.250000 0.250000 0.485720
O O4 0.156755 0.426752 0.547269
O O5 0.854163 0.370814 0.474524
O O6 0.612921 0.676425 0.701071
O O7 0.454773 0.510970 0.258286
O O8 0.500000 0.500000 0.500000
O O9 0.375526 0.554933 0.625305
O O10 0.250000 0.876518 0.750000
#
# Coordination Sequence:
#
# PCOD9391031 Si02
#       6
#     4   8   2   4   8   8
#     4  11  22  42  66 108 135 178 226 290 363 426
#     4  11  23  42  67 103 140 183 235 293 357 430
#     4  10  26  46  68  96 132 182 236 286 340 420
#     4  10  22  38  74 100 136 174 226 288 354 432
#     4  11  25  46  70 100 143 191 236 297 363 424
#     4  11  23  47  68  97 137 182 233 289 351 423
#
# _framework density 21.906178000000001
#
# number of rings (size 3 to 8) (size 9 to 14) (size 15 to 20)
#    0.000    1.176    0.000    6.000    0.000    5.647 
#   21.176    2.353    0.000    0.000    0.000    0.000 
#    0.000    0.000    0.000    0.000    0.000    0.000 
#
# Total GULP energy -189990.966660 kJ/mol
# GULP energy per Si atom -5587.969608 kJ/mol
# Density = 2.185632 g / cm^3
# Si number density = 21.906178 Si / 1000 Ang^3
#
#
#
# Elastic Constant Matrix: (Units=GPa)
#
#
# Indices 1 2 3 4 5 6 
#
# 1 125.3175 55.2477 64.6432 0.0000 0.0000 0.0000
# 2 55.2477 129.2686 44.9485 0.0000 0.0000 0.0000
# 3 64.6432 44.9485 116.5113 0.0000 0.0000 0.0000
# 4 0.0000 0.0000 0.0000 2.1507 0.0000 0.0000
# 5 0.0000 0.0000 0.0000 0.0000 28.3637 0.0000
# 6 0.0000 0.0000 0.0000 0.0000 0.0000 4.3919
#
#
#
# Elastic Compliance Matrix: (Units=1/GPa)
#
#
# Indices 1 2 3 4 5 6 
#
# 1 0.012309 -0.003333 -0.005543 0.000000 0.000000 0.000000
# 2 -0.003333 0.009837 -0.001946 0.000000 0.000000 0.000000
# 3 -0.005543 -0.001946 0.012409 0.000000 0.000000 0.000000
# 4 0.000000 0.000000 0.000000 0.464957 0.000000 0.000000
# 5 0.000000 0.000000 0.000000 0.000000 0.035256 0.000000
# 6 0.000000 0.000000 0.000000 0.000000 0.000000 0.227690
#
#
# Mechanical properties :
#
#
# Convention : Reuss Voigt Hill
#
# Bulk Modulus (GPa) = 77.45638 77.86404 77.66021
# Shear Modulus (GPa) = 6.34192 20.73182 13.53687
#
# Velocity S-wave (km/s) = 1.70333 3.07968 2.48855
# Velocity P-wave (km/s) = 6.26924 6.94748 6.61706
#
# Compressibility (1/GPa) = 0.01291049
#
# Stress axis : x y z
#
# Youngs Moduli (GPa) = 81.24445 101.65836 80.58681
#
# Poissons Ratio (x) = 0.33883 0.44671
# Poissons Ratio (y) = 0.27079 0.15680
# Poissons Ratio (z) = 0.45036 0.19779
#
# Static dielectric constant tensor:
#      x y z
#    x 1.817350 0.000000 0.000000 
#    y 0.000000 1.812060 0.000000 
#    z 0.000000 0.000000 1.742810 
# 
# From -- ./inp_files/29229.got.cif
#   From: 2010.05.17/outbox.cif.g08.bks.cpg/sg48_15_cif.got.tgz:29229.got - 2010.06.03 20:39:00.
