data_PCOD9391479
_publ_section_title
;
Structure prediction by ZEFSAII (Michael W. Deem and Ramdas Pophale) SiO2 
 PCOD9391479
Probable space group: P N N N
;
_chemical_formula_sum "Si O2"
_cell_formula_units_Z 38
_cell_length_a 9.547396
_cell_length_b 7.368626
_cell_length_c 24.166318
_cell_angle_alpha 90.000000
_cell_angle_beta 90.000000
_cell_angle_gamma 90.000000
_cell_volume 1700.129239
_symmetry_space_group_name_H-M "P N N N"
_symmetry_group_IT_number 48
_space_group.IT_coordinate_system_code '2'
_symmetry_cell_setting 'orthorhombic'
loop_
_space_group_symop_operation_xyz
x,y,z
1/2-x,1/2-y,z
x,1/2-y,1/2-z
1/2-x,y,1/2-z
-x,-y,-z
1/2+x,1/2+y,-z
-x,1/2+y,1/2+z
1/2+x,-y,1/2+z
loop_
_atom_site_type_symbol
_atom_site_label
_atom_site_fract_x
_atom_site_fract_y
_atom_site_fract_z
Si Si1 0.250000 0.250000 0.962147
Si Si2 0.981267 0.644989 0.379714
Si Si3 0.250000 0.250000 0.250000
Si Si4 0.766599 0.467070 0.558021
Si Si5 0.735126 0.463207 0.311333
Si Si6 0.913635 0.010812 0.662827
O O1 0.109792 0.254844 0.925068
O O2 0.255283 0.423992 0.001773
O O3 0.860849 0.546631 0.345870
O O4 0.082397 0.511455 0.413062
O O5 0.083029 0.766380 0.340280
O O6 0.159123 0.112997 0.289664
O O7 0.750000 0.250000 0.549308
O O8 0.655623 0.534899 0.603792
O O9 0.750000 0.250000 0.308711
O O10 0.750000 0.540667 0.250000
O O11 0.579596 0.486791 0.333544
#
# Coordination Sequence:
#
# PCOD9391479 Si02
#       6
#     4   8   2   8   8   8
#     4  12  23  48  79  99 146 195 244 312 370 436
#     4  11  25  50  69 110 144 191 248 304 365 436
#     4  12  26  44  80 108 144 208 246 300 384 440
#     4  10  26  45  72 109 146 190 247 303 372 438
#     4  11  25  45  75 105 146 193 243 296 366 444
#     4  11  25  48  70 107 147 186 244 304 359 447
#
# _framework density 22.351241999999999
#
# number of rings (size 3 to 8) (size 9 to 14) (size 15 to 20)
#    0.000    1.053    2.105    2.526    8.842    5.895 
#    7.579    0.000    0.000    0.000    0.000    0.000 
#    0.000    0.000    0.000    0.000    0.000    0.000 
#
# Total GULP energy -212193.275245 kJ/mol
# GULP energy per Si atom -5584.033559 kJ/mol
# Density = 2.230037 g / cm^3
# Si number density = 22.351242 Si / 1000 Ang^3
#
#
#
# Elastic Constant Matrix: (Units=GPa)
#
#
# Indices 1 2 3 4 5 6 
#
# 1 169.4698 40.3567 86.0389 0.0000 0.0000 0.0000
# 2 40.3567 113.3102 79.0473 0.0000 0.0000 0.0000
# 3 86.0389 79.0473 152.9062 0.0000 0.0000 0.0000
# 4 0.0000 0.0000 0.0000 33.2472 0.0000 0.0000
# 5 0.0000 0.0000 0.0000 0.0000 32.8046 0.0000
# 6 0.0000 0.0000 0.0000 0.0000 0.0000 18.0619
#
#
#
# Elastic Compliance Matrix: (Units=1/GPa)
#
#
# Indices 1 2 3 4 5 6 
#
# 1 0.008277 0.000471 -0.004901 0.000000 0.000000 0.000000
# 2 0.000471 0.013830 -0.007415 0.000000 0.000000 0.000000
# 3 -0.004901 -0.007415 0.013131 0.000000 0.000000 0.000000
# 4 0.000000 0.000000 0.000000 0.030078 0.000000 0.000000
# 5 0.000000 0.000000 0.000000 0.000000 0.030484 0.000000
# 6 0.000000 0.000000 0.000000 0.000000 0.000000 0.055365
#
#
# Mechanical properties :
#
#
# Convention : Reuss Voigt Hill
#
# Bulk Modulus (GPa) = 86.59014 94.06358 90.32686
# Shear Modulus (GPa) = 27.97947 32.17231 30.07589
#
# Velocity S-wave (km/s) = 3.54193 3.79805 3.67223
# Velocity P-wave (km/s) = 7.45330 7.83641 7.64725
#
# Compressibility (1/GPa) = 0.01154866
#
# Stress axis : x y z
#
# Youngs Moduli (GPa) = 120.82198 72.30502 76.15730
#
# Poissons Ratio (x) = -0.03405 0.37322
# Poissons Ratio (y) = -0.05690 0.56469
# Poissons Ratio (z) = 0.59211 0.53613
#
# Static dielectric constant tensor:
#      x y z
#    x 1.649360 0.000000 0.000000 
#    y 0.000000 1.813430 0.000000 
#    z 0.000000 0.000000 2.256030 
# 
# From -- ./inp_files/35722.got.cif
#   From: 2010.05.17/outbox.cif.g08.bks.cpg/sg48_18_cif.got.tgz:35722.got - 2010.06.03 20:39:00.
