data_PCOD9391722
_publ_section_title
;
Structure prediction by ZEFSAII (Michael W. Deem and Ramdas Pophale) SiO2 
 PCOD9391722
Probable space group: P N N N
;
_chemical_formula_sum "Si O2"
_cell_formula_units_Z 40
_cell_length_a 13.837870
_cell_length_b 7.399195
_cell_length_c 14.361169
_cell_angle_alpha 90.000000
_cell_angle_beta 90.000000
_cell_angle_gamma 90.000000
_cell_volume 1470.427148
_symmetry_space_group_name_H-M "P N N N"
_symmetry_group_IT_number 48
_space_group.IT_coordinate_system_code '2'
_symmetry_cell_setting 'orthorhombic'
loop_
_space_group_symop_operation_xyz
x,y,z
1/2-x,1/2-y,z
x,1/2-y,1/2-z
1/2-x,y,1/2-z
-x,-y,-z
1/2+x,1/2+y,-z
-x,1/2+y,1/2+z
1/2+x,-y,1/2+z
loop_
_atom_site_type_symbol
_atom_site_label
_atom_site_fract_x
_atom_site_fract_y
_atom_site_fract_z
Si Si1 0.250000 0.250000 0.750000
Si Si2 0.597470 0.132576 0.899670
Si Si3 0.250000 0.750000 0.250000
Si Si4 0.887355 0.780457 0.103216
Si Si5 0.841783 0.132736 0.395360
Si Si6 0.636479 0.718472 0.900614
Si Si7 0.500157 0.750000 0.750000
O O1 0.171840 0.136323 0.811169
O O2 0.678376 0.151766 0.821333
O O3 0.498081 0.233670 0.876274
O O4 0.588721 0.916785 0.911716
O O5 0.630295 0.199310 0.001014
O O6 0.834313 0.584430 0.094554
O O7 0.876426 0.871216 0.001957
O O8 0.750000 0.250000 0.367415
O O9 0.926313 0.161445 0.321618
O O10 0.750000 0.750000 0.881060
O O11 0.575163 0.635715 0.815379
#
# Coordination Sequence:
#
# PCOD9391722 Si02
#       7
#     2   8   2   8   8   8   4
#     4  12  26  40  70  92 128 176 222 254 320 396
#     4  11  23  46  64  91 136 174 205 267 329 380
#     4  12  26  40  70  92 128 176 222 254 320 396
#     4  11  23  46  64  91 136 174 205 267 329 380
#     4  11  23  41  67  96 126 166 217 264 320 380
#     4  11  23  41  67  96 126 166 217 264 320 380
#     4  12  22  38  68  96 128 162 212 272 326 372
#
# _framework density 27.202981000000001
#
# number of rings (size 3 to 8) (size 9 to 14) (size 15 to 20)
#    0.000    0.800    6.000    2.400    5.600    0.000 
#    0.000    0.000    0.000    7.200    0.000    0.000 
#    0.000    0.000    0.000    0.000    0.000    0.000 
#
# Total GULP energy -223818.819196 kJ/mol
# GULP energy per Si atom -5595.470480 kJ/mol
# Density = 2.714107 g / cm^3
# Si number density = 27.202981 Si / 1000 Ang^3
#
#
#
# Elastic Constant Matrix: (Units=GPa)
#
#
# Indices 1 2 3 4 5 6 
#
# 1 184.3975 18.7047 70.8156 0.0000 0.0000 0.0000
# 2 18.7047 84.8285 16.5483 0.0000 0.0000 0.0000
# 3 70.8156 16.5483 194.3098 0.0000 0.0000 0.0000
# 4 0.0000 0.0000 0.0000 8.6032 0.0000 0.0000
# 5 0.0000 0.0000 0.0000 0.0000 57.3614 0.0000
# 6 0.0000 0.0000 0.0000 0.0000 0.0000 8.0223
#
#
#
# Elastic Compliance Matrix: (Units=1/GPa)
#
#
# Indices 1 2 3 4 5 6 
#
# 1 0.006383 -0.000970 -0.002244 0.000000 0.000000 0.000000
# 2 -0.000970 0.012135 -0.000680 0.000000 0.000000 0.000000
# 3 -0.002244 -0.000680 0.006022 0.000000 0.000000 0.000000
# 4 0.000000 0.000000 0.000000 0.116235 0.000000 0.000000
# 5 0.000000 0.000000 0.000000 0.000000 0.017433 0.000000
# 6 0.000000 0.000000 0.000000 0.000000 0.000000 0.124652
#
#
# Mechanical properties :
#
#
# Convention : Reuss Voigt Hill
#
# Bulk Modulus (GPa) = 59.69049 75.07479 67.38264
# Shear Modulus (GPa) = 16.87863 38.62853 27.75358
#
# Velocity S-wave (km/s) = 2.49363 3.77239 3.19759
# Velocity P-wave (km/s) = 5.50283 6.82880 6.20136
#
# Compressibility (1/GPa) = 0.01675309
#
# Stress axis : x y z
#
# Youngs Moduli (GPa) = 156.66345 82.40638 166.05634
#
# Poissons Ratio (x) = 0.07992 0.37258
# Poissons Ratio (y) = 0.15193 0.11292
# Poissons Ratio (z) = 0.35151 0.05604
#
# Static dielectric constant tensor:
#      x y z
#    x 2.103000 0.000000 0.000000 
#    y 0.000000 2.129630 0.000000 
#    z 0.000000 0.000000 2.361650 
# 
# From -- ./inp_files/27102.got.cif
#   From: 2010.05.17/outbox.cif.g08.bks.cpg/sg48_14_cif.got.tgz:27102.got - 2010.06.03 20:39:00.
