data_PCOD9391611
_publ_section_title
;
Structure prediction by ZEFSAII (Michael W. Deem and Ramdas Pophale) SiO2 
 PCOD9391611
Probable space group: P N N N
;
_chemical_formula_sum "Si O2"
_cell_formula_units_Z 40
_cell_length_a 8.322082
_cell_length_b 24.373406
_cell_length_c 8.798169
_cell_angle_alpha 90.000000
_cell_angle_beta 90.000000
_cell_angle_gamma 90.000000
_cell_volume 1784.598458
_symmetry_space_group_name_H-M "P N N N"
_symmetry_group_IT_number 48
_space_group.IT_coordinate_system_code '2'
_symmetry_cell_setting 'orthorhombic'
loop_
_space_group_symop_operation_xyz
x,y,z
1/2-x,1/2-y,z
x,1/2-y,1/2-z
1/2-x,y,1/2-z
-x,-y,-z
1/2+x,1/2+y,-z
-x,1/2+y,1/2+z
1/2+x,-y,1/2+z
loop_
_atom_site_type_symbol
_atom_site_label
_atom_site_fract_x
_atom_site_fract_y
_atom_site_fract_z
Si Si1 0.587498 0.947928 0.828698
Si Si2 0.927563 0.560094 0.191931
Si Si3 0.108180 0.842354 0.139916
Si Si4 0.444035 0.746636 0.573902
Si Si5 0.845076 0.137767 0.387905
O O1 0.750000 0.928875 0.750000
O O2 0.434577 0.910014 0.799285
O O3 0.547812 0.009514 0.777352
O O4 0.592731 0.940820 0.010215
O O5 0.750000 0.548564 0.250000
O O6 0.997625 0.615127 0.268448
O O7 0.250000 0.819150 0.250000
O O8 0.012010 0.794952 0.045227
O O9 0.215574 0.876082 0.016211
O O10 0.250000 0.750000 0.558335
O O11 0.500740 0.750000 0.750000
O O12 0.469569 0.681979 0.540695
O O13 0.750000 0.166280 0.250000
#
# Coordination Sequence:
#
# PCOD9391611 Si02
#       5
#     8   8   8   8   8
#     4  11  26  44  67  97 142 182 235 291 359 431
#     4  11  26  45  66 100 137 184 235 293 359 422
#     4  11  21  40  69 102 140 177 233 299 348 417
#     4   9  17  34  62  99 130 170 227 283 335 409
#     4  11  21  39  68 104 136 181 233 289 353 419
#
# _framework density 22.414003999999998
#
# number of rings (size 3 to 8) (size 9 to 14) (size 15 to 20)
#    0.000    1.400    6.000    1.200    5.600    4.400 
#    0.000    0.000    0.000    7.800    0.000    0.000 
#    0.000    0.000    0.000    0.000    0.000    0.000 
#
# Total GULP energy -222726.772027 kJ/mol
# GULP energy per Si atom -5568.169301 kJ/mol
# Density = 2.236299 g / cm^3
# Si number density = 22.414004 Si / 1000 Ang^3
#
#
#
# Elastic Constant Matrix: (Units=GPa)
#
#
# Indices 1 2 3 4 5 6 
#
# 1 57.5009 16.4928 35.6152 0.0000 0.0000 0.0000
# 2 16.4928 110.4190 56.8740 0.0000 0.0000 0.0000
# 3 35.6152 56.8740 102.8889 0.0000 0.0000 0.0000
# 4 0.0000 0.0000 0.0000 47.3906 0.0000 0.0000
# 5 0.0000 0.0000 0.0000 0.0000 25.7923 0.0000
# 6 0.0000 0.0000 0.0000 0.0000 0.0000 15.0779
#
#
#
# Elastic Compliance Matrix: (Units=1/GPa)
#
#
# Indices 1 2 3 4 5 6 
#
# 1 0.022201 0.000898 -0.008181 0.000000 0.000000 0.000000
# 2 0.000898 0.012698 -0.007330 0.000000 0.000000 0.000000
# 3 -0.008181 -0.007330 0.016603 0.000000 0.000000 0.000000
# 4 0.000000 0.000000 0.000000 0.021101 0.000000 0.000000
# 5 0.000000 0.000000 0.000000 0.000000 0.038771 0.000000
# 6 0.000000 0.000000 0.000000 0.000000 0.000000 0.066322
#
#
# Mechanical properties :
#
#
# Convention : Reuss Voigt Hill
#
# Bulk Modulus (GPa) = 44.89285 54.30808 49.60047
# Shear Modulus (GPa) = 23.32666 28.44060 25.88363
#
# Velocity S-wave (km/s) = 3.22952 3.56599 3.40192
# Velocity P-wave (km/s) = 5.82913 6.42162 6.13254
#
# Compressibility (1/GPa) = 0.02227526
#
# Stress axis : x y z
#
# Youngs Moduli (GPa) = 45.04343 78.75480 60.23085
#
# Poissons Ratio (x) = -0.07071 0.49276
# Poissons Ratio (y) = -0.04044 0.44147
# Poissons Ratio (z) = 0.36851 0.57725
#
# Static dielectric constant tensor:
#      x y z
#    x 2.052780 0.000000 0.000000 
#    y 0.000000 1.975310 0.000000 
#    z 0.000000 0.000000 1.958760 
# 
# From -- ./inp_files/9038.got.cif
#   From: 2010.05.17/outbox.cif.g08.bks.cpg/sg48_5_cif.got.tgz:9038.got - 2010.06.03 20:39:00.
