data_PCOD9391385
_publ_section_title
;
Structure prediction by ZEFSAII (Michael W. Deem and Ramdas Pophale) SiO2 
 PCOD9391385
Probable space group: P N N N
;
_chemical_formula_sum "Si O2"
_cell_formula_units_Z 30
_cell_length_a 5.494902
_cell_length_b 32.209679
_cell_length_c 7.397517
_cell_angle_alpha 90.000000
_cell_angle_beta 90.000000
_cell_angle_gamma 90.000000
_cell_volume 1309.279355
_symmetry_space_group_name_H-M "P N N N"
_symmetry_group_IT_number 48
_space_group.IT_coordinate_system_code '2'
_symmetry_cell_setting 'orthorhombic'
loop_
_space_group_symop_operation_xyz
x,y,z
1/2-x,1/2-y,z
x,1/2-y,1/2-z
1/2-x,y,1/2-z
-x,-y,-z
1/2+x,1/2+y,-z
-x,1/2+y,1/2+z
1/2+x,-y,1/2+z
loop_
_atom_site_type_symbol
_atom_site_label
_atom_site_fract_x
_atom_site_fract_y
_atom_site_fract_z
Si Si1 0.250000 0.488839 0.250000
Si Si2 0.028911 0.326453 0.440284
Si Si3 0.964787 0.140337 0.463547
Si Si4 0.891867 0.943589 0.413809
Si Si5 0.250000 0.250000 0.250000
O O1 0.466687 0.518561 0.317121
O O2 0.217445 0.460105 0.426182
O O3 0.274371 0.342906 0.532366
O O4 0.084628 0.279861 0.373472
O O5 0.769808 0.334468 0.531226
O O6 0.995663 0.351933 0.251627
O O7 0.936431 0.091643 0.503640
O O8 0.750000 0.923253 0.250000
#
# Coordination Sequence:
#
# PCOD9391385 Si02
#       5
#     4   8   8   8   2
#     4  10  24  43  60  94 120 174 236 280 332 387
#     4   9  18  33  56  94 124 172 199 269 311 391
#     4   9  19  33  55  83 128 162 211 255 330 370
#     4  11  23  41  63  89 128 176 223 283 332 398
#     4   8  16  32  60  94 142 158 220 260 320 384
#
# _framework density 22.913368999999999
#
# number of rings (size 3 to 8) (size 9 to 14) (size 15 to 20)
#    0.000    2.667    0.000    2.400    3.733    8.533 
#   19.200    0.000    0.000    0.000    0.000   14.933 
#    0.000    0.000    0.000    0.000    0.000    0.000 
#
# Total GULP energy -167241.978760 kJ/mol
# GULP energy per Si atom -5574.732625 kJ/mol
# Density = 2.286122 g / cm^3
# Si number density = 22.913369 Si / 1000 Ang^3
#
#
#
# Elastic Constant Matrix: (Units=GPa)
#
#
# Indices 1 2 3 4 5 6 
#
# 1 174.9360 44.4082 28.6555 0.0000 0.0000 0.0000
# 2 44.4082 130.5011 46.2658 0.0000 0.0000 0.0000
# 3 28.6555 46.2658 116.5540 0.0000 0.0000 0.0000
# 4 0.0000 0.0000 0.0000 -277.1192 0.0000 0.0000
# 5 0.0000 0.0000 0.0000 0.0000 8.1670 0.0000
# 6 0.0000 0.0000 0.0000 0.0000 0.0000 11.0629
#
#
#
# Elastic Compliance Matrix: (Units=1/GPa)
#
#
# Indices 1 2 3 4 5 6 
#
# 1 0.006323 -0.001863 -0.000815 0.000000 0.000000 0.000000
# 2 -0.001863 0.009466 -0.003300 0.000000 0.000000 0.000000
# 3 -0.000815 -0.003300 0.010090 0.000000 0.000000 0.000000
# 4 0.000000 0.000000 0.000000 -0.003609 0.000000 0.000000
# 5 0.000000 0.000000 0.000000 0.000000 0.122444 0.000000
# 6 0.000000 0.000000 0.000000 0.000000 0.000000 0.090392
#
#
# Mechanical properties :
#
#
# Convention : Reuss Voigt Hill
#
# Bulk Modulus (GPa) = 71.81749 73.40554 72.61152
# Shear Modulus (GPa) = 19.86474 -31.40040 -5.76783
#
# Velocity S-wave (km/s) = 2.94760 -3.70590 -1.58830
# Velocity P-wave (km/s) = 6.55710 3.71403 5.32868
#
# Compressibility (1/GPa) = 0.01392419
#
# Stress axis : x y z
#
# Youngs Moduli (GPa) = 158.15978 105.63651 99.10863
#
# Poissons Ratio (x) = 0.19676 0.08079
# Poissons Ratio (y) = 0.29458 0.32703
# Poissons Ratio (z) = 0.12892 0.34857
#
# Static dielectric constant tensor:
#      x y z
#    x 2.266930 0.000000 0.000000 
#    y 0.000000 1.847090 0.000000 
#    z 0.000000 0.000000 1.790190 
# 
# From -- ./inp_files/7601.got.cif
#   From: 2010.05.17/outbox.cif.g08.bks.cpg/sg48_4_cif.got.tgz:7601.got - 2010.06.03 20:39:00.
