data_PCOD9391604
_publ_section_title
;
Structure prediction by ZEFSAII (Michael W. Deem and Ramdas Pophale) SiO2 
 PCOD9391604
Probable space group: P N N N
;
_chemical_formula_sum "Si O2"
_cell_formula_units_Z 58
_cell_length_a 9.564837
_cell_length_b 17.949593
_cell_length_c 16.577058
_cell_angle_alpha 90.000000
_cell_angle_beta 90.000000
_cell_angle_gamma 90.000000
_cell_volume 2846.031063
_symmetry_space_group_name_H-M "P N N N"
_symmetry_group_IT_number 48
_space_group.IT_coordinate_system_code '2'
_symmetry_cell_setting 'orthorhombic'
loop_
_space_group_symop_operation_xyz
x,y,z
1/2-x,1/2-y,z
x,1/2-y,1/2-z
1/2-x,y,1/2-z
-x,-y,-z
1/2+x,1/2+y,-z
-x,1/2+y,1/2+z
1/2+x,-y,1/2+z
loop_
_atom_site_type_symbol
_atom_site_label
_atom_site_fract_x
_atom_site_fract_y
_atom_site_fract_z
Si Si1 0.772142 0.980542 0.915931
Si Si2 0.865676 0.655357 0.383102
Si Si3 0.748039 0.404673 0.434051
Si Si4 0.387499 0.730375 0.022591
Si Si5 0.980992 0.997514 0.361907
Si Si6 0.565196 0.006411 0.325795
Si Si7 0.104376 0.363937 0.981674
Si Si8 0.750000 0.750000 0.250000
O O1 0.914938 0.977256 0.866647
O O2 0.647561 0.002978 0.856933
O O3 0.705686 0.904185 0.952590
O O4 0.782000 0.040474 0.989518
O O5 0.874779 0.567759 0.367362
O O6 0.721299 0.674710 0.426894
O O7 0.853000 0.697245 0.299456
O O8 0.000522 0.679422 0.432617
O O9 0.806189 0.323121 0.458122
O O10 0.591128 0.430939 0.406781
O O11 0.836561 0.427952 0.356209
O O12 0.250000 0.750000 0.075860
O O13 0.481892 0.803428 0.999786
O O14 0.950703 0.929498 0.422841
O O15 0.931083 0.994439 0.269976
#
# Coordination Sequence:
#
# PCOD9391604 Si02
#       8
#     8   8   8   8   8   8   8   2
#     4  11  21  39  62  94 129 168 218 277 323 379
#     4  12  23  39  62  90 129 177 215 252 324 405
#     4  11  22  41  66  90 130 173 228 269 321 397
#     4  12  24  41  62  96 128 170 222 270 325 394
#     4  11  23  39  63  98 131 170 210 280 342 385
#     4  12  23  39  65  97 130 171 220 277 324 390
#     4  11  22  41  66  90 130 176 222 263 331 400
#     4  12  24  40  58  92 140 184 206 252 336 440
#
# _framework density 20.379259000000001
#
# number of rings (size 3 to 8) (size 9 to 14) (size 15 to 20)
#    0.000    0.552    5.517    6.207    0.000    0.000 
#    0.000    0.345    0.000    5.793    0.000    3.862 
#    0.000    0.000    0.000    0.000    0.000    0.000 
#
# Total GULP energy -323163.687154 kJ/mol
# GULP energy per Si atom -5571.787710 kJ/mol
# Density = 2.033287 g / cm^3
# Si number density = 20.379259 Si / 1000 Ang^3
#
#
#
# Elastic Constant Matrix: (Units=GPa)
#
#
# Indices 1 2 3 4 5 6 
#
# 1 115.8502 34.7612 21.1409 0.0000 0.0000 0.0000
# 2 34.7612 128.0420 35.0799 0.0000 0.0000 0.0000
# 3 21.1409 35.0799 61.5238 0.0000 0.0000 0.0000
# 4 0.0000 0.0000 0.0000 26.0039 0.0000 0.0000
# 5 0.0000 0.0000 0.0000 0.0000 39.8810 0.0000
# 6 0.0000 0.0000 0.0000 0.0000 0.0000 29.7698
#
#
#
# Elastic Compliance Matrix: (Units=1/GPa)
#
#
# Indices 1 2 3 4 5 6 
#
# 1 0.009633 -0.002025 -0.002156 0.000000 0.000000 0.000000
# 2 -0.002025 0.009681 -0.004824 0.000000 0.000000 0.000000
# 3 -0.002156 -0.004824 0.019745 0.000000 0.000000 0.000000
# 4 0.000000 0.000000 0.000000 0.038456 0.000000 0.000000
# 5 0.000000 0.000000 0.000000 0.000000 0.025075 0.000000
# 6 0.000000 0.000000 0.000000 0.000000 0.000000 0.033591
#
#
# Mechanical properties :
#
#
# Convention : Reuss Voigt Hill
#
# Bulk Modulus (GPa) = 47.50556 54.15334 50.82945
# Shear Modulus (GPa) = 31.01604 33.42654 32.22129
#
# Velocity S-wave (km/s) = 3.90544 4.05436 3.98060
# Velocity P-wave (km/s) = 6.61044 6.96761 6.79137
#
# Compressibility (1/GPa) = 0.02105017
#
# Stress axis : x y z
#
# Youngs Moduli (GPa) = 103.81331 103.29161 50.64459
#
# Poissons Ratio (x) = 0.20912 0.10917
# Poissons Ratio (y) = 0.21017 0.24433
# Poissons Ratio (z) = 0.22378 0.49833
#
# Static dielectric constant tensor:
#      x y z
#    x 1.770370 0.000000 0.000000 
#    y 0.000000 1.817620 0.000000 
#    z 0.000000 0.000000 1.814340 
# 
# From -- ./inp_files/30476.got.cif
#   From: 2010.05.17/outbox.cif.g08.bks.cpg/sg48_16_cif.got.tgz:30476.got - 2010.06.03 20:39:00.
