data_PCOD9391118
_publ_section_title
;
Structure prediction by ZEFSAII (Michael W. Deem and Ramdas Pophale) SiO2 
 PCOD9391118
Probable space group: P N N N
;
_chemical_formula_sum "Si O2"
_cell_formula_units_Z 42
_cell_length_a 15.381321
_cell_length_b 8.679830
_cell_length_c 14.866227
_cell_angle_alpha 90.000000
_cell_angle_beta 90.000000
_cell_angle_gamma 90.000000
_cell_volume 1984.749106
_symmetry_space_group_name_H-M "P N N N"
_symmetry_group_IT_number 48
_space_group.IT_coordinate_system_code '2'
_symmetry_cell_setting 'orthorhombic'
loop_
_space_group_symop_operation_xyz
x,y,z
1/2-x,1/2-y,z
x,1/2-y,1/2-z
1/2-x,y,1/2-z
-x,-y,-z
1/2+x,1/2+y,-z
-x,1/2+y,1/2+z
1/2+x,-y,1/2+z
loop_
_atom_site_type_symbol
_atom_site_label
_atom_site_fract_x
_atom_site_fract_y
_atom_site_fract_z
Si Si1 0.492669 0.428022 0.745018
Si Si2 0.612312 0.101350 0.388346
Si Si3 0.431126 0.569593 0.570919
Si Si4 0.753601 0.072210 0.533639
Si Si5 0.673971 0.584200 0.700137
Si Si6 0.250000 0.750000 0.750000
O O1 0.510554 0.250000 0.750000
O O2 0.449244 0.481770 0.837625
O O3 0.431172 0.472162 0.661898
O O4 0.581157 0.511852 0.716417
O O5 0.552020 0.250578 0.408109
O O6 0.664252 0.048212 0.477925
O O7 0.686008 0.154160 0.315869
O O8 0.500000 0.500000 0.500000
O O9 0.333746 0.576661 0.534776
O O10 0.750000 0.250000 0.571448
O O11 0.787389 0.937661 0.600383
O O12 0.668169 0.750000 0.750000
O O13 0.750000 0.491516 0.750000
#
# Coordination Sequence:
#
# PCOD9391118 Si02
#       6
#     8   8   8   8   8   2
#     4  12  26  42  67 107 146 190 232 298 363 429
#     4  11  21  42  70 103 142 187 239 291 360 439
#     4  11  20  39  70 101 135 182 239 288 353 429
#     4  10  22  41  75 104 133 185 237 296 357 431
#     4  11  26  47  70  98 135 189 242 295 358 426
#     4  12  16  36  74  96 128 188 234 276 368 428
#
# _framework density 21.161365
#
# number of rings (size 3 to 8) (size 9 to 14) (size 15 to 20)
#    0.000    0.952    6.667    1.143    2.667    0.000 
#    6.857    5.238    0.000    0.000    0.000    0.000 
#    0.000    0.000    0.000    0.000    0.000    0.000 
#
# Total GULP energy -234079.140248 kJ/mol
# GULP energy per Si atom -5573.312863 kJ/mol
# Density = 2.111320 g / cm^3
# Si number density = 21.161365 Si / 1000 Ang^3
#
#
#
# Elastic Constant Matrix: (Units=GPa)
#
#
# Indices 1 2 3 4 5 6 
#
# 1 53.2005 31.9264 23.0240 0.0000 0.0000 0.0000
# 2 31.9264 114.3786 67.2082 0.0000 0.0000 0.0000
# 3 23.0240 67.2082 90.9071 0.0000 0.0000 0.0000
# 4 0.0000 0.0000 0.0000 66.4671 0.0000 0.0000
# 5 0.0000 0.0000 0.0000 0.0000 31.2813 0.0000
# 6 0.0000 0.0000 0.0000 0.0000 0.0000 186.4043
#
#
#
# Elastic Compliance Matrix: (Units=1/GPa)
#
#
# Indices 1 2 3 4 5 6 
#
# 1 0.022761 -0.005244 -0.001888 0.000000 0.000000 0.000000
# 2 -0.005244 0.016666 -0.010993 0.000000 0.000000 0.000000
# 3 -0.001888 -0.010993 0.019606 0.000000 0.000000 0.000000
# 4 0.000000 0.000000 0.000000 0.015045 0.000000 0.000000
# 5 0.000000 0.000000 0.000000 0.000000 0.031968 0.000000
# 6 0.000000 0.000000 0.000000 0.000000 0.000000 0.005365
#
#
# Mechanical properties :
#
#
# Convention : Reuss Voigt Hill
#
# Bulk Modulus (GPa) = 43.89281 55.86705 49.87993
# Shear Modulus (GPa) = 32.20514 65.91906 49.06210
#
# Velocity S-wave (km/s) = 3.90537 5.58733 4.82028
# Velocity P-wave (km/s) = 6.41271 8.25119 7.38935
#
# Compressibility (1/GPa) = 0.02278277
#
# Stress axis : x y z
#
# Youngs Moduli (GPa) = 43.93526 60.00143 51.00544
#
# Poissons Ratio (x) = 0.31465 0.09628
# Poissons Ratio (y) = 0.23040 0.56072
# Poissons Ratio (z) = 0.08293 0.65962
#
# Static dielectric constant tensor:
#      x y z
#    x 1.614410 0.000000 0.000000 
#    y 0.000000 1.811060 0.000000 
#    z 0.000000 0.000000 2.073570 
# 
# From -- ./inp_files/27071.got.cif
#   From: 2010.05.17/outbox.cif.g08.bks.cpg/sg48_14_cif.got.tgz:27071.got - 2010.06.03 20:39:00.
