data_PCOD9391860
_publ_section_title
;
Structure prediction by ZEFSAII (Michael W. Deem and Ramdas Pophale) SiO2 
 PCOD9391860
Probable space group: P N N N
;
_chemical_formula_sum "Si O2"
_cell_formula_units_Z 26
_cell_length_a 7.390585
_cell_length_b 18.399224
_cell_length_c 7.871710
_cell_angle_alpha 90.000000
_cell_angle_beta 90.000000
_cell_angle_gamma 90.000000
_cell_volume 1070.403225
_symmetry_space_group_name_H-M "P N N N"
_symmetry_group_IT_number 48
_space_group.IT_coordinate_system_code '2'
_symmetry_cell_setting 'orthorhombic'
loop_
_space_group_symop_operation_xyz
x,y,z
1/2-x,1/2-y,z
x,1/2-y,1/2-z
1/2-x,y,1/2-z
-x,-y,-z
1/2+x,1/2+y,-z
-x,1/2+y,1/2+z
1/2+x,-y,1/2+z
loop_
_atom_site_type_symbol
_atom_site_label
_atom_site_fract_x
_atom_site_fract_y
_atom_site_fract_z
Si Si1 0.955459 0.012916 0.696242
Si Si2 0.534620 0.641564 0.795077
Si Si3 0.044131 0.325182 0.688025
Si Si4 0.250000 0.750000 0.750000
O O1 0.750000 0.004597 0.750000
O O2 0.994853 0.095663 0.741095
O O3 0.035304 0.941772 0.790091
O O4 0.000000 0.000000 0.500000
O O5 0.750000 0.647676 0.750000
O O6 0.399817 0.691089 0.681250
O O7 0.520674 0.669697 0.986593
O O8 0.955242 0.250000 0.750000
O O9 0.250000 0.320359 0.750000
#
# Coordination Sequence:
#
# PCOD9391860 Si02
#       4
#     8   8   8   2
#     4  11  26  47  76 109 151 201 254 319 388 463
#     4  11  27  49  75 108 157 196 255 316 384 453
#     4  11  26  45  75 109 151 196 248 318 387 447
#     4  12  30  40  86 106 142 196 256 308 380 458
#
# _framework density 24.289914
#
# number of rings (size 3 to 8) (size 9 to 14) (size 15 to 20)
#    0.000    0.923    0.000    5.077   19.385    0.615 
#    0.000    0.000    0.000    0.000    0.000    0.000 
#    0.000    0.000    0.000    0.000    0.000    0.000 
#
# Total GULP energy -144939.233070 kJ/mol
# GULP energy per Si atom -5574.585887 kJ/mol
# Density = 2.423463 g / cm^3
# Si number density = 24.289914 Si / 1000 Ang^3
#
#
#
# Elastic Constant Matrix: (Units=GPa)
#
#
# Indices 1 2 3 4 5 6 
#
# 1 133.7498 55.2648 13.6882 0.0000 0.0000 0.0000
# 2 55.2648 301.6884 80.4051 0.0000 0.0000 0.0000
# 3 13.6882 80.4051 171.2113 0.0000 0.0000 0.0000
# 4 0.0000 0.0000 0.0000 50.5134 0.0000 0.0000
# 5 0.0000 0.0000 0.0000 0.0000 21.6400 0.0000
# 6 0.0000 0.0000 0.0000 0.0000 0.0000 -179.6524
#
#
#
# Elastic Compliance Matrix: (Units=1/GPa)
#
#
# Indices 1 2 3 4 5 6 
#
# 1 0.008089 -0.001497 0.000056 0.000000 0.000000 0.000000
# 2 -0.001497 0.004066 -0.001790 0.000000 0.000000 0.000000
# 3 0.000056 -0.001790 0.006677 0.000000 0.000000 0.000000
# 4 0.000000 0.000000 0.000000 0.019797 0.000000 0.000000
# 5 0.000000 0.000000 0.000000 0.000000 0.046211 0.000000
# 6 0.000000 0.000000 0.000000 0.000000 0.000000 -0.005566
#
#
# Mechanical properties :
#
#
# Convention : Reuss Voigt Hill
#
# Bulk Modulus (GPa) = 80.83263 100.59619 90.71441
# Shear Modulus (GPa) = 55.64352 8.98627 32.31490
#
# Velocity S-wave (km/s) = 4.79143 1.92552 3.65140
# Velocity P-wave (km/s) = 7.99756 6.81529 7.42998
#
# Compressibility (1/GPa) = 0.01237124
#
# Stress axis : x y z
#
# Youngs Moduli (GPa) = 123.61884 245.94917 149.77316
#
# Poissons Ratio (x) = 0.36815 -0.00842
# Poissons Ratio (y) = 0.18504 0.26806
# Poissons Ratio (z) = -0.00695 0.44019
#
# Static dielectric constant tensor:
#      x y z
#    x 1.960540 0.000000 0.000000 
#    y 0.000000 2.173320 0.000000 
#    z 0.000000 0.000000 1.979600 
# 
# From -- ./inp_files/8325.got.cif
#   From: 2010.05.17/outbox.cif.g08.bks.cpg/sg48_5_cif.got.tgz:8325.got - 2010.06.03 20:39:00.
