data_PCOD9391897
_publ_section_title
;
Structure prediction by ZEFSAII (Michael W. Deem and Ramdas Pophale) SiO2 
 PCOD9391897
Probable space group: P N N N
;
_chemical_formula_sum "Si O2"
_cell_formula_units_Z 40
_cell_length_a 12.040517
_cell_length_b 6.263531
_cell_length_c 23.085448
_cell_angle_alpha 90.000000
_cell_angle_beta 90.000000
_cell_angle_gamma 90.000000
_cell_volume 1741.015643
_symmetry_space_group_name_H-M "P N N N"
_symmetry_group_IT_number 48
_space_group.IT_coordinate_system_code '2'
_symmetry_cell_setting 'orthorhombic'
loop_
_space_group_symop_operation_xyz
x,y,z
1/2-x,1/2-y,z
x,1/2-y,1/2-z
1/2-x,y,1/2-z
-x,-y,-z
1/2+x,1/2+y,-z
-x,1/2+y,1/2+z
1/2+x,-y,1/2+z
loop_
_atom_site_type_symbol
_atom_site_label
_atom_site_fract_x
_atom_site_fract_y
_atom_site_fract_z
Si Si1 0.010328 0.633387 0.441048
Si Si2 0.903008 0.180512 0.146148
Si Si3 0.250000 0.750000 0.042764
Si Si4 0.250000 0.750000 0.750000
Si Si5 0.168130 0.049217 0.559522
Si Si6 0.146276 0.141204 0.187715
Si Si7 0.250000 0.750000 0.250000
O O1 0.140098 0.661552 0.424968
O O2 0.000000 0.500000 0.500000
O O3 0.928619 0.516713 0.395924
O O4 0.954604 0.860379 0.449587
O O5 0.833450 0.133252 0.204714
O O6 0.846454 0.376795 0.111408
O O7 0.031520 0.219449 0.161095
O O8 0.209159 0.567631 0.998301
O O9 0.250000 0.250000 0.569719
O O10 0.250000 0.250000 0.155047
O O11 0.141434 0.250000 0.250000
O O12 0.175174 0.898889 0.207454
#
# Coordination Sequence:
#
# PCOD9391897 Si02
#       7
#     8   8   4   2   8   8   2
#     4  12  26  46  74 113 152 197 252 320 395 468
#     4  12  26  46  72 107 148 199 261 317 383 468
#     4  12  25  45  72 109 153 194 246 314 386 472
#     4  12  26  52  72  98 152 206 258 314 376 472
#     4  12  24  46  75 106 151 199 246 315 391 459
#     4   9  20  42  67  99 137 186 242 315 374 440
#     4   8  18  38  76  90 136 184 232 304 386 436
#
# _framework density 22.975097000000002
#
# number of rings (size 3 to 8) (size 9 to 14) (size 15 to 20)
#    0.000    1.000    5.000    2.400    0.000    5.600 
#    0.000    3.500    0.000    0.000    0.000    0.000 
#    0.000    0.000    0.000    0.000    0.000    0.000 
#
# Total GULP energy -222975.277184 kJ/mol
# GULP energy per Si atom -5574.381930 kJ/mol
# Density = 2.292280 g / cm^3
# Si number density = 22.975097 Si / 1000 Ang^3
#
#
#
# Elastic Constant Matrix: (Units=GPa)
#
#
# Indices 1 2 3 4 5 6 
#
# 1 158.6239 57.3438 48.7660 0.0000 0.0000 0.0000
# 2 57.3438 107.6378 40.7675 0.0000 0.0000 0.0000
# 3 48.7660 40.7675 99.7950 0.0000 0.0000 0.0000
# 4 0.0000 0.0000 0.0000 0.7118 0.0000 0.0000
# 5 0.0000 0.0000 0.0000 0.0000 41.7941 0.0000
# 6 0.0000 0.0000 0.0000 0.0000 0.0000 26.4601
#
#
#
# Elastic Compliance Matrix: (Units=1/GPa)
#
#
# Indices 1 2 3 4 5 6 
#
# 1 0.008375 -0.003445 -0.002685 0.000000 0.000000 0.000000
# 2 -0.003445 0.012408 -0.003385 0.000000 0.000000 0.000000
# 3 -0.002685 -0.003385 0.012716 0.000000 0.000000 0.000000
# 4 0.000000 0.000000 0.000000 1.404918 0.000000 0.000000
# 5 0.000000 0.000000 0.000000 0.000000 0.023927 0.000000
# 6 0.000000 0.000000 0.000000 0.000000 0.000000 0.037793
#
#
# Mechanical properties :
#
#
# Convention : Reuss Voigt Hill
#
# Bulk Modulus (GPa) = 69.11999 73.31238 71.21618
# Shear Modulus (GPa) = 3.28086 28.40515 15.84301
#
# Velocity S-wave (km/s) = 1.19629 3.51998 2.62882
# Velocity P-wave (km/s) = 5.66200 6.96413 6.34655
#
# Compressibility (1/GPa) = 0.01446759
#
# Stress axis : x y z
#
# Youngs Moduli (GPa) = 119.40172 80.59439 78.64247
#
# Poissons Ratio (x) = 0.27763 0.21118
# Poissons Ratio (y) = 0.41131 0.26624
# Poissons Ratio (z) = 0.32064 0.27285
#
# Static dielectric constant tensor:
#      x y z
#    x 1.451670 0.000000 0.000000 
#    y 0.000000 1.872820 0.000000 
#    z 0.000000 0.000000 1.953890 
# 
# From -- ./inp_files/37667.got.cif
#   From: 2010.05.17/outbox.cif.g08.bks.cpg/sg48_19_cif.got.tgz:37667.got - 2010.06.03 20:39:00.
