data_PCOD9391887
_publ_section_title
;
Structure prediction by ZEFSAII (Michael W. Deem and Ramdas Pophale) SiO2 
 PCOD9391887
Probable space group: P N N N
;
_chemical_formula_sum "Si O2"
_cell_formula_units_Z 36
_cell_length_a 14.344621
_cell_length_b 15.106797
_cell_length_c 7.422715
_cell_angle_alpha 90.000000
_cell_angle_beta 90.000000
_cell_angle_gamma 90.000000
_cell_volume 1608.511823
_symmetry_space_group_name_H-M "P N N N"
_symmetry_group_IT_number 48
_space_group.IT_coordinate_system_code '2'
_symmetry_cell_setting 'orthorhombic'
loop_
_space_group_symop_operation_xyz
x,y,z
1/2-x,1/2-y,z
x,1/2-y,1/2-z
1/2-x,y,1/2-z
-x,-y,-z
1/2+x,1/2+y,-z
-x,1/2+y,1/2+z
1/2+x,-y,1/2+z
loop_
_atom_site_type_symbol
_atom_site_label
_atom_site_fract_x
_atom_site_fract_y
_atom_site_fract_z
Si Si1 0.544449 0.322301 0.901770
Si Si2 0.945100 0.589279 0.946318
Si Si3 0.160558 0.992505 0.150536
Si Si4 0.445929 0.750000 0.750000
Si Si5 0.151456 0.123861 0.825517
O O1 0.564248 0.250000 0.750000
O O2 0.400261 0.388434 0.636314
O O3 0.578680 0.420493 0.856962
O O4 0.431522 0.324256 0.932295
O O5 0.869633 0.566289 0.794662
O O6 0.002592 0.669884 0.858416
O O7 0.000000 0.500000 0.000000
O O8 0.250000 0.950268 0.250000
O O9 0.172563 0.039568 0.956062
O O10 0.399488 0.798776 0.583040
O O11 0.250000 0.158222 0.750000
#
# Coordination Sequence:
#
# PCOD9391887 Si02
#       5
#     8   8   8   4   8
#     4  12  25  45  68 101 139 182 234 289 352 423
#     4  12  23  44  70 101 137 180 233 290 354 427
#     4  12  25  44  72  98 138 184 235 291 354 422
#     4  12  24  42  73 101 138 190 228 290 365 421
#     4  12  24  41  69 103 135 179 232 288 354 422
#
# _framework density 22.380935999999998
#
# number of rings (size 3 to 8) (size 9 to 14) (size 15 to 20)
#    0.000    0.000    8.889    2.000    0.000    0.889 
#    0.000    3.889    0.000    1.333    0.000    0.000 
#    0.000    0.000    0.000    0.000    0.000    0.000 
#
# Total GULP energy -200514.326808 kJ/mol
# GULP energy per Si atom -5569.842411 kJ/mol
# Density = 2.233000 g / cm^3
# Si number density = 22.380936 Si / 1000 Ang^3
#
#
#
# Elastic Constant Matrix: (Units=GPa)
#
#
# Indices 1 2 3 4 5 6 
#
# 1 40.9184 17.2605 1.0423 0.0000 0.0000 0.0000
# 2 17.2605 91.6678 33.9157 0.0000 0.0000 0.0000
# 3 1.0423 33.9157 160.4005 0.0000 0.0000 0.0000
# 4 0.0000 0.0000 0.0000 34.0140 0.0000 0.0000
# 5 0.0000 0.0000 0.0000 0.0000 17.1134 0.0000
# 6 0.0000 0.0000 0.0000 0.0000 0.0000 -5.9080
#
#
#
# Elastic Compliance Matrix: (Units=1/GPa)
#
#
# Indices 1 2 3 4 5 6 
#
# 1 0.026684 -0.005381 0.000964 0.000000 0.000000 0.000000
# 2 -0.005381 0.012920 -0.002697 0.000000 0.000000 0.000000
# 3 0.000964 -0.002697 0.006798 0.000000 0.000000 0.000000
# 4 0.000000 0.000000 0.000000 0.029400 0.000000 0.000000
# 5 0.000000 0.000000 0.000000 0.000000 0.058434 0.000000
# 6 0.000000 0.000000 0.000000 0.000000 0.000000 -0.169261
#
#
# Mechanical properties :
#
#
# Convention : Reuss Voigt Hill
#
# Bulk Modulus (GPa) = 31.07986 44.15821 37.61904
# Shear Modulus (GPa) = -496.40462 25.09509 -235.65476
#
# Velocity S-wave (km/s) = -14.90904 3.35217 -10.27235
# Velocity P-wave (km/s) = 16.80642 5.89541 11.12879
#
# Compressibility (1/GPa) = 0.03217517
#
# Stress axis : x y z
#
# Youngs Moduli (GPa) = 37.47521 77.39921 147.09413
#
# Poissons Ratio (x) = 0.41651 -0.14186
# Poissons Ratio (y) = 0.20167 0.39670
# Poissons Ratio (z) = -0.03614 0.20874
#
# Static dielectric constant tensor:
#      x y z
#    x 1.947690 0.000000 0.000000 
#    y 0.000000 1.889880 0.000000 
#    z 0.000000 0.000000 1.499420 
# 
# From -- ./inp_files/12215.got.cif
#   From: 2010.05.17/outbox.cif.g08.bks.cpg/sg48_7_cif.got.tgz:12215.got - 2010.06.03 20:39:00.
