data_PCOD9391862
_publ_section_title
;
Structure prediction by ZEFSAII (Michael W. Deem and Ramdas Pophale) SiO2 
 PCOD9391862
Probable space group: P N N N
;
_chemical_formula_sum "Si O2"
_cell_formula_units_Z 30
_cell_length_a 10.758142
_cell_length_b 18.389206
_cell_length_c 6.926586
_cell_angle_alpha 90.000000
_cell_angle_beta 90.000000
_cell_angle_gamma 90.000000
_cell_volume 1370.312063
_symmetry_space_group_name_H-M "P N N N"
_symmetry_group_IT_number 48
_space_group.IT_coordinate_system_code '2'
_symmetry_cell_setting 'orthorhombic'
loop_
_space_group_symop_operation_xyz
x,y,z
1/2-x,1/2-y,z
x,1/2-y,1/2-z
1/2-x,y,1/2-z
-x,-y,-z
1/2+x,1/2+y,-z
-x,1/2+y,1/2+z
1/2+x,-y,1/2+z
loop_
_atom_site_type_symbol
_atom_site_label
_atom_site_fract_x
_atom_site_fract_y
_atom_site_fract_z
Si Si1 0.750000 0.750000 0.750000
Si Si2 0.381485 0.375300 0.025664
Si Si3 0.250000 0.019478 0.750000
Si Si4 0.472579 0.569453 0.627851
Si Si5 0.396294 0.662753 0.272235
O O1 0.669091 0.798667 0.602821
O O2 0.277128 0.424293 0.923003
O O3 0.500900 0.367355 0.881368
O O4 0.421549 0.412708 0.223103
O O5 0.138745 0.962558 0.752649
O O6 0.500000 0.500000 0.500000
O O7 0.438354 0.634812 0.483618
O O8 0.399492 0.750000 0.250000
O O9 0.250000 0.639918 0.250000
#
# Coordination Sequence:
#
# PCOD9391862 Si02
#       5
#     2   8   4   8   8
#     4  12  28  46  80 106 158 192 250 316 376 452
#     4  12  27  48  70 114 142 194 247 307 375 441
#     4  12  26  43  78 107 152 192 242 318 370 444
#     4  12  25  45  70 106 147 189 243 302 370 442
#     4  11  26  47  74 104 148 199 244 301 372 452
#
# _framework density 21.892824000000001
#
# number of rings (size 3 to 8) (size 9 to 14) (size 15 to 20)
#    0.000    0.267    2.667    5.600    7.467    0.000 
#    0.000    2.667    0.000    0.000    0.000    0.000 
#    0.000    0.000    0.000    0.000    0.000    0.000 
#
# Total GULP energy -167537.142247 kJ/mol
# GULP energy per Si atom -5584.571408 kJ/mol
# Density = 2.184299 g / cm^3
# Si number density = 21.892824 Si / 1000 Ang^3
#
#
#
# Elastic Constant Matrix: (Units=GPa)
#
#
# Indices 1 2 3 4 5 6 
#
# 1 66.5207 22.7733 38.2710 0.0000 0.0000 0.0000
# 2 22.7733 103.9035 51.7495 0.0000 0.0000 0.0000
# 3 38.2710 51.7495 132.7607 0.0000 0.0000 0.0000
# 4 0.0000 0.0000 0.0000 87.0340 0.0000 0.0000
# 5 0.0000 0.0000 0.0000 0.0000 359.8463 0.0000
# 6 0.0000 0.0000 0.0000 0.0000 0.0000 33.9833
#
#
#
# Elastic Compliance Matrix: (Units=1/GPa)
#
#
# Indices 1 2 3 4 5 6 
#
# 1 0.018264 -0.001714 -0.004597 0.000000 0.000000 0.000000
# 2 -0.001714 0.012104 -0.004224 0.000000 0.000000 0.000000
# 3 -0.004597 -0.004224 0.010504 0.000000 0.000000 0.000000
# 4 0.000000 0.000000 0.000000 0.011490 0.000000 0.000000
# 5 0.000000 0.000000 0.000000 0.000000 0.002779 0.000000
# 6 0.000000 0.000000 0.000000 0.000000 0.000000 0.029426
#
#
# Mechanical properties :
#
#
# Convention : Reuss Voigt Hill
#
# Bulk Modulus (GPa) = 50.49797 58.75251 54.62524
# Shear Modulus (GPa) = 44.54845 108.86547 76.70696
#
# Velocity S-wave (km/s) = 4.51582 7.05936 5.92567
# Velocity P-wave (km/s) = 7.09269 9.66130 8.47487
#
# Compressibility (1/GPa) = 0.01980278
#
# Stress axis : x y z
#
# Youngs Moduli (GPa) = 54.75132 82.61970 95.20126
#
# Poissons Ratio (x) = 0.14157 0.43766
# Poissons Ratio (y) = 0.09382 0.40213
# Poissons Ratio (z) = 0.25170 0.34898
#
# Static dielectric constant tensor:
#      x y z
#    x 1.761820 0.000000 0.000000 
#    y 0.000000 1.756010 0.000000 
#    z 0.000000 0.000000 1.786540 
# 
# From -- ./inp_files/1829.got.cif
#   From: 2010.05.17/outbox.cif.g08.bks.cpg/sg48_1_cif.got.tgz:1829.got - 2010.06.03 20:39:00.
