data_PCOD9391929
_publ_section_title
;
Structure prediction by ZEFSAII (Michael W. Deem and Ramdas Pophale) SiO2 
 PCOD9391929
Probable space group: P N N N
;
_chemical_formula_sum "Si O2"
_cell_formula_units_Z 32
_cell_length_a 14.754812
_cell_length_b 11.542923
_cell_length_c 8.031155
_cell_angle_alpha 90.000000
_cell_angle_beta 90.000000
_cell_angle_gamma 90.000000
_cell_volume 1367.815392
_symmetry_space_group_name_H-M "P N N N"
_symmetry_group_IT_number 48
_space_group.IT_coordinate_system_code '2'
_symmetry_cell_setting 'orthorhombic'
loop_
_space_group_symop_operation_xyz
x,y,z
1/2-x,1/2-y,z
x,1/2-y,1/2-z
1/2-x,y,1/2-z
-x,-y,-z
1/2+x,1/2+y,-z
-x,1/2+y,1/2+z
1/2+x,-y,1/2+z
loop_
_atom_site_type_symbol
_atom_site_label
_atom_site_fract_x
_atom_site_fract_y
_atom_site_fract_z
Si Si1 0.459873 0.923606 0.181183
Si Si2 0.118336 0.364582 0.326679
Si Si3 0.345006 0.005277 0.666084
Si Si4 0.426578 0.791333 0.521460
O O1 0.565918 0.949039 0.229952
O O2 0.425390 0.854543 0.343109
O O3 0.433356 0.844024 0.024157
O O4 0.403487 0.041788 0.184326
O O5 0.160141 0.250000 0.250000
O O6 0.158846 0.428309 0.487697
O O7 0.021449 0.323981 0.396659
O O8 0.250000 0.028306 0.750000
O O9 0.356815 0.866856 0.630252
#
# Coordination Sequence:
#
# PCOD9391929 Si02
#       4
#     8   8   8   8
#     4   8  15  30  52  80 117 165 214 249 292 374
#     4   9  17  29  50  85 123 163 210 250 303 385
#     4   9  17  31  55  86 123 163 208 268 323 363
#     4   8  15  30  52  81 116 159 211 251 295 373
#
# _framework density 23.394973
#
# number of rings (size 3 to 8) (size 9 to 14) (size 15 to 20)
#    0.000    3.500    0.000    3.000    0.000    1.000 
#    0.000   10.000    0.000   16.500    0.000    0.000 
#    0.000   96.000    0.000    8.000    0.000   12.000 
#
# Total GULP energy -178382.740597 kJ/mol
# GULP energy per Si atom -5574.460644 kJ/mol
# Density = 2.334172 g / cm^3
# Si number density = 23.394973 Si / 1000 Ang^3
#
#
#
# Elastic Constant Matrix: (Units=GPa)
#
#
# Indices 1 2 3 4 5 6 
#
# 1 81.7448 52.5367 20.6354 0.0000 0.0000 0.0000
# 2 52.5367 197.7739 66.3096 0.0000 0.0000 0.0000
# 3 20.6354 66.3096 83.1489 0.0000 0.0000 0.0000
# 4 0.0000 0.0000 0.0000 55.7325 0.0000 0.0000
# 5 0.0000 0.0000 0.0000 0.0000 9.0866 0.0000
# 6 0.0000 0.0000 0.0000 0.0000 0.0000 6.9449
#
#
#
# Elastic Compliance Matrix: (Units=1/GPa)
#
#
# Indices 1 2 3 4 5 6 
#
# 1 0.014784 -0.003681 -0.000733 0.000000 0.000000 0.000000
# 2 -0.003681 0.007818 -0.005321 0.000000 0.000000 0.000000
# 3 -0.000733 -0.005321 0.016452 0.000000 0.000000 0.000000
# 4 0.000000 0.000000 0.000000 0.017943 0.000000 0.000000
# 5 0.000000 0.000000 0.000000 0.000000 0.110052 0.000000
# 6 0.000000 0.000000 0.000000 0.000000 0.000000 0.143992
#
#
# Mechanical properties :
#
#
# Convention : Reuss Voigt Hill
#
# Bulk Modulus (GPa) = 51.06487 71.29232 61.17860
# Shear Modulus (GPa) = 14.83498 29.23186 22.03342
#
# Velocity S-wave (km/s) = 2.52089 3.53865 3.07221
# Velocity P-wave (km/s) = 5.50889 6.87281 6.22830
#
# Compressibility (1/GPa) = 0.01958293
#
# Stress axis : x y z
#
# Youngs Moduli (GPa) = 67.63919 127.90390 60.78197
#
# Poissons Ratio (x) = 0.47088 0.04456
# Poissons Ratio (y) = 0.24901 0.32344
# Poissons Ratio (z) = 0.04959 0.68062
#
# Static dielectric constant tensor:
#      x y z
#    x 1.841710 0.000000 0.000000 
#    y 0.000000 2.004900 0.000000 
#    z 0.000000 0.000000 2.022310 
# 
# From -- ./inp_files/10248.got.cif
#   From: 2010.05.17/outbox.cif.g08.bks.cpg/sg48_6_cif.got.tgz:10248.got - 2010.06.03 20:39:00.
