data_PCOD9391927
_publ_section_title
;
Structure prediction by ZEFSAII (Michael W. Deem and Ramdas Pophale) SiO2 
 PCOD9391927
Probable space group: P N N N
;
_chemical_formula_sum "Si O2"
_cell_formula_units_Z 26
_cell_length_a 7.973089
_cell_length_b 19.611131
_cell_length_c 7.292738
_cell_angle_alpha 90.000000
_cell_angle_beta 90.000000
_cell_angle_gamma 90.000000
_cell_volume 1140.301942
_symmetry_space_group_name_H-M "P N N N"
_symmetry_group_IT_number 48
_space_group.IT_coordinate_system_code '2'
_symmetry_cell_setting 'orthorhombic'
loop_
_space_group_symop_operation_xyz
x,y,z
1/2-x,1/2-y,z
x,1/2-y,1/2-z
1/2-x,y,1/2-z
-x,-y,-z
1/2+x,1/2+y,-z
-x,1/2+y,1/2+z
1/2+x,-y,1/2+z
loop_
_atom_site_type_symbol
_atom_site_label
_atom_site_fract_x
_atom_site_fract_y
_atom_site_fract_z
Si Si1 0.060203 0.424386 0.464209
Si Si2 0.250000 0.250000 0.250000
Si Si3 0.242575 0.671250 0.525577
Si Si4 0.088251 0.375265 0.054191
O O1 0.065854 0.416276 0.243493
O O2 0.246479 0.406889 0.535891
O O3 0.000000 0.500000 0.500000
O O4 0.925904 0.367974 0.527125
O O5 0.139071 0.299167 0.123570
O O6 0.250000 0.750000 0.469105
O O7 0.250000 0.670527 0.750000
O O8 0.408960 0.631347 0.460232
#
# Coordination Sequence:
#
# PCOD9391927 Si02
#       4
#     8   2   8   8
#     4   9  17  26  37  58  85 108 134 164 197 245
#     4   8  12  24  42  60  80 102 120 156 206 248
#     4   9  15  25  42  61  81 104 130 164 210 258
#     4   9  16  26  41  59  83 110 132 162 209 253
#
# _framework density 22.800977
#
# number of rings (size 3 to 8) (size 9 to 14) (size 15 to 20)
#    0.000    3.385    0.000    5.538    0.000    1.231 
#    0.000    0.000    0.000    0.000    0.000    4.308 
#    0.000    0.000    0.000    0.000    0.000    0.000 
#
# Total GULP energy -145196.786742 kJ/mol
# GULP energy per Si atom -5584.491798 kJ/mol
# Density = 2.274908 g / cm^3
# Si number density = 22.800977 Si / 1000 Ang^3
#
#
#
# Elastic Constant Matrix: (Units=GPa)
#
#
# Indices 1 2 3 4 5 6 
#
# 1 230.1344 71.3853 14.3921 0.0000 0.0000 0.0000
# 2 71.3853 154.4733 19.2643 0.0000 0.0000 0.0000
# 3 14.3921 19.2643 76.4801 0.0000 0.0000 0.0000
# 4 0.0000 0.0000 0.0000 -10.2577 0.0000 0.0000
# 5 0.0000 0.0000 0.0000 0.0000 -16.7116 0.0000
# 6 0.0000 0.0000 0.0000 0.0000 0.0000 6.8507
#
#
#
# Elastic Compliance Matrix: (Units=1/GPa)
#
#
# Indices 1 2 3 4 5 6 
#
# 1 0.005083 -0.002302 -0.000377 0.000000 0.000000 0.000000
# 2 -0.002302 0.007726 -0.001513 0.000000 0.000000 0.000000
# 3 -0.000377 -0.001513 0.013527 0.000000 0.000000 0.000000
# 4 0.000000 0.000000 0.000000 -0.097487 0.000000 0.000000
# 5 0.000000 0.000000 0.000000 0.000000 -0.059839 0.000000
# 6 0.000000 0.000000 0.000000 0.000000 0.000000 0.145970
#
#
# Mechanical properties :
#
#
# Convention : Reuss Voigt Hill
#
# Bulk Modulus (GPa) = 55.70048 74.57457 65.13752
# Shear Modulus (GPa) = 170.37199 19.71270 95.04234
#
# Velocity S-wave (km/s) = 8.65353 2.94352 6.46328
# Velocity P-wave (km/s) = 11.15019 6.65809 9.18305
#
# Compressibility (1/GPa) = 0.01795317
#
# Stress axis : x y z
#
# Youngs Moduli (GPa) = 196.73896 129.43222 73.92484
#
# Poissons Ratio (x) = 0.29794 0.02785
# Poissons Ratio (y) = 0.45288 0.11184
# Poissons Ratio (z) = 0.07411 0.19582
#
# Static dielectric constant tensor:
#      x y z
#    x 1.946680 0.000000 0.000000 
#    y 0.000000 1.824690 0.000000 
#    z 0.000000 0.000000 2.025850 
# 
# From -- ./inp_files/8307.got.cif
#   From: 2010.05.17/outbox.cif.g08.bks.cpg/sg48_5_cif.got.tgz:8307.got - 2010.06.03 20:39:00.
