data_PCOD9391985
_publ_section_title
;
Structure prediction by ZEFSAII (Michael W. Deem and Ramdas Pophale) SiO2 
 PCOD9391985
Probable space group: P C C M
;
_chemical_formula_sum "Si O2"
_cell_formula_units_Z 28
_cell_length_a 25.617923
_cell_length_b 10.779211
_cell_length_c 5.506636
_cell_angle_alpha 90.000000
_cell_angle_beta 90.000000
_cell_angle_gamma 90.000000
_cell_volume 1520.607957
_symmetry_space_group_name_H-M "P C C M"
_symmetry_group_IT_number 49
_symmetry_cell_setting 'orthorhombic'
loop_
_space_group_symop_operation_xyz
x,y,z
-x,-y,z
x,-y,1/2-z
-x,y,1/2-z
-x,-y,-z
x,y,-z
-x,y,1/2+z
x,-y,1/2+z
loop_
_atom_site_type_symbol
_atom_site_label
_atom_site_fract_x
_atom_site_fract_y
_atom_site_fract_z
Si Si1 0.853946 0.373190 0.500000
Si Si2 0.967998 0.338695 0.500000
Si Si3 0.521535 0.359066 0.500000
Si Si4 0.646239 0.362826 0.500000
Si Si5 0.812319 0.649333 0.500000
Si Si6 0.311263 0.648231 0.000000
Si Si7 0.059773 0.050112 0.000000
O O1 0.914277 0.413848 0.500000
O O2 0.821312 0.500452 0.500000
O O3 0.839167 0.305387 0.750728
O O4 0.946866 0.197360 0.500000
O O5 0.000000 0.357128 0.250000
O O6 0.500000 0.500000 0.500000
O O7 0.500000 0.301307 0.250000
O O8 0.583880 0.369410 0.500000
O O9 0.665336 0.301460 0.749195
O O10 0.671714 0.501754 0.500000
O O11 0.750582 0.666562 0.500000
O O12 0.083965 0.000000 0.750000
O O13 0.000000 0.000000 0.000000
#
# Coordination Sequence:
#
# PCOD9391985 Si02
#       7
#     4   4   4   4   4   4   4
#     4  10  20  32  46  59  76 101 124 152 181 235
#     4  12  21  32  47  67  84  98 125 148 174 212
#     4  10  16  22  28  39  66  91 100 130 184 238
#     4  10  16  22  33  53  60  77 121 150 180 222
#     4  10  19  35  44  54  76 102 128 155 207 222
#     4  10  16  25  41  50  60  82 117 165 180 214
#     4  10  16  30  48  66  83 102 116 141 173 210
#
# _framework density 18.413688
#
# number of rings (size 3 to 8) (size 9 to 14) (size 15 to 20)
#    0.000    1.714    2.857    9.429    0.000    0.000 
#    0.000    8.571    0.000    0.000    0.000    0.000 
#    0.000    0.000    0.000    0.000    0.000    0.000 
#
# Total GULP energy -156072.033030 kJ/mol
# GULP energy per Si atom -5574.001180 kJ/mol
# Density = 1.837178 g / cm^3
# Si number density = 18.413688 Si / 1000 Ang^3
#
#
#
# Elastic Constant Matrix: (Units=GPa)
#
#
# Indices 1 2 3 4 5 6 
#
# 1 149.2563 -10.8232 80.7092 0.0000 0.0000 0.0000
# 2 -10.8232 23.1505 -0.0065 0.0000 0.0000 0.0000
# 3 80.7092 -0.0065 253.9198 0.0000 0.0000 0.0000
# 4 0.0000 0.0000 0.0000 -2.0576 0.0000 0.0000
# 5 0.0000 0.0000 0.0000 0.0000 28.4085 0.0000
# 6 0.0000 0.0000 0.0000 0.0000 0.0000 0.3545
#
#
#
# Elastic Compliance Matrix: (Units=1/GPa)
#
#
# Indices 1 2 3 4 5 6 
#
# 1 0.008436 0.003943 -0.002681 0.000000 0.000000 0.000000
# 2 0.003943 0.045039 -0.001252 0.000000 0.000000 0.000000
# 3 -0.002681 -0.001252 0.004790 0.000000 0.000000 0.000000
# 4 0.000000 0.000000 0.000000 -0.485995 0.000000 0.000000
# 5 0.000000 0.000000 0.000000 0.000000 0.035201 0.000000
# 6 0.000000 0.000000 0.000000 0.000000 0.000000 2.820965
#
#
# Mechanical properties :
#
#
# Convention : Reuss Voigt Hill
#
# Bulk Modulus (GPa) = 17.15735 62.89839 40.02787
# Shear Modulus (GPa) = 2.04261 29.10422 15.57342
#
# Velocity S-wave (km/s) = 1.05437 3.97996 2.91134
# Velocity P-wave (km/s) = 3.28941 7.43994 5.75208
#
# Compressibility (1/GPa) = 0.05828404
#
# Stress axis : x y z
#
# Youngs Moduli (GPa) = 118.54461 22.20318 208.74887
#
# Poissons Ratio (x) = -0.08755 0.55970
# Poissons Ratio (y) = -0.46742 0.26138
# Poissons Ratio (z) = 0.31784 0.02780
#
# Static dielectric constant tensor:
#      x y z
#    x 1.573260 0.000000 0.000000 
#    y 0.000000 1.643290 0.000000 
#    z 0.000000 0.000000 1.835970 
# 
# From -- ./inp_files/653.got.cif
#   From: 2010.05.17/outbox.cif.g08.bks.cpg/sg49_1_cif.got.tgz:653.got - 2010.06.03 21:02:19.
