data_PCOD9391811
_publ_section_title
;
Structure prediction by ZEFSAII (Michael W. Deem and Ramdas Pophale) SiO2 
 PCOD9391811
Probable space group: P N N N
;
_chemical_formula_sum "Si O2"
_cell_formula_units_Z 48
_cell_length_a 22.643573
_cell_length_b 7.523129
_cell_length_c 11.677035
_cell_angle_alpha 90.000000
_cell_angle_beta 90.000000
_cell_angle_gamma 90.000000
_cell_volume 1989.188992
_symmetry_space_group_name_H-M "P N N N"
_symmetry_group_IT_number 48
_space_group.IT_coordinate_system_code '2'
_symmetry_cell_setting 'orthorhombic'
loop_
_space_group_symop_operation_xyz
x,y,z
1/2-x,1/2-y,z
x,1/2-y,1/2-z
1/2-x,y,1/2-z
-x,-y,-z
1/2+x,1/2+y,-z
-x,1/2+y,1/2+z
1/2+x,-y,1/2+z
loop_
_atom_site_type_symbol
_atom_site_label
_atom_site_fract_x
_atom_site_fract_y
_atom_site_fract_z
Si Si1 0.076752 0.523487 0.038009
Si Si2 0.454671 0.577116 0.091971
Si Si3 0.484277 0.575624 0.688875
Si Si4 0.802529 0.972854 0.500288
Si Si5 0.669676 0.546504 0.000153
Si Si6 0.679038 0.950122 0.247591
O O1 0.051152 0.714872 0.067730
O O2 0.041144 0.377976 0.110104
O O3 0.144129 0.535119 0.077698
O O4 0.060883 0.493772 0.903554
O O5 0.486913 0.541490 0.212033
O O6 0.388067 0.497851 0.073620
O O7 0.500000 0.500000 0.000000
O O8 0.458895 0.750000 0.750000
O O9 0.735863 0.020340 0.532349
O O10 0.815750 0.759233 0.492855
O O11 0.821899 0.045215 0.374853
O O12 0.658809 0.475815 0.130230
O O13 0.652931 0.750000 0.250000
O O14 0.750000 0.927949 0.250000
#
# Coordination Sequence:
#
# PCOD9391811 Si02
#       6
#     8   8   8   8   8   8
#     4  11  25  42  68  98 132 179 221 280 337 399
#     4  12  25  42  64  96 135 177 220 273 335 397
#     4  11  24  46  66  94 135 173 225 277 332 405
#     4   9  18  36  63  94 128 172 224 270 332 396
#     4   9  19  36  61  94 132 173 218 274 328 403
#     4   7  12  26  50  85 123 158 204 259 315 378
#
# _framework density 24.130437000000001
#
# number of rings (size 3 to 8) (size 9 to 14) (size 15 to 20)
#    0.000    2.167    1.667    3.500    4.667    0.667 
#    0.000    0.833    0.000    8.000    0.000    0.000 
#    0.000    0.000    0.000    0.000    0.000    0.000 
#
# Total GULP energy -267383.777072 kJ/mol
# GULP energy per Si atom -5570.495356 kJ/mol
# Density = 2.407552 g / cm^3
# Si number density = 24.130437 Si / 1000 Ang^3
#
#
#
# Elastic Constant Matrix: (Units=GPa)
#
#
# Indices 1 2 3 4 5 6 
#
# 1 170.4707 14.4063 32.8288 0.0000 0.0000 0.0000
# 2 14.4063 61.0261 11.7565 0.0000 0.0000 0.0000
# 3 32.8288 11.7565 77.0861 0.0000 0.0000 0.0000
# 4 0.0000 0.0000 0.0000 9.6650 0.0000 0.0000
# 5 0.0000 0.0000 0.0000 0.0000 8.6149 0.0000
# 6 0.0000 0.0000 0.0000 0.0000 0.0000 12.5917
#
#
#
# Elastic Compliance Matrix: (Units=1/GPa)
#
#
# Indices 1 2 3 4 5 6 
#
# 1 0.006452 -0.001024 -0.002591 0.000000 0.000000 0.000000
# 2 -0.001024 0.017045 -0.002164 0.000000 0.000000 0.000000
# 3 -0.002591 -0.002164 0.014406 0.000000 0.000000 0.000000
# 4 0.000000 0.000000 0.000000 0.103467 0.000000 0.000000
# 5 0.000000 0.000000 0.000000 0.000000 0.116078 0.000000
# 6 0.000000 0.000000 0.000000 0.000000 0.000000 0.079417
#
#
# Mechanical properties :
#
#
# Convention : Reuss Voigt Hill
#
# Bulk Modulus (GPa) = 37.95768 47.39623 42.67695
# Shear Modulus (GPa) = 13.99759 22.81373 18.40566
#
# Velocity S-wave (km/s) = 2.41110 3.07813 2.76480
# Velocity P-wave (km/s) = 4.84928 5.68485 5.28361
#
# Compressibility (1/GPa) = 0.02634513
#
# Stress axis : x y z
#
# Youngs Moduli (GPa) = 154.99823 58.66858 69.41502
#
# Poissons Ratio (x) = 0.06006 0.17989
# Poissons Ratio (y) = 0.15869 0.15018
# Poissons Ratio (z) = 0.40167 0.12693
#
# Static dielectric constant tensor:
#      x y z
#    x 2.051030 0.000000 0.000000 
#    y 0.000000 2.008280 0.000000 
#    z 0.000000 0.000000 2.123960 
# 
# From -- ./inp_files/23283.got.cif
#   From: 2010.05.17/outbox.cif.g08.bks.cpg/sg48_12_cif.got.tgz:23283.got - 2010.06.03 20:39:00.
