data_PCOD9391589
_publ_section_title
;
Structure prediction by ZEFSAII (Michael W. Deem and Ramdas Pophale) SiO2 
 PCOD9391589
Probable space group: P N N N
;
_chemical_formula_sum "Si O2"
_cell_formula_units_Z 48
_cell_length_a 11.420800
_cell_length_b 24.652794
_cell_length_c 8.681200
_cell_angle_alpha 90.000000
_cell_angle_beta 90.000000
_cell_angle_gamma 90.000000
_cell_volume 2444.232051
_symmetry_space_group_name_H-M "P N N N"
_symmetry_group_IT_number 48
_space_group.IT_coordinate_system_code '2'
_symmetry_cell_setting 'orthorhombic'
loop_
_space_group_symop_operation_xyz
x,y,z
1/2-x,1/2-y,z
x,1/2-y,1/2-z
1/2-x,y,1/2-z
-x,-y,-z
1/2+x,1/2+y,-z
-x,1/2+y,1/2+z
1/2+x,-y,1/2+z
loop_
_atom_site_type_symbol
_atom_site_label
_atom_site_fract_x
_atom_site_fract_y
_atom_site_fract_z
Si Si1 0.539132 0.408269 0.842821
Si Si2 0.620092 0.308055 0.684361
Si Si3 0.379062 0.695247 0.678869
Si Si4 0.688501 0.975624 0.396385
Si Si5 0.553360 0.084979 0.323959
Si Si6 0.601523 0.992504 0.868426
O O1 0.532939 0.355652 0.737161
O O2 0.426502 0.439309 0.915513
O O3 0.602613 0.453573 0.738050
O O4 0.587513 0.390008 0.007588
O O5 0.584851 0.250000 0.750000
O O6 0.750000 0.321856 0.750000
O O7 0.627811 0.301080 0.503303
O O8 0.436196 0.750000 0.750000
O O9 0.250000 0.693282 0.750000
O O10 0.433161 0.637063 0.717142
O O11 0.750000 0.948726 0.250000
O O12 0.778842 0.982284 0.536749
O O13 0.640742 0.033245 0.333659
O O14 0.439306 0.055098 0.247756
O O15 0.500000 0.000000 0.000000
#
# Coordination Sequence:
#
# PCOD9391589 Si02
#       6
#     8   8   8   8   8   8
#     4  11  24  37  57  91 123 161 204 255 307 370
#     4  11  23  40  63  91 121 157 203 253 307 369
#     4  11  22  37  59  86 121 158 196 244 307 370
#     4  11  22  37  59  86 126 158 208 249 307 368
#     4  11  23  37  57  88 123 160 201 247 311 368
#     4  11  21  37  58  88 116 166 203 251 311 364
#
# _framework density 19.638069999999999
#
# number of rings (size 3 to 8) (size 9 to 14) (size 15 to 20)
#    0.000    1.000    3.333    7.500    4.667    2.000 
#    0.000    0.000    0.000    0.500    0.000    1.167 
#    0.000    0.000    0.000    0.000    0.000    0.000 
#
# Total GULP energy -267317.390148 kJ/mol
# GULP energy per Si atom -5569.112295 kJ/mol
# Density = 1.959337 g / cm^3
# Si number density = 19.638070 Si / 1000 Ang^3
#
#
#
# Elastic Constant Matrix: (Units=GPa)
#
#
# Indices 1 2 3 4 5 6 
#
# 1 68.8170 36.7624 29.4780 0.0000 0.0000 0.0000
# 2 36.7624 144.0782 57.1575 0.0000 0.0000 0.0000
# 3 29.4780 57.1575 178.4153 0.0000 0.0000 0.0000
# 4 0.0000 0.0000 0.0000 40.1757 0.0000 0.0000
# 5 0.0000 0.0000 0.0000 0.0000 25.6120 0.0000
# 6 0.0000 0.0000 0.0000 0.0000 0.0000 -210.0754
#
#
#
# Elastic Compliance Matrix: (Units=1/GPa)
#
#
# Indices 1 2 3 4 5 6 
#
# 1 0.017238 -0.003744 -0.001648 0.000000 0.000000 0.000000
# 2 -0.003744 0.008765 -0.002189 0.000000 0.000000 0.000000
# 3 -0.001648 -0.002189 0.006579 0.000000 0.000000 0.000000
# 4 0.000000 0.000000 0.000000 0.024891 0.000000 0.000000
# 5 0.000000 0.000000 0.000000 0.000000 0.039044 0.000000
# 6 0.000000 0.000000 0.000000 0.000000 0.000000 -0.004760
#
#
# Mechanical properties :
#
#
# Convention : Reuss Voigt Hill
#
# Bulk Modulus (GPa) = 57.41577 70.90069 64.15823
# Shear Modulus (GPa) = 44.35572 -10.99669 16.67951
#
# Velocity S-wave (km/s) = 4.75769 -2.36893 2.91752
# Velocity P-wave (km/s) = 7.71241 5.35720 6.64006
#
# Compressibility (1/GPa) = 0.01741682
#
# Stress axis : x y z
#
# Youngs Moduli (GPa) = 58.01253 114.09625 152.00811
#
# Poissons Ratio (x) = 0.42721 0.25058
# Poissons Ratio (y) = 0.21722 0.33277
# Poissons Ratio (z) = 0.09563 0.24978
#
# Static dielectric constant tensor:
#      x y z
#    x 1.648340 0.000000 0.000000 
#    y 0.000000 1.733560 0.000000 
#    z 0.000000 0.000000 1.547550 
# 
# From -- ./inp_files/11228.got.cif
#   From: 2010.05.17/outbox.cif.g08.bks.cpg/sg48_6_cif.got.tgz:11228.got - 2010.06.03 20:39:00.
