data_PCOD9391113
_publ_section_title
;
Structure prediction by ZEFSAII (Michael W. Deem and Ramdas Pophale) SiO2 
 PCOD9391113
Probable space group: P N N N
;
_chemical_formula_sum "Si O2"
_cell_formula_units_Z 48
_cell_length_a 15.340270
_cell_length_b 26.654092
_cell_length_c 6.066349
_cell_angle_alpha 90.000000
_cell_angle_beta 90.000000
_cell_angle_gamma 90.000000
_cell_volume 2480.414651
_symmetry_space_group_name_H-M "P N N N"
_symmetry_group_IT_number 48
_space_group.IT_coordinate_system_code '2'
_symmetry_cell_setting 'orthorhombic'
loop_
_space_group_symop_operation_xyz
x,y,z
1/2-x,1/2-y,z
x,1/2-y,1/2-z
1/2-x,y,1/2-z
-x,-y,-z
1/2+x,1/2+y,-z
-x,1/2+y,1/2+z
1/2+x,-y,1/2+z
loop_
_atom_site_type_symbol
_atom_site_label
_atom_site_fract_x
_atom_site_fract_y
_atom_site_fract_z
Si Si1 0.493823 0.642411 0.264239
Si Si2 0.160286 0.302550 0.635538
Si Si3 0.250000 0.558876 0.250000
Si Si4 0.137088 0.889189 0.887523
Si Si5 0.117024 0.703498 0.914503
Si Si6 0.750000 0.750000 0.750000
Si Si7 0.250000 0.750000 0.250000
Si Si8 0.427783 0.956393 0.000771
O O1 0.587661 0.656446 0.172475
O O2 0.463988 0.685050 0.437892
O O3 0.478279 0.590538 0.390297
O O4 0.431812 0.636028 0.053973
O O5 0.133288 0.250000 0.750000
O O6 0.250000 0.318727 0.750000
O O7 0.187948 0.285729 0.392993
O O8 0.213741 0.591465 0.454457
O O9 0.338518 0.533394 0.354483
O O10 0.152238 0.844090 0.719057
O O11 0.101823 0.936046 0.740988
O O12 0.099836 0.750000 0.750000
O O13 0.189413 0.718258 0.090881
O O14 0.500000 0.000000 0.000000
#
# Coordination Sequence:
#
# PCOD9391113 Si02
#       8
#     8   8   4   8   8   2   2   8
#     4  10  23  40  61  92 122 158 209 257 304 376
#     4   9  20  38  58  85 121 160 205 254 306 372
#     4  10  22  41  68  92 122 158 209 255 321 380
#     4  10  23  40  63  90 121 167 203 257 311 372
#     4  11  25  38  55  86 125 169 203 249 299 360
#     4   8  18  36  60  84 112 172 202 250 316 366
#     4  12  26  38  48  86 126 166 210 248 286 354
#     4  10  23  44  66  92 122 161 208 260 322 384
#
# _framework density 19.351602
#
# number of rings (size 3 to 8) (size 9 to 14) (size 15 to 20)
#    0.000    2.167    0.000    1.750    3.500   24.000 
#    1.500    3.333    0.000    1.000    0.000    0.000 
#    0.000    0.000    0.000    0.000    0.000    0.000 
#
# Total GULP energy -267735.664587 kJ/mol
# GULP energy per Si atom -5577.826346 kJ/mol
# Density = 1.930756 g / cm^3
# Si number density = 19.351602 Si / 1000 Ang^3
#
#
#
# Elastic Constant Matrix: (Units=GPa)
#
#
# Indices 1 2 3 4 5 6 
#
# 1 142.2156 67.3969 58.6149 0.0000 0.0000 0.0000
# 2 67.3969 85.1677 58.0129 0.0000 0.0000 0.0000
# 3 58.6149 58.0129 141.3106 0.0000 0.0000 0.0000
# 4 0.0000 0.0000 0.0000 15.4097 0.0000 0.0000
# 5 0.0000 0.0000 0.0000 0.0000 21.6171 0.0000
# 6 0.0000 0.0000 0.0000 0.0000 0.0000 27.9714
#
#
#
# Elastic Compliance Matrix: (Units=1/GPa)
#
#
# Indices 1 2 3 4 5 6 
#
# 1 0.011455 -0.008091 -0.001430 0.000000 0.000000 0.000000
# 2 -0.008091 0.022014 -0.005682 0.000000 0.000000 0.000000
# 3 -0.001430 -0.005682 0.010002 0.000000 0.000000 0.000000
# 4 0.000000 0.000000 0.000000 0.064894 0.000000 0.000000
# 5 0.000000 0.000000 0.000000 0.000000 0.046260 0.000000
# 6 0.000000 0.000000 0.000000 0.000000 0.000000 0.035751
#
#
# Mechanical properties :
#
#
# Convention : Reuss Voigt Hill
#
# Bulk Modulus (GPa) = 76.52967 81.86037 79.19502
# Shear Modulus (GPa) = 22.20862 25.31090 23.75976
#
# Velocity S-wave (km/s) = 3.39135 3.62048 3.50779
# Velocity P-wave (km/s) = 7.41403 7.73761 7.57755
#
# Compressibility (1/GPa) = 0.01306683
#
# Stress axis : x y z
#
# Youngs Moduli (GPa) = 87.29537 45.42471 99.97787
#
# Poissons Ratio (x) = 0.36754 0.14296
# Poissons Ratio (y) = 0.70632 0.56803
# Poissons Ratio (z) = 0.12483 0.25808
#
# Static dielectric constant tensor:
#      x y z
#    x 1.641800 0.000000 0.000000 
#    y 0.000000 1.629060 0.000000 
#    z 0.000000 0.000000 1.681670 
# 
# From -- ./inp_files/3601.got.cif
#   From: 2010.05.17/outbox.cif.g08.bks.cpg/sg48_2_cif.got.tgz:3601.got - 2010.06.03 20:39:00.
