data_PCOD9391735
_publ_section_title
;
Structure prediction by ZEFSAII (Michael W. Deem and Ramdas Pophale) SiO2 
 PCOD9391735
Probable space group: P N N N
;
_chemical_formula_sum "Si O2"
_cell_formula_units_Z 36
_cell_length_a 13.993430
_cell_length_b 6.323690
_cell_length_c 17.624736
_cell_angle_alpha 90.000000
_cell_angle_beta 90.000000
_cell_angle_gamma 90.000000
_cell_volume 1559.614887
_symmetry_space_group_name_H-M "P N N N"
_symmetry_group_IT_number 48
_space_group.IT_coordinate_system_code '2'
_symmetry_cell_setting 'orthorhombic'
loop_
_space_group_symop_operation_xyz
x,y,z
1/2-x,1/2-y,z
x,1/2-y,1/2-z
1/2-x,y,1/2-z
-x,-y,-z
1/2+x,1/2+y,-z
-x,1/2+y,1/2+z
1/2+x,-y,1/2+z
loop_
_atom_site_type_symbol
_atom_site_label
_atom_site_fract_x
_atom_site_fract_y
_atom_site_fract_z
Si Si1 0.250000 0.250000 0.750000
Si Si2 0.250000 0.750000 0.250000
Si Si3 0.965777 0.315700 0.162749
Si Si4 0.892936 0.998317 0.856619
Si Si5 0.403899 0.203172 0.640158
Si Si6 0.656506 0.101071 0.471173
O O1 0.179598 0.375532 0.696015
O O2 0.184678 0.903190 0.198638
O O3 0.942729 0.250000 0.250000
O O4 0.915792 0.207054 0.089265
O O5 0.078499 0.250542 0.151700
O O6 0.928293 0.947081 0.348349
O O7 0.995902 0.099245 0.838063
O O8 0.870728 0.077644 0.941326
O O9 0.357520 0.140292 0.559718
O O10 0.750000 0.250000 0.465691
#
# Coordination Sequence:
#
# PCOD9391735 Si02
#       6
#     2   2   8   8   8   8
#     4  12  22  40  70 106 136 180 238 300 382 454
#     4  12  22  48  78  98 150 210 262 332 390 474
#     4  11  23  42  70 103 142 192 250 312 381 459
#     4  11  25  45  71 101 146 202 254 317 394 466
#     4  11  23  42  69 104 147 191 244 318 383 461
#     4  11  24  43  68 107 148 196 249 313 390 468
#
# _framework density 23.082621
#
# number of rings (size 3 to 8) (size 9 to 14) (size 15 to 20)
#    0.000    0.889    1.111    8.667    0.000    4.000 
#    0.000    6.111    0.000    0.000    0.000    0.000 
#    0.000    0.000    0.000    0.000    0.000    0.000 
#
# Total GULP energy -200466.701020 kJ/mol
# GULP energy per Si atom -5568.519473 kJ/mol
# Density = 2.303008 g / cm^3
# Si number density = 23.082621 Si / 1000 Ang^3
#
#
#
# Elastic Constant Matrix: (Units=GPa)
#
#
# Indices 1 2 3 4 5 6 
#
# 1 163.1470 48.1853 86.2270 0.0000 0.0000 0.0000
# 2 48.1853 122.6121 56.3750 0.0000 0.0000 0.0000
# 3 86.2270 56.3750 197.9209 0.0000 0.0000 0.0000
# 4 0.0000 0.0000 0.0000 17.0040 0.0000 0.0000
# 5 0.0000 0.0000 0.0000 0.0000 15.0054 0.0000
# 6 0.0000 0.0000 0.0000 0.0000 0.0000 36.9333
#
#
#
# Elastic Compliance Matrix: (Units=1/GPa)
#
#
# Indices 1 2 3 4 5 6 
#
# 1 0.008310 -0.001842 -0.003095 0.000000 0.000000 0.000000
# 2 -0.001842 0.009793 -0.001987 0.000000 0.000000 0.000000
# 3 -0.003095 -0.001987 0.006967 0.000000 0.000000 0.000000
# 4 0.000000 0.000000 0.000000 0.058810 0.000000 0.000000
# 5 0.000000 0.000000 0.000000 0.000000 0.066643 0.000000
# 6 0.000000 0.000000 0.000000 0.000000 0.000000 0.027076
#
#
# Mechanical properties :
#
#
# Convention : Reuss Voigt Hill
#
# Bulk Modulus (GPa) = 89.12102 96.13938 92.63020
# Shear Modulus (GPa) = 25.61636 33.31473 29.46554
#
# Velocity S-wave (km/s) = 3.33493 3.80318 3.57673
# Velocity P-wave (km/s) = 7.31590 7.81192 7.56798
#
# Compressibility (1/GPa) = 0.01122070
#
# Stress axis : x y z
#
# Youngs Moduli (GPa) = 120.34311 102.11006 143.53364
#
# Poissons Ratio (x) = 0.18812 0.44430
# Poissons Ratio (y) = 0.22172 0.28518
# Poissons Ratio (z) = 0.37251 0.20288
#
# Static dielectric constant tensor:
#      x y z
#    x 1.869150 0.000000 0.000000 
#    y 0.000000 2.288580 0.000000 
#    z 0.000000 0.000000 1.874080 
# 
# From -- ./inp_files/25038.got.cif
#   From: 2010.05.17/outbox.cif.g08.bks.cpg/sg48_13_cif.got.tgz:25038.got - 2010.06.03 20:39:00.
