data_PCOD9391536
_publ_section_title
;
Structure prediction by ZEFSAII (Michael W. Deem and Ramdas Pophale) SiO2 
 PCOD9391536
Probable space group: P N N N
;
_chemical_formula_sum "Si O2"
_cell_formula_units_Z 64
_cell_length_a 12.004554
_cell_length_b 12.841561
_cell_length_c 24.232477
_cell_angle_alpha 90.000000
_cell_angle_beta 90.000000
_cell_angle_gamma 90.000000
_cell_volume 3735.611106
_symmetry_space_group_name_H-M "P N N N"
_symmetry_group_IT_number 48
_space_group.IT_coordinate_system_code '2'
_symmetry_cell_setting 'orthorhombic'
loop_
_space_group_symop_operation_xyz
x,y,z
1/2-x,1/2-y,z
x,1/2-y,1/2-z
1/2-x,y,1/2-z
-x,-y,-z
1/2+x,1/2+y,-z
-x,1/2+y,1/2+z
1/2+x,-y,1/2+z
loop_
_atom_site_type_symbol
_atom_site_label
_atom_site_fract_x
_atom_site_fract_y
_atom_site_fract_z
Si Si1 0.972916 0.167673 0.021565
Si Si2 0.032698 0.459742 0.586770
Si Si3 0.770088 0.531559 0.044254
Si Si4 0.621448 0.373627 0.818199
Si Si5 0.160703 0.177620 0.446029
Si Si6 0.877634 0.125095 0.687978
Si Si7 0.019623 0.518688 0.090980
Si Si8 0.319624 0.665356 0.480303
O O1 0.079608 0.239839 0.026775
O O2 0.979022 0.080015 0.068527
O O3 0.876708 0.254904 0.022807
O O4 0.979926 0.109069 0.962725
O O5 0.166685 0.442579 0.583903
O O6 0.966133 0.429736 0.641772
O O7 0.891462 0.517509 0.072007
O O8 0.780428 0.615837 0.995877
O O9 0.749675 0.423332 0.011347
O O10 0.608822 0.395859 0.752938
O O11 0.750737 0.401473 0.830649
O O12 0.608428 0.248516 0.822403
O O13 0.250000 0.250000 0.413992
O O14 0.085134 0.090479 0.416044
O O15 0.964077 0.060457 0.652240
O O16 0.086592 0.602287 0.052858
O O17 0.250000 0.750000 0.444736
#
# Coordination Sequence:
#
# PCOD9391536 Si02
#       8
#     8   8   8   8   8   8   8   8
#     4  11  21  34  49  79 115 145 182 214 258 333
#     4  11  23  32  54  82 108 145 183 220 271 320
#     4  11  21  35  48  77 117 151 177 211 265 334
#     4   9  20  39  57  80 105 133 177 233 277 307
#     4  11  21  34  48  77 120 148 175 220 272 327
#     4   9  20  38  59  78 103 135 180 230 272 320
#     4  11  22  33  55  80 106 151 184 215 275 329
#     4  11  20  33  51  77 112 147 186 217 256 325
#
# _framework density 17.132404000000001
#
# number of rings (size 3 to 8) (size 9 to 14) (size 15 to 20)
#    0.000    1.500    5.000    2.250    5.250    0.000 
#    0.000    0.625    0.000    2.250    0.000    0.000 
#    0.000    0.000    0.000    0.000    0.000    0.000 
#
# Total GULP energy -356688.983098 kJ/mol
# GULP energy per Si atom -5573.265361 kJ/mol
# Density = 1.709341 g / cm^3
# Si number density = 17.132404 Si / 1000 Ang^3
#
#
#
# Elastic Constant Matrix: (Units=GPa)
#
#
# Indices 1 2 3 4 5 6 
#
# 1 106.6136 42.3093 40.5199 0.0000 0.0000 0.0000
# 2 42.3093 77.8293 25.0898 0.0000 0.0000 0.0000
# 3 40.5199 25.0898 69.2883 0.0000 0.0000 0.0000
# 4 0.0000 0.0000 0.0000 19.1729 0.0000 0.0000
# 5 0.0000 0.0000 0.0000 0.0000 26.9116 0.0000
# 6 0.0000 0.0000 0.0000 0.0000 0.0000 26.5821
#
#
#
# Elastic Compliance Matrix: (Units=1/GPa)
#
#
# Indices 1 2 3 4 5 6 
#
# 1 0.013926 -0.005599 -0.006117 0.000000 0.000000 0.000000
# 2 -0.005599 0.016798 -0.002808 0.000000 0.000000 0.000000
# 3 -0.006117 -0.002808 0.019026 0.000000 0.000000 0.000000
# 4 0.000000 0.000000 0.000000 0.052157 0.000000 0.000000
# 5 0.000000 0.000000 0.000000 0.000000 0.037159 0.000000
# 6 0.000000 0.000000 0.000000 0.000000 0.000000 0.037619
#
#
# Mechanical properties :
#
#
# Convention : Reuss Voigt Hill
#
# Bulk Modulus (GPa) = 48.30317 52.17436 50.23877
# Shear Modulus (GPa) = 23.51463 24.25415 23.88439
#
# Velocity S-wave (km/s) = 3.70878 3.76665 3.73782
# Velocity P-wave (km/s) = 6.82607 7.03111 6.92935
#
# Compressibility (1/GPa) = 0.02070257
#
# Stress axis : x y z
#
# Youngs Moduli (GPa) = 71.80693 59.53266 52.55834
#
# Poissons Ratio (x) = 0.33330 0.32149
# Poissons Ratio (y) = 0.40202 0.14760
# Poissons Ratio (z) = 0.43923 0.16719
#
# Static dielectric constant tensor:
#      x y z
#    x 1.683800 0.000000 0.000000 
#    y 0.000000 1.591950 0.000000 
#    z 0.000000 0.000000 1.572500 
# 
# From -- ./inp_files/36391.got.cif
#   From: 2010.05.17/outbox.cif.g08.bks.cpg/sg48_19_cif.got.tgz:36391.got - 2010.06.03 20:39:00.
