data_PCOD9391218
_publ_section_title
;
Structure prediction by ZEFSAII (Michael W. Deem and Ramdas Pophale) SiO2 
 PCOD9391218
Probable space group: P N N N
;
_chemical_formula_sum "Si O2"
_cell_formula_units_Z 22
_cell_length_a 7.367094
_cell_length_b 5.823822
_cell_length_c 22.218047
_cell_angle_alpha 90.000000
_cell_angle_beta 90.000000
_cell_angle_gamma 90.000000
_cell_volume 953.257399
_symmetry_space_group_name_H-M "P N N N"
_symmetry_group_IT_number 48
_space_group.IT_coordinate_system_code '2'
_symmetry_cell_setting 'orthorhombic'
loop_
_space_group_symop_operation_xyz
x,y,z
1/2-x,1/2-y,z
x,1/2-y,1/2-z
1/2-x,y,1/2-z
-x,-y,-z
1/2+x,1/2+y,-z
-x,1/2+y,1/2+z
1/2+x,-y,1/2+z
loop_
_atom_site_type_symbol
_atom_site_label
_atom_site_fract_x
_atom_site_fract_y
_atom_site_fract_z
Si Si1 0.210079 0.495037 0.518745
Si Si2 0.250000 0.250000 0.750000
Si Si3 0.750000 0.750000 0.907203
Si Si4 0.945655 0.136746 0.187628
O O1 0.250000 0.250000 0.552225
O O2 0.310967 0.448770 0.454317
O O3 0.000000 0.500000 0.500000
O O4 0.250000 0.750000 0.542265
O O5 0.386166 0.384829 0.793475
O O6 0.587959 0.666500 0.865025
O O7 0.750000 0.250000 0.174837
O O8 0.015110 0.250000 0.250000
#
# Coordination Sequence:
#
# PCOD9391218 Si02
#       4
#     8   2   4   8
#     4  10  23  43  65  91 126 167 215 265 327 378
#     4   8  18  36  60  82 120 172 198 256 318 382
#     4  10  23  36  61  94 126 161 220 259 326 382
#     4   9  19  38  58  88 127 161 205 257 321 379
#
# _framework density 23.078761
#
# number of rings (size 3 to 8) (size 9 to 14) (size 15 to 20)
#    1.091    1.818    0.000    1.636    0.000    7.273 
#    3.273    7.273    0.000    0.000    0.000    0.000 
#    0.000    0.000    0.000    0.000    0.000    0.000 
#
# Total GULP energy -122551.334959 kJ/mol
# GULP energy per Si atom -5570.515225 kJ/mol
# Density = 2.302623 g / cm^3
# Si number density = 23.078761 Si / 1000 Ang^3
#
#
#
# Elastic Constant Matrix: (Units=GPa)
#
#
# Indices 1 2 3 4 5 6 
#
# 1 71.7709 32.9185 12.2580 0.0000 0.0000 0.0000
# 2 32.9185 158.0430 20.6071 0.0000 0.0000 0.0000
# 3 12.2580 20.6071 138.0388 0.0000 0.0000 0.0000
# 4 0.0000 0.0000 0.0000 26.4566 0.0000 0.0000
# 5 0.0000 0.0000 0.0000 0.0000 37.0124 0.0000
# 6 0.0000 0.0000 0.0000 0.0000 0.0000 -35.3191
#
#
#
# Elastic Compliance Matrix: (Units=1/GPa)
#
#
# Indices 1 2 3 4 5 6 
#
# 1 0.015517 -0.003113 -0.000913 0.000000 0.000000 0.000000
# 2 -0.003113 0.007077 -0.000780 0.000000 0.000000 0.000000
# 3 -0.000913 -0.000780 0.007442 0.000000 0.000000 0.000000
# 4 0.000000 0.000000 0.000000 0.037798 0.000000 0.000000
# 5 0.000000 0.000000 0.000000 0.000000 0.027018 0.000000
# 6 0.000000 0.000000 0.000000 0.000000 0.000000 -0.028313
#
#
# Mechanical properties :
#
#
# Convention : Reuss Voigt Hill
#
# Bulk Modulus (GPa) = 48.96244 55.49111 52.22677
# Shear Modulus (GPa) = 60.27048 25.76791 43.01920
#
# Velocity S-wave (km/s) = 5.11584 3.34506 4.32211
# Velocity P-wave (km/s) = 7.49381 6.24625 6.89829
#
# Compressibility (1/GPa) = 0.02042382
#
# Stress axis : x y z
#
# Youngs Moduli (GPa) = 64.44555 141.29283 134.37437
#
# Poissons Ratio (x) = 0.43983 0.12271
# Poissons Ratio (y) = 0.20061 0.10483
# Poissons Ratio (z) = 0.05885 0.11023
#
# Static dielectric constant tensor:
#      x y z
#    x 1.892410 0.000000 0.000000 
#    y 0.000000 1.910700 0.000000 
#    z 0.000000 0.000000 1.869800 
# 
# From -- ./inp_files/38459.got.cif
#   From: 2010.05.17/outbox.cif.g08.bks.cpg/sg48_20_cif.got.tgz:38459.got - 2010.06.03 20:39:00.
