data_PCOD9391659
_publ_section_title
;
Structure prediction by ZEFSAII (Michael W. Deem and Ramdas Pophale) SiO2 
 PCOD9391659
Probable space group: P N N N
;
_chemical_formula_sum "Si O2"
_cell_formula_units_Z 60
_cell_length_a 12.545268
_cell_length_b 9.116126
_cell_length_c 26.008681
_cell_angle_alpha 90.000000
_cell_angle_beta 90.000000
_cell_angle_gamma 90.000000
_cell_volume 2974.463135
_symmetry_space_group_name_H-M "P N N N"
_symmetry_group_IT_number 48
_space_group.IT_coordinate_system_code '2'
_symmetry_cell_setting 'orthorhombic'
loop_
_space_group_symop_operation_xyz
x,y,z
1/2-x,1/2-y,z
x,1/2-y,1/2-z
1/2-x,y,1/2-z
-x,-y,-z
1/2+x,1/2+y,-z
-x,1/2+y,1/2+z
1/2+x,-y,1/2+z
loop_
_atom_site_type_symbol
_atom_site_label
_atom_site_fract_x
_atom_site_fract_y
_atom_site_fract_z
Si Si1 0.602688 0.893150 0.005992
Si Si2 0.750000 0.750000 0.839900
Si Si3 0.799135 0.396679 0.529579
Si Si4 0.760074 0.053065 0.692115
Si Si5 0.561637 0.272202 0.812383
Si Si6 0.137318 0.294649 0.611237
Si Si7 0.422305 0.147336 0.419618
Si Si8 0.344022 0.638835 0.914658
O O1 0.615808 0.814873 0.062162
O O2 0.592374 0.758477 0.966917
O O3 0.500000 0.000000 0.000000
O O4 0.705008 0.990168 0.987505
O O5 0.790253 0.614698 0.808052
O O6 0.661733 0.688631 0.877219
O O7 0.750000 0.250000 0.555481
O O8 0.890147 0.485875 0.559595
O O9 0.848227 0.340615 0.476211
O O10 0.750000 0.103487 0.750000
O O11 0.639912 0.090488 0.675031
O O12 0.859101 0.141397 0.669291
O O13 0.539693 0.250000 0.750000
O O14 0.457367 0.282657 0.847406
O O15 0.250000 0.250000 0.635436
O O16 0.159983 0.463542 0.594282
O O17 0.538215 0.175171 0.396023
O O18 0.250000 0.750000 0.896612
#
# Coordination Sequence:
#
# PCOD9391659 Si02
#       8
#     8   4   8   8   8   8   8   8
#     4  12  24  40  59  88 130 173 215 262 312 375
#     4  12  23  36  62 102 126 162 209 260 318 378
#     4  11  22  41  58  82 118 175 214 258 324 357
#     4   9  20  43  67  93 130 160 199 258 331 392
#     4   9  21  43  69  97 124 159 206 263 323 395
#     4  12  24  40  64  90 128 169 214 263 325 384
#     4  12  24  41  57  88 133 160 220 271 297 378
#     4  11  24  41  59  83 118 175 218 256 317 368
#
# _framework density 20.171707000000001
#
# number of rings (size 3 to 8) (size 9 to 14) (size 15 to 20)
#    0.000    1.067    4.000    3.800    3.733    0.267 
#    2.400    0.000    0.000    0.000    0.000    1.867 
#    0.000    0.000    0.000    0.000    0.000    0.000 
#
# Total GULP energy -334452.741261 kJ/mol
# GULP energy per Si atom -5574.212354 kJ/mol
# Density = 2.012580 g / cm^3
# Si number density = 20.171707 Si / 1000 Ang^3
#
#
#
# Elastic Constant Matrix: (Units=GPa)
#
#
# Indices 1 2 3 4 5 6 
#
# 1 128.2255 37.2223 25.4676 0.0000 0.0000 0.0000
# 2 37.2223 127.5970 30.5330 0.0000 0.0000 0.0000
# 3 25.4676 30.5330 59.6774 0.0000 0.0000 0.0000
# 4 0.0000 0.0000 0.0000 16.9954 0.0000 0.0000
# 5 0.0000 0.0000 0.0000 0.0000 37.1016 0.0000
# 6 0.0000 0.0000 0.0000 0.0000 0.0000 19.4318
#
#
#
# Elastic Compliance Matrix: (Units=1/GPa)
#
#
# Indices 1 2 3 4 5 6 
#
# 1 0.008918 -0.001927 -0.002820 0.000000 0.000000 0.000000
# 2 -0.001927 0.009347 -0.003960 0.000000 0.000000 0.000000
# 3 -0.002820 -0.003960 0.019986 0.000000 0.000000 0.000000
# 4 0.000000 0.000000 0.000000 0.058840 0.000000 0.000000
# 5 0.000000 0.000000 0.000000 0.000000 0.026953 0.000000
# 6 0.000000 0.000000 0.000000 0.000000 0.000000 0.051462
#
#
# Mechanical properties :
#
#
# Convention : Reuss Voigt Hill
#
# Bulk Modulus (GPa) = 47.98977 55.77177 51.88077
# Shear Modulus (GPa) = 25.01683 29.52420 27.27051
#
# Velocity S-wave (km/s) = 3.52546 3.82991 3.68083
# Velocity P-wave (km/s) = 6.35721 6.87504 6.62119
#
# Compressibility (1/GPa) = 0.02083778
#
# Stress axis : x y z
#
# Youngs Moduli (GPa) = 112.13036 106.98825 50.03439
#
# Poissons Ratio (x) = 0.20614 0.14110
# Poissons Ratio (y) = 0.21605 0.19813
# Poissons Ratio (z) = 0.31622 0.42366
#
# Static dielectric constant tensor:
#      x y z
#    x 1.774240 0.000000 0.000000 
#    y 0.000000 1.763080 0.000000 
#    z 0.000000 0.000000 1.718390 
# 
# From -- ./inp_files/37773.got.cif
#   From: 2010.05.17/outbox.cif.g08.bks.cpg/sg48_19_cif.got.tgz:37773.got - 2010.06.03 20:39:00.
