data_PCOD9391064
_publ_section_title
;
Structure prediction by ZEFSAII (Michael W. Deem and Ramdas Pophale) SiO2 
 PCOD9391064
Probable space group: P N N N
;
_chemical_formula_sum "Si O2"
_cell_formula_units_Z 34
_cell_length_a 18.836027
_cell_length_b 13.722508
_cell_length_c 5.012980
_cell_angle_alpha 90.000000
_cell_angle_beta 90.000000
_cell_angle_gamma 90.000000
_cell_volume 1295.742694
_symmetry_space_group_name_H-M "P N N N"
_symmetry_group_IT_number 48
_space_group.IT_coordinate_system_code '2'
_symmetry_cell_setting 'orthorhombic'
loop_
_space_group_symop_operation_xyz
x,y,z
1/2-x,1/2-y,z
x,1/2-y,1/2-z
1/2-x,y,1/2-z
-x,-y,-z
1/2+x,1/2+y,-z
-x,1/2+y,1/2+z
1/2+x,-y,1/2+z
loop_
_atom_site_type_symbol
_atom_site_label
_atom_site_fract_x
_atom_site_fract_y
_atom_site_fract_z
Si Si1 0.250000 0.250000 0.250000
Si Si2 0.857710 0.155784 0.914861
Si Si3 0.996077 0.399386 0.332626
Si Si4 0.120752 0.163893 0.548121
Si Si5 0.637916 0.450264 0.416291
O O1 0.196874 0.189953 0.431502
O O2 0.835550 0.250000 0.750000
O O3 0.839147 0.066990 0.716114
O O4 0.942234 0.165786 0.988057
O O5 0.828697 0.123505 0.202202
O O6 0.134465 0.440026 0.812850
O O7 0.944981 0.419920 0.081239
O O8 0.066853 0.357192 0.199269
O O9 0.097941 0.250000 0.750000
O O10 0.500000 0.500000 0.000000
#
# Coordination Sequence:
#
# PCOD9391064 Si02
#       5
#     2   8   8   8   8
#     4  12  34  48  72 106 166 236 274 310 394 484
#     4  10  22  40  64 112 147 192 244 317 419 468
#     4  10  23  43  70 104 149 206 255 329 411 466
#     4  12  27  49  70 108 161 215 284 318 391 504
#     4  10  23  42  70 101 151 200 255 327 404 464
#
# _framework density 26.239778000000001
#
# number of rings (size 3 to 8) (size 9 to 14) (size 15 to 20)
#    1.412    0.000    2.353    1.765    6.588    2.824 
#    0.000    0.000    0.000    0.000    0.000    0.824 
#    0.000    1.882    0.000    0.000    0.000    0.000 
#
# Total GULP energy -189778.660596 kJ/mol
# GULP energy per Si atom -5581.725312 kJ/mol
# Density = 2.618006 g / cm^3
# Si number density = 26.239778 Si / 1000 Ang^3
#
#
#
# Elastic Constant Matrix: (Units=GPa)
#
#
# Indices 1 2 3 4 5 6 
#
# 1 153.0972 36.9937 46.8930 0.0000 0.0000 0.0000
# 2 36.9937 149.5271 40.8387 0.0000 0.0000 0.0000
# 3 46.8930 40.8387 152.4388 0.0000 0.0000 0.0000
# 4 0.0000 0.0000 0.0000 46.5518 0.0000 0.0000
# 5 0.0000 0.0000 0.0000 0.0000 -3.9976 0.0000
# 6 0.0000 0.0000 0.0000 0.0000 0.0000 120.4976
#
#
#
# Elastic Compliance Matrix: (Units=1/GPa)
#
#
# Indices 1 2 3 4 5 6 
#
# 1 0.007442 -0.001312 -0.001938 0.000000 0.000000 0.000000
# 2 -0.001312 0.007447 -0.001591 0.000000 0.000000 0.000000
# 3 -0.001938 -0.001591 0.007583 0.000000 0.000000 0.000000
# 4 0.000000 0.000000 0.000000 0.021481 0.000000 0.000000
# 5 0.000000 0.000000 0.000000 0.000000 -0.250150 0.000000
# 6 0.000000 0.000000 0.000000 0.000000 0.000000 0.008299
#
#
# Mechanical properties :
#
#
# Convention : Reuss Voigt Hill
#
# Bulk Modulus (GPa) = 78.19153 78.27933 78.23543
# Shear Modulus (GPa) = -27.18098 54.63288 13.72595
#
# Velocity S-wave (km/s) = -3.22198 4.56791 2.28961
# Velocity P-wave (km/s) = 4.00275 7.59725 6.07207
#
# Compressibility (1/GPa) = 0.01278911
#
# Stress axis : x y z
#
# Youngs Moduli (GPa) = 134.36522 134.28213 131.88239
#
# Poissons Ratio (x) = 0.17618 0.25558
# Poissons Ratio (y) = 0.17629 0.20989
# Poissons Ratio (z) = 0.26039 0.21371
#
# Static dielectric constant tensor:
#      x y z
#    x 2.097740 0.000000 0.000000 
#    y 0.000000 2.308730 0.000000 
#    z 0.000000 0.000000 2.029420 
# 
# From -- ./inp_files/4336.got.cif
#   From: 2010.05.17/outbox.cif.g08.bks.cpg/sg48_3_cif.got.tgz:4336.got - 2010.06.03 20:39:00.
