data_PCOD9391423
_publ_section_title
;
Structure prediction by ZEFSAII (Michael W. Deem and Ramdas Pophale) SiO2 
 PCOD9391423
Probable space group: P N N N
;
_chemical_formula_sum "Si O2"
_cell_formula_units_Z 26
_cell_length_a 5.759183
_cell_length_b 8.163256
_cell_length_c 24.317381
_cell_angle_alpha 90.000000
_cell_angle_beta 90.000000
_cell_angle_gamma 90.000000
_cell_volume 1143.249695
_symmetry_space_group_name_H-M "P N N N"
_symmetry_group_IT_number 48
_space_group.IT_coordinate_system_code '2'
_symmetry_cell_setting 'orthorhombic'
loop_
_space_group_symop_operation_xyz
x,y,z
1/2-x,1/2-y,z
x,1/2-y,1/2-z
1/2-x,y,1/2-z
-x,-y,-z
1/2+x,1/2+y,-z
-x,1/2+y,1/2+z
1/2+x,-y,1/2+z
loop_
_atom_site_type_symbol
_atom_site_label
_atom_site_fract_x
_atom_site_fract_y
_atom_site_fract_z
Si Si1 0.750000 0.750000 0.250000
Si Si2 0.399275 0.591525 0.328603
Si Si3 0.629089 0.925168 0.052445
Si Si4 0.250000 0.750000 0.899279
Si Si5 0.750000 0.750000 0.661706
O O1 0.620997 0.624917 0.291236
O O2 0.250000 0.750000 0.317530
O O3 0.467925 0.596356 0.393428
O O4 0.256730 0.429872 0.312513
O O5 0.750000 0.750000 0.041554
O O6 0.789174 0.080023 0.068329
O O7 0.500000 0.000000 0.000000
O O8 0.495749 0.761854 0.867611
#
# Coordination Sequence:
#
# PCOD9391423 Si02
#       5
#     2   8   8   4   4
#     4  12  26  52  80 106 156 208 278 324 410 464
#     4  11  25  49  77 111 152 207 262 328 396 478
#     4  11  25  43  74 113 158 204 254 323 397 475
#     4  10  24  46  72 113 152 203 252 312 390 468
#     4  10  24  46  82 106 154 193 256 323 388 464
#
# _framework density 22.742184999999999
#
# number of rings (size 3 to 8) (size 9 to 14) (size 15 to 20)
#    0.000    1.231    1.538    2.308   15.077    1.231 
#    0.000    4.615    0.000    0.000    0.000    0.000 
#    0.000    0.000    0.000    0.000    0.000    0.000 
#
# Total GULP energy -144849.108383 kJ/mol
# GULP energy per Si atom -5571.119553 kJ/mol
# Density = 2.269042 g / cm^3
# Si number density = 22.742185 Si / 1000 Ang^3
#
#
#
# Elastic Constant Matrix: (Units=GPa)
#
#
# Indices 1 2 3 4 5 6 
#
# 1 93.0734 49.9892 45.5913 0.0000 0.0000 0.0000
# 2 49.9892 264.1027 33.6319 0.0000 0.0000 0.0000
# 3 45.5913 33.6319 132.8050 0.0000 0.0000 0.0000
# 4 0.0000 0.0000 0.0000 -630.8805 0.0000 0.0000
# 5 0.0000 0.0000 0.0000 0.0000 31.2309 0.0000
# 6 0.0000 0.0000 0.0000 0.0000 0.0000 52.2995
#
#
#
# Elastic Compliance Matrix: (Units=1/GPa)
#
#
# Indices 1 2 3 4 5 6 
#
# 1 0.013959 -0.002100 -0.004260 0.000000 0.000000 0.000000
# 2 -0.002100 0.004228 -0.000350 0.000000 0.000000 0.000000
# 3 -0.004260 -0.000350 0.009081 0.000000 0.000000 0.000000
# 4 0.000000 0.000000 0.000000 -0.001585 0.000000 0.000000
# 5 0.000000 0.000000 0.000000 0.000000 0.032020 0.000000
# 6 0.000000 0.000000 0.000000 0.000000 0.000000 0.019121
#
#
# Mechanical properties :
#
#
# Convention : Reuss Voigt Hill
#
# Bulk Modulus (GPa) = 72.21059 83.15620 77.68339
# Shear Modulus (GPa) = 52.70974 -85.41878 -16.35452
#
# Velocity S-wave (km/s) = 4.81948 -6.13524 -2.68456
# Velocity P-wave (km/s) = 7.92405 3.68023 4.96218
#
# Compressibility (1/GPa) = 0.01384838
#
# Stress axis : x y z
#
# Youngs Moduli (GPa) = 71.63969 236.49671 110.12001
#
# Poissons Ratio (x) = 0.49654 0.46914
# Poissons Ratio (y) = 0.15041 0.03855
# Poissons Ratio (z) = 0.30520 0.08278
#
# Static dielectric constant tensor:
#      x y z
#    x 1.873740 0.000000 0.000000 
#    y 0.000000 1.899550 0.000000 
#    z 0.000000 0.000000 1.764450 
# 
# From -- ./inp_files/768.got.cif
#   From: 2010.05.17/outbox.cif.g08.bks.cpg/sg48_1_cif.got.tgz:768.got - 2010.06.03 20:39:00.
