data_PCOD9391844
_publ_section_title
;
Structure prediction by ZEFSAII (Michael W. Deem and Ramdas Pophale) SiO2 
 PCOD9391844
Probable space group: P N N N
;
_chemical_formula_sum "Si O2"
_cell_formula_units_Z 26
_cell_length_a 15.405588
_cell_length_b 12.937716
_cell_length_c 4.809859
_cell_angle_alpha 90.000000
_cell_angle_beta 90.000000
_cell_angle_gamma 90.000000
_cell_volume 958.668015
_symmetry_space_group_name_H-M "P N N N"
_symmetry_group_IT_number 48
_space_group.IT_coordinate_system_code '2'
_symmetry_cell_setting 'orthorhombic'
loop_
_space_group_symop_operation_xyz
x,y,z
1/2-x,1/2-y,z
x,1/2-y,1/2-z
1/2-x,y,1/2-z
-x,-y,-z
1/2+x,1/2+y,-z
-x,1/2+y,1/2+z
1/2+x,-y,1/2+z
loop_
_atom_site_type_symbol
_atom_site_label
_atom_site_fract_x
_atom_site_fract_y
_atom_site_fract_z
Si Si1 0.250000 0.250000 0.250000
Si Si2 0.839496 0.132017 0.834722
Si Si3 0.067612 0.929364 0.676722
Si Si4 0.413077 0.347618 0.946061
O O1 0.318141 0.181106 0.429653
O O2 0.838945 0.250000 0.750000
O O3 0.750000 0.080174 0.750000
O O4 0.915344 0.081219 0.649440
O O5 0.856112 0.127598 0.158665
O O6 0.085824 0.047016 0.769393
O O7 0.982527 0.873650 0.807499
O O8 0.437720 0.250000 0.750000
#
# Coordination Sequence:
#
# PCOD9391844 Si02
#       4
#     2   8   8   8
#     4  12  30  48  80 118 168 212 274 360 414 488
#     4  11  25  45  76 116 156 204 268 336 401 483
#     4  11  27  49  82 110 157 219 265 333 410 493
#     4  11  29  50  77 116 164 213 280 335 418 495
#
# _framework density 27.120965999999999
#
# number of rings (size 3 to 8) (size 9 to 14) (size 15 to 20)
#    0.000    0.923    0.000    3.231   15.077    7.385 
#    0.000    0.000    0.000    0.000    0.000    0.000 
#    0.000    0.000    0.000    0.000    0.000    0.000 
#
# Total GULP energy -145682.180266 kJ/mol
# GULP energy per Si atom -5603.160779 kJ/mol
# Density = 2.705924 g / cm^3
# Si number density = 27.120966 Si / 1000 Ang^3
#
#
#
# Elastic Constant Matrix: (Units=GPa)
#
#
# Indices 1 2 3 4 5 6 
#
# 1 194.2867 47.9256 37.5028 0.0000 0.0000 0.0000
# 2 47.9256 189.0623 36.1353 0.0000 0.0000 0.0000
# 3 37.5028 36.1353 107.3410 0.0000 0.0000 0.0000
# 4 0.0000 0.0000 0.0000 47.5770 0.0000 0.0000
# 5 0.0000 0.0000 0.0000 0.0000 32.3509 0.0000
# 6 0.0000 0.0000 0.0000 0.0000 0.0000 -98.5590
#
#
#
# Elastic Compliance Matrix: (Units=1/GPa)
#
#
# Indices 1 2 3 4 5 6 
#
# 1 0.005743 -0.001146 -0.001621 0.000000 0.000000 0.000000
# 2 -0.001146 0.005882 -0.001580 0.000000 0.000000 0.000000
# 3 -0.001621 -0.001580 0.010414 0.000000 0.000000 0.000000
# 4 0.000000 0.000000 0.000000 0.021019 0.000000 0.000000
# 5 0.000000 0.000000 0.000000 0.000000 0.030911 0.000000
# 6 0.000000 0.000000 0.000000 0.000000 0.000000 -0.010146
#
#
# Mechanical properties :
#
#
# Convention : Reuss Voigt Hill
#
# Bulk Modulus (GPa) = 74.92888 81.53525 78.23206
# Shear Modulus (GPa) = 64.96663 20.88219 42.92441
#
# Velocity S-wave (km/s) = 4.89963 2.77783 3.98263
# Velocity P-wave (km/s) = 7.72633 6.35746 7.07508
#
# Compressibility (1/GPa) = 0.01334599
#
# Stress axis : x y z
#
# Youngs Moduli (GPa) = 174.13956 170.01997 96.02399
#
# Poissons Ratio (x) = 0.19483 0.15561
# Poissons Ratio (y) = 0.19955 0.15168
# Poissons Ratio (z) = 0.28220 0.26857
#
# Static dielectric constant tensor:
#      x y z
#    x 2.243500 0.000000 0.000000 
#    y 0.000000 2.071680 0.000000 
#    z 0.000000 0.000000 2.089680 
# 
# From -- ./inp_files/2840.got.cif
#   From: 2010.05.17/outbox.cif.g08.bks.cpg/sg48_2_cif.got.tgz:2840.got - 2010.06.03 20:39:00.
