data_PCOD9391527
_publ_section_title
;
Structure prediction by ZEFSAII (Michael W. Deem and Ramdas Pophale) SiO2 
 PCOD9391527
Probable space group: P N N N
;
_chemical_formula_sum "Si O2"
_cell_formula_units_Z 32
_cell_length_a 8.640616
_cell_length_b 17.616281
_cell_length_c 10.066172
_cell_angle_alpha 90.000000
_cell_angle_beta 90.000000
_cell_angle_gamma 90.000000
_cell_volume 1532.227600
_symmetry_space_group_name_H-M "P N N N"
_symmetry_group_IT_number 48
_space_group.IT_coordinate_system_code '2'
_symmetry_cell_setting 'orthorhombic'
loop_
_space_group_symop_operation_xyz
x,y,z
1/2-x,1/2-y,z
x,1/2-y,1/2-z
1/2-x,y,1/2-z
-x,-y,-z
1/2+x,1/2+y,-z
-x,1/2+y,1/2+z
1/2+x,-y,1/2+z
loop_
_atom_site_type_symbol
_atom_site_label
_atom_site_fract_x
_atom_site_fract_y
_atom_site_fract_z
Si Si1 0.666750 0.665389 0.428122
Si Si2 0.532650 0.586366 0.967145
Si Si3 0.415578 0.661268 0.214526
Si Si4 0.434554 0.331255 0.288398
O O1 0.750000 0.750000 0.414262
O O2 0.795964 0.607655 0.480862
O O3 0.568921 0.639681 0.299886
O O4 0.551178 0.665311 0.553868
O O5 0.435844 0.642954 0.060530
O O6 0.500000 0.500000 0.000000
O O7 0.507093 0.604979 0.812454
O O8 0.407861 0.750000 0.250000
O O9 0.250000 0.625374 0.250000
O O10 0.501857 0.250000 0.250000
O O11 0.250000 0.328411 0.250000
#
# Coordination Sequence:
#
# PCOD9391527 Si02
#       4
#     8   8   8   8
#     4  11  19  39  71  96 120 176 234 272 335 421
#     4  11  23  38  62 101 137 167 221 292 340 394
#     4  11  23  40  64  97 132 173 229 280 332 407
#     4   9  15  33  62  95 120 163 225 268 323 407
#
# _framework density 20.884623999999999
#
# number of rings (size 3 to 8) (size 9 to 14) (size 15 to 20)
#    0.000    1.500    7.500    0.750    0.000    3.000 
#    0.000    8.750    0.000    4.500    0.000    0.000 
#    0.000    0.000    0.000    0.000    0.000    0.000 
#
# Total GULP energy -178159.823883 kJ/mol
# GULP energy per Si atom -5567.494496 kJ/mol
# Density = 2.083709 g / cm^3
# Si number density = 20.884624 Si / 1000 Ang^3
#
#
#
# Elastic Constant Matrix: (Units=GPa)
#
#
# Indices 1 2 3 4 5 6 
#
# 1 57.3910 2.9658 0.0842 0.0000 0.0000 0.0000
# 2 2.9658 102.7387 19.6546 0.0000 0.0000 0.0000
# 3 0.0842 19.6546 114.8200 0.0000 0.0000 0.0000
# 4 0.0000 0.0000 0.0000 26.7090 0.0000 0.0000
# 5 0.0000 0.0000 0.0000 0.0000 2.5364 0.0000
# 6 0.0000 0.0000 0.0000 0.0000 0.0000 19.7533
#
#
#
# Elastic Compliance Matrix: (Units=1/GPa)
#
#
# Indices 1 2 3 4 5 6 
#
# 1 0.017451 -0.000518 0.000076 0.000000 0.000000 0.000000
# 2 -0.000518 0.010078 -0.001725 0.000000 0.000000 0.000000
# 3 0.000076 -0.001725 0.009004 0.000000 0.000000 0.000000
# 4 0.000000 0.000000 0.000000 0.037441 0.000000 0.000000
# 5 0.000000 0.000000 0.000000 0.000000 0.394256 0.000000
# 6 0.000000 0.000000 0.000000 0.000000 0.000000 0.050624
#
#
# Mechanical properties :
#
#
# Convention : Reuss Voigt Hill
#
# Bulk Modulus (GPa) = 31.05641 35.59545 33.32593
# Shear Modulus (GPa) = 9.36466 26.61608 17.99037
#
# Velocity S-wave (km/s) = 2.11984 3.57379 2.93817
# Velocity P-wave (km/s) = 4.57104 5.84039 5.24426
#
# Compressibility (1/GPa) = 0.03219947
#
# Stress axis : x y z
#
# Youngs Moduli (GPa) = 57.30328 99.22250 111.05585
#
# Poissons Ratio (x) = 0.05143 -0.00843
# Poissons Ratio (y) = 0.02970 0.19155
# Poissons Ratio (z) = -0.00435 0.17114
#
# Static dielectric constant tensor:
#      x y z
#    x 1.852400 0.000000 0.000000 
#    y 0.000000 1.733870 0.000000 
#    z 0.000000 0.000000 1.804790 
# 
# From -- ./inp_files/18361.got.cif
#   From: 2010.05.17/outbox.cif.g08.bks.cpg/sg48_10_cif.got.tgz:18361.got - 2010.06.03 20:39:00.
