data_PCOD9391308
_publ_section_title
;
Structure prediction by ZEFSAII (Michael W. Deem and Ramdas Pophale) SiO2 
 PCOD9391308
Probable space group: P N N N
;
_chemical_formula_sum "Si O2"
_cell_formula_units_Z 60
_cell_length_a 6.591920
_cell_length_b 22.879231
_cell_length_c 19.537541
_cell_angle_alpha 90.000000
_cell_angle_beta 90.000000
_cell_angle_gamma 90.000000
_cell_volume 2946.614039
_symmetry_space_group_name_H-M "P N N N"
_symmetry_group_IT_number 48
_space_group.IT_coordinate_system_code '2'
_symmetry_cell_setting 'orthorhombic'
loop_
_space_group_symop_operation_xyz
x,y,z
1/2-x,1/2-y,z
x,1/2-y,1/2-z
1/2-x,y,1/2-z
-x,-y,-z
1/2+x,1/2+y,-z
-x,1/2+y,1/2+z
1/2+x,-y,1/2+z
loop_
_atom_site_type_symbol
_atom_site_label
_atom_site_fract_x
_atom_site_fract_y
_atom_site_fract_z
Si Si1 0.787327 0.819186 0.669850
Si Si2 0.414534 0.296188 0.590535
Si Si3 0.455930 0.632018 0.932262
Si Si4 0.250000 0.750000 0.513301
Si Si5 0.868722 0.969932 0.322175
Si Si6 0.790357 0.372333 0.828945
Si Si7 0.651484 0.101124 0.176546
Si Si8 0.900152 0.900310 0.077656
O O1 0.750000 0.750000 0.663388
O O2 0.750000 0.834463 0.750000
O O3 0.646254 0.849840 0.614165
O O4 0.008979 0.844904 0.657700
O O5 0.250000 0.250000 0.616326
O O6 0.553016 0.270201 0.530310
O O7 0.577680 0.318485 0.644286
O O8 0.275123 0.351160 0.570358
O O9 0.317075 0.595124 0.882000
O O10 0.335512 0.692253 0.949478
O O11 0.511031 0.597041 0.001079
O O12 0.750000 0.957999 0.250000
O O13 0.710931 0.953528 0.383095
O O14 0.062465 0.928657 0.332949
O O15 0.944215 0.036759 0.319070
O O16 0.750000 0.363547 0.750000
O O17 0.586941 0.380055 0.873725
O O18 0.750000 0.113984 0.250000
#
# Coordination Sequence:
#
# PCOD9391308 Si02
#       8
#     8   8   8   4   8   8   8   8
#     4  11  25  45  68 100 137 180 222 276 340 411
#     4  11  22  41  64  94 139 177 233 274 335 414
#     4  12  25  41  70  97 137 173 227 280 341 412
#     4  12  24  42  68  98 132 196 218 278 352 410
#     4  10  23  43  73  97 134 181 227 286 339 408
#     4  11  22  42  69  98 134 184 233 279 342 404
#     4  11  25  46  68 105 135 173 230 280 345 415
#     4  11  24  41  67 102 132 175 232 279 341 404
#
# _framework density 20.362355000000001
#
# number of rings (size 3 to 8) (size 9 to 14) (size 15 to 20)
#    0.000    0.933    5.333    0.800    3.733    2.133 
#    0.000    6.333    0.000    0.000    0.000    0.000 
#    0.000    0.000    0.000    0.000    0.000    0.000 
#
# Total GULP energy -334889.747142 kJ/mol
# GULP energy per Si atom -5581.495786 kJ/mol
# Density = 2.031601 g / cm^3
# Si number density = 20.362355 Si / 1000 Ang^3
#
#
#
# Elastic Constant Matrix: (Units=GPa)
#
#
# Indices 1 2 3 4 5 6 
#
# 1 84.3713 21.5577 33.5757 0.0000 0.0000 0.0000
# 2 21.5577 71.2081 10.3434 0.0000 0.0000 0.0000
# 3 33.5757 10.3434 122.7125 0.0000 0.0000 0.0000
# 4 0.0000 0.0000 0.0000 29.9659 0.0000 0.0000
# 5 0.0000 0.0000 0.0000 0.0000 32.0264 0.0000
# 6 0.0000 0.0000 0.0000 0.0000 0.0000 20.5106
#
#
#
# Elastic Compliance Matrix: (Units=1/GPa)
#
#
# Indices 1 2 3 4 5 6 
#
# 1 0.014245 -0.003793 -0.003578 0.000000 0.000000 0.000000
# 2 -0.003793 0.015227 -0.000246 0.000000 0.000000 0.000000
# 3 -0.003578 -0.000246 0.009149 0.000000 0.000000 0.000000
# 4 0.000000 0.000000 0.000000 0.033371 0.000000 0.000000
# 5 0.000000 0.000000 0.000000 0.000000 0.031224 0.000000
# 6 0.000000 0.000000 0.000000 0.000000 0.000000 0.048755
#
#
# Mechanical properties :
#
#
# Convention : Reuss Voigt Hill
#
# Bulk Modulus (GPa) = 42.75661 45.47173 44.11417
# Shear Modulus (GPa) = 28.57112 30.68824 29.62968
#
# Velocity S-wave (km/s) = 3.74991 3.88636 3.81874
# Velocity P-wave (km/s) = 6.30813 6.52059 6.41524
#
# Compressibility (1/GPa) = 0.02338820
#
# Stress axis : x y z
#
# Youngs Moduli (GPa) = 70.19820 65.67139 109.30367
#
# Poissons Ratio (x) = 0.24909 0.39109
# Poissons Ratio (y) = 0.26626 0.02686
# Poissons Ratio (z) = 0.25117 0.01614
#
# Static dielectric constant tensor:
#      x y z
#    x 1.717380 0.000000 0.000000 
#    y 0.000000 1.732820 0.000000 
#    z 0.000000 0.000000 1.733040 
# 
# From -- ./inp_files/32992.got.cif
#   From: 2010.05.17/outbox.cif.g08.bks.cpg/sg48_17_cif.got.tgz:32992.got - 2010.06.03 20:39:00.
