data_PCOD9391293
_publ_section_title
;
Structure prediction by ZEFSAII (Michael W. Deem and Ramdas Pophale) SiO2 
 PCOD9391293
Probable space group: P N N N
;
_chemical_formula_sum "Si O2"
_cell_formula_units_Z 38
_cell_length_a 26.569014
_cell_length_b 4.994357
_cell_length_c 12.701716
_cell_angle_alpha 90.000000
_cell_angle_beta 90.000000
_cell_angle_gamma 90.000000
_cell_volume 1685.455996
_symmetry_space_group_name_H-M "P N N N"
_symmetry_group_IT_number 48
_space_group.IT_coordinate_system_code '2'
_symmetry_cell_setting 'orthorhombic'
loop_
_space_group_symop_operation_xyz
x,y,z
1/2-x,1/2-y,z
x,1/2-y,1/2-z
1/2-x,y,1/2-z
-x,-y,-z
1/2+x,1/2+y,-z
-x,1/2+y,1/2+z
1/2+x,-y,1/2+z
loop_
_atom_site_type_symbol
_atom_site_label
_atom_site_fract_x
_atom_site_fract_y
_atom_site_fract_z
Si Si1 0.250000 0.250000 0.250000
Si Si2 0.960252 0.883019 0.580403
Si Si3 0.908798 0.250000 0.750000
Si Si4 0.532272 0.250000 0.250000
Si Si5 0.822231 0.100857 0.897681
Si Si6 0.852561 0.638371 0.025323
Si Si7 0.391910 0.250000 0.750000
O O1 0.280212 0.463813 0.177084
O O2 0.909916 0.814037 0.516874
O O3 0.994724 0.693619 0.651591
O O4 0.941361 0.091451 0.667321
O O5 0.000000 0.000000 0.500000
O O6 0.870879 0.074879 0.821186
O O7 0.569817 0.500410 0.241699
O O8 0.828964 0.393254 0.954635
O O9 0.822716 0.901027 0.994343
O O10 0.858270 0.650470 0.150859
#
# Coordination Sequence:
#
# PCOD9391293 Si02
#       7
#     2   8   4   4   8   8   4
#     4  12  24  48  84 120 132 178 232 290 398 504
#     4  11  22  37  59  91 133 193 253 299 332 391
#     4  10  23  43  58  98 147 189 224 305 362 411
#     4  12  24  39  60  94 128 198 272 308 321 394
#     4  11  25  44  73 103 145 171 224 299 379 445
#     4  11  25  44  63 101 145 193 232 298 356 413
#     4  12  25  42  66  91 141 201 252 283 344 413
#
# _framework density 22.545828
#
# number of rings (size 3 to 8) (size 9 to 14) (size 15 to 20)
#    0.000    0.842    2.105    5.684    2.947    6.316 
#    0.000    0.000    0.000    0.632    0.000    5.895 
#    0.000    0.000    0.000    0.000    0.000    0.000 
#
# Total GULP energy -211653.583633 kJ/mol
# GULP energy per Si atom -5569.831148 kJ/mol
# Density = 2.249451 g / cm^3
# Si number density = 22.545828 Si / 1000 Ang^3
#
#
#
# Elastic Constant Matrix: (Units=GPa)
#
#
# Indices 1 2 3 4 5 6 
#
# 1 70.4942 34.1343 40.6824 0.0000 0.0000 0.0000
# 2 34.1343 114.9005 20.3888 0.0000 0.0000 0.0000
# 3 40.6824 20.3888 147.3548 0.0000 0.0000 0.0000
# 4 0.0000 0.0000 0.0000 28.9888 0.0000 0.0000
# 5 0.0000 0.0000 0.0000 0.0000 30.0725 0.0000
# 6 0.0000 0.0000 0.0000 0.0000 0.0000 8.2589
#
#
#
# Elastic Compliance Matrix: (Units=1/GPa)
#
#
# Indices 1 2 3 4 5 6 
#
# 1 0.019226 -0.004890 -0.004631 0.000000 0.000000 0.000000
# 2 -0.004890 0.010166 -0.000057 0.000000 0.000000 0.000000
# 3 -0.004631 -0.000057 0.008073 0.000000 0.000000 0.000000
# 4 0.000000 0.000000 0.000000 0.034496 0.000000 0.000000
# 5 0.000000 0.000000 0.000000 0.000000 0.033253 0.000000
# 6 0.000000 0.000000 0.000000 0.000000 0.000000 0.121081
#
#
# Mechanical properties :
#
#
# Convention : Reuss Voigt Hill
#
# Bulk Modulus (GPa) = 54.61763 58.12895 56.37329
# Shear Modulus (GPa) = 19.87646 29.30030 24.58838
#
# Velocity S-wave (km/s) = 2.97240 3.60889 3.30600
# Velocity P-wave (km/s) = 6.00483 6.57298 6.29532
#
# Compressibility (1/GPa) = 0.01830911
#
# Stress axis : x y z
#
# Youngs Moduli (GPa) = 52.01268 98.36832 123.87208
#
# Poissons Ratio (x) = 0.48100 0.57371
# Poissons Ratio (y) = 0.25433 0.00701
# Poissons Ratio (z) = 0.24089 0.00557
#
# Static dielectric constant tensor:
#      x y z
#    x 1.932930 0.000000 0.000000 
#    y 0.000000 1.927560 0.000000 
#    z 0.000000 0.000000 1.794440 
# 
# From -- ./inp_files/23556.got.cif
#   From: 2010.05.17/outbox.cif.g08.bks.cpg/sg48_12_cif.got.tgz:23556.got - 2010.06.03 20:39:00.
