data_PCOD9391287
_publ_section_title
;
Structure prediction by ZEFSAII (Michael W. Deem and Ramdas Pophale) SiO2 
 PCOD9391287
Probable space group: P N N N
;
_chemical_formula_sum "Si O2"
_cell_formula_units_Z 36
_cell_length_a 21.870735
_cell_length_b 10.742558
_cell_length_c 6.700762
_cell_angle_alpha 90.000000
_cell_angle_beta 90.000000
_cell_angle_gamma 90.000000
_cell_volume 1574.328213
_symmetry_space_group_name_H-M "P N N N"
_symmetry_group_IT_number 48
_space_group.IT_coordinate_system_code '2'
_symmetry_cell_setting 'orthorhombic'
loop_
_space_group_symop_operation_xyz
x,y,z
1/2-x,1/2-y,z
x,1/2-y,1/2-z
1/2-x,y,1/2-z
-x,-y,-z
1/2+x,1/2+y,-z
-x,1/2+y,1/2+z
1/2+x,-y,1/2+z
loop_
_atom_site_type_symbol
_atom_site_label
_atom_site_fract_x
_atom_site_fract_y
_atom_site_fract_z
Si Si1 0.750000 0.445809 0.250000
Si Si2 0.811521 0.123789 0.865758
Si Si3 0.856383 0.876989 0.378005
Si Si4 0.080943 0.060152 0.228384
Si Si5 0.525372 0.608234 0.188415
O O1 0.789595 0.366728 0.406311
O O2 0.703464 0.538005 0.368557
O O3 0.831490 0.250000 0.750000
O O4 0.750000 0.085662 0.750000
O O5 0.862170 0.018080 0.855878
O O6 0.845429 0.750000 0.250000
O O7 0.886876 0.858877 0.597505
O O8 0.911641 0.948831 0.269322
O O9 0.037663 0.112629 0.050440
O O10 0.032107 0.955713 0.293601
O O11 0.523356 0.750000 0.250000
#
# Coordination Sequence:
#
# PCOD9391287 Si02
#       5
#     4   8   8   8   8
#     4  12  23  47  68 104 140 178 238 288 348 412
#     4  11  24  43  72 101 135 184 227 288 347 414
#     4  11  24  42  70 101 140 183 230 282 347 414
#     4  11  22  45  71 101 142 180 234 286 345 420
#     4  10  23  42  71 103 136 182 231 288 351 412
#
# _framework density 22.866895
#
# number of rings (size 3 to 8) (size 9 to 14) (size 15 to 20)
#    0.000    1.111    4.444    1.667    0.000    5.333 
#    0.000    0.000    0.000    0.000    0.000    0.000 
#    0.000    0.000    0.000    0.000    0.000    0.000 
#
# Total GULP energy -200463.136850 kJ/mol
# GULP energy per Si atom -5568.420468 kJ/mol
# Density = 2.281485 g / cm^3
# Si number density = 22.866895 Si / 1000 Ang^3
#
#
#
# Elastic Constant Matrix: (Units=GPa)
#
#
# Indices 1 2 3 4 5 6 
#
# 1 52.9328 3.3801 -8.0364 0.0000 0.0000 0.0000
# 2 3.3801 62.3446 40.4650 0.0000 0.0000 0.0000
# 3 -8.0364 40.4650 138.4861 0.0000 0.0000 0.0000
# 4 0.0000 0.0000 0.0000 22.6540 0.0000 0.0000
# 5 0.0000 0.0000 0.0000 0.0000 49.7069 0.0000
# 6 0.0000 0.0000 0.0000 0.0000 0.0000 28.9681
#
#
#
# Elastic Compliance Matrix: (Units=1/GPa)
#
#
# Indices 1 2 3 4 5 6 
#
# 1 0.019299 -0.002188 0.001759 0.000000 0.000000 0.000000
# 2 -0.002188 0.020042 -0.005983 0.000000 0.000000 0.000000
# 3 0.001759 -0.005983 0.009071 0.000000 0.000000 0.000000
# 4 0.000000 0.000000 0.000000 0.044142 0.000000 0.000000
# 5 0.000000 0.000000 0.000000 0.000000 0.020118 0.000000
# 6 0.000000 0.000000 0.000000 0.000000 0.000000 0.034521
#
#
# Mechanical properties :
#
#
# Convention : Reuss Voigt Hill
#
# Bulk Modulus (GPa) = 28.09950 36.15342 32.12646
# Shear Modulus (GPa) = 29.09015 34.79612 31.94313
#
# Velocity S-wave (km/s) = 3.57059 3.90511 3.74159
# Velocity P-wave (km/s) = 5.41422 6.01480 5.72240
#
# Compressibility (1/GPa) = 0.03558783
#
# Stress axis : x y z
#
# Youngs Moduli (GPa) = 51.81698 49.89548 110.23805
#
# Poissons Ratio (x) = 0.10918 -0.19394
# Poissons Ratio (y) = 0.11339 0.65957
# Poissons Ratio (z) = -0.09116 0.29853
#
# Static dielectric constant tensor:
#      x y z
#    x 1.835840 0.000000 0.000000 
#    y 0.000000 1.930110 0.000000 
#    z 0.000000 0.000000 2.016440 
# 
# From -- ./inp_files/5676.got.cif
#   From: 2010.05.17/outbox.cif.g08.bks.cpg/sg48_3_cif.got.tgz:5676.got - 2010.06.03 20:39:00.
