data_PCOD9391071
_publ_section_title
;
Structure prediction by ZEFSAII (Michael W. Deem and Ramdas Pophale) SiO2 
 PCOD9391071
Probable space group: P N N N
;
_chemical_formula_sum "Si O2"
_cell_formula_units_Z 58
_cell_length_a 27.260083
_cell_length_b 8.598524
_cell_length_c 11.022870
_cell_angle_alpha 90.000000
_cell_angle_beta 90.000000
_cell_angle_gamma 90.000000
_cell_volume 2583.721905
_symmetry_space_group_name_H-M "P N N N"
_symmetry_group_IT_number 48
_space_group.IT_coordinate_system_code '2'
_symmetry_cell_setting 'orthorhombic'
loop_
_space_group_symop_operation_xyz
x,y,z
1/2-x,1/2-y,z
x,1/2-y,1/2-z
1/2-x,y,1/2-z
-x,-y,-z
1/2+x,1/2+y,-z
-x,1/2+y,1/2+z
1/2+x,-y,1/2+z
loop_
_atom_site_type_symbol
_atom_site_label
_atom_site_fract_x
_atom_site_fract_y
_atom_site_fract_z
Si Si1 0.010961 0.088935 0.202203
Si Si2 0.147255 0.147350 0.628881
Si Si3 0.036677 0.142623 0.630182
Si Si4 0.279401 0.900963 0.928136
Si Si5 0.147324 0.767323 0.105089
Si Si6 0.954205 0.335851 0.516644
Si Si7 0.307117 0.407706 0.040191
Si Si8 0.750000 0.750000 0.750000
O O1 0.032841 0.250000 0.250000
O O2 0.995121 0.999951 0.322976
O O3 0.960851 0.112294 0.122219
O O4 0.042992 0.979210 0.113233
O O5 0.147592 0.250000 0.750000
O O6 0.091710 0.104379 0.594028
O O7 0.168472 0.260904 0.525136
O O8 0.180513 0.994687 0.648867
O O9 0.040552 0.250000 0.750000
O O10 0.004184 0.240591 0.538297
O O11 0.250000 0.750000 0.881995
O O12 0.310528 0.838792 0.044445
O O13 0.238273 0.026483 0.962264
O O14 0.147265 0.750000 0.250000
O O15 0.093411 0.737644 0.050422
O O16 0.158465 0.944393 0.063788
O O17 0.284205 0.354175 0.166168
#
# Coordination Sequence:
#
# PCOD9391071 Si02
#       8
#     8   8   8   8   8   8   8   2
#     4  10  22  40  65  94 131 181 218 274 339 391
#     4  11  24  44  72 101 140 179 230 281 343 424
#     4   9  21  42  66  95 134 180 214 276 340 391
#     4  10  23  46  67  99 133 173 231 281 351 398
#     4  11  24  42  67  99 135 180 229 279 337 414
#     4  10  23  44  65  95 142 175 224 276 334 412
#     4  11  24  41  69  96 133 180 222 284 351 400
#     4  12  20  44  64  92 136 168 226 286 356 396
#
# _framework density 22.448235
#
# number of rings (size 3 to 8) (size 9 to 14) (size 15 to 20)
#    0.000    1.655    1.379    2.069    9.655    3.586 
#    3.724    4.828    0.000    0.000    0.000    0.000 
#    0.000    0.000    0.000    0.000    0.000    0.000 
#
# Total GULP energy -324152.545325 kJ/mol
# GULP energy per Si atom -5588.836988 kJ/mol
# Density = 2.239714 g / cm^3
# Si number density = 22.448235 Si / 1000 Ang^3
#
#
#
# Elastic Constant Matrix: (Units=GPa)
#
#
# Indices 1 2 3 4 5 6 
#
# 1 95.0304 16.5211 -4.2908 0.0000 0.0000 0.0000
# 2 16.5211 89.5348 4.3153 0.0000 0.0000 0.0000
# 3 -4.2908 4.3153 50.1962 0.0000 0.0000 0.0000
# 4 0.0000 0.0000 0.0000 -13.0872 0.0000 0.0000
# 5 0.0000 0.0000 0.0000 0.0000 25.2470 0.0000
# 6 0.0000 0.0000 0.0000 0.0000 0.0000 8.6447
#
#
#
# Elastic Compliance Matrix: (Units=1/GPa)
#
#
# Indices 1 2 3 4 5 6 
#
# 1 0.010933 -0.002071 0.001113 0.000000 0.000000 0.000000
# 2 -0.002071 0.011608 -0.001175 0.000000 0.000000 0.000000
# 3 0.001113 -0.001175 0.020118 0.000000 0.000000 0.000000
# 4 0.000000 0.000000 0.000000 -0.076411 0.000000 0.000000
# 5 0.000000 0.000000 0.000000 0.000000 0.039609 0.000000
# 6 0.000000 0.000000 0.000000 0.000000 0.000000 0.115677
#
#
# Mechanical properties :
#
#
# Convention : Reuss Voigt Hill
#
# Bulk Modulus (GPa) = 26.04702 29.76141 27.90422
# Shear Modulus (GPa) = 36.07552 18.70864 27.39208
#
# Velocity S-wave (km/s) = 4.01316 2.89002 3.49697
# Velocity P-wave (km/s) = 5.75345 4.94195 5.36307
#
# Compressibility (1/GPa) = 0.03839210
#
# Stress axis : x y z
#
# Youngs Moduli (GPa) = 91.46418 86.15032 49.70686
#
# Poissons Ratio (x) = 0.17842 -0.05530
# Poissons Ratio (y) = 0.18943 0.05840
# Poissons Ratio (z) = -0.10177 0.10122
#
# Static dielectric constant tensor:
#      x y z
#    x 1.905130 0.000000 0.000000 
#    y 0.000000 1.906200 0.000000 
#    z 0.000000 0.000000 1.794820 
# 
# From -- ./inp_files/23647.got.cif
#   From: 2010.05.17/outbox.cif.g08.bks.cpg/sg48_12_cif.got.tgz:23647.got - 2010.06.03 20:39:00.
