data_PCOD9391961
_publ_section_title
;
Structure prediction by ZEFSAII (Michael W. Deem and Ramdas Pophale) SiO2 
 PCOD9391961
Probable space group: P N N N
;
_chemical_formula_sum "Si O2"
_cell_formula_units_Z 64
_cell_length_a 18.000000
_cell_length_b 21.000000
_cell_length_c 9.000000
_cell_angle_alpha 90.000000
_cell_angle_beta 90.000000
_cell_angle_gamma 90.000000
_cell_volume 3402.000000
_symmetry_space_group_name_H-M "P N N N"
_symmetry_group_IT_number 48
_space_group.IT_coordinate_system_code '2'
_symmetry_cell_setting 'orthorhombic'
loop_
_space_group_symop_operation_xyz
x,y,z
1/2-x,1/2-y,z
x,1/2-y,1/2-z
1/2-x,y,1/2-z
-x,-y,-z
1/2+x,1/2+y,-z
-x,1/2+y,1/2+z
1/2+x,-y,1/2+z
loop_
_atom_site_type_symbol
_atom_site_label
_atom_site_fract_x
_atom_site_fract_y
_atom_site_fract_z
Si Si1 0.944380 0.012193 0.859639
Si Si2 0.264680 0.364392 0.074286
Si Si3 0.502457 0.388791 0.297571
Si Si4 0.290348 0.993287 0.524480
Si Si5 0.138113 0.202064 0.622454
Si Si6 0.910979 0.708645 0.614576
Si Si7 0.542379 0.914428 0.130593
Si Si8 0.857090 0.465934 0.157258
O O1 0.980142 0.065880 0.751581
O O2 0.952558 0.946766 0.767323
O O3 0.859947 0.024219 0.916111
O O4 0.000000 0.000000 0.000000
O O5 0.250000 0.361906 0.250000
O O6 0.348091 0.338968 0.056322
O O7 0.262519 0.436931 0.020773
O O8 0.205029 0.323219 0.981734
O O9 0.478068 0.329344 0.194604
O O10 0.485294 0.387256 0.472962
O O11 0.589244 0.407981 0.295049
O O12 0.325930 0.993668 0.688301
O O13 0.213128 0.953761 0.548658
O O14 0.163361 0.250000 0.750000
O O15 0.079988 0.242039 0.520024
O O16 0.097990 0.139870 0.688875
O O17 0.877666 0.750000 0.750000
O O18 0.587992 0.979324 0.096252
#
# Coordination Sequence:
#
# PCOD9391961 Si02
#       8
#     8   8   8   8   8   8   8   8
#     4  11  21  36  59  88 120 165 204 257 317 375
#     4  12  24  39  55  83 129 174 210 246 301 380
#     4  11  22  40  62  82 120 167 208 269 306 371
#     4  11  22  36  61  90 126 163 203 255 322 382
#     4  12  28  40  58  87 126 172 218 268 311 379
#     4  12  24  41  59  84 117 168 223 258 312 376
#     4  11  22  41  57  84 122 164 215 257 311 375
#     4  10  22  37  58  89 123 158 208 259 319 378
#
# _framework density 18.812463000000001
#
# number of rings (size 3 to 8) (size 9 to 14) (size 15 to 20)
#    0.000    0.750    7.500    1.875    3.500    2.000 
#    0.000    0.000    0.000    0.000    0.000    1.750 
#    0.000    1.000    0.000    0.000    0.000    0.000 
#
# Total GULP energy -357172.593296 kJ/mol
# GULP energy per Si atom -5580.821770 kJ/mol
# Density = 1.876965 g / cm^3
# Si number density = 18.812463 Si / 1000 Ang^3
#
#
#
# Elastic Constant Matrix: (Units=GPa)
#
#
# Indices 1 2 3 4 5 6 
#
# 1 130.0267 44.4473 46.3857 0.0000 0.0000 0.0000
# 2 44.4473 73.5663 37.2801 0.0000 0.0000 0.0000
# 3 46.3857 37.2801 106.3486 0.0000 0.0000 0.0000
# 4 0.0000 0.0000 0.0000 33.3214 0.0000 0.0000
# 5 0.0000 0.0000 0.0000 0.0000 34.5284 0.0000
# 6 0.0000 0.0000 0.0000 0.0000 0.0000 27.2974
#
#
#
# Elastic Compliance Matrix: (Units=1/GPa)
#
#
# Indices 1 2 3 4 5 6 
#
# 1 0.010345 -0.004820 -0.002823 0.000000 0.000000 0.000000
# 2 -0.004820 0.018775 -0.004479 0.000000 0.000000 0.000000
# 3 -0.002823 -0.004479 0.012204 0.000000 0.000000 0.000000
# 4 0.000000 0.000000 0.000000 0.030011 0.000000 0.000000
# 5 0.000000 0.000000 0.000000 0.000000 0.028962 0.000000
# 6 0.000000 0.000000 0.000000 0.000000 0.000000 0.036634
#
#
# Mechanical properties :
#
#
# Convention : Reuss Voigt Hill
#
# Bulk Modulus (GPa) = 58.54439 62.90755 60.72597
# Shear Modulus (GPa) = 29.96371 31.15132 30.55751
#
# Velocity S-wave (km/s) = 3.99527 4.07367 4.03466
# Velocity P-wave (km/s) = 7.24365 7.45911 7.35217
#
# Compressibility (1/GPa) = 0.01708106
#
# Stress axis : x y z
#
# Youngs Moduli (GPa) = 96.66199 53.26159 81.93794
#
# Poissons Ratio (x) = 0.25672 0.23128
# Poissons Ratio (y) = 0.46592 0.36702
# Poissons Ratio (z) = 0.27284 0.23857
#
# Static dielectric constant tensor:
#      x y z
#    x 1.700230 0.000000 0.000000 
#    y 0.000000 1.686800 0.000000 
#    z 0.000000 0.000000 1.696880 
# 
# From -- ./inp_files/14564.got.cif
#   From: 2010.05.17/outbox.ucp.g08.bks.cvg/sg48_8_cif.got.tgz:14564.got - 2010.06.11 16:38:40.
