data_PCOD9391449
_publ_section_title
;
Structure prediction by ZEFSAII (Michael W. Deem and Ramdas Pophale) SiO2 
 PCOD9391449
Probable space group: P N N N
;
_chemical_formula_sum "Si O2"
_cell_formula_units_Z 58
_cell_length_a 11.280056
_cell_length_b 25.708329
_cell_length_c 10.335540
_cell_angle_alpha 90.000000
_cell_angle_beta 90.000000
_cell_angle_gamma 90.000000
_cell_volume 2997.217619
_symmetry_space_group_name_H-M "P N N N"
_symmetry_group_IT_number 48
_space_group.IT_coordinate_system_code '2'
_symmetry_cell_setting 'orthorhombic'
loop_
_space_group_symop_operation_xyz
x,y,z
1/2-x,1/2-y,z
x,1/2-y,1/2-z
1/2-x,y,1/2-z
-x,-y,-z
1/2+x,1/2+y,-z
-x,1/2+y,1/2+z
1/2+x,-y,1/2+z
loop_
_atom_site_type_symbol
_atom_site_label
_atom_site_fract_x
_atom_site_fract_y
_atom_site_fract_z
Si Si1 0.252371 0.893225 0.601389
Si Si2 0.892914 0.605187 0.156984
Si Si3 0.573265 0.487528 0.371097
Si Si4 0.250000 0.750000 0.250000
Si Si5 0.907464 0.176974 0.570009
Si Si6 0.891959 0.744342 0.407789
Si Si7 0.499732 0.948872 0.590892
Si Si8 0.843856 0.867856 0.046117
O O1 0.250000 0.876852 0.750000
O O2 0.170641 0.944682 0.595961
O O3 0.190621 0.847057 0.524051
O O4 0.382885 0.913504 0.564465
O O5 0.873576 0.543776 0.159131
O O6 0.799120 0.630448 0.056766
O O7 0.873263 0.621621 0.303821
O O8 0.022756 0.626240 0.122798
O O9 0.500000 0.500000 0.500000
O O10 0.505985 0.466901 0.241618
O O11 0.165689 0.787924 0.330968
O O12 0.016073 0.215185 0.529244
O O13 0.750000 0.750000 0.423069
O O14 0.910173 0.750000 0.250000
O O15 0.907546 0.687536 0.471265
O O16 0.608345 0.912067 0.548937
O O17 0.500000 0.000000 0.500000
#
# Coordination Sequence:
#
# PCOD9391449 Si02
#       8
#     8   8   8   2   8   8   8   8
#     4  10  25  43  64  89 133 181 218 269 338 419
#     4  11  20  37  65  94 133 176 213 271 339 399
#     4  11  22  41  65  93 128 173 220 267 332 410
#     4  12  28  36  64 104 132 168 228 292 328 390
#     4  12  23  41  62  95 136 171 222 281 335 393
#     4  11  19  36  62  98 132 173 225 279 338 405
#     4  11  23  40  64  95 131 171 222 271 329 408
#     4  11  21  36  63  96 133 173 218 274 341 397
#
# _framework density 19.351281
#
# number of rings (size 3 to 8) (size 9 to 14) (size 15 to 20)
#    0.000    0.966    6.207    1.655    7.724    0.000 
#    0.000    2.414    0.000    0.000    0.000    3.862 
#    0.000    0.000    0.000    0.000    0.000    0.000 
#
# Total GULP energy -323117.497963 kJ/mol
# GULP energy per Si atom -5570.991344 kJ/mol
# Density = 1.930724 g / cm^3
# Si number density = 19.351281 Si / 1000 Ang^3
#
#
#
# Elastic Constant Matrix: (Units=GPa)
#
#
# Indices 1 2 3 4 5 6 
#
# 1 106.6287 38.5846 52.3433 0.0000 0.0000 0.0000
# 2 38.5846 129.6448 34.9109 0.0000 0.0000 0.0000
# 3 52.3433 34.9109 63.3792 0.0000 0.0000 0.0000
# 4 0.0000 0.0000 0.0000 30.8898 0.0000 0.0000
# 5 0.0000 0.0000 0.0000 0.0000 19.9385 0.0000
# 6 0.0000 0.0000 0.0000 0.0000 0.0000 28.2873
#
#
#
# Elastic Compliance Matrix: (Units=1/GPa)
#
#
# Indices 1 2 3 4 5 6 
#
# 1 0.015990 -0.001412 -0.012428 0.000000 0.000000 0.000000
# 2 -0.001412 0.009181 -0.003891 0.000000 0.000000 0.000000
# 3 -0.012428 -0.003891 0.028185 0.000000 0.000000 0.000000
# 4 0.000000 0.000000 0.000000 0.032373 0.000000 0.000000
# 5 0.000000 0.000000 0.000000 0.000000 0.050154 0.000000
# 6 0.000000 0.000000 0.000000 0.000000 0.000000 0.035352
#
#
# Mechanical properties :
#
#
# Convention : Reuss Voigt Hill
#
# Bulk Modulus (GPa) = 55.88350 61.25893 58.57121
# Shear Modulus (GPa) = 23.51133 27.41070 25.46102
#
# Velocity S-wave (km/s) = 3.48943 3.76770 3.63123
# Velocity P-wave (km/s) = 6.72131 7.11705 6.92201
#
# Compressibility (1/GPa) = 0.01789437
#
# Stress axis : x y z
#
# Youngs Moduli (GPa) = 62.53820 108.91476 35.47952
#
# Poissons Ratio (x) = 0.15383 0.44094
# Poissons Ratio (y) = 0.08833 0.13805
# Poissons Ratio (z) = 0.77722 0.42379
#
# Static dielectric constant tensor:
#      x y z
#    x 0.169190 0.000000 0.000000 
#    y 0.000000 1.783330 0.000000 
#    z 0.000000 0.000000 1.609820 
# 
# From -- ./inp_files/11452.got.cif
#   From: 2010.05.17/outbox.cif.g08.bks.cpg/sg48_6_cif.got.tgz:11452.got - 2010.06.03 20:39:00.
