data_PCOD9391528
_publ_section_title
;
Structure prediction by ZEFSAII (Michael W. Deem and Ramdas Pophale) SiO2 
 PCOD9391528
Probable space group: P N N N
;
_chemical_formula_sum "Si O2"
_cell_formula_units_Z 52
_cell_length_a 9.363338
_cell_length_b 12.846762
_cell_length_c 21.362863
_cell_angle_alpha 90.000000
_cell_angle_beta 90.000000
_cell_angle_gamma 90.000000
_cell_volume 2569.708344
_symmetry_space_group_name_H-M "P N N N"
_symmetry_group_IT_number 48
_space_group.IT_coordinate_system_code '2'
_symmetry_cell_setting 'orthorhombic'
loop_
_space_group_symop_operation_xyz
x,y,z
1/2-x,1/2-y,z
x,1/2-y,1/2-z
1/2-x,y,1/2-z
-x,-y,-z
1/2+x,1/2+y,-z
-x,1/2+y,1/2+z
1/2+x,-y,1/2+z
loop_
_atom_site_type_symbol
_atom_site_label
_atom_site_fract_x
_atom_site_fract_y
_atom_site_fract_z
Si Si1 0.250000 0.250000 0.250000
Si Si2 0.863334 0.823304 0.070401
Si Si3 0.934439 0.822177 0.939048
Si Si4 0.762788 0.922385 0.653329
Si Si5 0.788201 0.447962 0.464055
Si Si6 0.818423 0.363391 0.604240
Si Si7 0.575887 0.144619 0.140888
Si Si8 0.750000 0.250000 0.250000
O O1 0.307578 0.161068 0.298113
O O2 0.750000 0.750000 0.104272
O O3 0.010646 0.848931 0.104079
O O4 0.789065 0.929034 0.046887
O O5 0.910828 0.768179 0.005533
O O6 0.791485 0.871103 0.911241
O O7 0.049591 0.912992 0.949519
O O8 0.010493 0.746513 0.891146
O O9 0.933814 0.919753 0.657737
O O10 0.716071 0.042146 0.651631
O O11 0.765831 0.403358 0.534577
O O12 0.680740 0.402033 0.411930
O O13 0.750000 0.250000 0.616148
O O14 0.657110 0.178259 0.203629
#
# Coordination Sequence:
#
# PCOD9391528 Si02
#       8
#     2   8   8   8   8   8   8   2
#     4  12  26  44  70 102 126 172 228 274 350 384
#     4  11  22  37  62  96 136 179 222 276 345 408
#     4  11  19  41  59  93 133 176 218 277 337 400
#     4  12  24  41  66  97 131 169 226 287 332 403
#     4  11  21  39  61  94 139 182 211 278 346 405
#     4  11  24  42  63  96 138 177 228 274 335 412
#     4  12  24  38  65  93 134 175 223 275 349 399
#     4  12  26  44  58 100 140 168 222 298 334 410
#
# _framework density 20.235759999999999
#
# number of rings (size 3 to 8) (size 9 to 14) (size 15 to 20)
#    0.000    0.615    6.154    4.154    2.154    0.615 
#    0.000    0.385    0.000    0.000    0.000    0.538 
#    0.000    0.000    0.000    0.000    0.000    0.000 
#
# Total GULP energy -289878.050840 kJ/mol
# GULP energy per Si atom -5574.577901 kJ/mol
# Density = 2.018970 g / cm^3
# Si number density = 20.235760 Si / 1000 Ang^3
#
#
#
# Elastic Constant Matrix: (Units=GPa)
#
#
# Indices 1 2 3 4 5 6 
#
# 1 117.9007 48.6593 35.1059 0.0000 0.0000 0.0000
# 2 48.6593 153.4571 36.9139 0.0000 0.0000 0.0000
# 3 35.1059 36.9139 64.9310 0.0000 0.0000 0.0000
# 4 0.0000 0.0000 0.0000 27.9792 0.0000 0.0000
# 5 0.0000 0.0000 0.0000 0.0000 22.7818 0.0000
# 6 0.0000 0.0000 0.0000 0.0000 0.0000 34.3073
#
#
#
# Elastic Compliance Matrix: (Units=1/GPa)
#
#
# Indices 1 2 3 4 5 6 
#
# 1 0.010787 -0.002337 -0.004504 0.000000 0.000000 0.000000
# 2 -0.002337 0.008055 -0.003316 0.000000 0.000000 0.000000
# 3 -0.004504 -0.003316 0.019721 0.000000 0.000000 0.000000
# 4 0.000000 0.000000 0.000000 0.035741 0.000000 0.000000
# 5 0.000000 0.000000 0.000000 0.000000 0.043895 0.000000
# 6 0.000000 0.000000 0.000000 0.000000 0.000000 0.029148
#
#
# Mechanical properties :
#
#
# Convention : Reuss Voigt Hill
#
# Bulk Modulus (GPa) = 54.79373 64.18298 59.48836
# Shear Modulus (GPa) = 28.77800 31.38765 30.08282
#
# Velocity S-wave (km/s) = 3.77521 3.94267 3.85985
# Velocity P-wave (km/s) = 6.79260 7.24656 7.02325
#
# Compressibility (1/GPa) = 0.01825026
#
# Stress axis : x y z
#
# Youngs Moduli (GPa) = 92.70183 124.14360 50.70741
#
# Poissons Ratio (x) = 0.29015 0.22837
# Poissons Ratio (y) = 0.21666 0.16814
# Poissons Ratio (z) = 0.41749 0.41164
#
# Static dielectric constant tensor:
#      x y z
#    x 1.772830 0.000000 0.000000 
#    y 0.000000 1.769950 0.000000 
#    z 0.000000 0.000000 1.783220 
# 
# From -- ./inp_files/37520.got.cif
#   From: 2010.05.17/outbox.cif.g08.bks.cpg/sg48_19_cif.got.tgz:37520.got - 2010.06.03 20:39:00.
