data_PCOD9391581
_publ_section_title
;
Structure prediction by ZEFSAII (Michael W. Deem and Ramdas Pophale) SiO2 
 PCOD9391581
Probable space group: P N N N
;
_chemical_formula_sum "Si O2"
_cell_formula_units_Z 48
_cell_length_a 8.835724
_cell_length_b 17.422441
_cell_length_c 13.495312
_cell_angle_alpha 90.000000
_cell_angle_beta 90.000000
_cell_angle_gamma 90.000000
_cell_volume 2077.466711
_symmetry_space_group_name_H-M "P N N N"
_symmetry_group_IT_number 48
_space_group.IT_coordinate_system_code '2'
_symmetry_cell_setting 'orthorhombic'
loop_
_space_group_symop_operation_xyz
x,y,z
1/2-x,1/2-y,z
x,1/2-y,1/2-z
1/2-x,y,1/2-z
-x,-y,-z
1/2+x,1/2+y,-z
-x,1/2+y,1/2+z
1/2+x,-y,1/2+z
loop_
_atom_site_type_symbol
_atom_site_label
_atom_site_fract_x
_atom_site_fract_y
_atom_site_fract_z
Si Si1 0.574251 0.777427 0.144877
Si Si2 0.090111 0.062824 0.714879
Si Si3 0.123636 0.941793 0.547898
Si Si4 0.483001 0.219252 0.060563
Si Si5 0.815952 0.652848 0.642591
Si Si6 0.893561 0.480878 0.592858
O O1 0.750000 0.750000 0.139453
O O2 0.514684 0.750000 0.250000
O O3 0.540684 0.868627 0.142209
O O4 0.494168 0.745483 0.047989
O O5 0.250000 0.096241 0.750000
O O6 0.980683 0.053546 0.810620
O O7 0.137107 0.986822 0.653773
O O8 0.255281 0.940279 0.464435
O O9 0.087741 0.853827 0.576528
O O10 0.000000 0.000000 0.500000
O O11 0.315561 0.178990 0.066679
O O12 0.462471 0.293342 0.129495
O O13 0.750000 0.666680 0.750000
O O14 0.839848 0.563677 0.630299
O O15 0.000000 0.500000 0.500000
#
# Coordination Sequence:
#
# PCOD9391581 Si02
#       6
#     8   8   8   8   8   8
#     4  11  21  35  67 100 126 172 235 294 346 430
#     4  12  24  42  69 103 144 187 243 298 371 452
#     4  12  24  45  70 107 143 189 244 314 369 447
#     4  11  22  40  70 101 139 174 244 307 368 429
#     4  11  23  41  70 107 139 191 252 311 368 475
#     4  12  27  43  72 105 151 198 250 305 390 461
#
# _framework density 23.105063999999999
#
# number of rings (size 3 to 8) (size 9 to 14) (size 15 to 20)
#    0.000    0.500    8.333    2.000    2.333    0.000 
#    0.000    0.833    0.000    2.000    0.000    0.000 
#    0.000    0.000    0.000    0.000    0.000    0.000 
#
# Total GULP energy -267502.397507 kJ/mol
# GULP energy per Si atom -5572.966615 kJ/mol
# Density = 2.305248 g / cm^3
# Si number density = 23.105064 Si / 1000 Ang^3
#
#
#
# Elastic Constant Matrix: (Units=GPa)
#
#
# Indices 1 2 3 4 5 6 
#
# 1 63.4714 22.5333 20.7272 0.0000 0.0000 0.0000
# 2 22.5333 113.4592 40.2842 0.0000 0.0000 0.0000
# 3 20.7272 40.2842 148.2564 0.0000 0.0000 0.0000
# 4 0.0000 0.0000 0.0000 -9.9715 0.0000 0.0000
# 5 0.0000 0.0000 0.0000 0.0000 26.9984 0.0000
# 6 0.0000 0.0000 0.0000 0.0000 0.0000 34.5074
#
#
#
# Elastic Compliance Matrix: (Units=1/GPa)
#
#
# Indices 1 2 3 4 5 6 
#
# 1 0.017305 -0.002853 -0.001644 0.000000 0.000000 0.000000
# 2 -0.002853 0.010225 -0.002380 0.000000 0.000000 0.000000
# 3 -0.001644 -0.002380 0.007621 0.000000 0.000000 0.000000
# 4 0.000000 0.000000 0.000000 -0.100285 0.000000 0.000000
# 5 0.000000 0.000000 0.000000 0.000000 0.037039 0.000000
# 6 0.000000 0.000000 0.000000 0.000000 0.000000 0.028979
#
#
# Mechanical properties :
#
#
# Convention : Reuss Voigt Hill
#
# Bulk Modulus (GPa) = 46.73276 54.69737 50.71507
# Shear Modulus (GPa) = 229.66520 26.41635 128.04077
#
# Velocity S-wave (km/s) = 9.98079 3.38496 7.45232
# Velocity P-wave (km/s) = 12.37302 6.24516 9.80035
#
# Compressibility (1/GPa) = 0.02139826
#
# Stress axis : x y z
#
# Youngs Moduli (GPa) = 57.78709 97.79740 131.20790
#
# Poissons Ratio (x) = 0.27902 0.21572
# Poissons Ratio (y) = 0.16487 0.31221
# Poissons Ratio (z) = 0.09501 0.23271
#
# Static dielectric constant tensor:
#      x y z
#    x 2.031590 0.000000 0.000000 
#    y 0.000000 1.907360 0.000000 
#    z 0.000000 0.000000 1.967780 
# 
# From -- ./inp_files/25370.got.cif
#   From: 2010.05.17/outbox.cif.g08.bks.cpg/sg48_13_cif.got.tgz:25370.got - 2010.06.03 20:39:00.
