data_PCOD9391820
_publ_section_title
;
Structure prediction by ZEFSAII (Michael W. Deem and Ramdas Pophale) SiO2 
 PCOD9391820
Probable space group: P N N N
;
_chemical_formula_sum "Si O2"
_cell_formula_units_Z 58
_cell_length_a 9.455810
_cell_length_b 25.340009
_cell_length_c 11.237214
_cell_angle_alpha 90.000000
_cell_angle_beta 90.000000
_cell_angle_gamma 90.000000
_cell_volume 2692.552336
_symmetry_space_group_name_H-M "P N N N"
_symmetry_group_IT_number 48
_space_group.IT_coordinate_system_code '2'
_symmetry_cell_setting 'orthorhombic'
loop_
_space_group_symop_operation_xyz
x,y,z
1/2-x,1/2-y,z
x,1/2-y,1/2-z
1/2-x,y,1/2-z
-x,-y,-z
1/2+x,1/2+y,-z
-x,1/2+y,1/2+z
1/2+x,-y,1/2+z
loop_
_atom_site_type_symbol
_atom_site_label
_atom_site_fract_x
_atom_site_fract_y
_atom_site_fract_z
Si Si1 0.606884 0.520330 0.596276
Si Si2 0.947715 0.439601 0.510761
Si Si3 0.170400 0.593261 0.138016
Si Si4 0.250000 0.250000 0.750000
Si Si5 0.395712 0.307977 0.306285
Si Si6 0.718092 0.933000 0.380147
Si Si7 0.406273 0.331957 0.583061
Si Si8 0.079890 0.900342 0.753440
O O1 0.500000 0.500000 0.500000
O O2 0.623887 0.466964 0.674027
O O3 0.731713 0.540135 0.506654
O O4 0.522203 0.564999 0.667501
O O5 0.788063 0.423345 0.541026
O O6 0.973708 0.414189 0.384128
O O7 0.000000 0.500000 0.500000
O O8 0.053131 0.419667 0.612202
O O9 0.250000 0.617376 0.250000
O O10 0.055088 0.635510 0.094419
O O11 0.356651 0.285441 0.670303
O O12 0.405553 0.250000 0.250000
O O13 0.250000 0.331697 0.250000
O O14 0.386427 0.310987 0.448802
O O15 0.534581 0.340907 0.272876
O O16 0.750000 0.959542 0.250000
O O17 0.800230 0.878887 0.385082
O O18 0.250000 0.909632 0.750000
#
# Coordination Sequence:
#
# PCOD9391820 Si02
#       8
#     8   8   8   2   8   8   8   8
#     4  12  24  41  71 104 150 196 235 291 366 443
#     4  12  26  40  67 109 149 195 241 285 360 454
#     4  12  26  47  70 109 157 197 242 305 375 454
#     4  12  28  48  84 108 136 196 274 326 370 456
#     4  11  24  47  77 106 136 181 241 313 377 438
#     4  12  25  43  72 105 146 193 245 297 359 448
#     4  12  25  50  77 104 145 193 254 314 385 440
#     4  12  27  44  69 102 146 189 239 292 359 437
#
# _framework density 21.540901000000002
#
# number of rings (size 3 to 8) (size 9 to 14) (size 15 to 20)
#    0.000    0.138    4.828    4.966    1.931    0.276 
#    1.241    0.345    0.000    0.000    0.000    0.000 
#    0.000    0.000    0.000    0.000    0.000    0.000 
#
# Total GULP energy -323342.895820 kJ/mol
# GULP energy per Si atom -5574.877514 kJ/mol
# Density = 2.149187 g / cm^3
# Si number density = 21.540901 Si / 1000 Ang^3
#
#
#
# Elastic Constant Matrix: (Units=GPa)
#
#
# Indices 1 2 3 4 5 6 
#
# 1 138.3568 65.1040 53.6732 0.0000 0.0000 0.0000
# 2 65.1040 89.9593 62.0501 0.0000 0.0000 0.0000
# 3 53.6732 62.0501 137.1805 0.0000 0.0000 0.0000
# 4 0.0000 0.0000 0.0000 32.5435 0.0000 0.0000
# 5 0.0000 0.0000 0.0000 0.0000 42.3315 0.0000
# 6 0.0000 0.0000 0.0000 0.0000 0.0000 24.2662
#
#
#
# Elastic Compliance Matrix: (Units=1/GPa)
#
#
# Indices 1 2 3 4 5 6 
#
# 1 0.011059 -0.007295 -0.001027 0.000000 0.000000 0.000000
# 2 -0.007295 0.020969 -0.006631 0.000000 0.000000 0.000000
# 3 -0.001027 -0.006631 0.010691 0.000000 0.000000 0.000000
# 4 0.000000 0.000000 0.000000 0.030728 0.000000 0.000000
# 5 0.000000 0.000000 0.000000 0.000000 0.023623 0.000000
# 6 0.000000 0.000000 0.000000 0.000000 0.000000 0.041210
#
#
# Mechanical properties :
#
#
# Convention : Reuss Voigt Hill
#
# Bulk Modulus (GPa) = 78.04434 80.79459 79.41947
# Shear Modulus (GPa) = 28.99301 32.13952 30.56626
#
# Velocity S-wave (km/s) = 3.67270 3.86686 3.77103
# Velocity P-wave (km/s) = 7.36847 7.58458 7.47731
#
# Compressibility (1/GPa) = 0.01281323
#
# Stress axis : x y z
#
# Youngs Moduli (GPa) = 90.42626 47.68972 93.53854
#
# Poissons Ratio (x) = 0.34788 0.09609
# Poissons Ratio (y) = 0.65963 0.62022
# Poissons Ratio (z) = 0.09289 0.31621
#
# Static dielectric constant tensor:
#      x y z
#    x 1.859650 0.000000 0.000000 
#    y 0.000000 1.624510 0.000000 
#    z 0.000000 0.000000 1.774400 
# 
# From -- ./inp_files/18977.got.cif
#   From: 2010.05.17/outbox.cif.g08.bks.cpg/sg48_10_cif.got.tgz:18977.got - 2010.06.03 20:39:00.
