data_PCOD9391933
_publ_section_title
;
Structure prediction by ZEFSAII (Michael W. Deem and Ramdas Pophale) SiO2 
 PCOD9391933
Probable space group: P N N N
;
_chemical_formula_sum "Si O2"
_cell_formula_units_Z 48
_cell_length_a 15.000000
_cell_length_b 18.000000
_cell_length_c 9.000000
_cell_angle_alpha 90.000000
_cell_angle_beta 90.000000
_cell_angle_gamma 90.000000
_cell_volume 2430.000000
_symmetry_space_group_name_H-M "P N N N"
_symmetry_group_IT_number 48
_space_group.IT_coordinate_system_code '2'
_symmetry_cell_setting 'orthorhombic'
loop_
_space_group_symop_operation_xyz
x,y,z
1/2-x,1/2-y,z
x,1/2-y,1/2-z
1/2-x,y,1/2-z
-x,-y,-z
1/2+x,1/2+y,-z
-x,1/2+y,1/2+z
1/2+x,-y,1/2+z
loop_
_atom_site_type_symbol
_atom_site_label
_atom_site_fract_x
_atom_site_fract_y
_atom_site_fract_z
Si Si1 0.506381 0.550715 0.314196
Si Si2 0.432878 0.188650 0.624869
Si Si3 0.158819 0.953276 0.831147
Si Si4 0.032667 0.682697 0.659560
Si Si5 0.413661 0.089357 0.117896
Si Si6 0.266832 0.403712 0.931041
O O1 0.517110 0.617729 0.198668
O O2 0.592538 0.498455 0.279470
O O3 0.423501 0.493885 0.312108
O O4 0.518897 0.584799 0.477417
O O5 0.416242 0.250000 0.750000
O O6 0.492301 0.216081 0.490164
O O7 0.340911 0.159353 0.553637
O O8 0.250000 0.930593 0.750000
O O9 0.101561 0.882790 0.878376
O O10 0.188295 0.015045 0.951874
O O11 0.075140 0.750000 0.750000
O O12 0.953455 0.646054 0.760879
O O13 0.318414 0.105055 0.038403
O O14 0.250000 0.401666 0.750000
#
# Coordination Sequence:
#
# PCOD9391933 Si02
#       6
#     8   8   8   8   8   8
#     4   9  18  34  63  87 117 158 196 247 302 363
#     4  11  23  41  57  84 126 168 200 240 308 380
#     4   9  17  36  62  90 111 149 209 247 295 366
#     4  11  25  38  56  89 124 160 203 254 307 351
#     4  10  18  36  61  93 118 149 204 255 293 353
#     4  10  19  37  63  93 114 157 207 242 299 366
#
# _framework density 19.753086
#
# number of rings (size 3 to 8) (size 9 to 14) (size 15 to 20)
#    0.000    2.000    5.000    1.000    0.000    7.333 
#    0.000    0.833    0.000    0.000    0.000    0.000 
#    0.000    0.000    0.000    0.000    0.000    0.000 
#
# Total GULP energy -267597.948247 kJ/mol
# GULP energy per Si atom -5574.957255 kJ/mol
# Density = 1.970813 g / cm^3
# Si number density = 19.753086 Si / 1000 Ang^3
#
#
#
# Elastic Constant Matrix: (Units=GPa)
#
#
# Indices 1 2 3 4 5 6 
#
# 1 70.9099 20.8413 20.6429 0.0000 0.0000 0.0000
# 2 20.8413 67.7163 6.7638 0.0000 0.0000 0.0000
# 3 20.6429 6.7638 42.2306 0.0000 0.0000 0.0000
# 4 0.0000 0.0000 0.0000 24.1457 0.0000 0.0000
# 5 0.0000 0.0000 0.0000 0.0000 25.0066 0.0000
# 6 0.0000 0.0000 0.0000 0.0000 0.0000 17.5599
#
#
#
# Elastic Compliance Matrix: (Units=1/GPa)
#
#
# Indices 1 2 3 4 5 6 
#
# 1 0.017792 -0.004682 -0.007947 0.000000 0.000000 0.000000
# 2 -0.004682 0.016240 -0.000312 0.000000 0.000000 0.000000
# 3 -0.007947 -0.000312 0.027614 0.000000 0.000000 0.000000
# 4 0.000000 0.000000 0.000000 0.041415 0.000000 0.000000
# 5 0.000000 0.000000 0.000000 0.000000 0.039989 0.000000
# 6 0.000000 0.000000 0.000000 0.000000 0.000000 0.056948
#
#
# Mechanical properties :
#
#
# Convention : Reuss Voigt Hill
#
# Bulk Modulus (GPa) = 27.96195 30.81696 29.38946
# Shear Modulus (GPa) = 21.02585 22.18303 21.60444
#
# Velocity S-wave (km/s) = 3.26611 3.35478 3.31074
# Velocity P-wave (km/s) = 5.33008 5.53543 5.43373
#
# Compressibility (1/GPa) = 0.03576288
#
# Stress axis : x y z
#
# Youngs Moduli (GPa) = 56.20490 61.57739 36.21330
#
# Poissons Ratio (x) = 0.28831 0.28779
# Poissons Ratio (y) = 0.26316 0.01131
# Poissons Ratio (z) = 0.44666 0.01923
#
# Static dielectric constant tensor:
#      x y z
#    x 1.715360 0.000000 0.000000 
#    y 0.000000 1.741480 0.000000 
#    z 0.000000 0.000000 1.724350 
# 
# From -- ./inp_files/12797.got.cif
#   From: 2010.05.17/outbox.ucp.g08.bks.cvg/sg48_7_cif.got.tgz:12797.got - 2010.06.11 16:38:40.
