data_PCOD9391101
_publ_section_title
;
Structure prediction by ZEFSAII (Michael W. Deem and Ramdas Pophale) SiO2 
 PCOD9391101
Probable space group: P N N N
;
_chemical_formula_sum "Si O2"
_cell_formula_units_Z 52
_cell_length_a 15.352669
_cell_length_b 12.666630
_cell_length_c 13.819637
_cell_angle_alpha 90.000000
_cell_angle_beta 90.000000
_cell_angle_gamma 90.000000
_cell_volume 2687.457513
_symmetry_space_group_name_H-M "P N N N"
_symmetry_group_IT_number 48
_space_group.IT_coordinate_system_code '2'
_symmetry_cell_setting 'orthorhombic'
loop_
_space_group_symop_operation_xyz
x,y,z
1/2-x,1/2-y,z
x,1/2-y,1/2-z
1/2-x,y,1/2-z
-x,-y,-z
1/2+x,1/2+y,-z
-x,1/2+y,1/2+z
1/2+x,-y,1/2+z
loop_
_atom_site_type_symbol
_atom_site_label
_atom_site_fract_x
_atom_site_fract_y
_atom_site_fract_z
Si Si1 0.558622 0.532245 0.591811
Si Si2 0.912956 0.740271 0.642192
Si Si3 0.037791 0.541865 0.602483
Si Si4 0.172280 0.435886 0.924633
Si Si5 0.230493 0.635351 0.635838
Si Si6 0.021482 0.125910 0.726598
Si Si7 0.250000 0.250000 0.998174
O O1 0.500000 0.500000 0.500000
O O2 0.533608 0.649485 0.627788
O O3 0.649051 0.550648 0.538090
O O4 0.554246 0.440414 0.670649
O O5 0.875363 0.750000 0.750000
O O6 0.835782 0.735928 0.563875
O O7 0.973987 0.638008 0.633854
O O8 0.135241 0.591622 0.606684
O O9 0.037798 0.443822 0.677686
O O10 0.000000 0.500000 0.500000
O O11 0.198953 0.550278 0.894272
O O12 0.099955 0.389421 0.851434
O O13 0.247654 0.350519 0.927978
O O14 0.250000 0.750000 0.592674
O O15 0.250000 0.642556 0.750000
O O16 0.007769 0.250000 0.750000
#
# Coordination Sequence:
#
# PCOD9391101 Si02
#       7
#     8   8   8   8   8   8   4
#     4   9  21  38  63  88 120 168 211 263 323 394
#     4  11  22  41  68  93 130 170 223 276 333 388
#     4  12  27  41  66 100 139 175 227 285 334 404
#     4  10  22  41  64  89 132 167 219 261 336 393
#     4  11  25  40  64  95 133 178 222 268 335 402
#     4  11  24  40  62  95 128 172 219 276 339 396
#     4  10  23  40  67 100 126 172 216 281 331 404
#
# _framework density 19.349145
#
# number of rings (size 3 to 8) (size 9 to 14) (size 15 to 20)
#    0.000    1.385    3.077    1.154   15.077    0.000 
#    0.000    0.000    0.000    0.000    0.000    3.231 
#    0.000    0.000    0.000    0.000    0.000    0.000 
#
# Total GULP energy -289490.506506 kJ/mol
# GULP energy per Si atom -5567.125125 kJ/mol
# Density = 1.930511 g / cm^3
# Si number density = 19.349145 Si / 1000 Ang^3
#
#
#
# Elastic Constant Matrix: (Units=GPa)
#
#
# Indices 1 2 3 4 5 6 
#
# 1 40.9991 25.8035 12.3003 0.0000 0.0000 0.0000
# 2 25.8035 194.5425 52.6184 0.0000 0.0000 0.0000
# 3 12.3003 52.6184 96.6755 0.0000 0.0000 0.0000
# 4 0.0000 0.0000 0.0000 -78.0784 0.0000 0.0000
# 5 0.0000 0.0000 0.0000 0.0000 18.3128 0.0000
# 6 0.0000 0.0000 0.0000 0.0000 0.0000 16.4469
#
#
#
# Elastic Compliance Matrix: (Units=1/GPa)
#
#
# Indices 1 2 3 4 5 6 
#
# 1 0.026858 -0.003093 -0.001733 0.000000 0.000000 0.000000
# 2 -0.003093 0.006384 -0.003081 0.000000 0.000000 0.000000
# 3 -0.001733 -0.003081 0.012241 0.000000 0.000000 0.000000
# 4 0.000000 0.000000 0.000000 -0.012808 0.000000 0.000000
# 5 0.000000 0.000000 0.000000 0.000000 0.054607 0.000000
# 6 0.000000 0.000000 0.000000 0.000000 0.000000 0.060802
#
#
# Mechanical properties :
#
#
# Convention : Reuss Voigt Hill
#
# Bulk Modulus (GPa) = 33.70736 57.07349 45.39042
# Shear Modulus (GPa) = 28.77054 7.43591 18.10323
#
# Velocity S-wave (km/s) = 3.86024 1.96249 3.06209
# Velocity P-wave (km/s) = 6.10958 5.89032 6.00095
#
# Compressibility (1/GPa) = 0.02966711
#
# Stress axis : x y z
#
# Youngs Moduli (GPa) = 37.23312 156.64388 81.69015
#
# Poissons Ratio (x) = 0.48457 0.14161
# Poissons Ratio (y) = 0.11518 0.25169
# Poissons Ratio (z) = 0.06454 0.48262
#
# Static dielectric constant tensor:
#      x y z
#    x 1.816270 0.000000 0.000000 
#    y 0.000000 1.694530 0.000000 
#    z 0.000000 0.000000 1.666400 
# 
# From -- ./inp_files/28013.got.cif
#   From: 2010.05.17/outbox.cif.g08.bks.cpg/sg48_15_cif.got.tgz:28013.got - 2010.06.03 20:39:00.
