data_PCOD9391047
_publ_section_title
;
Structure prediction by ZEFSAII (Michael W. Deem and Ramdas Pophale) SiO2 
 PCOD9391047
Probable space group: P N N N
;
_chemical_formula_sum "Si O2"
_cell_formula_units_Z 48
_cell_length_a 14.031028
_cell_length_b 11.926331
_cell_length_c 13.973347
_cell_angle_alpha 90.000000
_cell_angle_beta 90.000000
_cell_angle_gamma 90.000000
_cell_volume 2338.281501
_symmetry_space_group_name_H-M "P N N N"
_symmetry_group_IT_number 48
_space_group.IT_coordinate_system_code '2'
_symmetry_cell_setting 'orthorhombic'
loop_
_space_group_symop_operation_xyz
x,y,z
1/2-x,1/2-y,z
x,1/2-y,1/2-z
1/2-x,y,1/2-z
-x,-y,-z
1/2+x,1/2+y,-z
-x,1/2+y,1/2+z
1/2+x,-y,1/2+z
loop_
_atom_site_type_symbol
_atom_site_label
_atom_site_fract_x
_atom_site_fract_y
_atom_site_fract_z
Si Si1 0.398659 0.271015 0.101021
Si Si2 0.320723 0.109581 0.573170
Si Si3 0.024875 0.025415 0.358288
Si Si4 0.250000 0.250000 0.750000
Si Si5 0.250000 0.250000 0.250000
Si Si6 0.347509 0.950513 0.994603
Si Si7 0.077090 0.589748 0.661524
Si Si8 0.750000 0.250000 0.118546
O O1 0.421562 0.142960 0.123145
O O2 0.320762 0.313851 0.178085
O O3 0.497509 0.332951 0.115431
O O4 0.358767 0.295584 0.997104
O O5 0.301248 0.166126 0.675728
O O6 0.233094 0.044773 0.522468
O O7 0.395421 0.011214 0.592515
O O8 0.934534 0.012441 0.427216
O O9 0.973902 0.037581 0.255436
O O10 0.106281 0.940937 0.398975
O O11 0.308414 0.835399 0.949277
O O12 0.172598 0.668184 0.672962
#
# Coordination Sequence:
#
# PCOD9391047 Si02
#       8
#     8   8   8   2   2   8   8   4
#     4  12  23  41  64  98 132 179 215 283 324 407
#     4  11  25  41  66  93 135 175 220 273 343 400
#     4  11  21  39  64  99 131 170 226 273 336 394
#     4  12  22  44  60  96 128 178 218 272 340 404
#     4  12  22  36  64  96 132 170 226 264 332 380
#     4  10  22  39  63  96 134 174 219 279 334 398
#     4  11  23  42  66 102 132 175 220 280 334 405
#     4  10  22  41  66 102 139 172 222 285 344 387
#
# _framework density 20.527895999999998
#
# number of rings (size 3 to 8) (size 9 to 14) (size 15 to 20)
#    0.000    1.000    3.333    4.000    0.000    4.000 
#    0.000    0.000    0.000    0.000    4.333    0.000 
#    0.000    0.000    0.000    0.000    0.000    0.000 
#
# Total GULP energy -267638.563695 kJ/mol
# GULP energy per Si atom -5575.803410 kJ/mol
# Density = 2.048117 g / cm^3
# Si number density = 20.527896 Si / 1000 Ang^3
#
#
#
# Elastic Constant Matrix: (Units=GPa)
#
#
# Indices 1 2 3 4 5 6 
#
# 1 113.8971 14.1001 45.9888 0.0000 0.0000 0.0000
# 2 14.1001 30.4994 2.5659 0.0000 0.0000 0.0000
# 3 45.9888 2.5659 108.8984 0.0000 0.0000 0.0000
# 4 0.0000 0.0000 0.0000 28.2710 0.0000 0.0000
# 5 0.0000 0.0000 0.0000 0.0000 78.5495 0.0000
# 6 0.0000 0.0000 0.0000 0.0000 0.0000 31.0652
#
#
#
# Elastic Compliance Matrix: (Units=1/GPa)
#
#
# Indices 1 2 3 4 5 6 
#
# 1 0.011247 -0.004810 -0.004637 0.000000 0.000000 0.000000
# 2 -0.004810 0.034909 0.001209 0.000000 0.000000 0.000000
# 3 -0.004637 0.001209 0.011112 0.000000 0.000000 0.000000
# 4 0.000000 0.000000 0.000000 0.035372 0.000000 0.000000
# 5 0.000000 0.000000 0.000000 0.000000 0.012731 0.000000
# 6 0.000000 0.000000 0.000000 0.000000 0.000000 0.032190
#
#
# Mechanical properties :
#
#
# Convention : Reuss Voigt Hill
#
# Bulk Modulus (GPa) = 24.51339 42.06717 33.29028
# Shear Modulus (GPa) = 29.82660 40.28648 35.05654
#
# Velocity S-wave (km/s) = 3.81593 4.43484 4.13698
# Velocity P-wave (km/s) = 5.60201 6.83820 6.25074
#
# Compressibility (1/GPa) = 0.04079403
#
# Stress axis : x y z
#
# Youngs Moduli (GPa) = 88.90936 28.64558 89.98910
#
# Poissons Ratio (x) = 0.13778 0.41724
# Poissons Ratio (y) = 0.42763 -0.10876
# Poissons Ratio (z) = 0.41223 -0.03462
#
# Static dielectric constant tensor:
#      x y z
#    x 1.813110 0.000000 0.000000 
#    y 0.000000 1.759430 0.000000 
#    z 0.000000 0.000000 1.795790 
# 
# From -- ./inp_files/21305.got.cif
#   From: 2010.05.17/outbox.cif.g08.bks.cpg/sg48_11_cif.got.tgz:21305.got - 2010.06.03 20:39:00.
