data_PCOD9391510
_publ_section_title
;
Structure prediction by ZEFSAII (Michael W. Deem and Ramdas Pophale) SiO2 
 PCOD9391510
Probable space group: P N N N
;
_chemical_formula_sum "Si O2"
_cell_formula_units_Z 56
_cell_length_a 5.371960
_cell_length_b 25.615932
_cell_length_c 20.156172
_cell_angle_alpha 90.000000
_cell_angle_beta 90.000000
_cell_angle_gamma 90.000000
_cell_volume 2773.645721
_symmetry_space_group_name_H-M "P N N N"
_symmetry_group_IT_number 48
_space_group.IT_coordinate_system_code '2'
_symmetry_cell_setting 'orthorhombic'
loop_
_space_group_symop_operation_xyz
x,y,z
1/2-x,1/2-y,z
x,1/2-y,1/2-z
1/2-x,y,1/2-z
-x,-y,-z
1/2+x,1/2+y,-z
-x,1/2+y,1/2+z
1/2+x,-y,1/2+z
loop_
_atom_site_type_symbol
_atom_site_label
_atom_site_fract_x
_atom_site_fract_y
_atom_site_fract_z
Si Si1 0.469006 0.068885 0.422321
Si Si2 0.989727 0.718408 0.464164
Si Si3 0.891897 0.483667 0.927503
Si Si4 0.266789 0.877001 0.038516
Si Si5 0.853979 0.666885 0.934255
Si Si6 0.353821 0.946076 0.815935
Si Si7 0.996620 0.831422 0.711001
O O1 0.622907 0.086903 0.485609
O O2 0.238832 0.108147 0.420946
O O3 0.628459 0.078716 0.357572
O O4 0.381865 0.009516 0.425221
O O5 0.250000 0.750000 0.466309
O O6 0.070743 0.663552 0.430515
O O7 0.750000 0.750000 0.435858
O O8 0.879133 0.699636 0.536251
O O9 0.898985 0.421428 0.918594
O O10 0.025340 0.513762 0.867254
O O11 0.000000 0.500000 0.000000
O O12 0.456039 0.842464 0.994673
O O13 0.974359 0.686684 0.866027
O O14 0.250000 0.972903 0.750000
O O15 0.503865 0.895079 0.792475
O O16 0.750000 0.814394 0.750000
O O17 0.250000 0.816642 0.750000
#
# Coordination Sequence:
#
# PCOD9391510 Si02
#       7
#     8   8   8   8   8   8   8
#     4  11  19  34  53  81 122 155 205 239 287 343
#     4  11  24  40  60  84 107 144 189 249 315 372
#     4  12  21  34  53  84 123 160 204 243 286 351
#     4  11  22  35  57  85 108 154 198 245 297 362
#     4  11  20  36  59  83 112 146 200 244 303 356
#     4  11  23  32  50  79 123 169 207 239 284 337
#     4  11  22  34  54  81 113 152 203 246 278 335
#
# _framework density 20.190033
#
# number of rings (size 3 to 8) (size 9 to 14) (size 15 to 20)
#    0.000    0.857    7.143    2.143    2.000    0.000 
#    0.000    0.000    0.000    0.429    3.714    0.000 
#    0.000    0.000    0.000   18.000    0.571    0.000 
#
# Total GULP energy -312203.914754 kJ/mol
# GULP energy per Si atom -5575.069906 kJ/mol
# Density = 2.014408 g / cm^3
# Si number density = 20.190033 Si / 1000 Ang^3
#
#
#
# Elastic Constant Matrix: (Units=GPa)
#
#
# Indices 1 2 3 4 5 6 
#
# 1 88.9503 20.6967 1.8437 0.0000 0.0000 0.0000
# 2 20.6967 79.1582 9.5169 0.0000 0.0000 0.0000
# 3 1.8437 9.5169 33.5053 0.0000 0.0000 0.0000
# 4 0.0000 0.0000 0.0000 8.8999 0.0000 0.0000
# 5 0.0000 0.0000 0.0000 0.0000 24.5853 0.0000
# 6 0.0000 0.0000 0.0000 0.0000 0.0000 30.2610
#
#
#
# Elastic Compliance Matrix: (Units=1/GPa)
#
#
# Indices 1 2 3 4 5 6 
#
# 1 0.011972 -0.003159 0.000238 0.000000 0.000000 0.000000
# 2 -0.003159 0.013913 -0.003778 0.000000 0.000000 0.000000
# 3 0.000238 -0.003778 0.030906 0.000000 0.000000 0.000000
# 4 0.000000 0.000000 0.000000 0.112361 0.000000 0.000000
# 5 0.000000 0.000000 0.000000 0.000000 0.040675 0.000000
# 6 0.000000 0.000000 0.000000 0.000000 0.000000 0.033046
#
#
# Mechanical properties :
#
#
# Convention : Reuss Voigt Hill
#
# Bulk Modulus (GPa) = 23.04450 29.52539 26.28495
# Shear Modulus (GPa) = 18.46824 24.05298 21.26061
#
# Velocity S-wave (km/s) = 3.02772 3.45531 3.24856
# Velocity P-wave (km/s) = 4.86429 5.52941 5.20748
#
# Compressibility (1/GPa) = 0.04339431
#
# Stress axis : x y z
#
# Youngs Moduli (GPa) = 83.52605 71.87478 32.35615
#
# Poissons Ratio (x) = 0.22705 -0.00772
# Poissons Ratio (y) = 0.26385 0.12224
# Poissons Ratio (z) = -0.01992 0.27155
#
# Static dielectric constant tensor:
#      x y z
#    x 1.848580 0.000000 0.000000 
#    y 0.000000 1.820800 0.000000 
#    z 0.000000 0.000000 1.718790 
# 
# From -- ./inp_files/33029.got.cif
#   From: 2010.05.17/outbox.cif.g08.bks.cpg/sg48_17_cif.got.tgz:33029.got - 2010.06.03 20:39:00.
