data_PCOD9391877
_publ_section_title
;
Structure prediction by ZEFSAII (Michael W. Deem and Ramdas Pophale) SiO2 
 PCOD9391877
Probable space group: P N N N
;
_chemical_formula_sum "Si O2"
_cell_formula_units_Z 34
_cell_length_a 11.252071
_cell_length_b 7.233733
_cell_length_c 17.729856
_cell_angle_alpha 90.000000
_cell_angle_beta 90.000000
_cell_angle_gamma 90.000000
_cell_volume 1443.112362
_symmetry_space_group_name_H-M "P N N N"
_symmetry_group_IT_number 48
_space_group.IT_coordinate_system_code '2'
_symmetry_cell_setting 'orthorhombic'
loop_
_space_group_symop_operation_xyz
x,y,z
1/2-x,1/2-y,z
x,1/2-y,1/2-z
1/2-x,y,1/2-z
-x,-y,-z
1/2+x,1/2+y,-z
-x,1/2+y,1/2+z
1/2+x,-y,1/2+z
loop_
_atom_site_type_symbol
_atom_site_label
_atom_site_fract_x
_atom_site_fract_y
_atom_site_fract_z
Si Si1 0.461100 0.012828 0.914283
Si Si2 0.791419 0.456435 0.481803
Si Si3 0.628310 0.820320 0.633628
Si Si4 0.051188 0.410075 0.647859
Si Si5 0.250000 0.250000 0.750000
O O1 0.318300 0.014805 0.926928
O O2 0.534707 0.847767 0.876523
O O3 0.490658 0.208672 0.878042
O O4 0.500000 0.000000 0.000000
O O5 0.750000 0.250000 0.505103
O O6 0.825733 0.581179 0.554187
O O7 0.903015 0.476742 0.425708
O O8 0.750000 0.750000 0.667291
O O9 0.557703 0.974925 0.679621
O O10 0.160706 0.378356 0.703095
#
# Coordination Sequence:
#
# PCOD9391877 Si02
#       5
#     8   8   8   8   2
#     4  12  21  39  66 105 150 182 230 297 373 426
#     4  12  21  38  67 111 149 182 231 298 369 427
#     4  12  25  39  67 112 148 181 229 299 377 435
#     4  12  25  45  69 104 139 191 248 288 356 424
#     4  12  28  52  78  98 144 206 256 300 338 440
#
# _framework density 23.560188
#
# number of rings (size 3 to 8) (size 9 to 14) (size 15 to 20)
#    0.000    0.000    9.412    2.118    0.000    0.000 
#    0.000    5.294    0.000    4.235    0.000    0.000 
#    0.000    0.000    0.000    0.000    0.000    0.000 
#
# Total GULP energy -189943.396308 kJ/mol
# GULP energy per Si atom -5586.570480 kJ/mol
# Density = 2.350656 g / cm^3
# Si number density = 23.560188 Si / 1000 Ang^3
#
#
#
# Elastic Constant Matrix: (Units=GPa)
#
#
# Indices 1 2 3 4 5 6 
#
# 1 162.2191 86.8333 35.7915 0.0000 0.0000 0.0000
# 2 86.8333 169.9562 29.0134 0.0000 0.0000 0.0000
# 3 35.7915 29.0134 70.0010 0.0000 0.0000 0.0000
# 4 0.0000 0.0000 0.0000 7.8373 0.0000 0.0000
# 5 0.0000 0.0000 0.0000 0.0000 21.1855 0.0000
# 6 0.0000 0.0000 0.0000 0.0000 0.0000 56.7878
#
#
#
# Elastic Compliance Matrix: (Units=1/GPa)
#
#
# Indices 1 2 3 4 5 6 
#
# 1 0.009001 -0.004104 -0.002902 0.000000 0.000000 0.000000
# 2 -0.004104 0.008203 -0.001302 0.000000 0.000000 0.000000
# 3 -0.002902 -0.001302 0.016309 0.000000 0.000000 0.000000
# 4 0.000000 0.000000 0.000000 0.127595 0.000000 0.000000
# 5 0.000000 0.000000 0.000000 0.000000 0.047202 0.000000
# 6 0.000000 0.000000 0.000000 0.000000 0.000000 0.017609
#
#
# Mechanical properties :
#
#
# Convention : Reuss Voigt Hill
#
# Bulk Modulus (GPa) = 59.17497 78.38363 68.77930
# Shear Modulus (GPa) = 20.14790 33.86467 27.00629
#
# Velocity S-wave (km/s) = 2.92750 3.79538 3.38933
# Velocity P-wave (km/s) = 6.04963 7.24902 6.67631
#
# Compressibility (1/GPa) = 0.01689904
#
# Stress axis : x y z
#
# Youngs Moduli (GPa) = 111.09562 121.91197 61.31752
#
# Poissons Ratio (x) = 0.50027 0.17792
# Poissons Ratio (y) = 0.45589 0.07981
# Poissons Ratio (z) = 0.32235 0.15868
#
# Static dielectric constant tensor:
#      x y z
#    x 1.710980 0.000000 0.000000 
#    y 0.000000 1.882900 0.000000 
#    z 0.000000 0.000000 1.859780 
# 
# From -- ./inp_files/32730.got.cif
#   From: 2010.05.17/outbox.cif.g08.bks.cpg/sg48_17_cif.got.tgz:32730.got - 2010.06.03 20:39:00.
