data_PCOD9391832
_publ_section_title
;
Structure prediction by ZEFSAII (Michael W. Deem and Ramdas Pophale) SiO2 
 PCOD9391832
Probable space group: P N N N
;
_chemical_formula_sum "Si O2"
_cell_formula_units_Z 40
_cell_length_a 15.358400
_cell_length_b 8.178487
_cell_length_c 14.428582
_cell_angle_alpha 90.000000
_cell_angle_beta 90.000000
_cell_angle_gamma 90.000000
_cell_volume 1812.352178
_symmetry_space_group_name_H-M "P N N N"
_symmetry_group_IT_number 48
_space_group.IT_coordinate_system_code '2'
_symmetry_cell_setting 'orthorhombic'
loop_
_space_group_symop_operation_xyz
x,y,z
1/2-x,1/2-y,z
x,1/2-y,1/2-z
1/2-x,y,1/2-z
-x,-y,-z
1/2+x,1/2+y,-z
-x,1/2+y,1/2+z
1/2+x,-y,1/2+z
loop_
_atom_site_type_symbol
_atom_site_label
_atom_site_fract_x
_atom_site_fract_y
_atom_site_fract_z
Si Si1 0.164758 0.158355 0.091990
Si Si2 0.102497 0.481229 0.988216
Si Si3 0.656090 0.936601 0.224897
Si Si4 0.161736 0.813275 0.986697
Si Si5 0.977903 0.122149 0.169003
O O1 0.250000 0.250000 0.134302
O O2 0.080863 0.115980 0.154277
O O3 0.132171 0.305862 0.026187
O O4 0.180171 0.986682 0.037170
O O5 0.131223 0.477666 0.880607
O O6 0.139591 0.643709 0.040710
O O7 0.000000 0.500000 0.000000
O O8 0.669000 0.750000 0.250000
O O9 0.750000 0.017764 0.250000
O O10 0.573421 0.971024 0.290269
O O11 0.250000 0.750000 0.937242
O O12 0.076585 0.836758 0.923300
O O13 0.960400 0.250000 0.250000
#
# Coordination Sequence:
#
# PCOD9391832 Si02
#       5
#     8   8   8   8   8
#     4  12  27  45  71 100 141 188 243 283 341 429
#     4  12  24  45  68 102 144 184 236 294 356 430
#     4  11  25  42  70 105 147 182 233 304 371 426
#     4  12  24  42  72 102 134 179 232 288 358 415
#     4  12  25  45  68 101 140 184 227 293 353 418
#
# _framework density 22.070765999999999
#
# number of rings (size 3 to 8) (size 9 to 14) (size 15 to 20)
#    0.000    0.200    6.000    3.000    5.600    0.400 
#    0.000    0.000    0.000    0.000    0.000    0.000 
#    0.000    0.000    0.000    0.000    0.000    0.000 
#
# Total GULP energy -222678.743428 kJ/mol
# GULP energy per Si atom -5566.968586 kJ/mol
# Density = 2.202053 g / cm^3
# Si number density = 22.070766 Si / 1000 Ang^3
#
#
#
# Elastic Constant Matrix: (Units=GPa)
#
#
# Indices 1 2 3 4 5 6 
#
# 1 183.4806 45.8923 27.6656 0.0000 0.0000 0.0000
# 2 45.8923 175.9910 21.8373 0.0000 0.0000 0.0000
# 3 27.6656 21.8373 35.9720 0.0000 0.0000 0.0000
# 4 0.0000 0.0000 0.0000 -15.8376 0.0000 0.0000
# 5 0.0000 0.0000 0.0000 0.0000 33.1092 0.0000
# 6 0.0000 0.0000 0.0000 0.0000 0.0000 25.9307
#
#
#
# Elastic Compliance Matrix: (Units=1/GPa)
#
#
# Indices 1 2 3 4 5 6 
#
# 1 0.006369 -0.001139 -0.004207 0.000000 0.000000 0.000000
# 2 -0.001139 0.006349 -0.002978 0.000000 0.000000 0.000000
# 3 -0.004207 -0.002978 0.032843 0.000000 0.000000 0.000000
# 4 0.000000 0.000000 0.000000 -0.063141 0.000000 0.000000
# 5 0.000000 0.000000 0.000000 0.000000 0.030203 0.000000
# 6 0.000000 0.000000 0.000000 0.000000 0.000000 0.038564
#
#
# Mechanical properties :
#
#
# Convention : Reuss Voigt Hill
#
# Bulk Modulus (GPa) = 34.58701 65.13711 49.86206
# Shear Modulus (GPa) = 64.53786 28.64367 46.59076
#
# Velocity S-wave (km/s) = 5.41339 3.60642 4.59952
# Velocity P-wave (km/s) = 7.40122 6.84972 7.13080
#
# Compressibility (1/GPa) = 0.02891259
#
# Stress axis : x y z
#
# Youngs Moduli (GPa) = 157.00053 157.51459 30.44780
#
# Poissons Ratio (x) = 0.17939 0.12810
# Poissons Ratio (y) = 0.17880 0.09068
# Poissons Ratio (z) = 0.66054 0.46910
#
# Static dielectric constant tensor:
#      x y z
#    x 2.117590 0.000000 0.000000 
#    y 0.000000 1.879620 0.000000 
#    z 0.000000 0.000000 1.825610 
# 
# From -- ./inp_files/25062.got.cif
#   From: 2010.05.17/outbox.cif.g08.bks.cpg/sg48_13_cif.got.tgz:25062.got - 2010.06.03 20:39:00.
