data_PCOD9391550
_publ_section_title
;
Structure prediction by ZEFSAII (Michael W. Deem and Ramdas Pophale) SiO2 
 PCOD9391550
Probable space group: P N N N
;
_chemical_formula_sum "Si O2"
_cell_formula_units_Z 48
_cell_length_a 21.610233
_cell_length_b 9.550906
_cell_length_c 10.574682
_cell_angle_alpha 90.000000
_cell_angle_beta 90.000000
_cell_angle_gamma 90.000000
_cell_volume 2182.585856
_symmetry_space_group_name_H-M "P N N N"
_symmetry_group_IT_number 48
_space_group.IT_coordinate_system_code '2'
_symmetry_cell_setting 'orthorhombic'
loop_
_space_group_symop_operation_xyz
x,y,z
1/2-x,1/2-y,z
x,1/2-y,1/2-z
1/2-x,y,1/2-z
-x,-y,-z
1/2+x,1/2+y,-z
-x,1/2+y,1/2+z
1/2+x,-y,1/2+z
loop_
_atom_site_type_symbol
_atom_site_label
_atom_site_fract_x
_atom_site_fract_y
_atom_site_fract_z
Si Si1 0.736891 0.592429 0.901110
Si Si2 0.032575 0.317548 0.114893
Si Si3 0.604458 0.299537 0.116721
Si Si4 0.404004 0.067058 0.485343
Si Si5 0.188668 0.838579 0.406947
Si Si6 0.567313 0.406682 0.739127
O O1 0.750000 0.750000 0.938429
O O2 0.750000 0.579632 0.750000
O O3 0.666378 0.567876 0.937589
O O4 0.783250 0.481513 0.962627
O O5 0.054366 0.250000 0.250000
O O6 0.070030 0.224843 0.013211
O O7 0.042694 0.482871 0.134851
O O8 0.961037 0.278618 0.101397
O O9 0.630668 0.250000 0.250000
O O10 0.592961 0.466073 0.106349
O O11 0.648895 0.250620 0.005065
O O12 0.439709 0.980249 0.375150
O O13 0.250000 0.750000 0.374798
O O14 0.139640 0.883736 0.299070
O O15 0.540623 0.250000 0.750000
#
# Coordination Sequence:
#
# PCOD9391550 Si02
#       6
#     8   8   8   8   8   8
#     4  11  22  35  62  98 131 154 189 252 337 406
#     4   9  22  39  64  91 125 165 208 259 325 384
#     4  11  24  42  62  85 120 175 231 256 297 370
#     4  11  20  39  62  91 126 163 201 264 318 391
#     4  12  23  38  61  92 128 157 205 256 316 381
#     4  11  20  36  62  97 128 151 194 263 339 386
#
# _framework density 21.992262
#
# number of rings (size 3 to 8) (size 9 to 14) (size 15 to 20)
#    0.000    1.167    5.000    1.500    4.667    1.000 
#    0.000    0.000    0.000    1.000    0.000    0.000 
#    0.000    0.000    0.000    0.000    0.000    0.000 
#
# Total GULP energy -268131.609484 kJ/mol
# GULP energy per Si atom -5586.075198 kJ/mol
# Density = 2.194221 g / cm^3
# Si number density = 21.992262 Si / 1000 Ang^3
#
#
#
# Elastic Constant Matrix: (Units=GPa)
#
#
# Indices 1 2 3 4 5 6 
#
# 1 74.9538 30.1227 1.6033 0.0000 0.0000 0.0000
# 2 30.1227 187.2293 16.7077 0.0000 0.0000 0.0000
# 3 1.6033 16.7077 51.6717 0.0000 0.0000 0.0000
# 4 0.0000 0.0000 0.0000 99.6016 0.0000 0.0000
# 5 0.0000 0.0000 0.0000 0.0000 9.8992 0.0000
# 6 0.0000 0.0000 0.0000 0.0000 0.0000 16.2272
#
#
#
# Elastic Compliance Matrix: (Units=1/GPa)
#
#
# Indices 1 2 3 4 5 6 
#
# 1 0.014269 -0.002323 0.000308 0.000000 0.000000 0.000000
# 2 -0.002323 0.005878 -0.001829 0.000000 0.000000 0.000000
# 3 0.000308 -0.001829 0.019935 0.000000 0.000000 0.000000
# 4 0.000000 0.000000 0.000000 0.010040 0.000000 0.000000
# 5 0.000000 0.000000 0.000000 0.000000 0.101019 0.000000
# 6 0.000000 0.000000 0.000000 0.000000 0.000000 0.061625
#
#
# Mechanical properties :
#
#
# Convention : Reuss Voigt Hill
#
# Bulk Modulus (GPa) = 30.86920 45.63579 38.25250
# Shear Modulus (GPa) = 21.62166 42.84033 32.23100
#
# Velocity S-wave (km/s) = 3.13892 4.41837 3.83242
# Velocity P-wave (km/s) = 5.21574 6.84290 6.08396
#
# Compressibility (1/GPa) = 0.03239475
#
# Stress axis : x y z
#
# Youngs Moduli (GPa) = 70.08397 170.12647 50.16399
#
# Poissons Ratio (x) = 0.39523 -0.01547
# Poissons Ratio (y) = 0.16282 0.09173
# Poissons Ratio (z) = -0.02162 0.31108
#
# Static dielectric constant tensor:
#      x y z
#    x 1.790660 0.000000 0.000000 
#    y 0.000000 1.867560 0.000000 
#    z 0.000000 0.000000 1.857050 
# 
# From -- ./inp_files/23270.got.cif
#   From: 2010.05.17/outbox.cif.g08.bks.cpg/sg48_12_cif.got.tgz:23270.got - 2010.06.03 20:39:00.
