data_PCOD9391275
_publ_section_title
;
Structure prediction by ZEFSAII (Michael W. Deem and Ramdas Pophale) SiO2 
 PCOD9391275
Probable space group: P N N N
;
_chemical_formula_sum "Si O2"
_cell_formula_units_Z 34
_cell_length_a 17.652751
_cell_length_b 14.982746
_cell_length_c 6.391035
_cell_angle_alpha 90.000000
_cell_angle_beta 90.000000
_cell_angle_gamma 90.000000
_cell_volume 1690.343657
_symmetry_space_group_name_H-M "P N N N"
_symmetry_group_IT_number 48
_space_group.IT_coordinate_system_code '2'
_symmetry_cell_setting 'orthorhombic'
loop_
_space_group_symop_operation_xyz
x,y,z
1/2-x,1/2-y,z
x,1/2-y,1/2-z
1/2-x,y,1/2-z
-x,-y,-z
1/2+x,1/2+y,-z
-x,1/2+y,1/2+z
1/2+x,-y,1/2+z
loop_
_atom_site_type_symbol
_atom_site_label
_atom_site_fract_x
_atom_site_fract_y
_atom_site_fract_z
Si Si1 0.516728 0.898732 0.926474
Si Si2 0.750000 0.750000 0.250000
Si Si3 0.882173 0.161379 0.126513
Si Si4 0.961982 0.250000 0.750000
Si Si5 0.250000 0.535016 0.750000
Si Si6 0.188860 0.110011 0.433708
O O1 0.455659 0.875526 0.749062
O O2 0.603434 0.893992 0.851284
O O3 0.506476 0.821902 0.105455
O O4 0.500000 0.000000 0.000000
O O5 0.800732 0.809616 0.402701
O O6 0.857488 0.250000 0.250000
O O7 0.813930 0.092831 0.136509
O O8 0.909386 0.190706 0.899771
O O9 0.291419 0.475773 0.574755
O O10 0.250000 0.118921 0.250000
#
# Coordination Sequence:
#
# PCOD9391275 Si02
#       6
#     8   2   8   4   4   8
#     4  11  23  44  66  98 132 174 226 274 335 401
#     4  10  24  44  62  92 134 176 214 278 324 396
#     4  10  23  42  66  96 131 171 220 273 330 400
#     4  10  25  42  71  98 130 180 218 277 340 397
#     4  11  23  41  63  98 134 168 219 269 329 399
#     4  11  25  41  67  96 131 174 220 272 334 396
#
# _framework density 20.114253000000001
#
# number of rings (size 3 to 8) (size 9 to 14) (size 15 to 20)
#    0.000    1.412    2.353    1.412    3.294   10.353 
#    0.000    4.706    0.000    0.000    0.000    0.000 
#    0.000    0.000    0.000    0.000    0.000    0.000 
#
# Total GULP energy -190032.681768 kJ/mol
# GULP energy per Si atom -5589.196523 kJ/mol
# Density = 2.006847 g / cm^3
# Si number density = 20.114253 Si / 1000 Ang^3
#
#
#
# Elastic Constant Matrix: (Units=GPa)
#
#
# Indices 1 2 3 4 5 6 
#
# 1 140.2270 59.7795 36.6117 0.0000 0.0000 0.0000
# 2 59.7795 117.7928 36.5126 0.0000 0.0000 0.0000
# 3 36.6117 36.5126 87.6218 0.0000 0.0000 0.0000
# 4 0.0000 0.0000 0.0000 -5.8986 0.0000 0.0000
# 5 0.0000 0.0000 0.0000 0.0000 2.6984 0.0000
# 6 0.0000 0.0000 0.0000 0.0000 0.0000 -15.4733
#
#
#
# Elastic Compliance Matrix: (Units=1/GPa)
#
#
# Indices 1 2 3 4 5 6 
#
# 1 0.009469 -0.004110 -0.002244 0.000000 0.000000 0.000000
# 2 -0.004110 0.011533 -0.003088 0.000000 0.000000 0.000000
# 3 -0.002244 -0.003088 0.013637 0.000000 0.000000 0.000000
# 4 0.000000 0.000000 0.000000 -0.169530 0.000000 0.000000
# 5 0.000000 0.000000 0.000000 0.000000 0.370595 0.000000
# 6 0.000000 0.000000 0.000000 0.000000 0.000000 -0.064628
#
#
# Mechanical properties :
#
#
# Convention : Reuss Voigt Hill
#
# Bulk Modulus (GPa) = 63.47438 67.93880 65.70659
# Shear Modulus (GPa) = 25.61313 10.44780 18.03047
#
# Velocity S-wave (km/s) = 3.57232 2.28156 2.99725
# Velocity P-wave (km/s) = 6.97429 6.38674 6.68697
#
# Compressibility (1/GPa) = 0.01575439
#
# Stress axis : x y z
#
# Youngs Moduli (GPa) = 105.60426 86.71024 73.32863
#
# Poissons Ratio (x) = 0.35639 0.16454
# Poissons Ratio (y) = 0.43404 0.22647
# Poissons Ratio (z) = 0.23697 0.26779
#
# Static dielectric constant tensor:
#      x y z
#    x 1.682920 0.000000 0.000000 
#    y 0.000000 1.735890 0.000000 
#    z 0.000000 0.000000 1.670460 
# 
# From -- ./inp_files/3115.got.cif
#   From: 2010.05.17/outbox.cif.g08.bks.cpg/sg48_2_cif.got.tgz:3115.got - 2010.06.03 20:39:00.
