data_PCOD9391075
_publ_section_title
;
Structure prediction by ZEFSAII (Michael W. Deem and Ramdas Pophale) SiO2 
 PCOD9391075
Probable space group: P N N N
;
_chemical_formula_sum "Si O2"
_cell_formula_units_Z 52
_cell_length_a 8.773042
_cell_length_b 18.497038
_cell_length_c 16.508078
_cell_angle_alpha 90.000000
_cell_angle_beta 90.000000
_cell_angle_gamma 90.000000
_cell_volume 2678.853165
_symmetry_space_group_name_H-M "P N N N"
_symmetry_group_IT_number 48
_space_group.IT_coordinate_system_code '2'
_symmetry_cell_setting 'orthorhombic'
loop_
_space_group_symop_operation_xyz
x,y,z
1/2-x,1/2-y,z
x,1/2-y,1/2-z
1/2-x,y,1/2-z
-x,-y,-z
1/2+x,1/2+y,-z
-x,1/2+y,1/2+z
1/2+x,-y,1/2+z
loop_
_atom_site_type_symbol
_atom_site_label
_atom_site_fract_x
_atom_site_fract_y
_atom_site_fract_z
Si Si1 0.750000 0.750000 0.750000
Si Si2 0.750000 0.250000 0.750000
Si Si3 0.802188 0.671859 0.053552
Si Si4 0.539713 0.664970 0.620672
Si Si5 0.055808 0.077496 0.030513
Si Si6 0.605423 0.128985 0.867870
Si Si7 0.301132 0.468624 0.337312
Si Si8 0.244972 0.831482 0.966402
O O1 0.635757 0.705738 0.690010
O O2 0.658210 0.195104 0.809975
O O3 0.750000 0.750000 0.084059
O O4 0.926954 0.637407 0.112483
O O5 0.884347 0.685106 0.966094
O O6 0.660102 0.619847 0.034718
O O7 0.559452 0.579456 0.632388
O O8 0.359866 0.675266 0.609352
O O9 0.164791 0.055765 0.104220
O O10 0.916599 0.131538 0.052231
O O11 0.000000 0.000000 0.000000
O O12 0.653387 0.051935 0.832442
O O13 0.685253 0.126708 0.956710
O O14 0.250000 0.443982 0.250000
O O15 0.250000 0.750000 0.998985
#
# Coordination Sequence:
#
# PCOD9391075 Si02
#       8
#     2   2   8   8   8   8   8   8
#     4  12  20  42  62  96 128 176 210 284 340 404
#     4  12  24  42  70 104 128 168 218 284 336 388
#     4  10  22  40  66  94 127 172 218 268 321 395
#     4  10  23  37  68  91 127 167 217 259 330 389
#     4  11  23  39  66  94 128 166 223 273 319 389
#     4  11  23  40  69  93 130 169 219 263 328 395
#     4  11  23  41  62  91 129 173 208 266 334 390
#     4  11  23  40  66  99 126 168 223 271 322 389
#
# _framework density 19.411292
#
# number of rings (size 3 to 8) (size 9 to 14) (size 15 to 20)
#    0.000    1.231    4.615    1.846    4.308    1.846 
#    0.000    3.077    0.000    0.000    0.000    0.000 
#    0.000    0.000    0.000    0.000    0.000    0.000 
#
# Total GULP energy -289859.282498 kJ/mol
# GULP energy per Si atom -5574.216971 kJ/mol
# Density = 1.936711 g / cm^3
# Si number density = 19.411292 Si / 1000 Ang^3
#
#
#
# Elastic Constant Matrix: (Units=GPa)
#
#
# Indices 1 2 3 4 5 6 
#
# 1 126.3733 53.1901 28.2833 0.0000 0.0000 0.0000
# 2 53.1901 94.9742 11.4158 0.0000 0.0000 0.0000
# 3 28.2833 11.4158 57.4332 0.0000 0.0000 0.0000
# 4 0.0000 0.0000 0.0000 29.5872 0.0000 0.0000
# 5 0.0000 0.0000 0.0000 0.0000 22.0203 0.0000
# 6 0.0000 0.0000 0.0000 0.0000 0.0000 9.1598
#
#
#
# Elastic Compliance Matrix: (Units=1/GPa)
#
#
# Indices 1 2 3 4 5 6 
#
# 1 0.011359 -0.005828 -0.004435 0.000000 0.000000 0.000000
# 2 -0.005828 0.013778 0.000132 0.000000 0.000000 0.000000
# 3 -0.004435 0.000132 0.019570 0.000000 0.000000 0.000000
# 4 0.000000 0.000000 0.000000 0.033798 0.000000 0.000000
# 5 0.000000 0.000000 0.000000 0.000000 0.045413 0.000000
# 6 0.000000 0.000000 0.000000 0.000000 0.000000 0.109172
#
#
# Mechanical properties :
#
#
# Convention : Reuss Voigt Hill
#
# Bulk Modulus (GPa) = 40.91310 51.61769 46.26539
# Shear Modulus (GPa) = 19.12043 24.54624 21.83333
#
# Velocity S-wave (km/s) = 3.14190 3.55989 3.35740
# Velocity P-wave (km/s) = 5.85532 6.59897 6.23823
#
# Compressibility (1/GPa) = 0.02444205
#
# Stress axis : x y z
#
# Youngs Moduli (GPa) = 88.03707 72.58204 51.09988
#
# Poissons Ratio (x) = 0.42304 0.22664
# Poissons Ratio (y) = 0.51311 -0.00673
# Poissons Ratio (z) = 0.39047 -0.00956
#
# Static dielectric constant tensor:
#      x y z
#    x 1.716130 0.000000 0.000000 
#    y 0.000000 2.058160 0.000000 
#    z 0.000000 0.000000 1.659490 
# 
# From -- ./inp_files/30446.got.cif
#   From: 2010.05.17/outbox.cif.g08.bks.cpg/sg48_16_cif.got.tgz:30446.got - 2010.06.03 20:39:00.
