data_PCOD9391647
_publ_section_title
;
Structure prediction by ZEFSAII (Michael W. Deem and Ramdas Pophale) SiO2 
 PCOD9391647
Probable space group: P N N N
;
_chemical_formula_sum "Si O2"
_cell_formula_units_Z 58
_cell_length_a 11.436849
_cell_length_b 9.006878
_cell_length_c 26.813995
_cell_angle_alpha 90.000000
_cell_angle_beta 90.000000
_cell_angle_gamma 90.000000
_cell_volume 2762.117767
_symmetry_space_group_name_H-M "P N N N"
_symmetry_group_IT_number 48
_space_group.IT_coordinate_system_code '2'
_symmetry_cell_setting 'orthorhombic'
loop_
_space_group_symop_operation_xyz
x,y,z
1/2-x,1/2-y,z
x,1/2-y,1/2-z
1/2-x,y,1/2-z
-x,-y,-z
1/2+x,1/2+y,-z
-x,1/2+y,1/2+z
1/2+x,-y,1/2+z
loop_
_atom_site_type_symbol
_atom_site_label
_atom_site_fract_x
_atom_site_fract_y
_atom_site_fract_z
Si Si1 0.562036 0.213586 0.197466
Si Si2 0.721349 0.485709 0.179594
Si Si3 0.750000 0.750000 0.250000
Si Si4 0.880478 0.791845 0.609515
Si Si5 0.486896 0.585494 0.425809
Si Si6 0.114252 0.096847 0.009887
Si Si7 0.367412 0.326296 0.898066
Si Si8 0.175792 0.607421 0.983568
O O1 0.497563 0.250000 0.250000
O O2 0.654697 0.345847 0.200536
O O3 0.641633 0.065016 0.184363
O O4 0.474430 0.239931 0.152018
O O5 0.690676 0.630562 0.212852
O O6 0.656371 0.514812 0.126263
O O7 0.750000 0.750000 0.625479
O O8 0.899549 0.700049 0.557947
O O9 0.900807 0.964842 0.597617
O O10 0.523789 0.717997 0.388627
O O11 0.421298 0.648440 0.474944
O O12 0.602271 0.489818 0.443379
O O13 0.228526 0.993442 0.011750
O O14 0.133097 0.178162 0.957604
O O15 0.000000 0.000000 0.000000
O O16 0.250000 0.250000 0.880018
O O17 0.250000 0.750000 0.964605
#
# Coordination Sequence:
#
# PCOD9391647 Si02
#       8
#     8   8   2   8   8   8   8   8
#     4  11  24  46  71 101 135 173 230 292 347 422
#     4  11  23  42  71 108 138 168 217 287 361 419
#     4  12  20  38  72 108 142 166 196 288 378 408
#     4  12  25  44  65  90 134 183 231 284 343 405
#     4  11  23  40  60  92 133 176 230 286 330 405
#     4  12  23  40  59  90 132 177 228 276 328 414
#     4  12  22  37  60  95 133 171 214 266 338 409
#     4  11  22  38  61  88 129 187 234 281 337 393
#
# _framework density 20.998381999999999
#
# number of rings (size 3 to 8) (size 9 to 14) (size 15 to 20)
#    0.000    0.552    4.828    5.793    0.000    0.276 
#    0.000    0.000    0.000    0.000    0.000    0.966 
#    0.000    0.000    0.000    0.000    0.000    0.000 
#
# Total GULP energy -323163.692259 kJ/mol
# GULP energy per Si atom -5571.787798 kJ/mol
# Density = 2.095059 g / cm^3
# Si number density = 20.998382 Si / 1000 Ang^3
#
#
#
# Elastic Constant Matrix: (Units=GPa)
#
#
# Indices 1 2 3 4 5 6 
#
# 1 107.1130 31.3020 28.0360 0.0000 0.0000 0.0000
# 2 31.3020 91.3448 25.3601 0.0000 0.0000 0.0000
# 3 28.0360 25.3601 103.1341 0.0000 0.0000 0.0000
# 4 0.0000 0.0000 0.0000 31.4954 0.0000 0.0000
# 5 0.0000 0.0000 0.0000 0.0000 16.3204 0.0000
# 6 0.0000 0.0000 0.0000 0.0000 0.0000 37.8636
#
#
#
# Elastic Compliance Matrix: (Units=1/GPa)
#
#
# Indices 1 2 3 4 5 6 
#
# 1 0.010812 -0.003101 -0.002177 0.000000 0.000000 0.000000
# 2 -0.003101 0.012639 -0.002265 0.000000 0.000000 0.000000
# 3 -0.002177 -0.002265 0.010845 0.000000 0.000000 0.000000
# 4 0.000000 0.000000 0.000000 0.031751 0.000000 0.000000
# 5 0.000000 0.000000 0.000000 0.000000 0.061273 0.000000
# 6 0.000000 0.000000 0.000000 0.000000 0.000000 0.026411
#
#
# Mechanical properties :
#
#
# Convention : Reuss Voigt Hill
#
# Bulk Modulus (GPa) = 52.05378 52.33201 52.19290
# Shear Modulus (GPa) = 28.53590 31.59547 30.06569
#
# Velocity S-wave (km/s) = 3.69040 3.88321 3.78803
# Velocity P-wave (km/s) = 6.55759 6.71429 6.63641
#
# Compressibility (1/GPa) = 0.01921090
#
# Stress axis : x y z
#
# Youngs Moduli (GPa) = 92.49175 79.12089 92.21049
#
# Poissons Ratio (x) = 0.24533 0.20071
# Poissons Ratio (y) = 0.28679 0.20885
# Poissons Ratio (z) = 0.20132 0.17920
#
# Static dielectric constant tensor:
#      x y z
#    x 1.724380 0.000000 0.000000 
#    y 0.000000 1.933570 0.000000 
#    z 0.000000 0.000000 1.874600 
# 
# From -- ./inp_files/38950.got.cif
#   From: 2010.05.17/outbox.cif.g08.bks.cpg/sg48_20_cif.got.tgz:38950.got - 2010.06.03 20:39:00.
