data_PCOD9391274
_publ_section_title
;
Structure prediction by ZEFSAII (Michael W. Deem and Ramdas Pophale) SiO2 
 PCOD9391274
Probable space group: P N N N
;
_chemical_formula_sum "Si O2"
_cell_formula_units_Z 26
_cell_length_a 10.359008
_cell_length_b 7.274260
_cell_length_c 15.470710
_cell_angle_alpha 90.000000
_cell_angle_beta 90.000000
_cell_angle_gamma 90.000000
_cell_volume 1165.781700
_symmetry_space_group_name_H-M "P N N N"
_symmetry_group_IT_number 48
_space_group.IT_coordinate_system_code '2'
_symmetry_cell_setting 'orthorhombic'
loop_
_space_group_symop_operation_xyz
x,y,z
1/2-x,1/2-y,z
x,1/2-y,1/2-z
1/2-x,y,1/2-z
-x,-y,-z
1/2+x,1/2+y,-z
-x,1/2+y,1/2+z
1/2+x,-y,1/2+z
loop_
_atom_site_type_symbol
_atom_site_label
_atom_site_fract_x
_atom_site_fract_y
_atom_site_fract_z
Si Si1 0.398729 0.471001 0.424803
Si Si2 0.250000 0.250000 0.750000
Si Si3 0.025304 0.973502 0.757864
Si Si4 0.887080 0.534747 0.569911
O O1 0.500000 0.500000 0.500000
O O2 0.463556 0.529384 0.334259
O O3 0.255680 0.541898 0.448372
O O4 0.381488 0.253267 0.421592
O O5 0.351760 0.402367 0.785470
O O6 0.051613 0.750000 0.750000
O O7 0.925555 0.018880 0.833422
O O8 0.000000 0.500000 0.500000
#
# Coordination Sequence:
#
# PCOD9391274 Si02
#       4
#     8   2   8   8
#     4  10  23  42  66  94 133 176 222 274 334 395
#     4  12  26  40  74  98 136 170 236 272 328 410
#     4  10  24  45  67  97 136 179 218 278 336 390
#     4  10  23  42  66  94 133 176 222 274 334 395
#
# _framework density 22.302631000000002
#
# number of rings (size 3 to 8) (size 9 to 14) (size 15 to 20)
#    0.000    1.846    0.000    1.385    8.615    4.923 
#    0.000    1.538    0.000    0.000    0.000    0.000 
#    0.000    0.000    0.000    0.000    0.000    0.000 
#
# Total GULP energy -144762.981627 kJ/mol
# GULP energy per Si atom -5567.806986 kJ/mol
# Density = 2.225187 g / cm^3
# Si number density = 22.302631 Si / 1000 Ang^3
#
#
#
# Elastic Constant Matrix: (Units=GPa)
#
#
# Indices 1 2 3 4 5 6 
#
# 1 187.9036 18.7006 87.7760 0.0000 0.0000 0.0000
# 2 18.7006 102.8415 -3.7233 0.0000 0.0000 0.0000
# 3 87.7760 -3.7233 179.8652 0.0000 0.0000 0.0000
# 4 0.0000 0.0000 0.0000 21.1248 0.0000 0.0000
# 5 0.0000 0.0000 0.0000 0.0000 -4.1034 0.0000
# 6 0.0000 0.0000 0.0000 0.0000 0.0000 21.8199
#
#
#
# Elastic Compliance Matrix: (Units=1/GPa)
#
#
# Indices 1 2 3 4 5 6 
#
# 1 0.007094 -0.001416 -0.003491 0.000000 0.000000 0.000000
# 2 -0.001416 0.010014 0.000898 0.000000 0.000000 0.000000
# 3 -0.003491 0.000898 0.007282 0.000000 0.000000 0.000000
# 4 0.000000 0.000000 0.000000 0.047338 0.000000 0.000000
# 5 0.000000 0.000000 0.000000 0.000000 -0.243698 0.000000
# 6 0.000000 0.000000 0.000000 0.000000 0.000000 0.045830
#
#
# Mechanical properties :
#
#
# Convention : Reuss Voigt Hill
#
# Bulk Modulus (GPa) = 61.08155 75.12410 68.10283
# Shear Modulus (GPa) = -44.37871 32.29206 -6.04333
#
# Velocity S-wave (km/s) = -4.46560 3.80926 -1.64790
# Velocity P-wave (km/s) = 0.92641 7.28728 5.19435
#
# Compressibility (1/GPa) = 0.01637156
#
# Stress axis : x y z
#
# Youngs Moduli (GPa) = 140.97158 99.86255 137.32499
#
# Poissons Ratio (x) = 0.14143 0.47941
# Poissons Ratio (y) = 0.19966 -0.12338
# Poissons Ratio (z) = 0.49214 -0.08972
#
# Static dielectric constant tensor:
#      x y z
#    x 1.867210 0.000000 0.000000 
#    y 0.000000 1.855110 0.000000 
#    z 0.000000 0.000000 1.831560 
# 
# From -- ./inp_files/13574.got.cif
#   From: 2010.05.17/outbox.cif.g08.bks.cpg/sg48_7_cif.got.tgz:13574.got - 2010.06.03 20:39:00.
