data_PCOD9391717
_publ_section_title
;
Structure prediction by ZEFSAII (Michael W. Deem and Ramdas Pophale) SiO2 
 PCOD9391717
Probable space group: P N N N
;
_chemical_formula_sum "Si O2"
_cell_formula_units_Z 64
_cell_length_a 11.007683
_cell_length_b 11.412935
_cell_length_c 25.813178
_cell_angle_alpha 90.000000
_cell_angle_beta 90.000000
_cell_angle_gamma 90.000000
_cell_volume 3242.908793
_symmetry_space_group_name_H-M "P N N N"
_symmetry_group_IT_number 48
_space_group.IT_coordinate_system_code '2'
_symmetry_cell_setting 'orthorhombic'
loop_
_space_group_symop_operation_xyz
x,y,z
1/2-x,1/2-y,z
x,1/2-y,1/2-z
1/2-x,y,1/2-z
-x,-y,-z
1/2+x,1/2+y,-z
-x,1/2+y,1/2+z
1/2+x,-y,1/2+z
loop_
_atom_site_type_symbol
_atom_site_label
_atom_site_fract_x
_atom_site_fract_y
_atom_site_fract_z
Si Si1 0.887414 0.889559 0.262269
Si Si2 0.118643 0.764502 0.382378
Si Si3 0.771891 0.886823 0.639332
Si Si4 0.997721 0.500640 0.140761
Si Si5 0.591362 0.083166 0.031495
Si Si6 0.811446 0.529620 0.526119
Si Si7 0.996316 0.316335 0.522635
Si Si8 0.641337 0.425488 0.791735
O O1 0.892282 0.750000 0.250000
O O2 0.750000 0.927887 0.250000
O O3 0.908966 0.932897 0.320678
O O4 0.008187 0.938496 0.233607
O O5 0.250000 0.750000 0.409929
O O6 0.098433 0.898791 0.370046
O O7 0.006540 0.737563 0.420028
O O8 0.127731 0.682474 0.332270
O O9 0.750000 0.750000 0.639142
O O10 0.909517 0.902526 0.660398
O O11 0.750706 0.932181 0.579981
O O12 0.682155 0.961426 0.675651
O O13 0.931923 0.446508 0.091194
O O14 0.719804 0.035877 0.012144
O O15 0.563295 0.217059 0.014461
O O16 0.500000 0.000000 0.000000
O O17 0.916302 0.432534 0.533032
O O18 0.876480 0.641850 0.500434
O O19 0.750000 0.402400 0.750000
#
# Coordination Sequence:
#
# PCOD9391717 Si02
#       8
#     8   8   8   8   8   8   8   8
#     4  11  25  45  68 100 140 175 219 289 354 411
#     4  12  20  37  68  99 133 168 223 277 349 402
#     4  12  24  40  68  99 131 173 231 292 342 402
#     4  12  23  41  65  97 131 175 218 277 343 408
#     4  12  23  38  63  93 134 172 210 266 341 405
#     4  11  24  42  64  91 133 174 225 279 330 405
#     4  11  23  41  63  93 131 177 221 272 335 410
#     4  12  24  41  72 102 132 174 234 295 344 408
#
# _framework density 19.735368000000001
#
# number of rings (size 3 to 8) (size 9 to 14) (size 15 to 20)
#    0.000    0.375    7.500    1.875    0.000    1.250 
#    0.000    0.000    0.000    0.750    0.000    0.000 
#    0.000    0.000    0.000    0.000    0.000    0.000 
#
# Total GULP energy -357018.154666 kJ/mol
# GULP energy per Si atom -5578.408667 kJ/mol
# Density = 1.969045 g / cm^3
# Si number density = 19.735368 Si / 1000 Ang^3
#
#
#
# Elastic Constant Matrix: (Units=GPa)
#
#
# Indices 1 2 3 4 5 6 
#
# 1 90.1365 14.9524 26.5853 0.0000 0.0000 0.0000
# 2 14.9524 103.0643 42.2140 0.0000 0.0000 0.0000
# 3 26.5853 42.2140 89.0713 0.0000 0.0000 0.0000
# 4 0.0000 0.0000 0.0000 33.9409 0.0000 0.0000
# 5 0.0000 0.0000 0.0000 0.0000 34.9841 0.0000
# 6 0.0000 0.0000 0.0000 0.0000 0.0000 22.2583
#
#
#
# Elastic Compliance Matrix: (Units=1/GPa)
#
#
# Indices 1 2 3 4 5 6 
#
# 1 0.012175 -0.000345 -0.003470 0.000000 0.000000 0.000000
# 2 -0.000345 0.012050 -0.005608 0.000000 0.000000 0.000000
# 3 -0.003470 -0.005608 0.014921 0.000000 0.000000 0.000000
# 4 0.000000 0.000000 0.000000 0.029463 0.000000 0.000000
# 5 0.000000 0.000000 0.000000 0.000000 0.028584 0.000000
# 6 0.000000 0.000000 0.000000 0.000000 0.000000 0.044927
#
#
# Mechanical properties :
#
#
# Convention : Reuss Voigt Hill
#
# Bulk Modulus (GPa) = 49.26364 49.97503 49.61934
# Shear Modulus (GPa) = 29.80941 31.47136 30.64038
#
# Velocity S-wave (km/s) = 3.89067 3.99766 3.94453
# Velocity P-wave (km/s) = 6.72305 6.83271 6.77810
#
# Compressibility (1/GPa) = 0.02029895
#
# Stress axis : x y z
#
# Youngs Moduli (GPa) = 82.13491 82.99027 67.02172
#
# Poissons Ratio (x) = 0.02862 0.23260
# Poissons Ratio (y) = 0.02833 0.37584
# Poissons Ratio (z) = 0.28505 0.46539
#
# Static dielectric constant tensor:
#      x y z
#    x 1.747930 0.000000 0.000000 
#    y 0.000000 1.789600 0.000000 
#    z 0.000000 0.000000 1.821500 
# 
# From -- ./inp_files/36376.got.cif
#   From: 2010.05.17/outbox.cif.g08.bks.cpg/sg48_19_cif.got.tgz:36376.got - 2010.06.03 20:39:00.
