data_PCOD9391140
_publ_section_title
;
Structure prediction by ZEFSAII (Michael W. Deem and Ramdas Pophale) SiO2 
 PCOD9391140
Probable space group: P N N N
;
_chemical_formula_sum "Si O2"
_cell_formula_units_Z 38
_cell_length_a 17.677368
_cell_length_b 5.242250
_cell_length_c 16.378285
_cell_angle_alpha 90.000000
_cell_angle_beta 90.000000
_cell_angle_gamma 90.000000
_cell_volume 1517.762280
_symmetry_space_group_name_H-M "P N N N"
_symmetry_group_IT_number 48
_space_group.IT_coordinate_system_code '2'
_symmetry_cell_setting 'orthorhombic'
loop_
_space_group_symop_operation_xyz
x,y,z
1/2-x,1/2-y,z
x,1/2-y,1/2-z
1/2-x,y,1/2-z
-x,-y,-z
1/2+x,1/2+y,-z
-x,1/2+y,1/2+z
1/2+x,-y,1/2+z
loop_
_atom_site_type_symbol
_atom_site_label
_atom_site_fract_x
_atom_site_fract_y
_atom_site_fract_z
Si Si1 0.624107 0.835882 0.449392
Si Si2 0.677931 0.079906 0.609744
Si Si3 0.750000 0.750000 0.750000
Si Si4 0.955084 0.250000 0.250000
Si Si5 0.980383 0.338636 0.655968
Si Si6 0.830150 0.143697 0.360766
O O1 0.539280 0.772597 0.416354
O O2 0.674724 0.605544 0.415788
O O3 0.647109 0.882709 0.542314
O O4 0.638562 0.112359 0.409359
O O5 0.750000 0.250000 0.583242
O O6 0.603069 0.240862 0.630003
O O7 0.701790 0.929836 0.690737
O O8 0.005920 0.360778 0.322716
O O9 0.891079 0.069705 0.291650
O O10 0.991636 0.250000 0.750000
O O11 0.750000 0.250000 0.332768
#
# Coordination Sequence:
#
# PCOD9391140 Si02
#       6
#     8   8   2   4   8   8
#     4  11  26  46  75 114 151 202 255 320 395 469
#     4  12  28  49  75 112 149 209 270 339 399 474
#     4  12  28  48  76 104 150 200 276 328 412 460
#     4  10  22  42  68 112 152 202 262 310 390 478
#     4  11  22  47  75 107 160 203 264 322 401 480
#     4  11  23  42  73 112 155 203 246 316 385 470
#
# _framework density 25.036857000000001
#
# number of rings (size 3 to 8) (size 9 to 14) (size 15 to 20)
#    0.000    0.842    2.105    4.421    5.895    0.000 
#    0.000    5.263    0.000    0.000    0.000    0.000 
#    0.000    0.000    0.000    0.000    0.000    0.000 
#
# Total GULP energy -212110.776254 kJ/mol
# GULP energy per Si atom -5581.862533 kJ/mol
# Density = 2.497987 g / cm^3
# Si number density = 25.036857 Si / 1000 Ang^3
#
#
#
# Elastic Constant Matrix: (Units=GPa)
#
#
# Indices 1 2 3 4 5 6 
#
# 1 196.5845 41.2402 68.9195 0.0000 0.0000 0.0000
# 2 41.2402 86.7552 36.2175 0.0000 0.0000 0.0000
# 3 68.9195 36.2175 147.5565 0.0000 0.0000 0.0000
# 4 0.0000 0.0000 0.0000 33.6236 0.0000 0.0000
# 5 0.0000 0.0000 0.0000 0.0000 54.8430 0.0000
# 6 0.0000 0.0000 0.0000 0.0000 0.0000 12.7388
#
#
#
# Elastic Compliance Matrix: (Units=1/GPa)
#
#
# Indices 1 2 3 4 5 6 
#
# 1 0.006378 -0.001992 -0.002490 0.000000 0.000000 0.000000
# 2 -0.001992 0.013465 -0.002374 0.000000 0.000000 0.000000
# 3 -0.002490 -0.002374 0.008523 0.000000 0.000000 0.000000
# 4 0.000000 0.000000 0.000000 0.029741 0.000000 0.000000
# 5 0.000000 0.000000 0.000000 0.000000 0.018234 0.000000
# 6 0.000000 0.000000 0.000000 0.000000 0.000000 0.078500
#
#
# Mechanical properties :
#
#
# Convention : Reuss Voigt Hill
#
# Bulk Modulus (GPa) = 68.24826 80.40563 74.32694
# Shear Modulus (GPa) = 28.82874 39.20901 34.01887
#
# Velocity S-wave (km/s) = 3.39699 3.96163 3.69012
# Velocity P-wave (km/s) = 6.53485 7.28770 6.92152
#
# Compressibility (1/GPa) = 0.01465239
#
# Stress axis : x y z
#
# Youngs Moduli (GPa) = 156.79567 74.26668 117.33231
#
# Poissons Ratio (x) = 0.14796 0.29214
# Poissons Ratio (y) = 0.31238 0.27860
# Poissons Ratio (z) = 0.39040 0.17634
#
# Static dielectric constant tensor:
#      x y z
#    x 2.011260 0.000000 0.000000 
#    y 0.000000 2.349670 0.000000 
#    z 0.000000 0.000000 2.044240 
# 
# From -- ./inp_files/31840.got.cif
#   From: 2010.05.17/outbox.cif.g08.bks.cpg/sg48_16_cif.got.tgz:31840.got - 2010.06.03 20:39:00.
