data_PCOD9391450
_publ_section_title
;
Structure prediction by ZEFSAII (Michael W. Deem and Ramdas Pophale) SiO2 
 PCOD9391450
Probable space group: P N N N
;
_chemical_formula_sum "Si O2"
_cell_formula_units_Z 48
_cell_length_a 9.857387
_cell_length_b 7.542023
_cell_length_c 32.264731
_cell_angle_alpha 90.000000
_cell_angle_beta 90.000000
_cell_angle_gamma 90.000000
_cell_volume 2398.709794
_symmetry_space_group_name_H-M "P N N N"
_symmetry_group_IT_number 48
_space_group.IT_coordinate_system_code '2'
_symmetry_cell_setting 'orthorhombic'
loop_
_space_group_symop_operation_xyz
x,y,z
1/2-x,1/2-y,z
x,1/2-y,1/2-z
1/2-x,y,1/2-z
-x,-y,-z
1/2+x,1/2+y,-z
-x,1/2+y,1/2+z
1/2+x,-y,1/2+z
loop_
_atom_site_type_symbol
_atom_site_label
_atom_site_fract_x
_atom_site_fract_y
_atom_site_fract_z
Si Si1 0.020878 0.995796 0.137194
Si Si2 0.088037 0.723060 0.796908
Si Si3 0.164594 0.439018 0.998829
Si Si4 0.715271 0.458327 0.592368
Si Si5 0.958636 0.593029 0.144740
Si Si6 0.268935 0.950397 0.588487
O O1 0.168745 0.042454 0.120593
O O2 0.002442 0.794526 0.153396
O O3 0.972944 0.132412 0.171759
O O4 0.924244 0.002604 0.096647
O O5 0.250000 0.750000 0.796782
O O6 0.038651 0.750000 0.750000
O O7 0.055243 0.529228 0.815090
O O8 0.250000 0.250000 0.992286
O O9 0.212598 0.487673 0.044767
O O10 0.219823 0.540109 0.958506
O O11 0.000000 0.500000 0.000000
O O12 0.750000 0.250000 0.593128
O O13 0.571684 0.487028 0.613966
O O14 0.821596 0.573524 0.118129
O O15 0.250000 0.750000 0.603637
#
# Coordination Sequence:
#
# PCOD9391450 Si02
#       6
#     8   8   8   8   8   8
#     4  11  23  41  69  96 128 183 219 280 346 413
#     4  11  24  42  67 103 133 166 226 284 343 421
#     4  12  27  42  66  99 138 187 237 297 349 417
#     4  10  25  43  65  94 134 177 232 278 345 409
#     4  11  21  43  66  94 132 174 221 276 339 421
#     4  12  23  41  66  91 134 179 230 279 342 404
#
# _framework density 20.010757999999999
#
# number of rings (size 3 to 8) (size 9 to 14) (size 15 to 20)
#    0.000    0.833    5.000    2.000    7.000    1.333 
#    0.000    3.333    0.000    3.000    0.000    0.000 
#    0.000    0.000    0.000    0.000    0.000    0.000 
#
# Total GULP energy -267644.348853 kJ/mol
# GULP energy per Si atom -5575.923934 kJ/mol
# Density = 1.996521 g / cm^3
# Si number density = 20.010758 Si / 1000 Ang^3
#
#
#
# Elastic Constant Matrix: (Units=GPa)
#
#
# Indices 1 2 3 4 5 6 
#
# 1 71.7798 31.9941 21.4744 0.0000 0.0000 0.0000
# 2 31.9941 90.5609 36.2117 0.0000 0.0000 0.0000
# 3 21.4744 36.2117 123.9734 0.0000 0.0000 0.0000
# 4 0.0000 0.0000 0.0000 224.3550 0.0000 0.0000
# 5 0.0000 0.0000 0.0000 0.0000 27.0986 0.0000
# 6 0.0000 0.0000 0.0000 0.0000 0.0000 21.9071
#
#
#
# Elastic Compliance Matrix: (Units=1/GPa)
#
#
# Indices 1 2 3 4 5 6 
#
# 1 0.016726 -0.005379 -0.001326 0.000000 0.000000 0.000000
# 2 -0.005379 0.014232 -0.003225 0.000000 0.000000 0.000000
# 3 -0.001326 -0.003225 0.009238 0.000000 0.000000 0.000000
# 4 0.000000 0.000000 0.000000 0.004457 0.000000 0.000000
# 5 0.000000 0.000000 0.000000 0.000000 0.036902 0.000000
# 6 0.000000 0.000000 0.000000 0.000000 0.000000 0.045647
#
#
# Mechanical properties :
#
#
# Convention : Reuss Voigt Hill
#
# Bulk Modulus (GPa) = 49.17516 51.74159 50.45837
# Shear Modulus (GPa) = 32.50089 67.78106 50.14098
#
# Velocity S-wave (km/s) = 4.03447 5.82631 5.01113
# Velocity P-wave (km/s) = 6.80664 8.43648 7.66500
#
# Compressibility (1/GPa) = 0.02033547
#
# Stress axis : x y z
#
# Youngs Moduli (GPa) = 59.78839 70.26298 108.24759
#
# Poissons Ratio (x) = 0.37792 0.14355
# Poissons Ratio (y) = 0.32158 0.34915
# Poissons Ratio (z) = 0.07929 0.22663
#
# Static dielectric constant tensor:
#      x y z
#    x 1.746330 0.000000 0.000000 
#    y 0.000000 2.120020 0.000000 
#    z 0.000000 0.000000 1.653290 
# 
# From -- ./inp_files/38715.got.cif
#   From: 2010.05.17/outbox.cif.g08.bks.cpg/sg48_20_cif.got.tgz:38715.got - 2010.06.03 20:39:00.
