data_PCOD9391352
_publ_section_title
;
Structure prediction by ZEFSAII (Michael W. Deem and Ramdas Pophale) SiO2 
 PCOD9391352
Probable space group: P N N N
;
_chemical_formula_sum "Si O2"
_cell_formula_units_Z 34
_cell_length_a 9.051270
_cell_length_b 29.692453
_cell_length_c 5.822989
_cell_angle_alpha 90.000000
_cell_angle_beta 90.000000
_cell_angle_gamma 90.000000
_cell_volume 1564.953968
_symmetry_space_group_name_H-M "P N N N"
_symmetry_group_IT_number 48
_space_group.IT_coordinate_system_code '2'
_symmetry_cell_setting 'orthorhombic'
loop_
_space_group_symop_operation_xyz
x,y,z
1/2-x,1/2-y,z
x,1/2-y,1/2-z
1/2-x,y,1/2-z
-x,-y,-z
1/2+x,1/2+y,-z
-x,1/2+y,1/2+z
1/2+x,-y,1/2+z
loop_
_atom_site_type_symbol
_atom_site_label
_atom_site_fract_x
_atom_site_fract_y
_atom_site_fract_z
Si Si1 0.250000 0.896240 0.750000
Si Si2 0.412585 0.294799 0.638458
Si Si3 0.499782 0.946775 0.034733
Si Si4 0.750000 0.750000 0.750000
Si Si5 0.250000 0.102267 0.250000
Si Si6 0.504738 0.376185 0.912045
O O1 0.139517 0.926634 0.601197
O O2 0.352904 0.869602 0.571543
O O3 0.483399 0.250000 0.750000
O O4 0.250000 0.298840 0.750000
O O5 0.364278 0.282071 0.384471
O O6 0.495738 0.339905 0.706907
O O7 0.493982 0.925435 0.290952
O O8 0.645636 0.927223 0.913391
O O9 0.500000 0.000000 0.000000
O O10 0.361955 0.127572 0.422376
#
# Coordination Sequence:
#
# PCOD9391352 Si02
#       6
#     4   8   8   2   4   8
#     4  10  26  42  64  93 134 176 215 276 334 390
#     4   9  19  35  63 100 138 164 215 267 331 394
#     4  11  25  40  66  90 131 171 225 272 335 392
#     4   8  18  34  60 102 140 170 198 272 334 388
#     4  10  24  39  66  97 128 172 221 274 329 392
#     4  11  23  43  65  99 133 174 222 276 333 400
#
# _framework density 21.72588
#
# number of rings (size 3 to 8) (size 9 to 14) (size 15 to 20)
#    0.000    2.118    0.000    2.824    6.588   14.118 
#    0.000    0.000    0.000    4.235    0.000   11.529 
#    0.000    0.000    0.000    0.000    0.000    0.000 
#
# Total GULP energy -189853.798393 kJ/mol
# GULP energy per Si atom -5583.935247 kJ/mol
# Density = 2.167643 g / cm^3
# Si number density = 21.725880 Si / 1000 Ang^3
#
#
#
# Elastic Constant Matrix: (Units=GPa)
#
#
# Indices 1 2 3 4 5 6 
#
# 1 122.5105 33.1593 43.1972 0.0000 0.0000 0.0000
# 2 33.1593 131.1540 50.4440 0.0000 0.0000 0.0000
# 3 43.1972 50.4440 117.1929 0.0000 0.0000 0.0000
# 4 0.0000 0.0000 0.0000 62.1729 0.0000 0.0000
# 5 0.0000 0.0000 0.0000 0.0000 36.5203 0.0000
# 6 0.0000 0.0000 0.0000 0.0000 0.0000 1.7579
#
#
#
# Elastic Compliance Matrix: (Units=1/GPa)
#
#
# Indices 1 2 3 4 5 6 
#
# 1 0.009556 -0.001272 -0.002975 0.000000 0.000000 0.000000
# 2 -0.001272 0.009307 -0.003537 0.000000 0.000000 0.000000
# 3 -0.002975 -0.003537 0.011152 0.000000 0.000000 0.000000
# 4 0.000000 0.000000 0.000000 0.016084 0.000000 0.000000
# 5 0.000000 0.000000 0.000000 0.000000 0.027382 0.000000
# 6 0.000000 0.000000 0.000000 0.000000 0.000000 0.568875
#
#
# Mechanical properties :
#
#
# Convention : Reuss Voigt Hill
#
# Bulk Modulus (GPa) = 69.21922 69.38426 69.30174
# Shear Modulus (GPa) = 7.54445 36.36068 21.95257
#
# Velocity S-wave (km/s) = 1.86550 4.09542 3.18218
# Velocity P-wave (km/s) = 6.04728 7.37352 6.74308
#
# Compressibility (1/GPa) = 0.01444686
#
# Stress axis : x y z
#
# Youngs Moduli (GPa) = 104.64951 107.45067 89.67043
#
# Poissons Ratio (x) = 0.13665 0.26675
# Poissons Ratio (y) = 0.13309 0.31717
# Poissons Ratio (z) = 0.31131 0.38006
#
# Static dielectric constant tensor:
#      x y z
#    x 1.886900 0.000000 0.000000 
#    y 0.000000 1.843410 0.000000 
#    z 0.000000 0.000000 1.923830 
# 
# From -- ./inp_files/1197.got.cif
#   From: 2010.05.17/outbox.cif.g08.bks.cpg/sg48_1_cif.got.tgz:1197.got - 2010.06.03 20:39:00.
