data_PCOD9391331
_publ_section_title
;
Structure prediction by ZEFSAII (Michael W. Deem and Ramdas Pophale) SiO2 
 PCOD9391331
Probable space group: P N N N
;
_chemical_formula_sum "Si O2"
_cell_formula_units_Z 56
_cell_length_a 19.849550
_cell_length_b 9.506584
_cell_length_c 12.980590
_cell_angle_alpha 90.000000
_cell_angle_beta 90.000000
_cell_angle_gamma 90.000000
_cell_volume 2449.455693
_symmetry_space_group_name_H-M "P N N N"
_symmetry_group_IT_number 48
_space_group.IT_coordinate_system_code '2'
_symmetry_cell_setting 'orthorhombic'
loop_
_space_group_symop_operation_xyz
x,y,z
1/2-x,1/2-y,z
x,1/2-y,1/2-z
1/2-x,y,1/2-z
-x,-y,-z
1/2+x,1/2+y,-z
-x,1/2+y,1/2+z
1/2+x,-y,1/2+z
loop_
_atom_site_type_symbol
_atom_site_label
_atom_site_fract_x
_atom_site_fract_y
_atom_site_fract_z
Si Si1 0.325774 0.896998 0.061596
Si Si2 0.885476 0.876456 0.820702
Si Si3 0.933074 0.826147 0.156024
Si Si4 0.614652 0.369507 0.170541
Si Si5 0.250000 0.512514 0.250000
Si Si6 0.750000 0.250000 0.378971
Si Si7 0.171036 0.211297 0.511715
Si Si8 0.430553 0.841779 0.431831
O O1 0.386101 0.795379 0.099242
O O2 0.266612 0.902325 0.146779
O O3 0.296336 0.840424 0.954765
O O4 0.343304 0.056595 0.032509
O O5 0.916959 0.750000 0.750000
O O6 0.816411 0.920213 0.764256
O O7 0.919365 0.024905 0.854734
O O8 0.861953 0.814257 0.928822
O O9 0.968707 0.750000 0.250000
O O10 0.867867 0.742634 0.117002
O O11 0.989227 0.825096 0.067597
O O12 0.910641 0.976914 0.197586
O O13 0.588952 0.250000 0.250000
O O14 0.695751 0.351844 0.174655
O O15 0.592595 0.361937 0.050432
O O16 0.250000 0.250000 0.518323
#
# Coordination Sequence:
#
# PCOD9391331 Si02
#       8
#     8   8   8   8   4   4   8   8
#     4  11  24  40  73 107 150 198 234 303 375 428
#     4  12  23  42  73 109 152 193 236 295 367 449
#     4  12  30  50  72 105 146 188 252 303 363 447
#     4  11  24  49  79 105 142 194 244 301 368 437
#     4  12  21  39  66 112 148 182 242 284 358 442
#     4  10  23  45  72 106 148 182 239 302 363 436
#     4  12  24  47  71 106 148 187 245 312 375 434
#     4  11  28  50  70 105 153 196 243 298 362 446
#
# _framework density 22.862221999999999
#
# number of rings (size 3 to 8) (size 9 to 14) (size 15 to 20)
#    0.000    0.571    4.286    3.429    6.000    3.429 
#    2.571    0.000    0.000    0.000    0.000    0.000 
#    0.000    0.000    0.000    0.000    0.000    0.000 
#
# Total GULP energy -312685.193834 kJ/mol
# GULP energy per Si atom -5583.664176 kJ/mol
# Density = 2.281019 g / cm^3
# Si number density = 22.862222 Si / 1000 Ang^3
#
#
#
# Elastic Constant Matrix: (Units=GPa)
#
#
# Indices 1 2 3 4 5 6 
#
# 1 118.9476 51.9966 17.5840 0.0000 0.0000 0.0000
# 2 51.9966 154.5322 27.7323 0.0000 0.0000 0.0000
# 3 17.5840 27.7323 68.0047 0.0000 0.0000 0.0000
# 4 0.0000 0.0000 0.0000 55.8775 0.0000 0.0000
# 5 0.0000 0.0000 0.0000 0.0000 29.8548 0.0000
# 6 0.0000 0.0000 0.0000 0.0000 0.0000 30.0756
#
#
#
# Elastic Compliance Matrix: (Units=1/GPa)
#
#
# Indices 1 2 3 4 5 6 
#
# 1 0.009963 -0.003118 -0.001305 0.000000 0.000000 0.000000
# 2 -0.003118 0.007958 -0.002439 0.000000 0.000000 0.000000
# 3 -0.001305 -0.002439 0.016037 0.000000 0.000000 0.000000
# 4 0.000000 0.000000 0.000000 0.017896 0.000000 0.000000
# 5 0.000000 0.000000 0.000000 0.000000 0.033495 0.000000
# 6 0.000000 0.000000 0.000000 0.000000 0.000000 0.033250
#
#
# Mechanical properties :
#
#
# Convention : Reuss Voigt Hill
#
# Bulk Modulus (GPa) = 49.42093 59.56781 54.49437
# Shear Modulus (GPa) = 35.95377 39.43969 37.69673
#
# Velocity S-wave (km/s) = 3.96994 4.15794 4.06503
# Velocity P-wave (km/s) = 6.53282 7.01163 6.77645
#
# Compressibility (1/GPa) = 0.02023434
#
# Stress axis : x y z
#
# Youngs Moduli (GPa) = 100.37132 125.65887 62.35654
#
# Poissons Ratio (x) = 0.39183 0.08135
# Poissons Ratio (y) = 0.31298 0.15209
# Poissons Ratio (z) = 0.13094 0.30648
#
# Static dielectric constant tensor:
#      x y z
#    x 1.814990 0.000000 0.000000 
#    y 0.000000 2.011120 0.000000 
#    z 0.000000 0.000000 1.309040 
# 
# From -- ./inp_files/28381.got.cif
#   From: 2010.05.17/outbox.cif.g08.bks.cpg/sg48_15_cif.got.tgz:28381.got - 2010.06.03 20:39:00.
