data_PCOD9391896
_publ_section_title
;
Structure prediction by ZEFSAII (Michael W. Deem and Ramdas Pophale) SiO2 
 PCOD9391896
Probable space group: P N N N
;
_chemical_formula_sum "Si O2"
_cell_formula_units_Z 40
_cell_length_a 22.851102
_cell_length_b 6.389733
_cell_length_c 11.944924
_cell_angle_alpha 90.000000
_cell_angle_beta 90.000000
_cell_angle_gamma 90.000000
_cell_volume 1744.107505
_symmetry_space_group_name_H-M "P N N N"
_symmetry_group_IT_number 48
_space_group.IT_coordinate_system_code '2'
_symmetry_cell_setting 'orthorhombic'
loop_
_space_group_symop_operation_xyz
x,y,z
1/2-x,1/2-y,z
x,1/2-y,1/2-z
1/2-x,y,1/2-z
-x,-y,-z
1/2+x,1/2+y,-z
-x,1/2+y,1/2+z
1/2+x,-y,1/2+z
loop_
_atom_site_type_symbol
_atom_site_label
_atom_site_fract_x
_atom_site_fract_y
_atom_site_fract_z
Si Si1 0.750000 0.250000 0.250000
Si Si2 0.956326 0.750000 0.750000
Si Si3 0.561520 0.621089 0.987125
Si Si4 0.646291 0.284140 0.090995
Si Si5 0.688314 0.368647 0.644386
Si Si6 0.250000 0.250000 0.250000
Si Si7 0.557138 0.945626 0.167957
O O1 0.703952 0.350316 0.161090
O O2 0.923213 0.839076 0.857745
O O3 0.999185 0.566210 0.793380
O O4 0.500000 0.500000 0.000000
O O5 0.608935 0.484013 0.052967
O O6 0.552155 0.841315 0.047064
O O7 0.608431 0.115338 0.160156
O O8 0.658860 0.164031 0.974231
O O9 0.750000 0.250000 0.632187
O O10 0.658038 0.250000 0.750000
O O11 0.707735 0.601396 0.677216
O O12 0.568019 0.750000 0.250000
#
# Coordination Sequence:
#
# PCOD9391896 Si02
#       7
#     2   4   8   8   8   2   8
#     4  12  26  52  76 100 154 206 254 314 384 468
#     4  12  25  46  75 109 153 194 251 319 382 470
#     4  12  26  47  76 109 155 199 254 319 396 462
#     4  12  26  47  74 109 147 203 258 316 384 466
#     4   9  20  42  70  95 141 184 241 313 371 442
#     4   8  18  40  70  96 134 196 234 310 382 436
#     4  12  24  45  74 109 152 200 247 317 388 460
#
# _framework density 22.934367000000002
#
# number of rings (size 3 to 8) (size 9 to 14) (size 15 to 20)
#    0.000    1.000    5.000    2.400    0.000    4.800 
#    3.600    2.000    0.000    0.000    0.000    0.000 
#    0.000    0.000    0.000    0.000    0.000    0.000 
#
# Total GULP energy -223620.683375 kJ/mol
# GULP energy per Si atom -5590.517084 kJ/mol
# Density = 2.288217 g / cm^3
# Si number density = 22.934367 Si / 1000 Ang^3
#
#
#
# Elastic Constant Matrix: (Units=GPa)
#
#
# Indices 1 2 3 4 5 6 
#
# 1 94.6091 46.9370 52.4586 0.0000 0.0000 0.0000
# 2 46.9370 139.8058 64.4320 0.0000 0.0000 0.0000
# 3 52.4586 64.4320 153.1625 0.0000 0.0000 0.0000
# 4 0.0000 0.0000 0.0000 40.9670 0.0000 0.0000
# 5 0.0000 0.0000 0.0000 0.0000 34.9280 0.0000
# 6 0.0000 0.0000 0.0000 0.0000 0.0000 19.2387
#
#
#
# Elastic Compliance Matrix: (Units=1/GPa)
#
#
# Indices 1 2 3 4 5 6 
#
# 1 0.014054 -0.003101 -0.003509 0.000000 0.000000 0.000000
# 2 -0.003101 0.009557 -0.002958 0.000000 0.000000 0.000000
# 3 -0.003509 -0.002958 0.008975 0.000000 0.000000 0.000000
# 4 0.000000 0.000000 0.000000 0.024410 0.000000 0.000000
# 5 0.000000 0.000000 0.000000 0.000000 0.028630 0.000000
# 6 0.000000 0.000000 0.000000 0.000000 0.000000 0.051979
#
#
# Mechanical properties :
#
#
# Convention : Reuss Voigt Hill
#
# Bulk Modulus (GPa) = 74.35126 79.47030 76.91078
# Shear Modulus (GPa) = 31.01241 33.94338 32.47790
#
# Velocity S-wave (km/s) = 3.68125 3.85128 3.76722
# Velocity P-wave (km/s) = 7.11044 7.38261 7.24780
#
# Compressibility (1/GPa) = 0.01344967
#
# Stress axis : x y z
#
# Youngs Moduli (GPa) = 71.15421 104.63116 111.41603
#
# Poissons Ratio (x) = 0.32448 0.39095
# Poissons Ratio (y) = 0.22066 0.32961
# Poissons Ratio (z) = 0.24967 0.30954
#
# Static dielectric constant tensor:
#      x y z
#    x 1.861240 0.000000 0.000000 
#    y 0.000000 1.817480 0.000000 
#    z 0.000000 0.000000 2.007240 
# 
# From -- ./inp_files/23569.got.cif
#   From: 2010.05.17/outbox.cif.g08.bks.cpg/sg48_12_cif.got.tgz:23569.got - 2010.06.03 20:39:00.
