data_PCOD9391557
_publ_section_title
;
Structure prediction by ZEFSAII (Michael W. Deem and Ramdas Pophale) SiO2 
 PCOD9391557
Probable space group: P N N N
;
_chemical_formula_sum "Si O2"
_cell_formula_units_Z 58
_cell_length_a 14.612199
_cell_length_b 16.508670
_cell_length_c 12.707675
_cell_angle_alpha 90.000000
_cell_angle_beta 90.000000
_cell_angle_gamma 90.000000
_cell_volume 3065.446660
_symmetry_space_group_name_H-M "P N N N"
_symmetry_group_IT_number 48
_space_group.IT_coordinate_system_code '2'
_symmetry_cell_setting 'orthorhombic'
loop_
_space_group_symop_operation_xyz
x,y,z
1/2-x,1/2-y,z
x,1/2-y,1/2-z
1/2-x,y,1/2-z
-x,-y,-z
1/2+x,1/2+y,-z
-x,1/2+y,1/2+z
1/2+x,-y,1/2+z
loop_
_atom_site_type_symbol
_atom_site_label
_atom_site_fract_x
_atom_site_fract_y
_atom_site_fract_z
Si Si1 0.750000 0.250000 0.750000
Si Si2 0.626536 0.206261 0.555269
Si Si3 0.002524 0.993988 0.673348
Si Si4 0.836434 0.957931 0.821466
Si Si5 0.743029 0.429461 0.005619
Si Si6 0.446173 0.885608 0.005919
Si Si7 0.832228 0.957393 0.183614
Si Si8 0.456136 0.091022 0.505128
O O1 0.677793 0.207616 0.669455
O O2 0.706456 0.162263 0.488749
O O3 0.586332 0.294366 0.526926
O O4 0.540506 0.148335 0.532344
O O5 0.005301 0.912757 0.602084
O O6 0.091725 0.000252 0.744792
O O7 0.911683 0.994970 0.743428
O O8 0.002869 0.073325 0.599372
O O9 0.750000 0.929053 0.750000
O O10 0.798930 0.024919 0.903948
O O11 0.896477 0.898739 0.898083
O O12 0.850814 0.433868 0.995597
O O13 0.712353 0.475261 0.109214
O O14 0.750000 0.919268 0.250000
O O15 0.886548 0.901405 0.102333
O O16 0.500000 0.000000 0.500000
#
# Coordination Sequence:
#
# PCOD9391557 Si02
#       8
#     2   8   8   8   8   8   8   8
#     4  12  28  32  68 100 132 172 186 260 344 400
#     4  12  24  39  58  95 136 155 201 254 323 378
#     4  11  22  38  60  90 120 169 209 248 307 366
#     4  11  21  37  69  91 120 165 220 256 303 372
#     4  11  20  38  59  96 125 155 194 257 314 376
#     4  11  24  36  59  92 131 154 199 263 301 370
#     4  11  21  37  64  87 124 166 210 245 306 375
#     4  11  22  38  62  90 127 167 207 259 304 375
#
# _framework density 18.920570000000001
#
# number of rings (size 3 to 8) (size 9 to 14) (size 15 to 20)
#    0.000    0.828    8.276    0.000    4.828    0.000 
#    0.000    2.759    0.000    4.966    0.000    0.000 
#    0.000    0.000    0.000    0.000    0.000    0.000 
#
# Total GULP energy -323083.910674 kJ/mol
# GULP energy per Si atom -5570.412253 kJ/mol
# Density = 1.887751 g / cm^3
# Si number density = 18.920570 Si / 1000 Ang^3
#
#
#
# Elastic Constant Matrix: (Units=GPa)
#
#
# Indices 1 2 3 4 5 6 
#
# 1 109.3916 22.0497 47.0028 0.0000 0.0000 0.0000
# 2 22.0497 61.9992 17.6723 0.0000 0.0000 0.0000
# 3 47.0028 17.6723 95.2741 0.0000 0.0000 0.0000
# 4 0.0000 0.0000 0.0000 0.1834 0.0000 0.0000
# 5 0.0000 0.0000 0.0000 0.0000 -26.7168 0.0000
# 6 0.0000 0.0000 0.0000 0.0000 0.0000 18.3397
#
#
#
# Elastic Compliance Matrix: (Units=1/GPa)
#
#
# Indices 1 2 3 4 5 6 
#
# 1 0.012023 -0.002729 -0.005425 0.000000 0.000000 0.000000
# 2 -0.002729 0.017649 -0.001927 0.000000 0.000000 0.000000
# 3 -0.005425 -0.001927 0.013530 0.000000 0.000000 0.000000
# 4 0.000000 0.000000 0.000000 5.453153 0.000000 0.000000
# 5 0.000000 0.000000 0.000000 0.000000 -0.037430 0.000000
# 6 0.000000 0.000000 0.000000 0.000000 0.000000 0.054526
#
#
# Mechanical properties :
#
#
# Convention : Reuss Voigt Hill
#
# Bulk Modulus (GPa) = 43.40556 48.90162 46.15359
# Shear Modulus (GPa) = 0.90232 10.35727 5.62979
#
# Velocity S-wave (km/s) = 0.69133 2.34221 1.72683
# Velocity P-wave (km/s) = 4.86086 5.76337 5.33125
#
# Compressibility (1/GPa) = 0.02303852
#
# Stress axis : x y z
#
# Youngs Moduli (GPa) = 83.17659 56.65952 73.91042
#
# Poissons Ratio (x) = 0.15465 0.40096
# Poissons Ratio (y) = 0.22703 0.14244
# Poissons Ratio (z) = 0.45123 0.10919
#
# Static dielectric constant tensor:
#      x y z
#    x 1.688820 0.000000 0.000000 
#    y 0.000000 1.680920 0.000000 
#    z 0.000000 0.000000 1.708410 
# 
# From -- ./inp_files/21519.got.cif
#   From: 2010.05.17/outbox.cif.g08.bks.cpg/sg48_11_cif.got.tgz:21519.got - 2010.06.03 20:39:00.
