data_PCOD9391705
_publ_section_title
;
Structure prediction by ZEFSAII (Michael W. Deem and Ramdas Pophale) SiO2 
 PCOD9391705
Probable space group: P N N N
;
_chemical_formula_sum "Si O2"
_cell_formula_units_Z 48
_cell_length_a 21.245492
_cell_length_b 9.147770
_cell_length_c 11.105442
_cell_angle_alpha 90.000000
_cell_angle_beta 90.000000
_cell_angle_gamma 90.000000
_cell_volume 2158.330152
_symmetry_space_group_name_H-M "P N N N"
_symmetry_group_IT_number 48
_space_group.IT_coordinate_system_code '2'
_symmetry_cell_setting 'orthorhombic'
loop_
_space_group_symop_operation_xyz
x,y,z
1/2-x,1/2-y,z
x,1/2-y,1/2-z
1/2-x,y,1/2-z
-x,-y,-z
1/2+x,1/2+y,-z
-x,1/2+y,1/2+z
1/2+x,-y,1/2+z
loop_
_atom_site_type_symbol
_atom_site_label
_atom_site_fract_x
_atom_site_fract_y
_atom_site_fract_z
Si Si1 0.735296 0.586247 0.892008
Si Si2 0.018834 0.357367 0.077958
Si Si3 0.610752 0.309041 0.125086
Si Si4 0.405566 0.072955 0.487936
Si Si5 0.186310 0.835108 0.408336
Si Si6 0.567468 0.411431 0.760248
O O1 0.750000 0.750000 0.921132
O O2 0.750000 0.562171 0.750000
O O3 0.663041 0.569149 0.925469
O O4 0.784006 0.482933 0.959968
O O5 0.064996 0.234854 0.019958
O O6 0.047376 0.440035 0.193007
O O7 0.955788 0.271993 0.110997
O O8 0.000000 0.500000 0.000000
O O9 0.638505 0.250000 0.250000
O O10 0.600658 0.483916 0.112630
O O11 0.652199 0.255877 0.011912
O O12 0.440706 0.959329 0.398461
O O13 0.250000 0.750000 0.371233
O O14 0.135166 0.877654 0.306022
O O15 0.535638 0.250000 0.750000
#
# Coordination Sequence:
#
# PCOD9391705 Si02
#       6
#     8   8   8   8   8   8
#     4  11  23  37  68 108 143 172 216 286 364 430
#     4  12  26  45  72 101 140 182 235 294 355 421
#     4  12  27  47  67  97 136 191 244 286 339 416
#     4  12  24  44  69 104 141 181 227 295 356 426
#     4  12  23  42  68 102 142 179 228 278 354 429
#     4  12  22  41  72 109 141 175 221 287 367 425
#
# _framework density 22.239412999999999
#
# number of rings (size 3 to 8) (size 9 to 14) (size 15 to 20)
#    0.000    0.167    6.667    3.000    2.333    1.667 
#    0.000    0.000    0.000    1.000    0.000    0.000 
#    0.000    0.000    0.000    0.000    0.000    0.000 
#
# Total GULP energy -267863.265648 kJ/mol
# GULP energy per Si atom -5580.484701 kJ/mol
# Density = 2.218880 g / cm^3
# Si number density = 22.239413 Si / 1000 Ang^3
#
#
#
# Elastic Constant Matrix: (Units=GPa)
#
#
# Indices 1 2 3 4 5 6 
#
# 1 85.8286 37.5412 14.5164 0.0000 0.0000 0.0000
# 2 37.5412 187.6503 42.2735 0.0000 0.0000 0.0000
# 3 14.5164 42.2735 66.2863 0.0000 0.0000 0.0000
# 4 0.0000 0.0000 0.0000 -49.2464 0.0000 0.0000
# 5 0.0000 0.0000 0.0000 0.0000 8.4588 0.0000
# 6 0.0000 0.0000 0.0000 0.0000 0.0000 44.3944
#
#
#
# Elastic Compliance Matrix: (Units=1/GPa)
#
#
# Indices 1 2 3 4 5 6 
#
# 1 0.012875 -0.002266 -0.001374 0.000000 0.000000 0.000000
# 2 -0.002266 0.006622 -0.003727 0.000000 0.000000 0.000000
# 3 -0.001374 -0.003727 0.017764 0.000000 0.000000 0.000000
# 4 0.000000 0.000000 0.000000 -0.020306 0.000000 0.000000
# 5 0.000000 0.000000 0.000000 0.000000 0.118221 0.000000
# 6 0.000000 0.000000 0.000000 0.000000 0.000000 0.022525
#
#
# Mechanical properties :
#
#
# Convention : Reuss Voigt Hill
#
# Bulk Modulus (GPa) = 44.39318 58.71416 51.55367
# Shear Modulus (GPa) = 27.78644 17.08362 22.43503
#
# Velocity S-wave (km/s) = 3.53855 2.77459 3.17960
# Velocity P-wave (km/s) = 6.05805 6.05993 6.05899
#
# Compressibility (1/GPa) = 0.02252598
#
# Stress axis : x y z
#
# Youngs Moduli (GPa) = 77.67129 151.01186 56.29428
#
# Poissons Ratio (x) = 0.34221 0.07737
# Poissons Ratio (y) = 0.17601 0.20980
# Poissons Ratio (z) = 0.10675 0.56280
#
# Static dielectric constant tensor:
#      x y z
#    x 1.982750 0.000000 0.000000 
#    y 0.000000 0.477970 0.000000 
#    z 0.000000 0.000000 1.982930 
# 
# From -- ./inp_files/23271.got.cif
#   From: 2010.05.17/outbox.cif.g08.bks.cpg/sg48_12_cif.got.tgz:23271.got - 2010.06.03 20:39:00.
