data_PCOD9391601
_publ_section_title
;
Structure prediction by ZEFSAII (Michael W. Deem and Ramdas Pophale) SiO2 
 PCOD9391601
Probable space group: P N N N
;
_chemical_formula_sum "Si O2"
_cell_formula_units_Z 58
_cell_length_a 18.733886
_cell_length_b 8.170193
_cell_length_c 17.316898
_cell_angle_alpha 90.000000
_cell_angle_beta 90.000000
_cell_angle_gamma 90.000000
_cell_volume 2650.515131
_symmetry_space_group_name_H-M "P N N N"
_symmetry_group_IT_number 48
_space_group.IT_coordinate_system_code '2'
_symmetry_cell_setting 'orthorhombic'
loop_
_space_group_symop_operation_xyz
x,y,z
1/2-x,1/2-y,z
x,1/2-y,1/2-z
1/2-x,y,1/2-z
-x,-y,-z
1/2+x,1/2+y,-z
-x,1/2+y,1/2+z
1/2+x,-y,1/2+z
loop_
_atom_site_type_symbol
_atom_site_label
_atom_site_fract_x
_atom_site_fract_y
_atom_site_fract_z
Si Si1 0.779747 0.570340 0.501560
Si Si2 0.750000 0.250000 0.250000
Si Si3 0.587011 0.376520 0.029595
Si Si4 0.468862 0.535211 0.118547
Si Si5 0.829706 0.414103 0.110101
Si Si6 0.771799 0.442245 0.836966
Si Si7 0.577719 0.437901 0.722018
Si Si8 0.071197 0.182476 0.671238
O O1 0.750000 0.750000 0.486570
O O2 0.859868 0.533195 0.473069
O O3 0.732490 0.447621 0.450650
O O4 0.766486 0.530904 0.591861
O O5 0.798111 0.358683 0.192562
O O6 0.508923 0.401352 0.066920
O O7 0.623093 0.230698 0.075205
O O8 0.578263 0.352369 0.937789
O O9 0.428711 0.472473 0.194695
O O10 0.533437 0.653998 0.141726
O O11 0.875056 0.578893 0.121112
O O12 0.750000 0.250000 0.843686
O O13 0.750000 0.493183 0.750000
O O14 0.857353 0.475841 0.834714
O O15 0.591487 0.250000 0.750000
O O16 0.497809 0.434526 0.688201
O O17 0.106429 0.250000 0.750000
#
# Coordination Sequence:
#
# PCOD9391601 Si02
#       8
#     8   2   8   8   8   8   8   8
#     4  12  27  44  66  98 141 179 230 285 348 409
#     4  12  28  44  70 100 126 168 228 296 344 424
#     4  11  22  43  67  96 128 176 222 291 333 409
#     4   9  21  40  66  94 138 168 222 275 348 397
#     4  12  26  44  71  98 130 176 232 282 348 412
#     4  11  21  38  72 100 136 185 224 275 328 408
#     4   9  18  36  61  99 126 176 215 261 322 405
#     4   9  22  40  65  94 132 173 212 275 328 416
#
# _framework density 21.882536999999999
#
# number of rings (size 3 to 8) (size 9 to 14) (size 15 to 20)
#    0.000    1.793    2.759    2.483    9.655    1.931 
#    4.966    0.000    0.000    0.000    0.000    0.000 
#    0.000    0.000    0.000    0.000    0.000    0.000 
#
# Total GULP energy -323470.039980 kJ/mol
# GULP energy per Si atom -5577.069655 kJ/mol
# Density = 2.183273 g / cm^3
# Si number density = 21.882537 Si / 1000 Ang^3
#
#
#
# Elastic Constant Matrix: (Units=GPa)
#
#
# Indices 1 2 3 4 5 6 
#
# 1 71.2344 -2.0566 20.9123 0.0000 0.0000 0.0000
# 2 -2.0566 36.9942 6.5346 0.0000 0.0000 0.0000
# 3 20.9123 6.5346 78.6908 0.0000 0.0000 0.0000
# 4 0.0000 0.0000 0.0000 25.6537 0.0000 0.0000
# 5 0.0000 0.0000 0.0000 0.0000 1.1050 0.0000
# 6 0.0000 0.0000 0.0000 0.0000 0.0000 1.7610
#
#
#
# Elastic Compliance Matrix: (Units=1/GPa)
#
#
# Indices 1 2 3 4 5 6 
#
# 1 0.015318 0.001594 -0.004203 0.000000 0.000000 0.000000
# 2 0.001594 0.027600 -0.002716 0.000000 0.000000 0.000000
# 3 -0.004203 -0.002716 0.014050 0.000000 0.000000 0.000000
# 4 0.000000 0.000000 0.000000 0.038981 0.000000 0.000000
# 5 0.000000 0.000000 0.000000 0.000000 0.905012 0.000000
# 6 0.000000 0.000000 0.000000 0.000000 0.000000 0.567848
#
#
# Mechanical properties :
#
#
# Convention : Reuss Voigt Hill
#
# Bulk Modulus (GPa) = 21.58953 26.41110 24.00032
# Shear Modulus (GPa) = 3.13500 16.47255 9.80377
#
# Velocity S-wave (km/s) = 1.19823 2.74664 2.11894
# Velocity P-wave (km/s) = 3.43538 4.70685 4.12045
#
# Compressibility (1/GPa) = 0.04631874
#
# Stress axis : x y z
#
# Youngs Moduli (GPa) = 65.28215 36.23248 71.17191
#
# Poissons Ratio (x) = -0.05776 0.29915
# Poissons Ratio (y) = -0.10406 0.19327
# Poissons Ratio (z) = 0.27439 0.09839
#
# Static dielectric constant tensor:
#      x y z
#    x 1.854220 0.000000 0.000000 
#    y 0.000000 1.803080 0.000000 
#    z 0.000000 0.000000 1.838250 
# 
# From -- ./inp_files/31995.got.cif
#   From: 2010.05.17/outbox.cif.g08.bks.cpg/sg48_16_cif.got.tgz:31995.got - 2010.06.03 20:39:00.
