data_PCOD9391426
_publ_section_title
;
Structure prediction by ZEFSAII (Michael W. Deem and Ramdas Pophale) SiO2 
 PCOD9391426
Probable space group: P N N N
;
_chemical_formula_sum "Si O2"
_cell_formula_units_Z 22
_cell_length_a 30.024135
_cell_length_b 6.804432
_cell_length_c 4.948175
_cell_angle_alpha 90.000000
_cell_angle_beta 90.000000
_cell_angle_gamma 90.000000
_cell_volume 1010.898223
_symmetry_space_group_name_H-M "P N N N"
_symmetry_group_IT_number 48
_space_group.IT_coordinate_system_code '2'
_symmetry_cell_setting 'orthorhombic'
loop_
_space_group_symop_operation_xyz
x,y,z
1/2-x,1/2-y,z
x,1/2-y,1/2-z
1/2-x,y,1/2-z
-x,-y,-z
1/2+x,1/2+y,-z
-x,1/2+y,1/2+z
1/2+x,-y,1/2+z
loop_
_atom_site_type_symbol
_atom_site_label
_atom_site_fract_x
_atom_site_fract_y
_atom_site_fract_z
Si Si1 0.139194 0.611131 0.996572
Si Si2 0.750000 0.750000 0.250000
Si Si3 0.693103 0.750000 0.750000
Si Si4 0.547539 0.894439 0.002445
O O1 0.154252 0.750000 0.750000
O O2 0.141332 0.750000 0.250000
O O3 0.166117 0.415881 0.085940
O O4 0.088130 0.544144 0.960808
O O5 0.719411 0.850252 0.489298
O O6 0.554269 0.750000 0.750000
O O7 0.548208 0.750000 0.250000
O O8 0.500000 0.000000 0.000000
#
# Coordination Sequence:
#
# PCOD9391426 Si02
#       4
#     8   2   4   8
#     4  12  25  43  72 106 142 190 237 289 354 425
#     4  10  24  46  78 102 140 188 224 306 366 438
#     4  11  24  48  72 106 144 182 240 292 374 425
#     4  12  24  42  65 100 146 188 239 293 339 409
#
# _framework density 21.762823999999998
#
# number of rings (size 3 to 8) (size 9 to 14) (size 15 to 20)
#    0.000    0.364    1.818    7.636    2.545    0.000 
#    0.000   13.636    0.000    0.000    0.000    0.000 
#    0.000    0.000    0.000    0.000    0.000    0.000 
#
# Total GULP energy -122587.499585 kJ/mol
# GULP energy per Si atom -5572.159072 kJ/mol
# Density = 2.171329 g / cm^3
# Si number density = 21.762824 Si / 1000 Ang^3
#
#
#
# Elastic Constant Matrix: (Units=GPa)
#
#
# Indices 1 2 3 4 5 6 
#
# 1 84.3107 36.6359 38.7464 0.0000 0.0000 0.0000
# 2 36.6359 115.9032 66.3994 0.0000 0.0000 0.0000
# 3 38.7464 66.3994 221.4466 0.0000 0.0000 0.0000
# 4 0.0000 0.0000 0.0000 33.0675 0.0000 0.0000
# 5 0.0000 0.0000 0.0000 0.0000 40.2100 0.0000
# 6 0.0000 0.0000 0.0000 0.0000 0.0000 2.2826
#
#
#
# Elastic Compliance Matrix: (Units=1/GPa)
#
#
# Indices 1 2 3 4 5 6 
#
# 1 0.014082 -0.003670 -0.001364 0.000000 0.000000 0.000000
# 2 -0.003670 0.011374 -0.002768 0.000000 0.000000 0.000000
# 3 -0.001364 -0.002768 0.005584 0.000000 0.000000 0.000000
# 4 0.000000 0.000000 0.000000 0.030241 0.000000 0.000000
# 5 0.000000 0.000000 0.000000 0.000000 0.024869 0.000000
# 6 0.000000 0.000000 0.000000 0.000000 0.000000 0.438091
#
#
# Mechanical properties :
#
#
# Convention : Reuss Voigt Hill
#
# Bulk Modulus (GPa) = 64.78027 78.35822 71.56925
# Shear Modulus (GPa) = 9.17446 33.77062 21.47254
#
# Velocity S-wave (km/s) = 2.05543 3.94351 3.14452
# Velocity P-wave (km/s) = 5.95518 7.53782 6.79275
#
# Compressibility (1/GPa) = 0.01543680
#
# Stress axis : x y z
#
# Youngs Moduli (GPa) = 71.01104 87.92082 179.07132
#
# Poissons Ratio (x) = 0.32268 0.24416
# Poissons Ratio (y) = 0.26062 0.49571
# Poissons Ratio (z) = 0.09682 0.24338
#
# Static dielectric constant tensor:
#      x y z
#    x 1.872160 0.000000 0.000000 
#    y 0.000000 1.812050 0.000000 
#    z 0.000000 0.000000 0.803180 
# 
# From -- ./inp_files/6714.got.cif
#   From: 2010.05.17/outbox.cif.g08.bks.cpg/sg48_4_cif.got.tgz:6714.got - 2010.06.03 20:39:00.
