data_PCOD9391841
_publ_section_title
;
Structure prediction by ZEFSAII (Michael W. Deem and Ramdas Pophale) SiO2 
 PCOD9391841
Probable space group: P N N N
;
_chemical_formula_sum "Si O2"
_cell_formula_units_Z 24
_cell_length_a 23.034180
_cell_length_b 6.938092
_cell_length_c 7.384597
_cell_angle_alpha 90.000000
_cell_angle_beta 90.000000
_cell_angle_gamma 90.000000
_cell_volume 1180.156520
_symmetry_space_group_name_H-M "P N N N"
_symmetry_group_IT_number 48
_space_group.IT_coordinate_system_code '2'
_symmetry_cell_setting 'orthorhombic'
loop_
_space_group_symop_operation_xyz
x,y,z
1/2-x,1/2-y,z
x,1/2-y,1/2-z
1/2-x,y,1/2-z
-x,-y,-z
1/2+x,1/2+y,-z
-x,1/2+y,1/2+z
1/2+x,-y,1/2+z
loop_
_atom_site_type_symbol
_atom_site_label
_atom_site_fract_x
_atom_site_fract_y
_atom_site_fract_z
Si Si1 0.372221 0.250000 0.750000
Si Si2 0.360397 0.750000 0.250000
Si Si3 0.942276 0.099843 0.080508
Si Si4 0.310353 0.130319 0.099030
O O1 0.408391 0.417427 0.841573
O O2 0.335327 0.356160 0.598420
O O3 0.402862 0.808911 0.418179
O O4 0.317796 0.582933 0.324305
O O5 0.952046 0.250000 0.250000
O O6 0.000000 0.000000 0.000000
O O7 0.250000 0.250000 0.084770
O O8 0.346236 0.250000 0.250000
#
# Coordination Sequence:
#
# PCOD9391841 Si02
#       4
#     4   4   8   8
#     4  12  24  48  72 104 150 188 242 304 352 434
#     4  12  25  49  74 108 146 190 242 302 366 434
#     4  12  28  45  74 108 146 193 244 300 369 435
#     4  11  25  45  75 105 142 189 244 296 362 428
#
# _framework density 20.336285
#
# number of rings (size 3 to 8) (size 9 to 14) (size 15 to 20)
#    0.000    0.333    6.667    1.500    4.667    5.333 
#    0.000    0.000    0.000    0.000    0.000    0.000 
#    0.000    0.000    0.000    0.000    0.000    0.000 
#
# Total GULP energy -133710.809207 kJ/mol
# GULP energy per Si atom -5571.283717 kJ/mol
# Density = 2.029000 g / cm^3
# Si number density = 20.336285 Si / 1000 Ang^3
#
#
#
# Elastic Constant Matrix: (Units=GPa)
#
#
# Indices 1 2 3 4 5 6 
#
# 1 125.8113 78.2031 79.8969 0.0000 0.0000 0.0000
# 2 78.2031 186.1819 88.7262 0.0000 0.0000 0.0000
# 3 79.8969 88.7262 176.7102 0.0000 0.0000 0.0000
# 4 0.0000 0.0000 0.0000 46.2929 0.0000 0.0000
# 5 0.0000 0.0000 0.0000 0.0000 40.3486 0.0000
# 6 0.0000 0.0000 0.0000 0.0000 0.0000 16.2988
#
#
#
# Elastic Compliance Matrix: (Units=1/GPa)
#
#
# Indices 1 2 3 4 5 6 
#
# 1 0.012587 -0.003385 -0.003992 0.000000 0.000000 0.000000
# 2 -0.003385 0.007971 -0.002472 0.000000 0.000000 0.000000
# 3 -0.003992 -0.002472 0.008705 0.000000 0.000000 0.000000
# 4 0.000000 0.000000 0.000000 0.021602 0.000000 0.000000
# 5 0.000000 0.000000 0.000000 0.000000 0.024784 0.000000
# 6 0.000000 0.000000 0.000000 0.000000 0.000000 0.061354
#
#
# Mechanical properties :
#
#
# Convention : Reuss Voigt Hill
#
# Bulk Modulus (GPa) = 104.53198 109.15065 106.84132
# Shear Modulus (GPa) = 31.27191 36.71322 33.99257
#
# Velocity S-wave (km/s) = 3.92566 4.25350 4.09286
# Velocity P-wave (km/s) = 8.48888 8.82680 8.65949
#
# Compressibility (1/GPa) = 0.00956645
#
# Stress axis : x y z
#
# Youngs Moduli (GPa) = 79.44501 125.45837 114.87959
#
# Poissons Ratio (x) = 0.42466 0.45855
# Poissons Ratio (y) = 0.26891 0.28395
# Poissons Ratio (z) = 0.31711 0.31009
#
# Static dielectric constant tensor:
#      x y z
#    x 1.544030 0.000000 0.000000 
#    y 0.000000 1.745770 0.000000 
#    z 0.000000 0.000000 2.285010 
# 
# From -- ./inp_files/5518.got.cif
#   From: 2010.05.17/outbox.cif.g08.bks.cpg/sg48_3_cif.got.tgz:5518.got - 2010.06.03 20:39:00.
