data_PCOD9391041
_publ_section_title
;
Structure prediction by ZEFSAII (Michael W. Deem and Ramdas Pophale) SiO2 
 PCOD9391041
Probable space group: P N N N
;
_chemical_formula_sum "Si O2"
_cell_formula_units_Z 64
_cell_length_a 8.236451
_cell_length_b 13.373531
_cell_length_c 24.384965
_cell_angle_alpha 90.000000
_cell_angle_beta 90.000000
_cell_angle_gamma 90.000000
_cell_volume 2686.014448
_symmetry_space_group_name_H-M "P N N N"
_symmetry_group_IT_number 48
_space_group.IT_coordinate_system_code '2'
_symmetry_cell_setting 'orthorhombic'
loop_
_space_group_symop_operation_xyz
x,y,z
1/2-x,1/2-y,z
x,1/2-y,1/2-z
1/2-x,y,1/2-z
-x,-y,-z
1/2+x,1/2+y,-z
-x,1/2+y,1/2+z
1/2+x,-y,1/2+z
loop_
_atom_site_type_symbol
_atom_site_label
_atom_site_fract_x
_atom_site_fract_y
_atom_site_fract_z
Si Si1 0.547247 0.323205 0.477949
Si Si2 0.364944 0.994965 0.822345
Si Si3 0.892691 0.098796 0.983541
Si Si4 0.128161 0.384182 0.923628
Si Si5 0.486838 0.314923 0.883811
Si Si6 0.495280 0.304309 0.351236
Si Si7 0.012816 0.431404 0.715162
Si Si8 0.325942 0.379137 0.190797
O O1 0.709817 0.385617 0.494256
O O2 0.533302 0.206612 0.497681
O O3 0.404507 0.380521 0.511463
O O4 0.551504 0.306902 0.413266
O O5 0.398913 0.878469 0.814283
O O6 0.473119 0.060645 0.780458
O O7 0.182672 0.023058 0.806946
O O8 0.399691 0.019820 0.885843
O O9 0.893831 0.113422 0.917800
O O10 0.000000 0.000000 0.000000
O O11 0.309558 0.350608 0.906474
O O12 0.005529 0.300359 0.899782
O O13 0.501175 0.329997 0.818838
O O14 0.470920 0.194899 0.326039
O O15 0.317320 0.355454 0.351022
O O16 0.878111 0.507633 0.694689
O O17 0.250000 0.353893 0.250000
#
# Coordination Sequence:
#
# PCOD9391041 Si02
#       8
#     8   8   8   8   8   8   8   8
#     4  10  24  43  64  96 133 171 219 276 328 408
#     4  10  22  39  62  96 130 168 215 271 322 399
#     4  10  23  42  65  94 133 171 216 273 339 397
#     4   9  20  42  63  94 134 164 217 268 325 389
#     4   9  20  39  66  92 127 172 212 271 326 395
#     4  11  24  40  65  91 128 172 219 268 331 394
#     4  10  22  39  64  95 127 169 219 264 334 388
#     4  11  24  44  64  91 134 172 217 273 333 403
#
# _framework density 23.827124000000001
#
# number of rings (size 3 to 8) (size 9 to 14) (size 15 to 20)
#    0.000    2.000    1.250    0.750    5.250    7.500 
#    2.250    3.750    0.000    0.000    0.000    0.000 
#    0.000    0.000    0.000    0.000    0.000    0.000 
#
# Total GULP energy -356925.644895 kJ/mol
# GULP energy per Si atom -5576.963201 kJ/mol
# Density = 2.377289 g / cm^3
# Si number density = 23.827124 Si / 1000 Ang^3
#
#
#
# Elastic Constant Matrix: (Units=GPa)
#
#
# Indices 1 2 3 4 5 6 
#
# 1 49.2233 20.2658 15.3558 0.0000 0.0000 0.0000
# 2 20.2658 82.4261 7.6223 0.0000 0.0000 0.0000
# 3 15.3558 7.6223 111.0022 0.0000 0.0000 0.0000
# 4 0.0000 0.0000 0.0000 7.7742 0.0000 0.0000
# 5 0.0000 0.0000 0.0000 0.0000 15.2985 0.0000
# 6 0.0000 0.0000 0.0000 0.0000 0.0000 23.9415
#
#
#
# Elastic Compliance Matrix: (Units=1/GPa)
#
#
# Indices 1 2 3 4 5 6 
#
# 1 0.023478 -0.005507 -0.002870 0.000000 0.000000 0.000000
# 2 -0.005507 0.013501 -0.000165 0.000000 0.000000 0.000000
# 3 -0.002870 -0.000165 0.009417 0.000000 0.000000 0.000000
# 4 0.000000 0.000000 0.000000 0.128630 0.000000 0.000000
# 5 0.000000 0.000000 0.000000 0.000000 0.065366 0.000000
# 6 0.000000 0.000000 0.000000 0.000000 0.000000 0.041769
#
#
# Mechanical properties :
#
#
# Convention : Reuss Voigt Hill
#
# Bulk Modulus (GPa) = 34.11519 36.57103 35.34311
# Shear Modulus (GPa) = 16.18036 22.69669 19.43853
#
# Velocity S-wave (km/s) = 2.60873 3.08970 2.85935
# Velocity P-wave (km/s) = 4.83972 5.30190 5.07607
#
# Compressibility (1/GPa) = 0.02931245
#
# Stress axis : x y z
#
# Youngs Moduli (GPa) = 42.59280 74.06657 106.18897
#
# Poissons Ratio (x) = 0.40789 0.30474
# Poissons Ratio (y) = 0.23456 0.01755
# Poissons Ratio (z) = 0.12223 0.01224
#
# Static dielectric constant tensor:
#      x y z
#    x 1.976010 0.000000 0.000000 
#    y 0.000000 1.916720 0.000000 
#    z 0.000000 0.000000 1.965040 
# 
# From -- ./inp_files/35986.got.cif
#   From: 2010.05.17/outbox.cif.g08.bks.cpg/sg48_18_cif.got.tgz:35986.got - 2010.06.03 20:39:00.
