data_PCOD9391594
_publ_section_title
;
Structure prediction by ZEFSAII (Michael W. Deem and Ramdas Pophale) SiO2 
 PCOD9391594
Probable space group: P N N N
;
_chemical_formula_sum "Si O2"
_cell_formula_units_Z 44
_cell_length_a 23.100935
_cell_length_b 15.270326
_cell_length_c 5.316503
_cell_angle_alpha 90.000000
_cell_angle_beta 90.000000
_cell_angle_gamma 90.000000
_cell_volume 1875.443263
_symmetry_space_group_name_H-M "P N N N"
_symmetry_group_IT_number 48
_space_group.IT_coordinate_system_code '2'
_symmetry_cell_setting 'orthorhombic'
loop_
_space_group_symop_operation_xyz
x,y,z
1/2-x,1/2-y,z
x,1/2-y,1/2-z
1/2-x,y,1/2-z
-x,-y,-z
1/2+x,1/2+y,-z
-x,1/2+y,1/2+z
1/2+x,-y,1/2+z
loop_
_atom_site_type_symbol
_atom_site_label
_atom_site_fract_x
_atom_site_fract_y
_atom_site_fract_z
Si Si1 0.672410 0.934783 0.661695
Si Si2 0.860524 0.750000 0.750000
Si Si3 0.807761 0.457122 0.143202
Si Si4 0.539630 0.833048 0.091085
Si Si5 0.583046 0.149623 0.178292
Si Si6 0.066340 0.013223 0.967928
O O1 0.678235 0.830749 0.655037
O O2 0.602895 0.950042 0.697394
O O3 0.679252 0.980021 0.386937
O O4 0.701543 0.979899 0.902363
O O5 0.905880 0.787986 0.547438
O O6 0.750000 0.410506 0.250000
O O7 0.858533 0.390752 0.054691
O O8 0.515953 0.750000 0.250000
O O9 0.566176 0.912523 0.251908
O O10 0.481020 0.862919 0.943469
O O11 0.589222 0.250000 0.250000
O O12 0.585145 0.086195 0.418306
O O13 0.000000 0.000000 0.000000
#
# Coordination Sequence:
#
# PCOD9391594 Si02
#       6
#     8   4   8   8   8   8
#     4  11  24  43  71 102 134 182 234 287 361 432
#     4  12  22  40  65 104 147 180 212 282 358 450
#     4  11  26  49  71  94 133 183 246 310 355 396
#     4  12  22  38  63 103 150 188 227 273 354 443
#     4  11  23  40  64 100 135 184 241 287 342 422
#     4  11  21  38  62  98 140 190 223 278 347 425
#
# _framework density 23.461117999999999
#
# number of rings (size 3 to 8) (size 9 to 14) (size 15 to 20)
#    0.000    0.727    2.727    6.545    0.000    1.818 
#    0.000    2.727    0.000    4.364    0.000    0.000 
#    0.000    0.000    0.000    0.000    0.000    0.000 
#
# Total GULP energy -245149.849526 kJ/mol
# GULP energy per Si atom -5571.587489 kJ/mol
# Density = 2.340772 g / cm^3
# Si number density = 23.461118 Si / 1000 Ang^3
#
#
#
# Elastic Constant Matrix: (Units=GPa)
#
#
# Indices 1 2 3 4 5 6 
#
# 1 77.7562 20.1911 25.0892 0.0000 0.0000 0.0000
# 2 20.1911 163.7052 42.2246 0.0000 0.0000 0.0000
# 3 25.0892 42.2246 99.2384 0.0000 0.0000 0.0000
# 4 0.0000 0.0000 0.0000 38.2485 0.0000 0.0000
# 5 0.0000 0.0000 0.0000 0.0000 35.9657 0.0000
# 6 0.0000 0.0000 0.0000 0.0000 0.0000 14.6301
#
#
#
# Elastic Compliance Matrix: (Units=1/GPa)
#
#
# Indices 1 2 3 4 5 6 
#
# 1 0.014126 -0.000922 -0.003179 0.000000 0.000000 0.000000
# 2 -0.000922 0.006922 -0.002712 0.000000 0.000000 0.000000
# 3 -0.003179 -0.002712 0.012034 0.000000 0.000000 0.000000
# 4 0.000000 0.000000 0.000000 0.026145 0.000000 0.000000
# 5 0.000000 0.000000 0.000000 0.000000 0.027804 0.000000
# 6 0.000000 0.000000 0.000000 0.000000 0.000000 0.068352
#
#
# Mechanical properties :
#
#
# Convention : Reuss Voigt Hill
#
# Bulk Modulus (GPa) = 51.39863 57.30105 54.34984
# Shear Modulus (GPa) = 28.49085 34.64852 31.56969
#
# Velocity S-wave (km/s) = 3.48858 3.84715 3.67225
# Velocity P-wave (km/s) = 6.17920 6.64913 6.41847
#
# Compressibility (1/GPa) = 0.01945577
#
# Stress axis : x y z
#
# Youngs Moduli (GPa) = 70.79189 144.47116 83.09582
#
# Poissons Ratio (x) = 0.13325 0.26415
# Poissons Ratio (y) = 0.06529 0.22535
# Poissons Ratio (z) = 0.22503 0.39180
#
# Static dielectric constant tensor:
#      x y z
#    x 2.302500 0.000000 0.000000 
#    y 0.000000 1.803200 0.000000 
#    z 0.000000 0.000000 1.992160 
# 
# From -- ./inp_files/6413.got.cif
#   From: 2010.05.17/outbox.cif.g08.bks.cpg/sg48_4_cif.got.tgz:6413.got - 2010.06.03 20:39:00.
