data_PCOD9391616
_publ_section_title
;
Structure prediction by ZEFSAII (Michael W. Deem and Ramdas Pophale) SiO2 
 PCOD9391616
Probable space group: P N N N
;
_chemical_formula_sum "Si O2"
_cell_formula_units_Z 40
_cell_length_a 8.661965
_cell_length_b 9.357866
_cell_length_c 22.804605
_cell_angle_alpha 90.000000
_cell_angle_beta 90.000000
_cell_angle_gamma 90.000000
_cell_volume 1848.484447
_symmetry_space_group_name_H-M "P N N N"
_symmetry_group_IT_number 48
_space_group.IT_coordinate_system_code '2'
_symmetry_cell_setting 'orthorhombic'
loop_
_space_group_symop_operation_xyz
x,y,z
1/2-x,1/2-y,z
x,1/2-y,1/2-z
1/2-x,y,1/2-z
-x,-y,-z
1/2+x,1/2+y,-z
-x,1/2+y,1/2+z
1/2+x,-y,1/2+z
loop_
_atom_site_type_symbol
_atom_site_label
_atom_site_fract_x
_atom_site_fract_y
_atom_site_fract_z
Si Si1 0.159291 0.897448 0.862928
Si Si2 0.815930 0.904309 0.911500
Si Si3 0.617244 0.343439 0.590414
Si Si4 0.920507 0.684484 0.310310
Si Si5 0.308587 0.091749 0.959373
O O1 0.250000 0.750000 0.847101
O O2 0.995431 0.888740 0.896889
O O3 0.111423 0.013720 0.812864
O O4 0.267994 0.980475 0.908840
O O5 0.750000 0.750000 0.898184
O O6 0.709986 0.024633 0.880550
O O7 0.778898 0.937440 0.979842
O O8 0.750000 0.250000 0.561122
O O9 0.528344 0.244671 0.637636
O O10 0.492674 0.392012 0.543010
O O11 0.750000 0.750000 0.316218
O O12 0.984229 0.750000 0.250000
O O13 0.250000 0.250000 0.943453
#
# Coordination Sequence:
#
# PCOD9391616 Si02
#       5
#     8   8   8   8   8
#     4  12  23  44  69  99 140 179 231 297 348 416
#     4  11  25  38  62 102 140 188 230 283 349 406
#     4  12  21  41  69  98 138 175 236 294 341 421
#     4  11  24  47  76  99 128 182 239 292 360 425
#     4  11  21  41  63  96 142 190 235 272 338 425
#
# _framework density 21.639348999999999
#
# number of rings (size 3 to 8) (size 9 to 14) (size 15 to 20)
#    0.000    0.600    6.000    2.400    0.000    4.400 
#    0.000    2.000    0.000    1.200    0.000    0.000 
#    0.000    0.000    0.000    0.000    0.000    0.000 
#
# Total GULP energy -223062.338605 kJ/mol
# GULP energy per Si atom -5576.558465 kJ/mol
# Density = 2.159010 g / cm^3
# Si number density = 21.639349 Si / 1000 Ang^3
#
#
#
# Elastic Constant Matrix: (Units=GPa)
#
#
# Indices 1 2 3 4 5 6 
#
# 1 101.2784 43.2715 31.2046 0.0000 0.0000 0.0000
# 2 43.2715 173.1406 26.7887 0.0000 0.0000 0.0000
# 3 31.2046 26.7887 74.0736 0.0000 0.0000 0.0000
# 4 0.0000 0.0000 0.0000 11.5062 0.0000 0.0000
# 5 0.0000 0.0000 0.0000 0.0000 -31.7364 0.0000
# 6 0.0000 0.0000 0.0000 0.0000 0.0000 52.5148
#
#
#
# Elastic Compliance Matrix: (Units=1/GPa)
#
#
# Indices 1 2 3 4 5 6 
#
# 1 0.012214 -0.002390 -0.004281 0.000000 0.000000 0.000000
# 2 -0.002390 0.006586 -0.001375 0.000000 0.000000 0.000000
# 3 -0.004281 -0.001375 0.015801 0.000000 0.000000 0.000000
# 4 0.000000 0.000000 0.000000 0.086909 0.000000 0.000000
# 5 0.000000 0.000000 0.000000 0.000000 -0.031510 0.000000
# 6 0.000000 0.000000 0.000000 0.000000 0.000000 0.019042
#
#
# Mechanical properties :
#
#
# Convention : Reuss Voigt Hill
#
# Bulk Modulus (GPa) = 54.02908 61.22469 57.62688
# Shear Modulus (GPa) = 38.07966 22.93879 30.50922
#
# Velocity S-wave (km/s) = 4.19948 3.25937 3.75893
# Velocity P-wave (km/s) = 6.96680 6.52068 6.74743
#
# Compressibility (1/GPa) = 0.01850855
#
# Stress axis : x y z
#
# Youngs Moduli (GPa) = 81.87358 151.84363 63.28841
#
# Poissons Ratio (x) = 0.36293 0.27093
# Poissons Ratio (y) = 0.19569 0.08701
# Poissons Ratio (z) = 0.35049 0.20876
#
# Static dielectric constant tensor:
#      x y z
#    x 1.824430 0.000000 0.000000 
#    y 0.000000 1.870470 0.000000 
#    z 0.000000 0.000000 1.885130 
# 
# From -- ./inp_files/9005.got.cif
#   From: 2010.05.17/outbox.cif.g08.bks.cpg/sg48_5_cif.got.tgz:9005.got - 2010.06.03 20:39:00.
