data_PCOD9391145
_publ_section_title
;
Structure prediction by ZEFSAII (Michael W. Deem and Ramdas Pophale) SiO2 
 PCOD9391145
Probable space group: P N N N
;
_chemical_formula_sum "Si O2"
_cell_formula_units_Z 48
_cell_length_a 9.812062
_cell_length_b 25.830941
_cell_length_c 9.590292
_cell_angle_alpha 90.000000
_cell_angle_beta 90.000000
_cell_angle_gamma 90.000000
_cell_volume 2430.705489
_symmetry_space_group_name_H-M "P N N N"
_symmetry_group_IT_number 48
_space_group.IT_coordinate_system_code '2'
_symmetry_cell_setting 'orthorhombic'
loop_
_space_group_symop_operation_xyz
x,y,z
1/2-x,1/2-y,z
x,1/2-y,1/2-z
1/2-x,y,1/2-z
-x,-y,-z
1/2+x,1/2+y,-z
-x,1/2+y,1/2+z
1/2+x,-y,1/2+z
loop_
_atom_site_type_symbol
_atom_site_label
_atom_site_fract_x
_atom_site_fract_y
_atom_site_fract_z
Si Si1 0.522755 0.061387 0.978550
Si Si2 0.524899 0.430195 0.066412
Si Si3 0.898897 0.146956 0.302018
Si Si4 0.318420 0.306574 0.385419
Si Si5 0.741557 0.609259 0.084327
Si Si6 0.387620 0.975640 0.303745
O O1 0.369597 0.081504 0.984436
O O2 0.572646 0.063973 0.818063
O O3 0.604796 0.099406 0.083915
O O4 0.500000 0.000000 0.000000
O O5 0.551446 0.381488 0.161947
O O6 0.496366 0.479649 0.164581
O O7 0.393514 0.417484 0.972848
O O8 0.634697 0.447467 0.951440
O O9 0.750000 0.167428 0.250000
O O10 0.017810 0.186003 0.359249
O O11 0.250000 0.250000 0.387679
O O12 0.250000 0.333760 0.250000
O O13 0.263578 0.333487 0.524589
O O14 0.750000 0.606436 0.250000
O O15 0.250000 0.001718 0.250000
#
# Coordination Sequence:
#
# PCOD9391145 Si02
#       6
#     8   8   8   8   8   8
#     4  11  21  34  54  85 127 173 214 254 300 364
#     4  11  22  37  55  85 123 168 215 256 304 363
#     4  11  23  39  64  94 127 163 209 267 317 381
#     4  10  22  42  69  92 118 154 200 264 333 390
#     4  11  22  38  61  86 121 162 216 260 306 378
#     4  11  22  35  51  80 125 176 214 254 298 360
#
# _framework density 19.747351999999999
#
# number of rings (size 3 to 8) (size 9 to 14) (size 15 to 20)
#    0.000    1.167    5.000    2.000    2.333    2.333 
#    0.000    1.667    0.000    0.000    0.000    0.000 
#   10.000    0.000    0.000    0.000    0.000    0.000 
#
# Total GULP energy -267372.986130 kJ/mol
# GULP energy per Si atom -5570.270544 kJ/mol
# Density = 1.970241 g / cm^3
# Si number density = 19.747352 Si / 1000 Ang^3
#
#
#
# Elastic Constant Matrix: (Units=GPa)
#
#
# Indices 1 2 3 4 5 6 
#
# 1 84.6613 24.2481 20.4189 0.0000 0.0000 0.0000
# 2 24.2481 75.1942 8.5978 0.0000 0.0000 0.0000
# 3 20.4189 8.5978 76.5568 0.0000 0.0000 0.0000
# 4 0.0000 0.0000 0.0000 24.6964 0.0000 0.0000
# 5 0.0000 0.0000 0.0000 0.0000 33.9123 0.0000
# 6 0.0000 0.0000 0.0000 0.0000 0.0000 16.9558
#
#
#
# Elastic Compliance Matrix: (Units=1/GPa)
#
#
# Indices 1 2 3 4 5 6 
#
# 1 0.013751 -0.004067 -0.003211 0.000000 0.000000 0.000000
# 2 -0.004067 0.014675 -0.000563 0.000000 0.000000 0.000000
# 3 -0.003211 -0.000563 0.013982 0.000000 0.000000 0.000000
# 4 0.000000 0.000000 0.000000 0.040492 0.000000 0.000000
# 5 0.000000 0.000000 0.000000 0.000000 0.029488 0.000000
# 6 0.000000 0.000000 0.000000 0.000000 0.000000 0.058977
#
#
# Mechanical properties :
#
#
# Convention : Reuss Voigt Hill
#
# Bulk Modulus (GPa) = 37.41807 38.10468 37.76138
# Shear Modulus (GPa) = 25.51601 27.32273 26.41937
#
# Velocity S-wave (km/s) = 3.59851 3.72373 3.66166
# Velocity P-wave (km/s) = 6.02123 6.15030 6.08611
#
# Compressibility (1/GPa) = 0.02672505
#
# Stress axis : x y z
#
# Youngs Moduli (GPa) = 72.72157 68.14371 71.52136
#
# Poissons Ratio (x) = 0.27716 0.22964
# Poissons Ratio (y) = 0.29577 0.04029
# Poissons Ratio (z) = 0.23350 0.03838
#
# Static dielectric constant tensor:
#      x y z
#    x 1.777900 0.000000 0.000000 
#    y 0.000000 2.021320 0.000000 
#    z 0.000000 0.000000 1.785630 
# 
# From -- ./inp_files/9497.got.cif
#   From: 2010.05.17/outbox.cif.g08.bks.cpg/sg48_5_cif.got.tgz:9497.got - 2010.06.03 20:39:00.
