data_PCOD9391396
_publ_section_title
;
Structure prediction by ZEFSAII (Michael W. Deem and Ramdas Pophale) SiO2 
 PCOD9391396
Probable space group: P N N N
;
_chemical_formula_sum "Si O2"
_cell_formula_units_Z 30
_cell_length_a 19.191225
_cell_length_b 6.245418
_cell_length_c 11.926260
_cell_angle_alpha 90.000000
_cell_angle_beta 90.000000
_cell_angle_gamma 90.000000
_cell_volume 1429.448393
_symmetry_space_group_name_H-M "P N N N"
_symmetry_group_IT_number 48
_space_group.IT_coordinate_system_code '2'
_symmetry_cell_setting 'orthorhombic'
loop_
_space_group_symop_operation_xyz
x,y,z
1/2-x,1/2-y,z
x,1/2-y,1/2-z
1/2-x,y,1/2-z
-x,-y,-z
1/2+x,1/2+y,-z
-x,1/2+y,1/2+z
1/2+x,-y,1/2+z
loop_
_atom_site_type_symbol
_atom_site_label
_atom_site_fract_x
_atom_site_fract_y
_atom_site_fract_z
Si Si1 0.678310 0.148374 0.126746
Si Si2 0.821715 0.867026 0.863573
Si Si3 0.250000 0.750000 0.250000
Si Si4 0.869142 0.750000 0.250000
Si Si5 0.076918 0.513771 0.549209
O O1 0.750000 0.250000 0.077584
O O2 0.675383 0.250000 0.250000
O O3 0.612613 0.249970 0.061033
O O4 0.674244 0.899040 0.162115
O O5 0.750000 0.750000 0.897604
O O6 0.847332 0.750000 0.750000
O O7 0.798453 0.100839 0.824597
O O8 0.875700 0.882276 0.962171
O O9 0.915368 0.597532 0.329318
O O10 0.000000 0.500000 0.500000
#
# Coordination Sequence:
#
# PCOD9391396 Si02
#       5
#     8   8   2   4   8
#     4   9  21  39  64  96 128 171 220 267 336 403
#     4   9  21  39  63  92 123 172 223 271 323 389
#     4   8  18  38  60  88 118 160 220 272 308 386
#     4  10  24  44  64  95 141 172 218 278 341 403
#     4  11  25  40  64  98 133 174 222 278 337 400
#
# _framework density 20.987114999999999
#
# number of rings (size 3 to 8) (size 9 to 14) (size 15 to 20)
#    0.000    2.667    0.000    0.000    5.600   14.933 
#    0.000    0.000    0.000    0.000    0.000    0.000 
#    0.000    0.000    0.000    0.000    0.000    0.000 
#
# Total GULP energy -167219.647124 kJ/mol
# GULP energy per Si atom -5573.988237 kJ/mol
# Density = 2.093935 g / cm^3
# Si number density = 20.987115 Si / 1000 Ang^3
#
#
#
# Elastic Constant Matrix: (Units=GPa)
#
#
# Indices 1 2 3 4 5 6 
#
# 1 137.6159 52.2804 55.8796 0.0000 0.0000 0.0000
# 2 52.2804 116.2168 29.6726 0.0000 0.0000 0.0000
# 3 55.8796 29.6726 109.5926 0.0000 0.0000 0.0000
# 4 0.0000 0.0000 0.0000 -24.7179 0.0000 0.0000
# 5 0.0000 0.0000 0.0000 0.0000 35.2013 0.0000
# 6 0.0000 0.0000 0.0000 0.0000 0.0000 13.5609
#
#
#
# Elastic Compliance Matrix: (Units=1/GPa)
#
#
# Indices 1 2 3 4 5 6 
#
# 1 0.010377 -0.003564 -0.004326 0.000000 0.000000 0.000000
# 2 -0.003564 0.010467 -0.001017 0.000000 0.000000 0.000000
# 3 -0.004326 -0.001017 0.011606 0.000000 0.000000 0.000000
# 4 0.000000 0.000000 0.000000 -0.040457 0.000000 0.000000
# 5 0.000000 0.000000 0.000000 0.000000 0.028408 0.000000
# 6 0.000000 0.000000 0.000000 0.000000 0.000000 0.073741
#
#
# Mechanical properties :
#
#
# Convention : Reuss Voigt Hill
#
# Bulk Modulus (GPa) = 68.32179 71.01006 69.66593
# Shear Modulus (GPa) = 42.79507 19.84838 31.32173
#
# Velocity S-wave (km/s) = 4.52055 3.07863 3.86738
# Velocity P-wave (km/s) = 7.73770 6.82245 7.29444
#
# Compressibility (1/GPa) = 0.01463662
#
# Stress axis : x y z
#
# Youngs Moduli (GPa) = 96.36596 95.53503 86.16243
#
# Poissons Ratio (x) = 0.34045 0.37276
# Poissons Ratio (y) = 0.34341 0.08763
# Poissons Ratio (z) = 0.41691 0.09717
#
# Static dielectric constant tensor:
#      x y z
#    x 1.761560 0.000000 0.000000 
#    y 0.000000 1.838600 0.000000 
#    z 0.000000 0.000000 1.762600 
# 
# From -- ./inp_files/1824.got.cif
#   From: 2010.05.17/outbox.cif.g08.bks.cpg/sg48_1_cif.got.tgz:1824.got - 2010.06.03 20:39:00.
