data_PCOD9391170
_publ_section_title
;
Structure prediction by ZEFSAII (Michael W. Deem and Ramdas Pophale) SiO2 
 PCOD9391170
Probable space group: P N N N
;
_chemical_formula_sum "Si O2"
_cell_formula_units_Z 46
_cell_length_a 13.953428
_cell_length_b 23.516960
_cell_length_c 6.159197
_cell_angle_alpha 90.000000
_cell_angle_beta 90.000000
_cell_angle_gamma 90.000000
_cell_volume 2021.092504
_symmetry_space_group_name_H-M "P N N N"
_symmetry_group_IT_number 48
_space_group.IT_coordinate_system_code '2'
_symmetry_cell_setting 'orthorhombic'
loop_
_space_group_symop_operation_xyz
x,y,z
1/2-x,1/2-y,z
x,1/2-y,1/2-z
1/2-x,y,1/2-z
-x,-y,-z
1/2+x,1/2+y,-z
-x,1/2+y,1/2+z
1/2+x,-y,1/2+z
loop_
_atom_site_type_symbol
_atom_site_label
_atom_site_fract_x
_atom_site_fract_y
_atom_site_fract_z
Si Si1 0.250000 0.396248 0.750000
Si Si2 0.925417 0.631364 0.511495
Si Si3 0.750000 0.250000 0.750000
Si Si4 0.445555 0.939689 0.233835
Si Si5 0.887116 0.194807 0.099140
Si Si6 0.750000 0.098289 0.250000
Si Si7 0.750000 0.080963 0.750000
Si Si8 0.385422 0.440323 0.397586
O O1 0.162051 0.360479 0.652722
O O2 0.298263 0.434746 0.564135
O O3 0.882067 0.613115 0.739756
O O4 0.984509 0.575269 0.430048
O O5 0.005519 0.679124 0.526156
O O6 0.815789 0.287674 0.593490
O O7 0.358466 0.895676 0.239842
O O8 0.389170 0.999582 0.227720
O O9 0.514258 0.937130 0.027039
O O10 0.890342 0.250000 0.250000
O O11 0.840775 0.141225 0.227797
O O12 0.748720 0.065054 0.481867
#
# Coordination Sequence:
#
# PCOD9391170 Si02
#       8
#     4   8   2   8   8   4   4   8
#     4  10  24  41  68  91 123 189 236 303 345 414
#     4  11  23  43  66  95 134 176 234 289 355 419
#     4  12  24  44  68 104 148 170 224 278 366 456
#     4  10  23  37  63  98 136 184 228 281 344 421
#     4  12  25  41  70 102 138 184 220 290 363 443
#     4  12  23  43  64 102 149 187 224 280 352 440
#     4  12  25  38  67 106 148 188 225 284 351 424
#     4  10  22  44  63  92 133 181 239 286 344 416
#
# _framework density 22.759968000000001
#
# number of rings (size 3 to 8) (size 9 to 14) (size 15 to 20)
#    0.000    1.043    3.478    2.609    2.435    3.478 
#    0.000    0.000    0.000    7.826    0.000    0.000 
#    0.000    0.000    0.000    0.000    0.000    0.000 
#
# Total GULP energy -256357.870325 kJ/mol
# GULP energy per Si atom -5572.997181 kJ/mol
# Density = 2.270817 g / cm^3
# Si number density = 22.759968 Si / 1000 Ang^3
#
#
#
# Elastic Constant Matrix: (Units=GPa)
#
#
# Indices 1 2 3 4 5 6 
#
# 1 172.2455 47.1412 57.7583 0.0000 0.0000 0.0000
# 2 47.1412 76.0631 46.8532 0.0000 0.0000 0.0000
# 3 57.7583 46.8532 149.5227 0.0000 0.0000 0.0000
# 4 0.0000 0.0000 0.0000 22.0102 0.0000 0.0000
# 5 0.0000 0.0000 0.0000 0.0000 36.6674 0.0000
# 6 0.0000 0.0000 0.0000 0.0000 0.0000 23.7347
#
#
#
# Elastic Compliance Matrix: (Units=1/GPa)
#
#
# Indices 1 2 3 4 5 6 
#
# 1 0.007343 -0.003474 -0.001748 0.000000 0.000000 0.000000
# 2 -0.003474 0.017935 -0.004278 0.000000 0.000000 0.000000
# 3 -0.001748 -0.004278 0.008704 0.000000 0.000000 0.000000
# 4 0.000000 0.000000 0.000000 0.045434 0.000000 0.000000
# 5 0.000000 0.000000 0.000000 0.000000 0.027272 0.000000
# 6 0.000000 0.000000 0.000000 0.000000 0.000000 0.042132
#
#
# Mechanical properties :
#
#
# Convention : Reuss Voigt Hill
#
# Bulk Modulus (GPa) = 66.74805 77.92629 72.33717
# Shear Modulus (GPa) = 28.93298 32.88768 30.91033
#
# Velocity S-wave (km/s) = 3.56929 3.80541 3.68924
# Velocity P-wave (km/s) = 6.81007 7.32263 7.07099
#
# Compressibility (1/GPa) = 0.01498171
#
# Stress axis : x y z
#
# Youngs Moduli (GPa) = 136.19293 55.75596 114.89513
#
# Poissons Ratio (x) = 0.19370 0.20080
# Poissons Ratio (y) = 0.47315 0.49153
# Poissons Ratio (z) = 0.23802 0.23853
#
# Static dielectric constant tensor:
#      x y z
#    x 1.845250 0.000000 0.000000 
#    y 0.000000 2.032980 0.000000 
#    z 0.000000 0.000000 1.947510 
# 
# From -- ./inp_files/3655.got.cif
#   From: 2010.05.17/outbox.cif.g08.bks.cpg/sg48_2_cif.got.tgz:3655.got - 2010.06.03 20:39:00.
