data_PCOD9391055
_publ_section_title
;
Structure prediction by ZEFSAII (Michael W. Deem and Ramdas Pophale) SiO2 
 PCOD9391055
Probable space group: P N N N
;
_chemical_formula_sum "Si O2"
_cell_formula_units_Z 36
_cell_length_a 24.024717
_cell_length_b 13.319140
_cell_length_c 5.259958
_cell_angle_alpha 90.000000
_cell_angle_beta 90.000000
_cell_angle_gamma 90.000000
_cell_volume 1683.126434
_symmetry_space_group_name_H-M "P N N N"
_symmetry_group_IT_number 48
_space_group.IT_coordinate_system_code '2'
_symmetry_cell_setting 'orthorhombic'
loop_
_space_group_symop_operation_xyz
x,y,z
1/2-x,1/2-y,z
x,1/2-y,1/2-z
1/2-x,y,1/2-z
-x,-y,-z
1/2+x,1/2+y,-z
-x,1/2+y,1/2+z
1/2+x,-y,1/2+z
loop_
_atom_site_type_symbol
_atom_site_label
_atom_site_fract_x
_atom_site_fract_y
_atom_site_fract_z
Si Si1 0.602454 0.925720 0.924511
Si Si2 0.225656 0.636975 0.502128
Si Si3 0.915097 0.750000 0.250000
Si Si4 0.001182 0.145217 0.129234
Si Si5 0.886357 0.454119 0.438276
O O1 0.617605 0.817587 0.046191
O O2 0.614161 0.003292 0.151853
O O3 0.537367 0.910134 0.845969
O O4 0.627485 0.964977 0.659118
O O5 0.250000 0.750000 0.502177
O O6 0.250000 0.588469 0.250000
O O7 0.159507 0.632120 0.522349
O O8 0.250000 0.584347 0.750000
O O9 0.955142 0.675567 0.409581
O O10 0.980774 0.250000 0.250000
O O11 0.948922 0.085303 0.025088
#
# Coordination Sequence:
#
# PCOD9391055 Si02
#       5
#     8   8   4   8   8
#     4  11  23  40  58  93 130 167 217 264 317 394
#     4  10  23  43  63  88 129 163 213 272 309 374
#     4  10  22  40  56  88 136 166 196 278 308 374
#     4  10  23  36  59  92 138 171 213 260 317 392
#     4  12  24  37  66  90 123 182 216 256 327 392
#
# _framework density 21.388766
#
# number of rings (size 3 to 8) (size 9 to 14) (size 15 to 20)
#    0.000    1.333    2.222    2.667    9.333    1.778 
#    0.000    0.000    0.000    0.000    0.000   11.667 
#    0.000    0.000    0.000    0.000    0.000    0.000 
#
# Total GULP energy -200792.144375 kJ/mol
# GULP energy per Si atom -5577.559566 kJ/mol
# Density = 2.134008 g / cm^3
# Si number density = 21.388766 Si / 1000 Ang^3
#
#
#
# Elastic Constant Matrix: (Units=GPa)
#
#
# Indices 1 2 3 4 5 6 
#
# 1 70.4583 32.1122 17.1459 0.0000 0.0000 0.0000
# 2 32.1122 53.0570 29.7527 0.0000 0.0000 0.0000
# 3 17.1459 29.7527 166.3793 0.0000 0.0000 0.0000
# 4 0.0000 0.0000 0.0000 26.4185 0.0000 0.0000
# 5 0.0000 0.0000 0.0000 0.0000 17.5145 0.0000
# 6 0.0000 0.0000 0.0000 0.0000 0.0000 30.6708
#
#
#
# Elastic Compliance Matrix: (Units=1/GPa)
#
#
# Indices 1 2 3 4 5 6 
#
# 1 0.019601 -0.011927 0.000113 0.000000 0.000000 0.000000
# 2 -0.011927 0.028205 -0.003815 0.000000 0.000000 0.000000
# 3 0.000113 -0.003815 0.006681 0.000000 0.000000 0.000000
# 4 0.000000 0.000000 0.000000 0.037852 0.000000 0.000000
# 5 0.000000 0.000000 0.000000 0.000000 0.057096 0.000000
# 6 0.000000 0.000000 0.000000 0.000000 0.000000 0.032604
#
#
# Mechanical properties :
#
#
# Convention : Reuss Voigt Hill
#
# Bulk Modulus (GPa) = 43.04733 49.76843 46.40788
# Shear Modulus (GPa) = 22.62038 28.97969 25.80004
#
# Velocity S-wave (km/s) = 3.25558 3.68489 3.47687
# Velocity P-wave (km/s) = 5.85675 6.43612 6.15326
#
# Compressibility (1/GPa) = 0.02323024
#
# Stress axis : x y z
#
# Youngs Moduli (GPa) = 51.01779 35.45440 149.68042
#
# Poissons Ratio (x) = 0.42285 -0.01689
# Poissons Ratio (y) = 0.60847 0.57099
# Poissons Ratio (z) = -0.00576 0.13525
#
# Static dielectric constant tensor:
#      x y z
#    x 1.754500 0.000000 0.000000 
#    y 0.000000 1.846020 0.000000 
#    z 0.000000 0.000000 1.842000 
# 
# From -- ./inp_files/4982.got.cif
#   From: 2010.05.17/outbox.cif.g08.bks.cpg/sg48_3_cif.got.tgz:4982.got - 2010.06.03 20:39:00.
