data_PCOD9391374
_publ_section_title
;
Structure prediction by ZEFSAII (Michael W. Deem and Ramdas Pophale) SiO2 
 PCOD9391374
Probable space group: P N N N
;
_chemical_formula_sum "Si O2"
_cell_formula_units_Z 56
_cell_length_a 13.660407
_cell_length_b 23.480209
_cell_length_c 8.622452
_cell_angle_alpha 90.000000
_cell_angle_beta 90.000000
_cell_angle_gamma 90.000000
_cell_volume 2765.644679
_symmetry_space_group_name_H-M "P N N N"
_symmetry_group_IT_number 48
_space_group.IT_coordinate_system_code '2'
_symmetry_cell_setting 'orthorhombic'
loop_
_space_group_symop_operation_xyz
x,y,z
1/2-x,1/2-y,z
x,1/2-y,1/2-z
1/2-x,y,1/2-z
-x,-y,-z
1/2+x,1/2+y,-z
-x,1/2+y,1/2+z
1/2+x,-y,1/2+z
loop_
_atom_site_type_symbol
_atom_site_label
_atom_site_fract_x
_atom_site_fract_y
_atom_site_fract_z
Si Si1 0.688039 0.700993 0.413668
Si Si2 0.670968 0.366062 0.469399
Si Si3 0.745418 0.585720 0.563355
Si Si4 0.459993 0.761277 0.073413
Si Si5 0.389189 0.851059 0.608437
Si Si6 0.049589 0.450194 0.407920
Si Si7 0.102369 0.510699 0.082379
O O1 0.750000 0.750000 0.499422
O O2 0.750000 0.694542 0.250000
O O3 0.694243 0.640584 0.494553
O O4 0.575559 0.721745 0.417335
O O5 0.608054 0.314276 0.533468
O O6 0.788557 0.361342 0.487240
O O7 0.646014 0.358065 0.286535
O O8 0.634274 0.424487 0.550246
O O9 0.750000 0.592396 0.750000
O O10 0.856340 0.577440 0.510779
O O11 0.686938 0.529590 0.515406
O O12 0.432910 0.750000 0.250000
O O13 0.435512 0.708427 0.956529
O O14 0.471441 0.899714 0.602722
O O15 0.086489 0.483356 0.253083
O O16 0.000000 0.500000 0.500000
O O17 0.000000 0.500000 0.000000
#
# Coordination Sequence:
#
# PCOD9391374 Si02
#       7
#     8   8   8   8   8   8   8
#     4  11  23  45  66  98 139 180 226 282 352 419
#     4  11  25  46  72 100 139 187 232 294 354 433
#     4  10  24  42  66 100 137 175 230 288 343 423
#     4  12  26  45  71 100 136 182 237 296 358 426
#     4  11  25  47  69 101 139 184 241 286 358 428
#     4  11  24  41  67 102 138 181 228 289 343 418
#     4  11  22  44  67 101 138 179 231 279 359 419
#
# _framework density 20.248443000000002
#
# number of rings (size 3 to 8) (size 9 to 14) (size 15 to 20)
#    0.000    1.000    2.857    3.429    4.000    3.714 
#    5.143    0.000    0.000    0.000    0.000    0.000 
#    0.000    0.000    0.000    0.000    0.000    0.000 
#
# Total GULP energy -312092.056571 kJ/mol
# GULP energy per Si atom -5573.072439 kJ/mol
# Density = 2.020236 g / cm^3
# Si number density = 20.248443 Si / 1000 Ang^3
#
#
#
# Elastic Constant Matrix: (Units=GPa)
#
#
# Indices 1 2 3 4 5 6 
#
# 1 180.5135 83.1925 36.6265 0.0000 0.0000 0.0000
# 2 83.1925 203.1451 56.0704 0.0000 0.0000 0.0000
# 3 36.6265 56.0704 35.7147 0.0000 0.0000 0.0000
# 4 0.0000 0.0000 0.0000 -239.3142 0.0000 0.0000
# 5 0.0000 0.0000 0.0000 0.0000 26.5449 0.0000
# 6 0.0000 0.0000 0.0000 0.0000 0.0000 90.9951
#
#
#
# Elastic Compliance Matrix: (Units=1/GPa)
#
#
# Indices 1 2 3 4 5 6 
#
# 1 0.007288 -0.001626 -0.004920 0.000000 0.000000 0.000000
# 2 -0.001626 0.009050 -0.012540 0.000000 0.000000 0.000000
# 3 -0.004920 -0.012540 0.052733 0.000000 0.000000 0.000000
# 4 0.000000 0.000000 0.000000 -0.004179 0.000000 0.000000
# 5 0.000000 0.000000 0.000000 0.000000 0.037672 0.000000
# 6 0.000000 0.000000 0.000000 0.000000 0.000000 0.010990
#
#
# Mechanical properties :
#
#
# Convention : Reuss Voigt Hill
#
# Bulk Modulus (GPa) = 32.36574 85.68358 59.02466
# Shear Modulus (GPa) = 30.85944 -8.12259 11.36842
#
# Velocity S-wave (km/s) = 3.90813 -2.00504 2.37206
# Velocity P-wave (km/s) = 6.03189 6.08669 6.05935
#
# Compressibility (1/GPa) = 0.03089687
#
# Stress axis : x y z
#
# Youngs Moduli (GPa) = 137.21858 110.50017 18.96362
#
# Poissons Ratio (x) = 0.17971 0.09331
# Poissons Ratio (y) = 0.22317 0.23780
# Poissons Ratio (z) = 0.67517 1.38565
#
# Static dielectric constant tensor:
#      x y z
#    x 1.696280 0.000000 0.000000 
#    y 0.000000 1.607590 0.000000 
#    z 0.000000 0.000000 2.650880 
# 
# From -- ./inp_files/13083.got.cif
#   From: 2010.05.17/outbox.cif.g08.bks.cpg/sg48_7_cif.got.tgz:13083.got - 2010.06.03 20:39:00.
