data_PCOD9391974
_publ_section_title
;
Structure prediction by ZEFSAII (Michael W. Deem and Ramdas Pophale) SiO2 
 PCOD9391974
Probable space group: P N N N
;
_chemical_formula_sum "Si O2"
_cell_formula_units_Z 40
_cell_length_a 9.000000
_cell_length_b 18.000000
_cell_length_c 12.000000
_cell_angle_alpha 90.000000
_cell_angle_beta 90.000000
_cell_angle_gamma 90.000000
_cell_volume 1944.000000
_symmetry_space_group_name_H-M "P N N N"
_symmetry_group_IT_number 48
_space_group.IT_coordinate_system_code '2'
_symmetry_cell_setting 'orthorhombic'
loop_
_space_group_symop_operation_xyz
x,y,z
1/2-x,1/2-y,z
x,1/2-y,1/2-z
1/2-x,y,1/2-z
-x,-y,-z
1/2+x,1/2+y,-z
-x,1/2+y,1/2+z
1/2+x,-y,1/2+z
loop_
_atom_site_type_symbol
_atom_site_label
_atom_site_fract_x
_atom_site_fract_y
_atom_site_fract_z
Si Si1 0.454370 0.831207 0.943240
Si Si2 0.402838 0.846593 0.535822
Si Si3 0.846475 0.825601 0.349192
Si Si4 0.579268 0.103387 0.715112
Si Si5 0.569122 0.929056 0.737364
O O1 0.447211 0.740381 0.943289
O O2 0.278962 0.852296 0.961739
O O3 0.500401 0.876394 0.833208
O O4 0.588462 0.851157 0.031236
O O5 0.445807 0.875887 0.413455
O O6 0.494057 0.895872 0.625052
O O7 0.750000 0.750000 0.365925
O O8 0.750000 0.866792 0.250000
O O9 0.002231 0.830933 0.284821
O O10 0.750000 0.105262 0.750000
O O11 0.531190 0.017825 0.742809
O O12 0.750000 0.923654 0.750000
#
# Coordination Sequence:
#
# PCOD9391974 Si02
#       5
#     8   8   8   8   8
#     4  11  25  44  70 103 139 189 243 300 360 444
#     4  11  23  46  73  98 140 193 243 293 363 448
#     4  11  24  42  67 105 139 177 236 304 364 425
#     4  11  24  49  71 105 143 191 237 302 375 450
#     4  11  27  44  70 105 145 190 240 299 369 443
#
# _framework density 20.576132000000001
#
# number of rings (size 3 to 8) (size 9 to 14) (size 15 to 20)
#    0.000    1.000    2.000    4.200    5.600    4.800 
#    0.000    0.000    0.000    0.000    0.000    0.000 
#    0.000    0.000    0.000    0.000    0.000    0.000 
#
# Total GULP energy -222685.914766 kJ/mol
# GULP energy per Si atom -5567.147869 kJ/mol
# Density = 2.052930 g / cm^3
# Si number density = 20.576132 Si / 1000 Ang^3
#
#
#
# Elastic Constant Matrix: (Units=GPa)
#
#
# Indices 1 2 3 4 5 6 
#
# 1 73.6010 23.6230 20.1442 0.0000 0.0000 0.0000
# 2 23.6230 106.7979 40.0842 0.0000 0.0000 0.0000
# 3 20.1442 40.0842 161.4271 0.0000 0.0000 0.0000
# 4 0.0000 0.0000 0.0000 16.8767 0.0000 0.0000
# 5 0.0000 0.0000 0.0000 0.0000 53.2075 0.0000
# 6 0.0000 0.0000 0.0000 0.0000 0.0000 35.1244
#
#
#
# Elastic Compliance Matrix: (Units=1/GPa)
#
#
# Indices 1 2 3 4 5 6 
#
# 1 0.014813 -0.002848 -0.001141 0.000000 0.000000 0.000000
# 2 -0.002848 0.010873 -0.002345 0.000000 0.000000 0.000000
# 3 -0.001141 -0.002345 0.006919 0.000000 0.000000 0.000000
# 4 0.000000 0.000000 0.000000 0.059253 0.000000 0.000000
# 5 0.000000 0.000000 0.000000 0.000000 0.018794 0.000000
# 6 0.000000 0.000000 0.000000 0.000000 0.000000 0.028470
#
#
# Mechanical properties :
#
#
# Convention : Reuss Voigt Hill
#
# Bulk Modulus (GPa) = 50.15566 56.61430 53.38498
# Shear Modulus (GPa) = 31.55808 38.24004 34.89906
#
# Velocity S-wave (km/s) = 3.92053 4.31567 4.12283
# Velocity P-wave (km/s) = 6.70243 7.23931 6.97604
#
# Compressibility (1/GPa) = 0.01993793
#
# Stress axis : x y z
#
# Youngs Moduli (GPa) = 67.50690 91.96685 144.52223
#
# Poissons Ratio (x) = 0.26194 0.16494
# Poissons Ratio (y) = 0.19228 0.33884
# Poissons Ratio (z) = 0.07704 0.21562
#
# Static dielectric constant tensor:
#      x y z
#    x 1.805440 0.000000 0.000000 
#    y 0.000000 1.744580 0.000000 
#    z 0.000000 0.000000 1.816410 
# 
# From -- ./inp_files/18449.got.cif
#   From: 2010.05.17/outbox.ucp.g08.bks.cvg/sg48_10_cif.got.tgz:18449.got - 2010.06.11 16:38:40.
