data_PCOD9391499
_publ_section_title
;
Structure prediction by ZEFSAII (Michael W. Deem and Ramdas Pophale) SiO2 
 PCOD9391499
Probable space group: P N N N
;
_chemical_formula_sum "Si O2"
_cell_formula_units_Z 38
_cell_length_a 21.845615
_cell_length_b 8.349072
_cell_length_c 9.379577
_cell_angle_alpha 90.000000
_cell_angle_beta 90.000000
_cell_angle_gamma 90.000000
_cell_volume 1710.746794
_symmetry_space_group_name_H-M "P N N N"
_symmetry_group_IT_number 48
_space_group.IT_coordinate_system_code '2'
_symmetry_cell_setting 'orthorhombic'
loop_
_space_group_symop_operation_xyz
x,y,z
1/2-x,1/2-y,z
x,1/2-y,1/2-z
1/2-x,y,1/2-z
-x,-y,-z
1/2+x,1/2+y,-z
-x,1/2+y,1/2+z
1/2+x,-y,1/2+z
loop_
_atom_site_type_symbol
_atom_site_label
_atom_site_fract_x
_atom_site_fract_y
_atom_site_fract_z
Si Si1 0.605336 0.250000 0.250000
Si Si2 0.046920 0.750000 0.250000
Si Si3 0.652653 0.031521 0.620223
Si Si4 0.999655 0.692975 0.525366
Si Si5 0.821855 0.930601 0.204211
Si Si6 0.606122 0.750000 0.750000
Si Si7 0.750000 0.250000 0.750000
O O1 0.559467 0.230502 0.382060
O O2 0.644576 0.412302 0.269200
O O3 0.091538 0.628783 0.332946
O O4 0.003146 0.796401 0.380458
O O5 0.707971 0.147903 0.646982
O O6 0.662033 0.954984 0.464325
O O7 0.650715 0.898691 0.742288
O O8 0.000000 0.500000 0.500000
O O9 0.939605 0.737243 0.616118
O O10 0.841844 0.750000 0.250000
O O11 0.750000 0.940829 0.250000
#
# Coordination Sequence:
#
# PCOD9391499 Si02
#       7
#     4   4   8   8   8   4   2
#     4  11  23  46  77  99 152 205 245 308 402 458
#     4  11  22  45  74  98 164 187 252 309 372 472
#     4  11  25  48  69 113 144 197 255 315 394 453
#     4  11  23  46  67 111 149 201 254 309 382 471
#     4  11  26  46  74 111 149 193 268 329 379 467
#     4  11  24  45  73 103 157 190 253 318 376 464
#     4  10  28  46  78  96 148 206 252 324 390 498
#
# _framework density 22.212523000000001
#
# number of rings (size 3 to 8) (size 9 to 14) (size 15 to 20)
#    0.000    1.053    4.211    0.316    2.947    6.316 
#    7.579    0.000    0.000    0.000    0.000    0.000 
#    0.000    0.000    0.000    0.000    0.000    0.000 
#
# Total GULP energy -211904.654020 kJ/mol
# GULP energy per Si atom -5576.438264 kJ/mol
# Density = 2.216197 g / cm^3
# Si number density = 22.212523 Si / 1000 Ang^3
#
#
#
# Elastic Constant Matrix: (Units=GPa)
#
#
# Indices 1 2 3 4 5 6 
#
# 1 97.7753 67.6617 41.9066 0.0000 0.0000 0.0000
# 2 67.6617 154.8548 61.5093 0.0000 0.0000 0.0000
# 3 41.9066 61.5093 155.3596 0.0000 0.0000 0.0000
# 4 0.0000 0.0000 0.0000 29.5117 0.0000 0.0000
# 5 0.0000 0.0000 0.0000 0.0000 36.6659 0.0000
# 6 0.0000 0.0000 0.0000 0.0000 0.0000 -125.8336
#
#
#
# Elastic Compliance Matrix: (Units=1/GPa)
#
#
# Indices 1 2 3 4 5 6 
#
# 1 0.015041 -0.005886 -0.001727 0.000000 0.000000 0.000000
# 2 -0.005886 0.009966 -0.002358 0.000000 0.000000 0.000000
# 3 -0.001727 -0.002358 0.007836 0.000000 0.000000 0.000000
# 4 0.000000 0.000000 0.000000 0.033885 0.000000 0.000000
# 5 0.000000 0.000000 0.000000 0.000000 0.027273 0.000000
# 6 0.000000 0.000000 0.000000 0.000000 0.000000 -0.007947
#
#
# Mechanical properties :
#
#
# Convention : Reuss Voigt Hill
#
# Bulk Modulus (GPa) = 77.51120 83.34944 80.43032
# Shear Modulus (GPa) = 45.33250 3.86294 24.59772
#
# Velocity S-wave (km/s) = 4.52248 1.32017 3.33134
# Velocity P-wave (km/s) = 7.88933 6.31893 7.14739
#
# Compressibility (1/GPa) = 0.01290136
#
# Stress axis : x y z
#
# Youngs Moduli (GPa) = 66.48583 100.34010 127.61547
#
# Poissons Ratio (x) = 0.59060 0.22036
# Poissons Ratio (y) = 0.39134 0.30092
# Poissons Ratio (z) = 0.11480 0.23661
#
# Static dielectric constant tensor:
#      x y z
#    x 1.838200 0.000000 0.000000 
#    y 0.000000 1.852960 0.000000 
#    z 0.000000 0.000000 1.975090 
# 
# From -- ./inp_files/15749.got.cif
#   From: 2010.05.17/outbox.cif.g08.bks.cpg/sg48_8_cif.got.tgz:15749.got - 2010.06.03 20:39:00.
