data_PCOD9391263
_publ_section_title
;
Structure prediction by ZEFSAII (Michael W. Deem and Ramdas Pophale) SiO2 
 PCOD9391263
Probable space group: P N N N
;
_chemical_formula_sum "Si O2"
_cell_formula_units_Z 32
_cell_length_a 9.018231
_cell_length_b 12.724669
_cell_length_c 10.413436
_cell_angle_alpha 90.000000
_cell_angle_beta 90.000000
_cell_angle_gamma 90.000000
_cell_volume 1194.983481
_symmetry_space_group_name_H-M "P N N N"
_symmetry_group_IT_number 48
_space_group.IT_coordinate_system_code '2'
_symmetry_cell_setting 'orthorhombic'
loop_
_space_group_symop_operation_xyz
x,y,z
1/2-x,1/2-y,z
x,1/2-y,1/2-z
1/2-x,y,1/2-z
-x,-y,-z
1/2+x,1/2+y,-z
-x,1/2+y,1/2+z
1/2+x,-y,1/2+z
loop_
_atom_site_type_symbol
_atom_site_label
_atom_site_fract_x
_atom_site_fract_y
_atom_site_fract_z
Si Si1 0.178953 0.910181 0.019803
Si Si2 0.449923 0.472479 0.787585
Si Si3 0.492834 0.809586 0.082799
Si Si4 0.902597 0.846617 0.674501
O O1 0.098822 0.979526 0.126407
O O2 0.342190 0.877413 0.062181
O O3 0.074969 0.805144 0.040101
O O4 0.167450 0.976228 0.887132
O O5 0.443750 0.358860 0.717289
O O6 0.485470 0.557502 0.680796
O O7 0.616866 0.827210 0.975577
O O8 0.979485 0.750000 0.750000
O O9 0.750000 0.857579 0.750000
#
# Coordination Sequence:
#
# PCOD9391263 Si02
#       4
#     8   8   8   8
#     4  10  23  41  69 106 137 179 243 294 351 437
#     4  11  22  41  67 102 139 181 230 292 364 421
#     4  11  22  43  70 100 139 186 236 298 352 426
#     4  11  23  41  65  94 133 181 231 282 353 424
#
# _framework density 26.778613
#
# number of rings (size 3 to 8) (size 9 to 14) (size 15 to 20)
#    0.000    1.250    2.500    3.750    0.000    3.000 
#    0.000    2.500    0.000    0.000    0.000    0.000 
#    0.000    0.000    0.000    0.000    0.000    0.000 
#
# Total GULP energy -178365.809394 kJ/mol
# GULP energy per Si atom -5573.931544 kJ/mol
# Density = 2.671766 g / cm^3
# Si number density = 26.778613 Si / 1000 Ang^3
#
#
#
# Elastic Constant Matrix: (Units=GPa)
#
#
# Indices 1 2 3 4 5 6 
#
# 1 104.6346 33.1811 36.0946 0.0000 0.0000 0.0000
# 2 33.1811 156.6073 24.8016 0.0000 0.0000 0.0000
# 3 36.0946 24.8016 143.6795 0.0000 0.0000 0.0000
# 4 0.0000 0.0000 0.0000 30.9577 0.0000 0.0000
# 5 0.0000 0.0000 0.0000 0.0000 33.7017 0.0000
# 6 0.0000 0.0000 0.0000 0.0000 0.0000 7.0033
#
#
#
# Elastic Compliance Matrix: (Units=1/GPa)
#
#
# Indices 1 2 3 4 5 6 
#
# 1 0.011013 -0.001949 -0.002430 0.000000 0.000000 0.000000
# 2 -0.001949 0.006910 -0.000703 0.000000 0.000000 0.000000
# 3 -0.002430 -0.000703 0.007692 0.000000 0.000000 0.000000
# 4 0.000000 0.000000 0.000000 0.032302 0.000000 0.000000
# 5 0.000000 0.000000 0.000000 0.000000 0.029672 0.000000
# 6 0.000000 0.000000 0.000000 0.000000 0.000000 0.142791
#
#
# Mechanical properties :
#
#
# Convention : Reuss Voigt Hill
#
# Bulk Modulus (GPa) = 64.72260 65.89733 65.30997
# Shear Modulus (GPa) = 20.35051 35.05549 27.70300
#
# Velocity S-wave (km/s) = 2.75972 3.62205 3.21988
# Velocity P-wave (km/s) = 5.86316 6.49261 6.18590
#
# Compressibility (1/GPa) = 0.01545055
#
# Stress axis : x y z
#
# Youngs Moduli (GPa) = 90.79880 144.72588 130.00740
#
# Poissons Ratio (x) = 0.28201 0.31597
# Poissons Ratio (y) = 0.17693 0.09142
# Poissons Ratio (z) = 0.22068 0.10177
#
# Static dielectric constant tensor:
#      x y z
#    x 2.056290 0.000000 0.000000 
#    y 0.000000 2.273610 0.000000 
#    z 0.000000 0.000000 2.098120 
# 
# From -- ./inp_files/10267.got.cif
#   From: 2010.05.17/outbox.cif.g08.bks.cpg/sg48_6_cif.got.tgz:10267.got - 2010.06.03 20:39:00.
