data_PCOD9391505
_publ_section_title
;
Structure prediction by ZEFSAII (Michael W. Deem and Ramdas Pophale) SiO2 
 PCOD9391505
Probable space group: P N N N
;
_chemical_formula_sum "Si O2"
_cell_formula_units_Z 32
_cell_length_a 9.535427
_cell_length_b 7.889253
_cell_length_c 18.482367
_cell_angle_alpha 90.000000
_cell_angle_beta 90.000000
_cell_angle_gamma 90.000000
_cell_volume 1390.380343
_symmetry_space_group_name_H-M "P N N N"
_symmetry_group_IT_number 48
_space_group.IT_coordinate_system_code '2'
_symmetry_cell_setting 'orthorhombic'
loop_
_space_group_symop_operation_xyz
x,y,z
1/2-x,1/2-y,z
x,1/2-y,1/2-z
1/2-x,y,1/2-z
-x,-y,-z
1/2+x,1/2+y,-z
-x,1/2+y,1/2+z
1/2+x,-y,1/2+z
loop_
_atom_site_type_symbol
_atom_site_label
_atom_site_fract_x
_atom_site_fract_y
_atom_site_fract_z
Si Si1 0.344499 0.074660 0.855160
Si Si2 0.075898 0.577576 0.606507
Si Si3 0.094111 0.248164 0.998265
Si Si4 0.591198 0.453864 0.756673
O O1 0.250000 0.250000 0.836047
O O2 0.409222 0.114313 0.934393
O O3 0.468672 0.018064 0.802322
O O4 0.227720 0.930921 0.858254
O O5 0.085602 0.423836 0.548734
O O6 0.021671 0.735375 0.560048
O O7 0.966300 0.521142 0.667317
O O8 0.250000 0.250000 0.031733
O O9 0.601435 0.250000 0.750000
O O10 0.750000 0.520469 0.750000
#
# Coordination Sequence:
#
# PCOD9391505 Si02
#       4
#     8   8   8   8
#     4   9  16  28  47  70 100 136 177 221 269 324
#     4   9  16  27  48  70  96 136 181 217 269 329
#     4   8  15  27  46  70  98 132 176 223 265 329
#     4  11  19  27  44  72 107 136 168 229 283 321
#
# _framework density 23.015284999999999
#
# number of rings (size 3 to 8) (size 9 to 14) (size 15 to 20)
#    0.000    3.250    5.000    0.750    0.000    0.000 
#    0.000    0.000    0.000   30.750    0.000    0.000 
#    0.000    4.000    0.000    0.000    0.000    1.000 
#
# Total GULP energy -178311.538021 kJ/mol
# GULP energy per Si atom -5572.235563 kJ/mol
# Density = 2.296290 g / cm^3
# Si number density = 23.015285 Si / 1000 Ang^3
#
#
#
# Elastic Constant Matrix: (Units=GPa)
#
#
# Indices 1 2 3 4 5 6 
#
# 1 212.5142 31.5920 85.6369 0.0000 0.0000 0.0000
# 2 31.5920 84.7644 24.1267 0.0000 0.0000 0.0000
# 3 85.6369 24.1267 70.0279 0.0000 0.0000 0.0000
# 4 0.0000 0.0000 0.0000 20.5905 0.0000 0.0000
# 5 0.0000 0.0000 0.0000 0.0000 2.4857 0.0000
# 6 0.0000 0.0000 0.0000 0.0000 0.0000 -262.5158
#
#
#
# Elastic Compliance Matrix: (Units=1/GPa)
#
#
# Indices 1 2 3 4 5 6 
#
# 1 0.009282 -0.000253 -0.011264 0.000000 0.000000 0.000000
# 2 -0.000253 0.013087 -0.004199 0.000000 0.000000 0.000000
# 3 -0.011264 -0.004199 0.029501 0.000000 0.000000 0.000000
# 4 0.000000 0.000000 0.000000 0.048566 0.000000 0.000000
# 5 0.000000 0.000000 0.000000 0.000000 0.402299 0.000000
# 6 0.000000 0.000000 0.000000 0.000000 0.000000 -0.003809
#
#
# Mechanical properties :
#
#
# Convention : Reuss Voigt Hill
#
# Bulk Modulus (GPa) = 48.92852 72.22419 60.57636
# Shear Modulus (GPa) = 9.30802 -32.82452 -11.75825
#
# Velocity S-wave (km/s) = 2.01322 -3.78061 -2.26274
# Velocity P-wave (km/s) = 5.16811 3.52019 4.42160
#
# Compressibility (1/GPa) = 0.02043798
#
# Stress axis : x y z
#
# Youngs Moduli (GPa) = 107.73202 76.41158 33.89675
#
# Poissons Ratio (x) = 0.01937 0.38181
# Poissons Ratio (y) = 0.02730 0.14233
# Poissons Ratio (z) = 1.21349 0.32085
#
# Static dielectric constant tensor:
#      x y z
#    x 1.921540 0.000000 0.000000 
#    y 0.000000 1.914930 0.000000 
#    z 0.000000 0.000000 1.876260 
# 
# From -- ./inp_files/33160.got.cif
#   From: 2010.05.17/outbox.cif.g08.bks.cpg/sg48_17_cif.got.tgz:33160.got - 2010.06.03 20:39:00.
