data_PCOD9391554
_publ_section_title
;
Structure prediction by ZEFSAII (Michael W. Deem and Ramdas Pophale) SiO2 
 PCOD9391554
Probable space group: P N N N
;
_chemical_formula_sum "Si O2"
_cell_formula_units_Z 34
_cell_length_a 7.826899
_cell_length_b 12.864919
_cell_length_c 16.779539
_cell_angle_alpha 90.000000
_cell_angle_beta 90.000000
_cell_angle_gamma 90.000000
_cell_volume 1689.572416
_symmetry_space_group_name_H-M "P N N N"
_symmetry_group_IT_number 48
_space_group.IT_coordinate_system_code '2'
_symmetry_cell_setting 'orthorhombic'
loop_
_space_group_symop_operation_xyz
x,y,z
1/2-x,1/2-y,z
x,1/2-y,1/2-z
1/2-x,y,1/2-z
-x,-y,-z
1/2+x,1/2+y,-z
-x,1/2+y,1/2+z
1/2+x,-y,1/2+z
loop_
_atom_site_type_symbol
_atom_site_label
_atom_site_fract_x
_atom_site_fract_y
_atom_site_fract_z
Si Si1 0.569198 0.940950 0.344170
Si Si2 0.250000 0.250000 0.750000
Si Si3 0.273178 0.632185 0.345512
Si Si4 0.050784 0.638173 0.769401
Si Si5 0.931361 0.999139 0.410957
O O1 0.632862 0.832802 0.300674
O O2 0.388533 0.923367 0.386462
O O3 0.731533 0.975804 0.396426
O O4 0.519082 0.035120 0.283645
O O5 0.250000 0.750000 0.368328
O O6 0.250000 0.623752 0.250000
O O7 0.455974 0.589667 0.369008
O O8 0.968280 0.750000 0.750000
O O9 0.250000 0.650178 0.750000
O O10 0.027207 0.603448 0.860654
O O11 0.000000 0.000000 0.500000
#
# Coordination Sequence:
#
# PCOD9391554 Si02
#       5
#     8   2   8   8   8
#     4  11  20  37  66  93 123 165 214 261 324 389
#     4  12  16  36  72  92 120 158 210 274 318 364
#     4  11  21  37  66  94 118 160 216 265 322 397
#     4   9  18  38  64  86 119 174 218 251 313 399
#     4  11  23  40  60  94 132 163 213 278 325 376
#
# _framework density 20.123436000000002
#
# number of rings (size 3 to 8) (size 9 to 14) (size 15 to 20)
#    0.000    1.412    5.882    2.824    0.000    0.941 
#    8.471    2.353   10.353    0.000    0.000    0.000 
#    0.000    0.000    0.000    0.000    0.000    0.000 
#
# Total GULP energy -189279.010176 kJ/mol
# GULP energy per Si atom -5567.029711 kJ/mol
# Density = 2.007763 g / cm^3
# Si number density = 20.123436 Si / 1000 Ang^3
#
#
#
# Elastic Constant Matrix: (Units=GPa)
#
#
# Indices 1 2 3 4 5 6 
#
# 1 91.6994 13.6115 12.5450 0.0000 0.0000 0.0000
# 2 13.6115 133.9329 36.0838 0.0000 0.0000 0.0000
# 3 12.5450 36.0838 103.3476 0.0000 0.0000 0.0000
# 4 0.0000 0.0000 0.0000 -16.2060 0.0000 0.0000
# 5 0.0000 0.0000 0.0000 0.0000 16.7410 0.0000
# 6 0.0000 0.0000 0.0000 0.0000 0.0000 16.3663
#
#
#
# Elastic Compliance Matrix: (Units=1/GPa)
#
#
# Indices 1 2 3 4 5 6 
#
# 1 0.011176 -0.000850 -0.001060 0.000000 0.000000 0.000000
# 2 -0.000850 0.008306 -0.002797 0.000000 0.000000 0.000000
# 3 -0.001060 -0.002797 0.010781 0.000000 0.000000 0.000000
# 4 0.000000 0.000000 0.000000 -0.061706 0.000000 0.000000
# 5 0.000000 0.000000 0.000000 0.000000 0.059734 0.000000
# 6 0.000000 0.000000 0.000000 0.000000 0.000000 0.061101
#
#
# Mechanical properties :
#
#
# Convention : Reuss Voigt Hill
#
# Bulk Modulus (GPa) = 47.96173 50.38450 49.17311
# Shear Modulus (GPa) = 47.27803 21.16291 34.22047
#
# Velocity S-wave (km/s) = 4.85232 3.24644 4.12822
# Velocity P-wave (km/s) = 7.43498 6.25656 6.87108
#
# Compressibility (1/GPa) = 0.02084996
#
# Stress axis : x y z
#
# Youngs Moduli (GPa) = 89.47429 120.38928 92.75341
#
# Poissons Ratio (x) = 0.10237 0.09830
# Poissons Ratio (y) = 0.07608 0.25943
# Poissons Ratio (z) = 0.09482 0.33672
#
# Static dielectric constant tensor:
#      x y z
#    x 1.724150 0.000000 0.000000 
#    y 0.000000 1.872050 0.000000 
#    z 0.000000 0.000000 1.778870 
# 
# From -- ./inp_files/24876.got.cif
#   From: 2010.05.17/outbox.cif.g08.bks.cpg/sg48_13_cif.got.tgz:24876.got - 2010.06.03 20:39:00.
