data_PCOD9391769
_publ_section_title
;
Structure prediction by ZEFSAII (Michael W. Deem and Ramdas Pophale) SiO2 
 PCOD9391769
Probable space group: P N N N
;
_chemical_formula_sum "Si O2"
_cell_formula_units_Z 56
_cell_length_a 14.568866
_cell_length_b 16.921771
_cell_length_c 11.162408
_cell_angle_alpha 90.000000
_cell_angle_beta 90.000000
_cell_angle_gamma 90.000000
_cell_volume 2751.879765
_symmetry_space_group_name_H-M "P N N N"
_symmetry_group_IT_number 48
_space_group.IT_coordinate_system_code '2'
_symmetry_cell_setting 'orthorhombic'
loop_
_space_group_symop_operation_xyz
x,y,z
1/2-x,1/2-y,z
x,1/2-y,1/2-z
1/2-x,y,1/2-z
-x,-y,-z
1/2+x,1/2+y,-z
-x,1/2+y,1/2+z
1/2+x,-y,1/2+z
loop_
_atom_site_type_symbol
_atom_site_label
_atom_site_fract_x
_atom_site_fract_y
_atom_site_fract_z
Si Si1 0.615606 0.585352 0.578002
Si Si2 0.070308 0.925535 0.975142
Si Si3 0.649022 0.157289 0.715070
Si Si4 0.792910 0.669698 0.476511
Si Si5 0.067565 0.327722 0.316481
Si Si6 0.510400 0.073015 0.883268
Si Si7 0.149540 0.456725 0.695969
O O1 0.712618 0.610488 0.522321
O O2 0.605640 0.613848 0.713818
O O3 0.581361 0.494686 0.572965
O O4 0.537680 0.620953 0.490381
O O5 0.116354 0.878765 0.086183
O O6 0.011416 0.867072 0.893843
O O7 0.144434 0.968825 0.892039
O O8 0.000000 0.000000 0.000000
O O9 0.653672 0.250000 0.750000
O O10 0.750000 0.124516 0.750000
O O11 0.570537 0.127412 0.801687
O O12 0.750000 0.750000 0.424533
O O13 0.850596 0.693724 0.593113
O O14 0.857523 0.622712 0.384470
O O15 0.034580 0.250000 0.250000
O O16 0.428798 0.039201 0.797764
O O17 0.250000 0.451728 0.750000
#
# Coordination Sequence:
#
# PCOD9391769 Si02
#       7
#     8   8   8   8   8   8   8
#     4  11  24  39  64 100 138 180 228 284 350 421
#     4  12  24  48  74 101 139 193 242 292 355 433
#     4  11  27  47  72 104 136 181 244 301 360 421
#     4  12  25  40  64 104 146 181 227 295 365 436
#     4  12  24  41  67 103 145 185 234 290 362 430
#     4  11  24  44  67  98 136 183 233 291 346 425
#     4  12  25  46  68 103 139 185 242 286 358 431
#
# _framework density 20.349726
#
# number of rings (size 3 to 8) (size 9 to 14) (size 15 to 20)
#    0.000    0.429    7.143    0.429    4.000    1.429 
#    0.000    0.000    0.000    0.000    0.000    0.000 
#    0.000    0.000    0.000    0.000    0.000    0.000 
#
# Total GULP energy -312497.973994 kJ/mol
# GULP energy per Si atom -5580.320964 kJ/mol
# Density = 2.030341 g / cm^3
# Si number density = 20.349726 Si / 1000 Ang^3
#
#
#
# Elastic Constant Matrix: (Units=GPa)
#
#
# Indices 1 2 3 4 5 6 
#
# 1 71.3493 31.8680 32.6227 0.0000 0.0000 0.0000
# 2 31.8680 77.5885 28.6386 0.0000 0.0000 0.0000
# 3 32.6227 28.6386 93.1929 0.0000 0.0000 0.0000
# 4 0.0000 0.0000 0.0000 31.1745 0.0000 0.0000
# 5 0.0000 0.0000 0.0000 0.0000 27.4811 0.0000
# 6 0.0000 0.0000 0.0000 0.0000 0.0000 29.4308
#
#
#
# Elastic Compliance Matrix: (Units=1/GPa)
#
#
# Indices 1 2 3 4 5 6 
#
# 1 0.018870 -0.005992 -0.004764 0.000000 0.000000 0.000000
# 2 -0.005992 0.016440 -0.002955 0.000000 0.000000 0.000000
# 3 -0.004764 -0.002955 0.013306 0.000000 0.000000 0.000000
# 4 0.000000 0.000000 0.000000 0.032077 0.000000 0.000000
# 5 0.000000 0.000000 0.000000 0.000000 0.036389 0.000000
# 6 0.000000 0.000000 0.000000 0.000000 0.000000 0.033978
#
#
# Mechanical properties :
#
#
# Convention : Reuss Voigt Hill
#
# Bulk Modulus (GPa) = 47.18144 47.59880 47.39012
# Shear Modulus (GPa) = 26.94729 27.55071 27.24900
#
# Velocity S-wave (km/s) = 3.64292 3.68348 3.66325
# Velocity P-wave (km/s) = 6.39766 6.44452 6.42113
#
# Compressibility (1/GPa) = 0.02119478
#
# Stress axis : x y z
#
# Youngs Moduli (GPa) = 52.99359 60.82657 75.15332
#
# Poissons Ratio (x) = 0.36448 0.35805
# Poissons Ratio (y) = 0.31754 0.22205
# Poissons Ratio (z) = 0.25247 0.17972
#
# Static dielectric constant tensor:
#      x y z
#    x 1.726750 0.000000 0.000000 
#    y 0.000000 2.467480 0.000000 
#    z 0.000000 0.000000 1.850460 
# 
# From -- ./inp_files/21343.got.cif
#   From: 2010.05.17/outbox.cif.g08.bks.cpg/sg48_11_cif.got.tgz:21343.got - 2010.06.03 20:39:00.
