data_PCOD9391750
_publ_section_title
;
Structure prediction by ZEFSAII (Michael W. Deem and Ramdas Pophale) SiO2 
 PCOD9391750
Probable space group: P N N N
;
_chemical_formula_sum "Si O2"
_cell_formula_units_Z 58
_cell_length_a 26.683019
_cell_length_b 5.614557
_cell_length_c 17.481770
_cell_angle_alpha 90.000000
_cell_angle_beta 90.000000
_cell_angle_gamma 90.000000
_cell_volume 2619.002197
_symmetry_space_group_name_H-M "P N N N"
_symmetry_group_IT_number 48
_space_group.IT_coordinate_system_code '2'
_symmetry_cell_setting 'orthorhombic'
loop_
_space_group_symop_operation_xyz
x,y,z
1/2-x,1/2-y,z
x,1/2-y,1/2-z
1/2-x,y,1/2-z
-x,-y,-z
1/2+x,1/2+y,-z
-x,1/2+y,1/2+z
1/2+x,-y,1/2+z
loop_
_atom_site_type_symbol
_atom_site_label
_atom_site_fract_x
_atom_site_fract_y
_atom_site_fract_z
Si Si1 0.285885 0.045274 0.888129
Si Si2 0.036849 0.623481 0.939195
Si Si3 0.559811 0.811844 0.616581
Si Si4 0.250000 0.750000 0.750000
Si Si5 0.805718 0.237363 0.544782
Si Si6 0.108245 0.680450 0.165262
Si Si7 0.112555 0.006638 0.979814
Si Si8 0.606129 0.701508 0.337635
O O1 0.250000 0.250000 0.918851
O O2 0.339550 0.082241 0.847467
O O3 0.252738 0.946867 0.818629
O O4 0.300131 0.898690 0.964127
O O5 0.063177 0.452018 0.878465
O O6 0.999835 0.803036 0.894069
O O7 0.079927 0.766631 0.983534
O O8 0.000000 0.500000 0.000000
O O9 0.577410 0.570525 0.660620
O O10 0.584435 0.800862 0.531621
O O11 0.577591 0.074180 0.644525
O O12 0.750000 0.250000 0.577154
O O13 0.845023 0.146364 0.607728
O O14 0.832977 0.478742 0.516322
O O15 0.126247 0.750000 0.250000
O O16 0.112975 0.067872 0.891027
O O17 0.595067 0.750000 0.250000
#
# Coordination Sequence:
#
# PCOD9391750 Si02
#       8
#     8   8   8   2   8   8   8   8
#     4  12  25  45  69 102 142 190 242 297 366 445
#     4  12  24  45  71 100 140 192 248 304 370 438
#     4  11  24  45  78 103 139 195 249 298 366 446
#     4  12  26  44  72  98 142 188 238 288 376 422
#     4  11  23  44  75 106 140 193 244 298 363 452
#     4  11  26  49  74 111 151 191 244 313 375 435
#     4  11  24  45  69 101 139 188 240 299 364 443
#     4  12  27  41  66 103 148 184 238 306 369 437
#
# _framework density 22.145837
#
# number of rings (size 3 to 8) (size 9 to 14) (size 15 to 20)
#    0.000    0.552    3.448    5.172    3.862    2.483 
#    2.483    0.000    0.000    3.310    0.000    0.000 
#    0.000    0.000    0.000    0.000    0.000    0.000 
#
# Total GULP energy -323150.900716 kJ/mol
# GULP energy per Si atom -5571.567254 kJ/mol
# Density = 2.209543 g / cm^3
# Si number density = 22.145837 Si / 1000 Ang^3
#
#
#
# Elastic Constant Matrix: (Units=GPa)
#
#
# Indices 1 2 3 4 5 6 
#
# 1 194.4936 59.8675 59.1176 0.0000 0.0000 0.0000
# 2 59.8675 88.3684 34.2686 0.0000 0.0000 0.0000
# 3 59.1176 34.2686 146.2147 0.0000 0.0000 0.0000
# 4 0.0000 0.0000 0.0000 27.2358 0.0000 0.0000
# 5 0.0000 0.0000 0.0000 0.0000 -23.2500 0.0000
# 6 0.0000 0.0000 0.0000 0.0000 0.0000 75.5954
#
#
#
# Elastic Compliance Matrix: (Units=1/GPa)
#
#
# Indices 1 2 3 4 5 6 
#
# 1 0.006933 -0.003971 -0.001873 0.000000 0.000000 0.000000
# 2 -0.003971 0.014722 -0.001845 0.000000 0.000000 0.000000
# 3 -0.001873 -0.001845 0.008029 0.000000 0.000000 0.000000
# 4 0.000000 0.000000 0.000000 0.036716 0.000000 0.000000
# 5 0.000000 0.000000 0.000000 0.000000 -0.043011 0.000000
# 6 0.000000 0.000000 0.000000 0.000000 0.000000 0.013228
#
#
# Mechanical properties :
#
#
# Convention : Reuss Voigt Hill
#
# Bulk Modulus (GPa) = 69.89517 81.73158 75.81337
# Shear Modulus (GPa) = 88.08578 34.30444 61.19511
#
# Velocity S-wave (km/s) = 6.31361 3.94003 5.26239
# Velocity P-wave (km/s) = 9.20754 7.59504 8.43989
#
# Compressibility (1/GPa) = 0.01430714
#
# Stress axis : x y z
#
# Youngs Moduli (GPa) = 144.23818 67.92642 124.55247
#
# Poissons Ratio (x) = 0.26972 0.23323
# Poissons Ratio (y) = 0.57274 0.22979
# Poissons Ratio (z) = 0.27009 0.12532
#
# Static dielectric constant tensor:
#      x y z
#    x 1.862270 0.000000 0.000000 
#    y 0.000000 1.527740 0.000000 
#    z 0.000000 0.000000 1.816520 
# 
# From -- ./inp_files/32439.got.cif
#   From: 2010.05.17/outbox.cif.g08.bks.cpg/sg48_17_cif.got.tgz:32439.got - 2010.06.03 20:39:00.
