data_PCOD9391524
_publ_section_title
;
Structure prediction by ZEFSAII (Michael W. Deem and Ramdas Pophale) SiO2 
 PCOD9391524
Probable space group: P N N N
;
_chemical_formula_sum "Si O2"
_cell_formula_units_Z 54
_cell_length_a 8.743116
_cell_length_b 20.279756
_cell_length_c 16.357619
_cell_angle_alpha 90.000000
_cell_angle_beta 90.000000
_cell_angle_gamma 90.000000
_cell_volume 2900.340949
_symmetry_space_group_name_H-M "P N N N"
_symmetry_group_IT_number 48
_space_group.IT_coordinate_system_code '2'
_symmetry_cell_setting 'orthorhombic'
loop_
_space_group_symop_operation_xyz
x,y,z
1/2-x,1/2-y,z
x,1/2-y,1/2-z
1/2-x,y,1/2-z
-x,-y,-z
1/2+x,1/2+y,-z
-x,1/2+y,1/2+z
1/2+x,-y,1/2+z
loop_
_atom_site_type_symbol
_atom_site_label
_atom_site_fract_x
_atom_site_fract_y
_atom_site_fract_z
Si Si1 0.750000 0.250000 0.968517
Si Si2 0.086996 0.555662 0.219439
Si Si3 0.706205 0.898114 0.459234
Si Si4 0.537332 0.680167 0.380131
Si Si5 0.750000 0.750000 0.250000
Si Si6 0.851414 0.002008 0.558017
Si Si7 0.847921 0.011091 0.168360
Si Si8 0.635192 0.388110 0.018234
O O1 0.603641 0.223401 0.915233
O O2 0.700511 0.314087 0.020789
O O3 0.250000 0.578606 0.250000
O O4 0.102852 0.499616 0.151498
O O5 0.020611 0.615137 0.166314
O O6 0.995841 0.525145 0.294629
O O7 0.833258 0.842121 0.445783
O O8 0.528162 0.881834 0.471811
O O9 0.749833 0.939329 0.538474
O O10 0.724812 0.951700 0.385707
O O11 0.636160 0.713714 0.310328
O O12 0.750900 0.066402 0.535192
O O13 0.000000 0.000000 0.500000
O O14 0.750000 0.027897 0.250000
O O15 0.874370 0.071234 0.104449
#
# Coordination Sequence:
#
# PCOD9391524 Si02
#       8
#     4   8   8   8   2   8   8   8
#     4  12  26  43  61  90 122 182 228 256 308 408
#     4  12  22  35  59  92 122 154 201 267 330 377
#     4  11  21  41  63  89 123 165 214 271 321 384
#     4  12  25  41  60  86 129 170 214 263 315 398
#     4  12  28  38  52  84 124 174 198 250 328 386
#     4  11  19  38  60  90 121 156 207 264 326 377
#     4  11  21  38  64  97 127 158 205 278 341 378
#     4  11  23  40  63  90 126 175 222 260 320 400
#
# _framework density 18.618500000000001
#
# number of rings (size 3 to 8) (size 9 to 14) (size 15 to 20)
#    0.000    0.593    4.444    6.222    2.074    0.000 
#    0.000    0.370    0.000    0.000    0.000    2.074 
#    0.000    0.000    0.000    0.000    0.000    0.000 
#
# Total GULP energy -301067.866088 kJ/mol
# GULP energy per Si atom -5575.330853 kJ/mol
# Density = 1.857612 g / cm^3
# Si number density = 18.618500 Si / 1000 Ang^3
#
#
#
# Elastic Constant Matrix: (Units=GPa)
#
#
# Indices 1 2 3 4 5 6 
#
# 1 134.2363 44.0825 29.6815 0.0000 0.0000 0.0000
# 2 44.0825 72.0340 21.0096 0.0000 0.0000 0.0000
# 3 29.6815 21.0096 79.9083 0.0000 0.0000 0.0000
# 4 0.0000 0.0000 0.0000 20.2113 0.0000 0.0000
# 5 0.0000 0.0000 0.0000 0.0000 37.1878 0.0000
# 6 0.0000 0.0000 0.0000 0.0000 0.0000 42.6470
#
#
#
# Elastic Compliance Matrix: (Units=1/GPa)
#
#
# Indices 1 2 3 4 5 6 
#
# 1 0.009669 -0.005274 -0.002205 0.000000 0.000000 0.000000
# 2 -0.005274 0.017912 -0.002750 0.000000 0.000000 0.000000
# 3 -0.002205 -0.002750 0.014056 0.000000 0.000000 0.000000
# 4 0.000000 0.000000 0.000000 0.049477 0.000000 0.000000
# 5 0.000000 0.000000 0.000000 0.000000 0.026891 0.000000
# 6 0.000000 0.000000 0.000000 0.000000 0.000000 0.023448
#
#
# Mechanical properties :
#
#
# Convention : Reuss Voigt Hill
#
# Bulk Modulus (GPa) = 47.21686 52.85844 50.03765
# Shear Modulus (GPa) = 29.59069 32.76955 31.18012
#
# Velocity S-wave (km/s) = 3.99095 4.19985 4.09673
# Velocity P-wave (km/s) = 6.83024 7.20904 7.02219
#
# Compressibility (1/GPa) = 0.02117888
#
# Stress axis : x y z
#
# Youngs Moduli (GPa) = 103.42275 55.82817 71.14157
#
# Poissons Ratio (x) = 0.29444 0.15686
# Poissons Ratio (y) = 0.54546 0.19567
# Poissons Ratio (z) = 0.22803 0.15355
#
# Static dielectric constant tensor:
#      x y z
#    x 1.744620 0.000000 0.000000 
#    y 0.000000 1.342990 0.000000 
#    z 0.000000 0.000000 1.631910 
# 
# From -- ./inp_files/30454.got.cif
#   From: 2010.05.17/outbox.cif.g08.bks.cpg/sg48_16_cif.got.tgz:30454.got - 2010.06.03 20:39:00.
