data_PCOD9391146
_publ_section_title
;
Structure prediction by ZEFSAII (Michael W. Deem and Ramdas Pophale) SiO2 
 PCOD9391146
Probable space group: P N N N
;
_chemical_formula_sum "Si O2"
_cell_formula_units_Z 56
_cell_length_a 8.911818
_cell_length_b 21.401666
_cell_length_c 14.364636
_cell_angle_alpha 90.000000
_cell_angle_beta 90.000000
_cell_angle_gamma 90.000000
_cell_volume 2739.734737
_symmetry_space_group_name_H-M "P N N N"
_symmetry_group_IT_number 48
_space_group.IT_coordinate_system_code '2'
_symmetry_cell_setting 'orthorhombic'
loop_
_space_group_symop_operation_xyz
x,y,z
1/2-x,1/2-y,z
x,1/2-y,1/2-z
1/2-x,y,1/2-z
-x,-y,-z
1/2+x,1/2+y,-z
-x,1/2+y,1/2+z
1/2+x,-y,1/2+z
loop_
_atom_site_type_symbol
_atom_site_label
_atom_site_fract_x
_atom_site_fract_y
_atom_site_fract_z
Si Si1 0.957759 0.333685 0.523724
Si Si2 0.322998 0.868778 0.147023
Si Si3 0.173762 0.483123 0.151169
Si Si4 0.359867 0.045012 0.522042
Si Si5 0.671947 0.452386 0.350482
Si Si6 0.720937 0.320815 0.138834
Si Si7 0.574391 0.771521 0.147850
O O1 0.796486 0.341640 0.573663
O O2 0.937079 0.335903 0.412003
O O3 0.068852 0.389595 0.554775
O O4 0.014862 0.268496 0.561885
O O5 0.250000 0.858346 0.250000
O O6 0.490214 0.838791 0.139416
O O7 0.322653 0.942879 0.130473
O O8 0.250000 0.472363 0.250000
O O9 0.001744 0.465524 0.156428
O O10 0.262886 0.447257 0.070998
O O11 0.500000 0.000000 0.500000
O O12 0.255937 0.006279 0.592268
O O13 0.750000 0.451792 0.250000
O O14 0.687476 0.382388 0.391186
O O15 0.750000 0.250000 0.105951
O O16 0.750000 0.318611 0.250000
O O17 0.750000 0.750000 0.149011
O O18 0.518566 0.750000 0.250000
#
# Coordination Sequence:
#
# PCOD9391146 Si02
#       7
#     8   8   8   8   8   8   8
#     4  12  24  42  70  96 137 187 224 285 340 424
#     4  11  22  40  67  98 138 184 229 267 346 424
#     4  11  25  42  69 100 135 180 230 290 350 417
#     4  12  23  43  65 101 140 177 228 280 346 421
#     4  11  24  41  70  98 135 180 224 291 353 411
#     4  10  22  42  69  95 123 171 235 280 336 407
#     4  11  25  42  64 100 142 186 229 285 342 417
#
# _framework density 20.439934999999998
#
# number of rings (size 3 to 8) (size 9 to 14) (size 15 to 20)
#    0.000    0.857    4.286    2.571    6.000    0.000 
#    2.571    0.000    0.000    0.000    0.000    0.000 
#    0.000    0.000    0.000    0.000    0.000    0.000 
#
# Total GULP energy -312152.636946 kJ/mol
# GULP energy per Si atom -5574.154231 kJ/mol
# Density = 2.039341 g / cm^3
# Si number density = 20.439935 Si / 1000 Ang^3
#
#
#
# Elastic Constant Matrix: (Units=GPa)
#
#
# Indices 1 2 3 4 5 6 
#
# 1 108.3078 11.0216 23.1501 0.0000 0.0000 0.0000
# 2 11.0216 65.8393 8.1936 0.0000 0.0000 0.0000
# 3 23.1501 8.1936 76.4779 0.0000 0.0000 0.0000
# 4 0.0000 0.0000 0.0000 21.0260 0.0000 0.0000
# 5 0.0000 0.0000 0.0000 0.0000 35.9515 0.0000
# 6 0.0000 0.0000 0.0000 0.0000 0.0000 26.9722
#
#
#
# Elastic Compliance Matrix: (Units=1/GPa)
#
#
# Indices 1 2 3 4 5 6 
#
# 1 0.009982 -0.001313 -0.002881 0.000000 0.000000 0.000000
# 2 -0.001313 0.015566 -0.001270 0.000000 0.000000 0.000000
# 3 -0.002881 -0.001270 0.014084 0.000000 0.000000 0.000000
# 4 0.000000 0.000000 0.000000 0.047560 0.000000 0.000000
# 5 0.000000 0.000000 0.000000 0.000000 0.027815 0.000000
# 6 0.000000 0.000000 0.000000 0.000000 0.000000 0.037075
#
#
# Mechanical properties :
#
#
# Convention : Reuss Voigt Hill
#
# Bulk Modulus (GPa) = 34.83770 37.26172 36.04971
# Shear Modulus (GPa) = 28.97218 30.67392 29.82305
#
# Velocity S-wave (km/s) = 3.76896 3.87807 3.82391
# Velocity P-wave (km/s) = 6.00175 6.19048 6.09685
#
# Compressibility (1/GPa) = 0.02870453
#
# Stress axis : x y z
#
# Youngs Moduli (GPa) = 100.17710 64.24132 71.00311
#
# Poissons Ratio (x) = 0.08432 0.20456
# Poissons Ratio (y) = 0.13148 0.09020
# Poissons Ratio (z) = 0.28862 0.08161
#
# Static dielectric constant tensor:
#      x y z
#    x 1.901250 0.000000 0.000000 
#    y 0.000000 1.752180 0.000000 
#    z 0.000000 0.000000 1.787480 
# 
# From -- ./inp_files/25607.got.cif
#   From: 2010.05.17/outbox.cif.g08.bks.cpg/sg48_13_cif.got.tgz:25607.got - 2010.06.03 20:39:00.
