data_PCOD9391005
_publ_section_title
;
Structure prediction by ZEFSAII (Michael W. Deem and Ramdas Pophale) SiO2 
 PCOD9391005
Probable space group: P N N N
;
_chemical_formula_sum "Si O2"
_cell_formula_units_Z 56
_cell_length_a 6.353685
_cell_length_b 21.913193
_cell_length_c 23.354653
_cell_angle_alpha 90.000000
_cell_angle_beta 90.000000
_cell_angle_gamma 90.000000
_cell_volume 3251.657259
_symmetry_space_group_name_H-M "P N N N"
_symmetry_group_IT_number 48
_space_group.IT_coordinate_system_code '2'
_symmetry_cell_setting 'orthorhombic'
loop_
_space_group_symop_operation_xyz
x,y,z
1/2-x,1/2-y,z
x,1/2-y,1/2-z
1/2-x,y,1/2-z
-x,-y,-z
1/2+x,1/2+y,-z
-x,1/2+y,1/2+z
1/2+x,-y,1/2+z
loop_
_atom_site_type_symbol
_atom_site_label
_atom_site_fract_x
_atom_site_fract_y
_atom_site_fract_z
Si Si1 0.868877 0.606896 0.806939
Si Si2 0.557389 0.847183 0.925558
Si Si3 0.691486 0.462995 0.471982
Si Si4 0.250000 0.549016 0.750000
Si Si5 0.750000 0.250000 0.470857
Si Si6 0.866848 0.812581 0.027832
Si Si7 0.366945 0.519873 0.194114
Si Si8 0.492109 0.065439 0.576144
O O1 0.750000 0.629527 0.750000
O O2 0.850605 0.647743 0.862422
O O3 0.765971 0.540973 0.820611
O O4 0.108081 0.591628 0.790258
O O5 0.417011 0.907093 0.938799
O O6 0.404935 0.790133 0.933128
O O7 0.739080 0.838338 0.972859
O O8 0.500000 0.500000 0.500000
O O9 0.829295 0.509293 0.433330
O O10 0.843848 0.439986 0.523184
O O11 0.409050 0.506218 0.784950
O O12 0.600810 0.207352 0.509363
O O13 0.750000 0.750000 0.046487
O O14 0.879061 0.869191 0.070844
O O15 0.250000 0.547627 0.250000
O O16 0.394931 0.558523 0.137114
#
# Coordination Sequence:
#
# PCOD9391005 Si02
#       8
#     8   8   8   4   4   8   8   8
#     4   9  19  32  52  77 108 144 182 226 270 327
#     4  11  20  36  56  78 114 142 185 228 280 329
#     4  11  21  31  52  91 115 145 170 231 287 334
#     4   8  16  34  50  77 105 152 178 208 278 332
#     4  10  22  38  54  73 105 154 186 220 276 326
#     4  10  22  38  54  79 109 145 187 227 275 332
#     4   9  19  33  49  79 116 144 177 219 276 336
#     4  11  21  34  55  84 118 142 183 226 283 337
#
# _framework density 17.221988
#
# number of rings (size 3 to 8) (size 9 to 14) (size 15 to 20)
#    0.000    2.286    2.857    1.714    2.000    3.429 
#    0.000    0.000    0.000   10.286    0.000    4.000 
#    0.000    0.000    0.000    0.000    0.000    0.000 
#
# Total GULP energy -312299.930022 kJ/mol
# GULP energy per Si atom -5576.784465 kJ/mol
# Density = 1.718279 g / cm^3
# Si number density = 17.221988 Si / 1000 Ang^3
#
#
#
# Elastic Constant Matrix: (Units=GPa)
#
#
# Indices 1 2 3 4 5 6 
#
# 1 72.9554 8.1723 15.7062 0.0000 0.0000 0.0000
# 2 8.1723 55.7127 23.6496 0.0000 0.0000 0.0000
# 3 15.7062 23.6496 82.1550 0.0000 0.0000 0.0000
# 4 0.0000 0.0000 0.0000 14.3840 0.0000 0.0000
# 5 0.0000 0.0000 0.0000 0.0000 10.3237 0.0000
# 6 0.0000 0.0000 0.0000 0.0000 0.0000 18.4995
#
#
#
# Elastic Compliance Matrix: (Units=1/GPa)
#
#
# Indices 1 2 3 4 5 6 
#
# 1 0.014351 -0.001071 -0.002435 0.000000 0.000000 0.000000
# 2 -0.001071 0.020528 -0.005704 0.000000 0.000000 0.000000
# 3 -0.002435 -0.005704 0.014280 0.000000 0.000000 0.000000
# 4 0.000000 0.000000 0.000000 0.069522 0.000000 0.000000
# 5 0.000000 0.000000 0.000000 0.000000 0.096865 0.000000
# 6 0.000000 0.000000 0.000000 0.000000 0.000000 0.054056
#
#
# Mechanical properties :
#
#
# Convention : Reuss Voigt Hill
#
# Bulk Modulus (GPa) = 32.53429 33.98659 33.26044
# Shear Modulus (GPa) = 16.76342 19.52778 18.14560
#
# Velocity S-wave (km/s) = 3.12328 3.37098 3.24949
# Velocity P-wave (km/s) = 5.65143 5.91004 5.78218
#
# Compressibility (1/GPa) = 0.03073680
#
# Stress axis : x y z
#
# Youngs Moduli (GPa) = 69.68022 48.71428 70.02908
#
# Poissons Ratio (x) = 0.05219 0.17054
# Poissons Ratio (y) = 0.07466 0.39948
# Poissons Ratio (z) = 0.16969 0.27789
#
# Static dielectric constant tensor:
#      x y z
#    x 1.614040 0.000000 0.000000 
#    y 0.000000 1.594100 0.000000 
#    z 0.000000 0.000000 1.589040 
# 
# From -- ./inp_files/35426.got.cif
#   From: 2010.05.17/outbox.cif.g08.bks.cpg/sg48_18_cif.got.tgz:35426.got - 2010.06.03 20:39:00.
