data_PCOD9391248
_publ_section_title
;
Structure prediction by ZEFSAII (Michael W. Deem and Ramdas Pophale) SiO2 
 PCOD9391248
Probable space group: P N N N
;
_chemical_formula_sum "Si O2"
_cell_formula_units_Z 44
_cell_length_a 12.234754
_cell_length_b 17.417347
_cell_length_c 8.996764
_cell_angle_alpha 90.000000
_cell_angle_beta 90.000000
_cell_angle_gamma 90.000000
_cell_volume 1917.183021
_symmetry_space_group_name_H-M "P N N N"
_symmetry_group_IT_number 48
_space_group.IT_coordinate_system_code '2'
_symmetry_cell_setting 'orthorhombic'
loop_
_space_group_symop_operation_xyz
x,y,z
1/2-x,1/2-y,z
x,1/2-y,1/2-z
1/2-x,y,1/2-z
-x,-y,-z
1/2+x,1/2+y,-z
-x,1/2+y,1/2+z
1/2+x,-y,1/2+z
loop_
_atom_site_type_symbol
_atom_site_label
_atom_site_fract_x
_atom_site_fract_y
_atom_site_fract_z
Si Si1 0.134142 0.099497 0.223555
Si Si2 0.750000 0.526534 0.250000
Si Si3 0.376592 0.277554 0.986753
Si Si4 0.066239 0.394922 0.959281
Si Si5 0.944216 0.335404 0.714436
Si Si6 0.121164 0.964571 0.014274
O O1 0.250000 0.140435 0.250000
O O2 0.084710 0.164987 0.117469
O O3 0.071695 0.073683 0.372338
O O4 0.169943 0.026488 0.127261
O O5 0.829773 0.574268 0.136937
O O6 0.823293 0.474139 0.356318
O O7 0.250000 0.250000 0.972875
O O8 0.431388 0.195400 0.997558
O O9 0.430901 0.319800 0.845030
O O10 0.961130 0.394355 0.851524
O O11 0.901101 0.250000 0.750000
O O12 0.880707 0.381340 0.587708
O O13 0.000000 0.000000 0.000000
#
# Coordination Sequence:
#
# PCOD9391248 Si02
#       6
#     8   4   8   8   8   8
#     4  12  22  35  57  94 132 177 218 269 342 410
#     4  12  22  40  65  94 135 188 222 278 354 417
#     4  11  19  33  55  87 139 174 203 259 340 431
#     4  11  21  33  55  93 126 175 212 253 348 419
#     4  10  23  41  62  91 132 178 222 279 343 420
#     4  12  23  43  63  94 138 174 229 287 339 422
#
# _framework density 22.950339
#
# number of rings (size 3 to 8) (size 9 to 14) (size 15 to 20)
#    0.000    0.727    7.273    1.636    0.000    3.273 
#    0.000    0.000    0.000    0.545    0.000    1.273 
#    0.000    0.000    0.000    0.000    0.000    0.000 
#
# Total GULP energy -245088.268266 kJ/mol
# GULP energy per Si atom -5570.187915 kJ/mol
# Density = 2.289810 g / cm^3
# Si number density = 22.950339 Si / 1000 Ang^3
#
#
#
# Elastic Constant Matrix: (Units=GPa)
#
#
# Indices 1 2 3 4 5 6 
#
# 1 23.7708 18.4280 28.9038 0.0000 0.0000 0.0000
# 2 18.4280 145.5900 64.2389 0.0000 0.0000 0.0000
# 3 28.9038 64.2389 162.9273 0.0000 0.0000 0.0000
# 4 0.0000 0.0000 0.0000 32.2186 0.0000 0.0000
# 5 0.0000 0.0000 0.0000 0.0000 30.2600 0.0000
# 6 0.0000 0.0000 0.0000 0.0000 0.0000 14.2196
#
#
#
# Elastic Compliance Matrix: (Units=1/GPa)
#
#
# Indices 1 2 3 4 5 6 
#
# 1 0.054849 -0.003207 -0.008466 0.000000 0.000000 0.000000
# 2 -0.003207 0.008503 -0.002784 0.000000 0.000000 0.000000
# 3 -0.008466 -0.002784 0.008737 0.000000 0.000000 0.000000
# 4 0.000000 0.000000 0.000000 0.031038 0.000000 0.000000
# 5 0.000000 0.000000 0.000000 0.000000 0.033047 0.000000
# 6 0.000000 0.000000 0.000000 0.000000 0.000000 0.070325
#
#
# Mechanical properties :
#
#
# Convention : Reuss Voigt Hill
#
# Bulk Modulus (GPa) = 23.16123 61.71440 42.43782
# Shear Modulus (GPa) = 20.01574 30.05414 25.03494
#
# Velocity S-wave (km/s) = 2.95639 3.62267 3.30636
# Velocity P-wave (km/s) = 4.66556 6.66686 5.75389
#
# Compressibility (1/GPa) = 0.04317559
#
# Stress axis : x y z
#
# Youngs Moduli (GPa) = 18.23199 117.60960 114.45503
#
# Poissons Ratio (x) = 0.37718 0.96896
# Poissons Ratio (y) = 0.05847 0.31859
# Poissons Ratio (z) = 0.15435 0.32737
#
# Static dielectric constant tensor:
#      x y z
#    x 1.657060 0.000000 0.000000 
#    y 0.000000 1.901380 0.000000 
#    z 0.000000 0.000000 0.845010 
# 
# From -- ./inp_files/12641.got.cif
#   From: 2010.05.17/outbox.cif.g08.bks.cpg/sg48_7_cif.got.tgz:12641.got - 2010.06.03 20:39:00.
