data_PCOD9391372
_publ_section_title
;
Structure prediction by ZEFSAII (Michael W. Deem and Ramdas Pophale) SiO2 
 PCOD9391372
Probable space group: P N N N
;
_chemical_formula_sum "Si O2"
_cell_formula_units_Z 24
_cell_length_a 7.023742
_cell_length_b 25.537195
_cell_length_c 6.801310
_cell_angle_alpha 90.000000
_cell_angle_beta 90.000000
_cell_angle_gamma 90.000000
_cell_volume 1219.928320
_symmetry_space_group_name_H-M "P N N N"
_symmetry_group_IT_number 48
_space_group.IT_coordinate_system_code '2'
_symmetry_cell_setting 'orthorhombic'
loop_
_space_group_symop_operation_xyz
x,y,z
1/2-x,1/2-y,z
x,1/2-y,1/2-z
1/2-x,y,1/2-z
-x,-y,-z
1/2+x,1/2+y,-z
-x,1/2+y,1/2+z
1/2+x,-y,1/2+z
loop_
_atom_site_type_symbol
_atom_site_label
_atom_site_fract_x
_atom_site_fract_y
_atom_site_fract_z
Si Si1 0.419779 0.179570 0.413327
Si Si2 0.892024 0.930050 0.086175
Si Si3 0.250000 0.750000 0.750000
Si Si4 0.750000 0.494050 0.750000
Si Si5 0.250000 0.250000 0.750000
O O1 0.250000 0.183322 0.250000
O O2 0.460205 0.118718 0.456636
O O3 0.607553 0.210241 0.354327
O O4 0.359270 0.210779 0.606911
O O5 0.750000 0.908861 0.250000
O O6 0.063916 0.958432 0.204496
O O7 0.770208 0.968652 0.942876
#
# Coordination Sequence:
#
# PCOD9391372 Si02
#       5
#     8   8   2   4   2
#     4  12  25  45  68  99 137 175 219 285 337 393
#     4  11  23  43  70  95 136 178 221 271 336 394
#     4  12  26  46  68 100 138 168 230 282 324 404
#     4  10  24  42  64 106 132 172 226 274 324 398
#     4  12  22  46  72  88 134 176 218 270 344 384
#
# _framework density 19.673289
#
# number of rings (size 3 to 8) (size 9 to 14) (size 15 to 20)
#    0.000    0.667    6.667    1.000    0.000    6.000 
#   12.000    0.000    0.000    0.000    0.000    0.000 
#    0.000    0.000    0.000    0.000    0.000    0.000 
#
# Total GULP energy -133676.640305 kJ/mol
# GULP energy per Si atom -5569.860013 kJ/mol
# Density = 1.962851 g / cm^3
# Si number density = 19.673289 Si / 1000 Ang^3
#
#
#
# Elastic Constant Matrix: (Units=GPa)
#
#
# Indices 1 2 3 4 5 6 
#
# 1 128.4489 67.4489 83.7835 0.0000 0.0000 0.0000
# 2 67.4489 142.5216 49.5809 0.0000 0.0000 0.0000
# 3 83.7835 49.5809 104.5740 0.0000 0.0000 0.0000
# 4 0.0000 0.0000 0.0000 1588.9835 0.0000 0.0000
# 5 0.0000 0.0000 0.0000 0.0000 29.6276 0.0000
# 6 0.0000 0.0000 0.0000 0.0000 0.0000 32.7031
#
#
#
# Elastic Compliance Matrix: (Units=1/GPa)
#
#
# Indices 1 2 3 4 5 6 
#
# 1 0.018227 -0.004246 -0.012590 0.000000 0.000000 0.000000
# 2 -0.004246 0.009392 -0.001051 0.000000 0.000000 0.000000
# 3 -0.012590 -0.001051 0.020148 0.000000 0.000000 0.000000
# 4 0.000000 0.000000 0.000000 0.000629 0.000000 0.000000
# 5 0.000000 0.000000 0.000000 0.000000 0.033752 0.000000
# 6 0.000000 0.000000 0.000000 0.000000 0.000000 0.030578
#
#
# Mechanical properties :
#
#
# Convention : Reuss Voigt Hill
#
# Bulk Modulus (GPa) = 83.38630 86.35236 84.86933
# Shear Modulus (GPa) = 32.78740 341.91158 187.34949
#
# Velocity S-wave (km/s) = 4.08682 13.19743 9.76919
# Velocity P-wave (km/s) = 8.04656 16.61981 13.05690
#
# Compressibility (1/GPa) = 0.01199238
#
# Stress axis : x y z
#
# Youngs Moduli (GPa) = 54.86371 106.47902 49.63306
#
# Poissons Ratio (x) = 0.45212 0.62488
# Poissons Ratio (y) = 0.23296 0.05215
# Poissons Ratio (z) = 0.69074 0.11189
#
# Static dielectric constant tensor:
#      x y z
#    x 1.635540 0.000000 0.000000 
#    y 0.000000 1.704730 0.000000 
#    z 0.000000 0.000000 1.480890 
# 
# From -- ./inp_files/761.got.cif
#   From: 2010.05.17/outbox.cif.g08.bks.cpg/sg48_1_cif.got.tgz:761.got - 2010.06.03 20:39:00.
