data_PCOD9391954
_publ_section_title
;
Structure prediction by ZEFSAII (Michael W. Deem and Ramdas Pophale) SiO2 
 PCOD9391954
Probable space group: P N N N
;
_chemical_formula_sum "Si O2"
_cell_formula_units_Z 40
_cell_length_a 9.000000
_cell_length_b 18.000000
_cell_length_c 12.000000
_cell_angle_alpha 90.000000
_cell_angle_beta 90.000000
_cell_angle_gamma 90.000000
_cell_volume 1944.000000
_symmetry_space_group_name_H-M "P N N N"
_symmetry_group_IT_number 48
_space_group.IT_coordinate_system_code '2'
_symmetry_cell_setting 'orthorhombic'
loop_
_space_group_symop_operation_xyz
x,y,z
1/2-x,1/2-y,z
x,1/2-y,1/2-z
1/2-x,y,1/2-z
-x,-y,-z
1/2+x,1/2+y,-z
-x,1/2+y,1/2+z
1/2+x,-y,1/2+z
loop_
_atom_site_type_symbol
_atom_site_label
_atom_site_fract_x
_atom_site_fract_y
_atom_site_fract_z
Si Si1 0.458794 0.830263 0.945310
Si Si2 0.396105 0.844364 0.526532
Si Si3 0.655587 0.674145 0.351658
Si Si4 0.577565 0.102672 0.720231
Si Si5 0.072092 0.941036 0.760015
O O1 0.452794 0.739301 0.942896
O O2 0.285429 0.846028 0.979130
O O3 0.475023 0.880334 0.834009
O O4 0.597743 0.851668 0.026720
O O5 0.449811 0.873123 0.407032
O O6 0.450186 0.900894 0.621375
O O7 0.750000 0.750000 0.367005
O O8 0.750000 0.635019 0.250000
O O9 0.495104 0.668752 0.292922
O O10 0.750000 0.098413 0.750000
O O11 0.507521 0.021259 0.746787
O O12 0.250000 0.951955 0.750000
#
# Coordination Sequence:
#
# PCOD9391954 Si02
#       5
#     8   8   8   8   8
#     4  10  21  41  68  99 132 178 235 288 343 423
#     4  10  20  41  71  98 130 179 231 288 346 422
#     4  11  23  42  63  97 131 178 227 287 348 411
#     4  12  24  44  67 101 141 180 229 296 356 421
#     4  10  23  43  68 100 136 182 225 281 359 436
#
# _framework density 20.576132000000001
#
# number of rings (size 3 to 8) (size 9 to 14) (size 15 to 20)
#    0.000    1.400    2.000    4.200    0.000    3.200 
#   10.800    0.000    0.000    0.000    0.000    0.000 
#    0.000    0.000    0.000    0.000    0.000    0.000 
#
# Total GULP energy -222769.892322 kJ/mol
# GULP energy per Si atom -5569.247308 kJ/mol
# Density = 2.052930 g / cm^3
# Si number density = 20.576132 Si / 1000 Ang^3
#
#
#
# Elastic Constant Matrix: (Units=GPa)
#
#
# Indices 1 2 3 4 5 6 
#
# 1 89.6503 34.0463 36.1371 0.0000 0.0000 0.0000
# 2 34.0463 120.6084 51.6180 0.0000 0.0000 0.0000
# 3 36.1371 51.6180 140.8347 0.0000 0.0000 0.0000
# 4 0.0000 0.0000 0.0000 18.5701 0.0000 0.0000
# 5 0.0000 0.0000 0.0000 0.0000 39.2168 0.0000
# 6 0.0000 0.0000 0.0000 0.0000 0.0000 42.1506
#
#
#
# Elastic Compliance Matrix: (Units=1/GPa)
#
#
# Indices 1 2 3 4 5 6 
#
# 1 0.013137 -0.002687 -0.002386 0.000000 0.000000 0.000000
# 2 -0.002687 0.010384 -0.003116 0.000000 0.000000 0.000000
# 3 -0.002386 -0.003116 0.008855 0.000000 0.000000 0.000000
# 4 0.000000 0.000000 0.000000 0.053850 0.000000 0.000000
# 5 0.000000 0.000000 0.000000 0.000000 0.025499 0.000000
# 6 0.000000 0.000000 0.000000 0.000000 0.000000 0.023724
#
#
# Mechanical properties :
#
#
# Convention : Reuss Voigt Hill
#
# Bulk Modulus (GPa) = 62.51369 66.07736 64.29553
# Shear Modulus (GPa) = 31.81480 35.27363 33.54422
#
# Velocity S-wave (km/s) = 3.93644 4.14490 4.04201
# Velocity P-wave (km/s) = 7.14901 7.42228 7.28693
#
# Compressibility (1/GPa) = 0.01599650
#
# Stress axis : x y z
#
# Youngs Moduli (GPa) = 76.12270 96.30627 112.93245
#
# Poissons Ratio (x) = 0.25880 0.26944
# Poissons Ratio (y) = 0.20456 0.35192
# Poissons Ratio (z) = 0.18162 0.30011
#
# Static dielectric constant tensor:
#      x y z
#    x 1.770090 0.000000 0.000000 
#    y 0.000000 1.721090 0.000000 
#    z 0.000000 0.000000 1.777960 
# 
# From -- ./inp_files/13797.got.cif
#   From: 2010.05.17/outbox.ucp.g08.bks.cvg/sg48_7_cif.got.tgz:13797.got - 2010.06.11 16:38:40.
