data_PCOD9391978
_publ_section_title
;
Structure prediction by ZEFSAII (Michael W. Deem and Ramdas Pophale) SiO2 
 PCOD9391978
Probable space group: P C C M
;
_chemical_formula_sum "Si O2"
_cell_formula_units_Z 32
_cell_length_a 36.616123
_cell_length_b 7.056351
_cell_length_c 5.545436
_cell_angle_alpha 90.000000
_cell_angle_beta 90.000000
_cell_angle_gamma 90.000000
_cell_volume 1432.808771
_symmetry_space_group_name_H-M "P C C M"
_symmetry_group_IT_number 49
_symmetry_cell_setting 'orthorhombic'
loop_
_space_group_symop_operation_xyz
x,y,z
-x,-y,z
x,-y,1/2-z
-x,y,1/2-z
-x,-y,-z
x,y,-z
-x,y,1/2+z
x,-y,1/2+z
loop_
_atom_site_type_symbol
_atom_site_label
_atom_site_fract_x
_atom_site_fract_y
_atom_site_fract_z
Si Si1 0.177513 0.376163 0.500000
Si Si2 0.514932 0.217214 0.000000
Si Si3 0.601278 0.277690 0.000000
Si Si4 0.252996 0.796143 0.000000
Si Si5 0.368931 0.711882 0.500000
Si Si6 0.014904 0.720425 0.000000
Si Si7 0.095878 0.380818 0.500000
Si Si8 0.282739 0.228570 0.000000
O O1 0.181113 0.500000 0.250000
O O2 0.209294 0.219388 0.500000
O O3 0.136423 0.293015 0.500000
O O4 0.500000 0.298123 0.250000
O O5 0.500000 0.000000 0.000000
O O6 0.558245 0.242009 0.000000
O O7 0.617071 0.202126 0.749577
O O8 0.614314 0.498452 0.000000
O O9 0.266519 0.703110 0.247200
O O10 0.271038 0.005406 0.000000
O O11 0.325444 0.726246 0.500000
O O12 0.058602 0.735470 0.000000
O O13 0.000000 0.500000 0.000000
O O14 0.000000 0.798235 0.250000
O O15 0.094046 0.500000 0.250000
#
# Coordination Sequence:
#
# PCOD9391978 Si02
#       8
#     4   4   4   4   4   4   4   4
#     4  10  21  35  50  77 109 149 184 231 285 342
#     4  10  21  40  62  90 117 157 196 228 264 316
#     4  10  21  40  62  88 125 150 184 229 281 329
#     4  10  21  40  57  84 105 149 186 240 280 336
#     4  10  21  40  59  91 115 152 181 231 287 333
#     4  10  14  20  34  55  81 126 176 212 255 324
#     4  10  16  25  39  59  93 131 179 214 269 329
#     4  10  21  40  65  82 113 142 194 236 282 336
#
# _framework density 22.333756999999999
#
# number of rings (size 3 to 8) (size 9 to 14) (size 15 to 20)
#    0.000    2.000    2.500    2.250    0.000    0.000 
#   13.500   22.500    0.000    0.000    0.000    0.000 
#    0.000    0.000    0.000   13.500    0.000    0.000 
#
# Total GULP energy -178481.293758 kJ/mol
# GULP energy per Si atom -5577.540430 kJ/mol
# Density = 2.228292 g / cm^3
# Si number density = 22.333757 Si / 1000 Ang^3
#
#
#
# Elastic Constant Matrix: (Units=GPa)
#
#
# Indices 1 2 3 4 5 6 
#
# 1 258.2288 29.0571 80.1600 0.0000 0.0000 0.0000
# 2 29.0571 122.1202 13.4695 0.0000 0.0000 0.0000
# 3 80.1600 13.4695 279.5710 0.0000 0.0000 0.0000
# 4 0.0000 0.0000 0.0000 -43.0126 0.0000 0.0000
# 5 0.0000 0.0000 0.0000 0.0000 49.7599 0.0000
# 6 0.0000 0.0000 0.0000 0.0000 0.0000 23.0743
#
#
#
# Elastic Compliance Matrix: (Units=1/GPa)
#
#
# Indices 1 2 3 4 5 6 
#
# 1 0.004347 -0.000902 -0.001203 0.000000 0.000000 0.000000
# 2 -0.000902 0.008419 -0.000147 0.000000 0.000000 0.000000
# 3 -0.001203 -0.000147 0.003929 0.000000 0.000000 0.000000
# 4 0.000000 0.000000 0.000000 -0.023249 0.000000 0.000000
# 5 0.000000 0.000000 0.000000 0.000000 0.020096 0.000000
# 6 0.000000 0.000000 0.000000 0.000000 0.000000 0.043338
#
#
# Mechanical properties :
#
#
# Convention : Reuss Voigt Hill
#
# Bulk Modulus (GPa) = 82.02079 100.58814 91.30446
# Shear Modulus (GPa) = 76.39491 41.77989 59.08740
#
# Velocity S-wave (km/s) = 5.85494 4.32986 5.14917
# Velocity P-wave (km/s) = 9.08360 8.37456 8.73628
#
# Compressibility (1/GPa) = 0.01219203
#
# Stress axis : x y z
#
# Youngs Moduli (GPa) = 230.01906 118.77286 254.52101
#
# Poissons Ratio (x) = 0.10710 0.30621
# Poissons Ratio (y) = 0.20742 0.03744
# Poissons Ratio (z) = 0.27673 0.01747
#
# Static dielectric constant tensor:
#      x y z
#    x 1.820910 0.000000 0.000000 
#    y 0.000000 1.775930 0.000000 
#    z 0.000000 0.000000 1.882890 
# 
# From -- ./inp_files/720.got.cif
#   From: 2010.05.17/outbox.cif.g08.bks.cpg/sg49_1_cif.got.tgz:720.got - 2010.06.03 21:02:19.
