data_PCOD9391523
_publ_section_title
;
Structure prediction by ZEFSAII (Michael W. Deem and Ramdas Pophale) SiO2 
 PCOD9391523
Probable space group: P N N N
;
_chemical_formula_sum "Si O2"
_cell_formula_units_Z 64
_cell_length_a 9.622645
_cell_length_b 11.546473
_cell_length_c 28.889246
_cell_angle_alpha 90.000000
_cell_angle_beta 90.000000
_cell_angle_gamma 90.000000
_cell_volume 3209.815097
_symmetry_space_group_name_H-M "P N N N"
_symmetry_group_IT_number 48
_space_group.IT_coordinate_system_code '2'
_symmetry_cell_setting 'orthorhombic'
loop_
_space_group_symop_operation_xyz
x,y,z
1/2-x,1/2-y,z
x,1/2-y,1/2-z
1/2-x,y,1/2-z
-x,-y,-z
1/2+x,1/2+y,-z
-x,1/2+y,1/2+z
1/2+x,-y,1/2+z
loop_
_atom_site_type_symbol
_atom_site_label
_atom_site_fract_x
_atom_site_fract_y
_atom_site_fract_z
Si Si1 0.199810 0.501266 0.053561
Si Si2 0.220881 0.004211 0.888064
Si Si3 0.588514 0.750990 0.694455
Si Si4 0.147165 0.351162 0.965130
Si Si5 0.188224 0.878054 0.801722
Si Si6 0.972502 0.621291 0.567713
Si Si7 0.984810 0.372905 0.110569
Si Si8 0.618412 0.299324 0.981333
O O1 0.314094 0.411560 0.071434
O O2 0.070428 0.477104 0.086913
O O3 0.290309 0.619649 0.052789
O O4 0.157838 0.457007 0.001880
O O5 0.222508 0.990226 0.832715
O O6 0.070620 0.971099 0.906999
O O7 0.325768 0.899851 0.899282
O O8 0.286646 0.110072 0.916191
O O9 0.750000 0.750000 0.679314
O O10 0.591287 0.750000 0.750000
O O11 0.476691 0.855301 0.688898
O O12 0.522855 0.645605 0.664579
O O13 0.250000 0.250000 0.982825
O O14 0.991251 0.297255 0.963614
O O15 0.250000 0.750000 0.815258
O O16 0.250000 0.893239 0.750000
O O17 0.025885 0.624021 0.515099
O O18 0.984658 0.750518 0.587057
O O19 0.750000 0.250000 0.009803
#
# Coordination Sequence:
#
# PCOD9391523 Si02
#       8
#     8   8   8   8   8   8   8   8
#     4  12  24  39  56  78 113 162 198 242 298 348
#     4  12  23  35  59  85 113 154 197 238 299 360
#     4  11  21  34  55  85 125 156 179 229 291 357
#     4  12  24  41  56  79 114 155 201 250 297 346
#     4  11  19  38  60  89 122 152 182 237 303 355
#     4  12  21  35  56  81 113 150 197 239 287 353
#     4  12  22  36  55  86 115 150 198 237 287 359
#     4  12  24  38  54  78 112 152 200 250 289 337
#
# _framework density 19.938845000000001
#
# number of rings (size 3 to 8) (size 9 to 14) (size 15 to 20)
#    0.000    0.250    7.500    4.125    0.000    1.000 
#    0.000    0.000    0.000    0.375    0.000    0.000 
#    0.000    0.000    0.000    0.000    0.000    0.000 
#
# Total GULP energy -356500.628708 kJ/mol
# GULP energy per Si atom -5570.322324 kJ/mol
# Density = 1.989346 g / cm^3
# Si number density = 19.938845 Si / 1000 Ang^3
#
#
#
# Elastic Constant Matrix: (Units=GPa)
#
#
# Indices 1 2 3 4 5 6 
#
# 1 98.1438 14.2969 19.0300 0.0000 0.0000 0.0000
# 2 14.2969 64.4995 29.1867 0.0000 0.0000 0.0000
# 3 19.0300 29.1867 92.6061 0.0000 0.0000 0.0000
# 4 0.0000 0.0000 0.0000 24.0049 0.0000 0.0000
# 5 0.0000 0.0000 0.0000 0.0000 23.0984 0.0000
# 6 0.0000 0.0000 0.0000 0.0000 0.0000 29.1362
#
#
#
# Elastic Compliance Matrix: (Units=1/GPa)
#
#
# Indices 1 2 3 4 5 6 
#
# 1 0.010754 -0.001614 -0.001701 0.000000 0.000000 0.000000
# 2 -0.001614 0.018325 -0.005444 0.000000 0.000000 0.000000
# 3 -0.001701 -0.005444 0.012864 0.000000 0.000000 0.000000
# 4 0.000000 0.000000 0.000000 0.041658 0.000000 0.000000
# 5 0.000000 0.000000 0.000000 0.000000 0.043293 0.000000
# 6 0.000000 0.000000 0.000000 0.000000 0.000000 0.034322
#
#
# Mechanical properties :
#
#
# Convention : Reuss Voigt Hill
#
# Bulk Modulus (GPa) = 40.94178 42.25295 41.59736
# Shear Modulus (GPa) = 26.75576 28.09694 27.42635
#
# Velocity S-wave (km/s) = 3.66716 3.75794 3.71283
# Velocity P-wave (km/s) = 6.20556 6.32983 6.26801
#
# Compressibility (1/GPa) = 0.02442493
#
# Stress axis : x y z
#
# Youngs Moduli (GPa) = 92.98774 54.56978 77.73761
#
# Poissons Ratio (x) = 0.08807 0.13225
# Poissons Ratio (y) = 0.15007 0.42320
# Poissons Ratio (z) = 0.15820 0.29707
#
# Static dielectric constant tensor:
#      x y z
#    x 1.774640 0.000000 0.000000 
#    y 0.000000 1.781570 0.000000 
#    z 0.000000 0.000000 1.786170 
# 
# From -- ./inp_files/38833.got.cif
#   From: 2010.05.17/outbox.cif.g08.bks.cpg/sg48_20_cif.got.tgz:38833.got - 2010.06.03 20:39:00.
