data_PCOD9391266
_publ_section_title
;
Structure prediction by ZEFSAII (Michael W. Deem and Ramdas Pophale) SiO2 
 PCOD9391266
Probable space group: P N N N
;
_chemical_formula_sum "Si O2"
_cell_formula_units_Z 32
_cell_length_a 7.753998
_cell_length_b 35.043450
_cell_length_c 5.227774
_cell_angle_alpha 90.000000
_cell_angle_beta 90.000000
_cell_angle_gamma 90.000000
_cell_volume 1420.526516
_symmetry_space_group_name_H-M "P N N N"
_symmetry_group_IT_number 48
_space_group.IT_coordinate_system_code '2'
_symmetry_cell_setting 'orthorhombic'
loop_
_space_group_symop_operation_xyz
x,y,z
1/2-x,1/2-y,z
x,1/2-y,1/2-z
1/2-x,y,1/2-z
-x,-y,-z
1/2+x,1/2+y,-z
-x,1/2+y,1/2+z
1/2+x,-y,1/2+z
loop_
_atom_site_type_symbol
_atom_site_label
_atom_site_fract_x
_atom_site_fract_y
_atom_site_fract_z
Si Si1 0.943421 0.110514 0.823774
Si Si2 0.953416 0.975581 0.246734
Si Si3 0.439490 0.151501 0.155245
Si Si4 0.445220 0.732871 0.505687
O O1 0.750000 0.122413 0.750000
O O2 0.955321 0.064975 0.796312
O O3 0.067475 0.126025 0.599512
O O4 0.983743 0.127735 0.104249
O O5 0.750000 0.968145 0.250000
O O6 0.000000 0.000000 0.500000
O O7 0.000000 0.000000 0.000000
O O8 0.250000 0.163493 0.250000
O O9 0.548489 0.188020 0.058273
O O10 0.250000 0.750000 0.502905
O O11 0.536909 0.750000 0.750000
O O12 0.525227 0.750000 0.250000
#
# Coordination Sequence:
#
# PCOD9391266 Si02
#       4
#     8   8   8   8
#     4  12  27  45  73 106 143 194 243 289 366 432
#     4  12  25  46  73 105 149 190 241 296 354 429
#     4  12  26  46  71 106 145 184 238 310 364 425
#     4  10  23  41  70  97 133 177 237 280 365 418
#
# _framework density 22.526861
#
# number of rings (size 3 to 8) (size 9 to 14) (size 15 to 20)
#    0.000    0.500    0.000    8.250   10.500    0.500 
#    0.000    1.250    0.000    0.000    0.000    0.000 
#    0.000    0.000    0.000    0.000    0.000    0.000 
#
# Total GULP energy -178831.377406 kJ/mol
# GULP energy per Si atom -5588.480544 kJ/mol
# Density = 2.247559 g / cm^3
# Si number density = 22.526861 Si / 1000 Ang^3
#
#
#
# Elastic Constant Matrix: (Units=GPa)
#
#
# Indices 1 2 3 4 5 6 
#
# 1 107.8780 20.1903 17.7557 0.0000 0.0000 0.0000
# 2 20.1903 194.1567 92.4491 0.0000 0.0000 0.0000
# 3 17.7557 92.4491 239.9986 0.0000 0.0000 0.0000
# 4 0.0000 0.0000 0.0000 48.4505 0.0000 0.0000
# 5 0.0000 0.0000 0.0000 0.0000 24.5269 0.0000
# 6 0.0000 0.0000 0.0000 0.0000 0.0000 25.4273
#
#
#
# Elastic Compliance Matrix: (Units=1/GPa)
#
#
# Indices 1 2 3 4 5 6 
#
# 1 0.009484 -0.000799 -0.000394 0.000000 0.000000 0.000000
# 2 -0.000799 0.006375 -0.002396 0.000000 0.000000 0.000000
# 3 -0.000394 -0.002396 0.005119 0.000000 0.000000 0.000000
# 4 0.000000 0.000000 0.000000 0.020640 0.000000 0.000000
# 5 0.000000 0.000000 0.000000 0.000000 0.040771 0.000000
# 6 0.000000 0.000000 0.000000 0.000000 0.000000 0.039328
#
#
# Mechanical properties :
#
#
# Convention : Reuss Voigt Hill
#
# Bulk Modulus (GPa) = 72.46679 89.20263 80.83471
# Shear Modulus (GPa) = 37.45468 47.12349 42.28909
#
# Velocity S-wave (km/s) = 4.08201 4.57867 4.33745
# Velocity P-wave (km/s) = 7.37943 8.22415 7.81321
#
# Compressibility (1/GPa) = 0.01379942
#
# Stress axis : x y z
#
# Youngs Moduli (GPa) = 105.44020 156.87207 195.35156
#
# Poissons Ratio (x) = 0.12528 0.07697
# Poissons Ratio (y) = 0.08421 0.46815
# Poissons Ratio (z) = 0.04155 0.37594
#
# Static dielectric constant tensor:
#      x y z
#    x 1.805570 0.000000 0.000000 
#    y 0.000000 1.999700 0.000000 
#    z 0.000000 0.000000 1.834920 
# 
# From -- ./inp_files/1030.got.cif
#   From: 2010.05.17/outbox.cif.g08.bks.cpg/sg48_1_cif.got.tgz:1030.got - 2010.06.03 20:39:00.
