data_PCOD9391740
_publ_section_title
;
Structure prediction by ZEFSAII (Michael W. Deem and Ramdas Pophale) SiO2 
 PCOD9391740
Probable space group: P N N N
;
_chemical_formula_sum "Si O2"
_cell_formula_units_Z 34
_cell_length_a 8.518633
_cell_length_b 15.913773
_cell_length_c 11.016013
_cell_angle_alpha 90.000000
_cell_angle_beta 90.000000
_cell_angle_gamma 90.000000
_cell_volume 1493.370290
_symmetry_space_group_name_H-M "P N N N"
_symmetry_group_IT_number 48
_space_group.IT_coordinate_system_code '2'
_symmetry_cell_setting 'orthorhombic'
loop_
_space_group_symop_operation_xyz
x,y,z
1/2-x,1/2-y,z
x,1/2-y,1/2-z
1/2-x,y,1/2-z
-x,-y,-z
1/2+x,1/2+y,-z
-x,1/2+y,1/2+z
1/2+x,-y,1/2+z
loop_
_atom_site_type_symbol
_atom_site_label
_atom_site_fract_x
_atom_site_fract_y
_atom_site_fract_z
Si Si1 0.250000 0.750000 0.250000
Si Si2 0.140503 0.920854 0.867995
Si Si3 0.573086 0.722019 0.977119
Si Si4 0.925443 0.902915 0.201924
Si Si5 0.141154 0.630471 0.068059
O O1 0.274704 0.679730 0.144419
O O2 0.250000 0.905793 0.750000
O O3 0.044214 0.007218 0.859050
O O4 0.266189 0.928870 0.977988
O O5 0.021089 0.844039 0.892953
O O6 0.750000 0.750000 0.941161
O O7 0.584587 0.675121 0.108501
O O8 0.464660 0.804303 0.992187
O O9 0.750000 0.909524 0.250000
O O10 0.029974 0.898293 0.323010
#
# Coordination Sequence:
#
# PCOD9391740 Si02
#       5
#     2   8   8   8   8
#     4  12  20  36  72 108 124 176 240 294 336 436
#     4  11  27  47  71 102 159 198 236 296 384 448
#     4  12  23  43  76 107 141 180 254 310 359 425
#     4  11  23  42  75 110 146 182 247 317 364 430
#     4  12  22  42  76 104 136 195 245 297 361 440
#
# _framework density 22.767294
#
# number of rings (size 3 to 8) (size 9 to 14) (size 15 to 20)
#    0.000    0.471    7.059    0.706    0.000    5.647 
#    0.000    2.353    0.000    0.000    0.000    0.000 
#    0.000    0.000    0.000    0.000    0.000    0.000 
#
# Total GULP energy -189305.677612 kJ/mol
# GULP energy per Si atom -5567.814047 kJ/mol
# Density = 2.271547 g / cm^3
# Si number density = 22.767294 Si / 1000 Ang^3
#
#
#
# Elastic Constant Matrix: (Units=GPa)
#
#
# Indices 1 2 3 4 5 6 
#
# 1 97.1678 13.2518 4.5481 0.0000 0.0000 0.0000
# 2 13.2518 66.4894 -5.0844 0.0000 0.0000 0.0000
# 3 4.5481 -5.0844 69.1060 0.0000 0.0000 0.0000
# 4 0.0000 0.0000 0.0000 53.1257 0.0000 0.0000
# 5 0.0000 0.0000 0.0000 0.0000 26.7592 0.0000
# 6 0.0000 0.0000 0.0000 0.0000 0.0000 31.6039
#
#
#
# Elastic Compliance Matrix: (Units=1/GPa)
#
#
# Indices 1 2 3 4 5 6 
#
# 1 0.010630 -0.002184 -0.000860 0.000000 0.000000 0.000000
# 2 -0.002184 0.015574 0.001290 0.000000 0.000000 0.000000
# 3 -0.000860 0.001290 0.014622 0.000000 0.000000 0.000000
# 4 0.000000 0.000000 0.000000 0.018823 0.000000 0.000000
# 5 0.000000 0.000000 0.000000 0.000000 0.037370 0.000000
# 6 0.000000 0.000000 0.000000 0.000000 0.000000 0.031642
#
#
# Mechanical properties :
#
#
# Convention : Reuss Voigt Hill
#
# Bulk Modulus (GPa) = 26.79847 28.68824 27.74336
# Shear Modulus (GPa) = 34.57586 36.96759 35.77173
#
# Velocity S-wave (km/s) = 3.90123 4.03391 3.96812
# Velocity P-wave (km/s) = 5.66471 5.85871 5.76253
#
# Compressibility (1/GPa) = 0.03731556
#
# Stress axis : x y z
#
# Youngs Moduli (GPa) = 94.07651 64.20971 68.39000
#
# Poissons Ratio (x) = 0.14026 0.05884
# Poissons Ratio (y) = 0.20550 -0.08820
# Poissons Ratio (z) = 0.08093 -0.08280
#
# Static dielectric constant tensor:
#      x y z
#    x 1.953690 0.000000 0.000000 
#    y 0.000000 1.927220 0.000000 
#    z 0.000000 0.000000 1.854070 
# 
# From -- ./inp_files/18224.got.cif
#   From: 2010.05.17/outbox.cif.g08.bks.cpg/sg48_10_cif.got.tgz:18224.got - 2010.06.03 20:39:00.
