data_PCOD9391395
_publ_section_title
;
Structure prediction by ZEFSAII (Michael W. Deem and Ramdas Pophale) SiO2 
 PCOD9391395
Probable space group: P N N N
;
_chemical_formula_sum "Si O2"
_cell_formula_units_Z 32
_cell_length_a 5.013602
_cell_length_b 20.650891
_cell_length_c 12.213270
_cell_angle_alpha 90.000000
_cell_angle_beta 90.000000
_cell_angle_gamma 90.000000
_cell_volume 1264.505165
_symmetry_space_group_name_H-M "P N N N"
_symmetry_group_IT_number 48
_space_group.IT_coordinate_system_code '2'
_symmetry_cell_setting 'orthorhombic'
loop_
_space_group_symop_operation_xyz
x,y,z
1/2-x,1/2-y,z
x,1/2-y,1/2-z
1/2-x,y,1/2-z
-x,-y,-z
1/2+x,1/2+y,-z
-x,1/2+y,1/2+z
1/2+x,-y,1/2+z
loop_
_atom_site_type_symbol
_atom_site_label
_atom_site_fract_x
_atom_site_fract_y
_atom_site_fract_z
Si Si1 0.068603 0.860208 0.892596
Si Si2 0.250000 0.042277 0.750000
Si Si3 0.250000 0.250000 0.750000
Si Si4 0.250000 0.250000 0.250000
Si Si5 0.942696 0.952624 0.606513
Si Si6 0.929158 0.356595 0.642350
O O1 0.939195 0.798639 0.825773
O O2 0.838636 0.915849 0.896930
O O3 0.344889 0.895679 0.862152
O O4 0.154590 0.846712 0.018955
O O5 0.353841 0.086757 0.651567
O O6 0.008474 0.001316 0.704142
O O7 0.429281 0.208772 0.672467
O O8 0.000000 0.000000 0.500000
O O9 0.750000 0.368583 0.750000
#
# Coordination Sequence:
#
# PCOD9391395 Si02
#       6
#     8   4   2   2   8   8
#     4  12  28  49  79 110 161 215 271 340 410 510
#     4  11  24  39  72 105 152 185 260 324 410 487
#     4  10  24  44  64 104 132 186 252 318 398 472
#     4  12  30  58  80 120 172 234 298 334 436 534
#     4  12  25  47  74 116 155 209 265 343 424 489
#     4  11  24  44  72 107 142 200 254 339 404 480
#
# _framework density 25.306342000000001
#
# number of rings (size 3 to 8) (size 9 to 14) (size 15 to 20)
#    0.000    0.500    2.500    4.875    7.000    2.000 
#    4.500    0.000    0.000    0.000    0.000    0.000 
#    0.000    0.000    0.000    0.000    0.000    0.000 
#
# Total GULP energy -178551.054903 kJ/mol
# GULP energy per Si atom -5579.720466 kJ/mol
# Density = 2.524874 g / cm^3
# Si number density = 25.306342 Si / 1000 Ang^3
#
#
#
# Elastic Constant Matrix: (Units=GPa)
#
#
# Indices 1 2 3 4 5 6 
#
# 1 105.6965 24.0468 6.3451 0.0000 0.0000 0.0000
# 2 24.0468 127.2487 44.6346 0.0000 0.0000 0.0000
# 3 6.3451 44.6346 136.1111 0.0000 0.0000 0.0000
# 4 0.0000 0.0000 0.0000 68.9870 0.0000 0.0000
# 5 0.0000 0.0000 0.0000 0.0000 35.2777 0.0000
# 6 0.0000 0.0000 0.0000 0.0000 0.0000 60.8253
#
#
#
# Elastic Compliance Matrix: (Units=1/GPa)
#
#
# Indices 1 2 3 4 5 6 
#
# 1 0.009890 -0.001929 0.000172 0.000000 0.000000 0.000000
# 2 -0.001929 0.009256 -0.002945 0.000000 0.000000 0.000000
# 3 0.000172 -0.002945 0.008305 0.000000 0.000000 0.000000
# 4 0.000000 0.000000 0.000000 0.014495 0.000000 0.000000
# 5 0.000000 0.000000 0.000000 0.000000 0.028347 0.000000
# 6 0.000000 0.000000 0.000000 0.000000 0.000000 0.016441
#
#
# Mechanical properties :
#
#
# Convention : Reuss Voigt Hill
#
# Bulk Modulus (GPa) = 55.41746 57.67882 56.54814
# Shear Modulus (GPa) = 48.94555 52.61997 50.78276
#
# Velocity S-wave (km/s) = 4.40264 4.56490 4.48450
# Velocity P-wave (km/s) = 6.91306 7.11521 7.01486
#
# Compressibility (1/GPa) = 0.01804485
#
# Stress axis : x y z
#
# Youngs Moduli (GPa) = 101.11597 108.03394 120.41154
#
# Poissons Ratio (x) = 0.20841 -0.02066
# Poissons Ratio (y) = 0.19506 0.35467
# Poissons Ratio (z) = -0.01735 0.31821
#
# Static dielectric constant tensor:
#      x y z
#    x 0.821720 0.000000 0.000000 
#    y 0.000000 1.984140 0.000000 
#    z 0.000000 0.000000 1.109610 
# 
# From -- ./inp_files/2000.got.cif
#   From: 2010.05.17/outbox.cif.g08.bks.cpg/sg48_1_cif.got.tgz:2000.got - 2010.06.03 20:39:00.
