data_PCOD9391869
_publ_section_title
;
Structure prediction by ZEFSAII (Michael W. Deem and Ramdas Pophale) SiO2 
 PCOD9391869
Probable space group: P N N N
;
_chemical_formula_sum "Si O2"
_cell_formula_units_Z 48
_cell_length_a 8.980251
_cell_length_b 19.459698
_cell_length_c 12.177560
_cell_angle_alpha 90.000000
_cell_angle_beta 90.000000
_cell_angle_gamma 90.000000
_cell_volume 2128.064807
_symmetry_space_group_name_H-M "P N N N"
_symmetry_group_IT_number 48
_space_group.IT_coordinate_system_code '2'
_symmetry_cell_setting 'orthorhombic'
loop_
_space_group_symop_operation_xyz
x,y,z
1/2-x,1/2-y,z
x,1/2-y,1/2-z
1/2-x,y,1/2-z
-x,-y,-z
1/2+x,1/2+y,-z
-x,1/2+y,1/2+z
1/2+x,-y,1/2+z
loop_
_atom_site_type_symbol
_atom_site_label
_atom_site_fract_x
_atom_site_fract_y
_atom_site_fract_z
Si Si1 0.546129 0.466747 0.380351
Si Si2 0.231720 0.089074 0.869430
Si Si3 0.996388 0.250000 0.750000
Si Si4 0.689536 0.179700 0.080981
Si Si5 0.750000 0.005352 0.750000
Si Si6 0.107932 0.623848 0.383253
Si Si7 0.621308 0.707005 0.478360
O O1 0.500000 0.500000 0.500000
O O2 0.679194 0.519229 0.351745
O O3 0.626218 0.392180 0.370641
O O4 0.399196 0.469370 0.300533
O O5 0.250000 0.124250 0.750000
O O6 0.320841 0.130669 0.961291
O O7 0.059535 0.095353 0.901694
O O8 0.906210 0.318664 0.713898
O O9 0.091324 0.237728 0.641623
O O10 0.750000 0.250000 0.136129
O O11 0.808434 0.156939 0.987086
O O12 0.537516 0.207656 0.030038
O O13 0.698233 0.057353 0.654617
O O14 0.750000 0.750000 0.535709
#
# Coordination Sequence:
#
# PCOD9391869 Si02
#       7
#     8   8   4   8   4   8   8
#     4  12  25  45  69  99 145 183 240 305 364 447
#     4  12  21  38  62  98 134 182 231 280 356 438
#     4  12  19  29  52  92 140 182 214 260 350 458
#     4  12  25  43  63 100 141 184 238 302 366 444
#     4  12  24  43  64 102 141 192 232 292 368 438
#     4  12  23  35  64  99 143 188 223 275 371 455
#     4  12  20  34  58  92 142 181 218 278 357 448
#
# _framework density 22.555705
#
# number of rings (size 3 to 8) (size 9 to 14) (size 15 to 20)
#    0.000    0.000   10.000    1.250    0.000    1.333 
#    0.000    0.000    0.000    0.500    0.000    0.000 
#    0.000    0.000    0.000    0.000    0.000    0.000 
#
# Total GULP energy -267529.406394 kJ/mol
# GULP energy per Si atom -5573.529300 kJ/mol
# Density = 2.250437 g / cm^3
# Si number density = 22.555705 Si / 1000 Ang^3
#
#
#
# Elastic Constant Matrix: (Units=GPa)
#
#
# Indices 1 2 3 4 5 6 
#
# 1 204.4712 82.3601 43.9497 0.0000 0.0000 0.0000
# 2 82.3601 150.8357 18.3283 0.0000 0.0000 0.0000
# 3 43.9497 18.3283 49.1794 0.0000 0.0000 0.0000
# 4 0.0000 0.0000 0.0000 16.2428 0.0000 0.0000
# 5 0.0000 0.0000 0.0000 0.0000 6.2283 0.0000
# 6 0.0000 0.0000 0.0000 0.0000 0.0000 40.6604
#
#
#
# Elastic Compliance Matrix: (Units=1/GPa)
#
#
# Indices 1 2 3 4 5 6 
#
# 1 0.007409 -0.003395 -0.005356 0.000000 0.000000 0.000000
# 2 -0.003395 0.008500 -0.000134 0.000000 0.000000 0.000000
# 3 -0.005356 -0.000134 0.025170 0.000000 0.000000 0.000000
# 4 0.000000 0.000000 0.000000 0.061566 0.000000 0.000000
# 5 0.000000 0.000000 0.000000 0.000000 0.160556 0.000000
# 6 0.000000 0.000000 0.000000 0.000000 0.000000 0.024594
#
#
# Mechanical properties :
#
#
# Convention : Reuss Voigt Hill
#
# Bulk Modulus (GPa) = 42.90109 77.08472 59.99291
# Shear Modulus (GPa) = 15.95736 29.94953 22.95344
#
# Velocity S-wave (km/s) = 2.66271 3.64786 3.19350
# Velocity P-wave (km/s) = 5.33991 7.21054 6.34455
#
# Compressibility (1/GPa) = 0.02330943
#
# Stress axis : x y z
#
# Youngs Moduli (GPa) = 134.96380 117.65153 39.72937
#
# Poissons Ratio (x) = 0.39941 0.21280
# Poissons Ratio (y) = 0.45818 0.00532
# Poissons Ratio (z) = 0.72290 0.01575
#
# Static dielectric constant tensor:
#      x y z
#    x 1.975380 0.000000 0.000000 
#    y 0.000000 1.916760 0.000000 
#    z 0.000000 0.000000 1.891180 
# 
# From -- ./inp_files/25433.got.cif
#   From: 2010.05.17/outbox.cif.g08.bks.cpg/sg48_13_cif.got.tgz:25433.got - 2010.06.03 20:39:00.
