data_PCOD9391680
_publ_section_title
;
Structure prediction by ZEFSAII (Michael W. Deem and Ramdas Pophale) SiO2 
 PCOD9391680
Probable space group: P N N N
;
_chemical_formula_sum "Si O2"
_cell_formula_units_Z 40
_cell_length_a 16.384859
_cell_length_b 11.437429
_cell_length_c 9.013770
_cell_angle_alpha 90.000000
_cell_angle_beta 90.000000
_cell_angle_gamma 90.000000
_cell_volume 1689.186460
_symmetry_space_group_name_H-M "P N N N"
_symmetry_group_IT_number 48
_space_group.IT_coordinate_system_code '2'
_symmetry_cell_setting 'orthorhombic'
loop_
_space_group_symop_operation_xyz
x,y,z
1/2-x,1/2-y,z
x,1/2-y,1/2-z
1/2-x,y,1/2-z
-x,-y,-z
1/2+x,1/2+y,-z
-x,1/2+y,1/2+z
1/2+x,-y,1/2+z
loop_
_atom_site_type_symbol
_atom_site_label
_atom_site_fract_x
_atom_site_fract_y
_atom_site_fract_z
Si Si1 0.109168 0.231400 0.524133
Si Si2 0.002179 0.451192 0.833093
Si Si3 0.149999 0.866657 0.162035
Si Si4 0.046893 0.665457 0.632148
Si Si5 0.242286 0.410925 0.421292
O O1 0.055196 0.166498 0.650367
O O2 0.172704 0.341924 0.516937
O O3 0.171338 0.126171 0.486379
O O4 0.040530 0.276291 0.408801
O O5 0.038264 0.541079 0.712574
O O6 0.910726 0.432587 0.774738
O O7 0.000000 0.500000 0.000000
O O8 0.171216 0.750000 0.250000
O O9 0.218641 0.953516 0.097580
O O10 0.094975 0.838532 0.019808
O O11 0.088923 0.750000 0.750000
O O12 0.250000 0.370511 0.250000
#
# Coordination Sequence:
#
# PCOD9391680 Si02
#       5
#     8   8   8   8   8
#     4  11  22  42  72 109 143 196 256 322 386 461
#     4  12  23  39  71 110 148 184 256 320 385 459
#     4  12  25  44  73 111 145 203 261 329 387 483
#     4  12  23  43  72 108 146 194 262 325 390 461
#     4  11  24  42  71 104 153 200 258 314 402 478
#
# _framework density 23.680039000000001
#
# number of rings (size 3 to 8) (size 9 to 14) (size 15 to 20)
#    0.000    0.400    6.000    4.200    0.000    0.400 
#    0.000    1.000    4.400    1.200    0.000    0.000 
#    0.000    0.000    0.000    0.000    0.000    0.000 
#
# Total GULP energy -223332.463425 kJ/mol
# GULP energy per Si atom -5583.311586 kJ/mol
# Density = 2.362614 g / cm^3
# Si number density = 23.680039 Si / 1000 Ang^3
#
#
#
# Elastic Constant Matrix: (Units=GPa)
#
#
# Indices 1 2 3 4 5 6 
#
# 1 91.3631 43.5327 65.5736 0.0000 0.0000 0.0000
# 2 43.5327 167.6666 81.8560 0.0000 0.0000 0.0000
# 3 65.5736 81.8560 108.1646 0.0000 0.0000 0.0000
# 4 0.0000 0.0000 0.0000 66.9380 0.0000 0.0000
# 5 0.0000 0.0000 0.0000 0.0000 46.1894 0.0000
# 6 0.0000 0.0000 0.0000 0.0000 0.0000 51.9160
#
#
#
# Elastic Compliance Matrix: (Units=1/GPa)
#
#
# Indices 1 2 3 4 5 6 
#
# 1 0.019509 0.001124 -0.012678 0.000000 0.000000 0.000000
# 2 0.001124 0.009524 -0.007889 0.000000 0.000000 0.000000
# 3 -0.012678 -0.007889 0.022901 0.000000 0.000000 0.000000
# 4 0.000000 0.000000 0.000000 0.014939 0.000000 0.000000
# 5 0.000000 0.000000 0.000000 0.000000 0.021650 0.000000
# 6 0.000000 0.000000 0.000000 0.000000 0.000000 0.019262
#
#
# Mechanical properties :
#
#
# Convention : Reuss Voigt Hill
#
# Bulk Modulus (GPa) = 76.63595 83.23544 79.93570
# Shear Modulus (GPa) = 33.10846 44.75748 38.93297
#
# Velocity S-wave (km/s) = 3.74325 4.35224 4.05918
# Velocity P-wave (km/s) = 7.14954 7.77704 7.46988
#
# Compressibility (1/GPa) = 0.01304871
#
# Stress axis : x y z
#
# Youngs Moduli (GPa) = 51.25880 105.00116 43.66645
#
# Poissons Ratio (x) = -0.11803 0.55359
# Poissons Ratio (y) = -0.05762 0.34447
# Poissons Ratio (z) = 0.64984 0.82833
#
# Static dielectric constant tensor:
#      x y z
#    x 1.951470 0.000000 0.000000 
#    y 0.000000 1.992380 0.000000 
#    z 0.000000 0.000000 1.939240 
# 
# From -- ./inp_files/13827.got.cif
#   From: 2010.05.17/outbox.cif.g08.bks.cpg/sg48_7_cif.got.tgz:13827.got - 2010.06.03 20:39:00.
