data_PCOD9391107
_publ_section_title
;
Structure prediction by ZEFSAII (Michael W. Deem and Ramdas Pophale) SiO2 
 PCOD9391107
Probable space group: P N N N
;
_chemical_formula_sum "Si O2"
_cell_formula_units_Z 24
_cell_length_a 6.963676
_cell_length_b 19.552935
_cell_length_c 8.466256
_cell_angle_alpha 90.000000
_cell_angle_beta 90.000000
_cell_angle_gamma 90.000000
_cell_volume 1152.767992
_symmetry_space_group_name_H-M "P N N N"
_symmetry_group_IT_number 48
_space_group.IT_coordinate_system_code '2'
_symmetry_cell_setting 'orthorhombic'
loop_
_space_group_symop_operation_xyz
x,y,z
1/2-x,1/2-y,z
x,1/2-y,1/2-z
1/2-x,y,1/2-z
-x,-y,-z
1/2+x,1/2+y,-z
-x,1/2+y,1/2+z
1/2+x,-y,1/2+z
loop_
_atom_site_type_symbol
_atom_site_label
_atom_site_fract_x
_atom_site_fract_y
_atom_site_fract_z
Si Si1 0.403204 0.054202 0.118910
Si Si2 0.250000 0.639930 0.750000
Si Si3 0.851549 0.686131 0.081072
Si Si4 0.750000 0.250000 0.990000
O O1 0.250000 0.028407 0.250000
O O2 0.574970 0.091540 0.208774
O O3 0.322435 0.116302 0.012572
O O4 0.500000 0.000000 0.000000
O O5 0.315605 0.689372 0.892375
O O6 0.750000 0.750000 0.995580
O O7 0.750000 0.678562 0.250000
O O8 0.072727 0.711970 0.096418
#
# Coordination Sequence:
#
# PCOD9391107 Si02
#       4
#     8   4   8   4
#     4  11  25  45  66  96 132 180 223 273 336 407
#     4   9  20  40  70  92 123 174 218 272 329 398
#     4  10  22  41  65  99 132 170 218 282 332 396
#     4   9  18  39  66  98 125 165 220 270 332 394
#
# _framework density 20.819452999999999
#
# number of rings (size 3 to 8) (size 9 to 14) (size 15 to 20)
#    0.000    2.000    0.000    2.000    2.333    7.333 
#   24.000    0.000    0.000    0.000    0.000    0.000 
#    0.000    0.000    0.000    0.000    0.000    0.000 
#
# Total GULP energy -133787.802566 kJ/mol
# GULP energy per Si atom -5574.491774 kJ/mol
# Density = 2.077207 g / cm^3
# Si number density = 20.819453 Si / 1000 Ang^3
#
#
#
# Elastic Constant Matrix: (Units=GPa)
#
#
# Indices 1 2 3 4 5 6 
#
# 1 101.5924 42.7768 68.6989 0.0000 0.0000 0.0000
# 2 42.7768 133.8878 63.2113 0.0000 0.0000 0.0000
# 3 68.6989 63.2113 118.8220 0.0000 0.0000 0.0000
# 4 0.0000 0.0000 0.0000 54.2215 0.0000 0.0000
# 5 0.0000 0.0000 0.0000 0.0000 43.9908 0.0000
# 6 0.0000 0.0000 0.0000 0.0000 0.0000 41.9722
#
#
#
# Elastic Compliance Matrix: (Units=1/GPa)
#
#
# Indices 1 2 3 4 5 6 
#
# 1 0.016264 -0.001011 -0.008866 0.000000 0.000000 0.000000
# 2 -0.001011 0.010037 -0.004755 0.000000 0.000000 0.000000
# 3 -0.008866 -0.004755 0.016071 0.000000 0.000000 0.000000
# 4 0.000000 0.000000 0.000000 0.018443 0.000000 0.000000
# 5 0.000000 0.000000 0.000000 0.000000 0.022732 0.000000
# 6 0.000000 0.000000 0.000000 0.000000 0.000000 0.023825
#
#
# Mechanical properties :
#
#
# Convention : Reuss Voigt Hill
#
# Bulk Modulus (GPa) = 76.28102 78.18624 77.23363
# Shear Modulus (GPa) = 35.45978 40.01124 37.73551
#
# Velocity S-wave (km/s) = 4.13147 4.38861 4.26198
# Velocity P-wave (km/s) = 7.71217 7.95713 7.83560
#
# Compressibility (1/GPa) = 0.01310942
#
# Stress axis : x y z
#
# Youngs Moduli (GPa) = 61.48578 99.63312 62.22240
#
# Poissons Ratio (x) = 0.10069 0.55164
# Poissons Ratio (y) = 0.06214 0.29587
# Poissons Ratio (z) = 0.54511 0.47377
#
# Static dielectric constant tensor:
#      x y z
#    x 1.785010 0.000000 0.000000 
#    y 0.000000 1.742520 0.000000 
#    z 0.000000 0.000000 1.775770 
# 
# From -- ./inp_files/7398.got.cif
#   From: 2010.05.17/outbox.cif.g08.bks.cpg/sg48_4_cif.got.tgz:7398.got - 2010.06.03 20:39:00.
