data_PCOD9391761
_publ_section_title
;
Structure prediction by ZEFSAII (Michael W. Deem and Ramdas Pophale) SiO2 
 PCOD9391761
Probable space group: P N N N
;
_chemical_formula_sum "Si O2"
_cell_formula_units_Z 48
_cell_length_a 9.079322
_cell_length_b 17.738355
_cell_length_c 13.886688
_cell_angle_alpha 90.000000
_cell_angle_beta 90.000000
_cell_angle_gamma 90.000000
_cell_volume 2236.482164
_symmetry_space_group_name_H-M "P N N N"
_symmetry_group_IT_number 48
_space_group.IT_coordinate_system_code '2'
_symmetry_cell_setting 'orthorhombic'
loop_
_space_group_symop_operation_xyz
x,y,z
1/2-x,1/2-y,z
x,1/2-y,1/2-z
1/2-x,y,1/2-z
-x,-y,-z
1/2+x,1/2+y,-z
-x,1/2+y,1/2+z
1/2+x,-y,1/2+z
loop_
_atom_site_type_symbol
_atom_site_label
_atom_site_fract_x
_atom_site_fract_y
_atom_site_fract_z
Si Si1 0.919186 0.228042 0.647837
Si Si2 0.135415 0.946749 0.341899
Si Si3 0.399671 0.956688 0.721758
Si Si4 0.328893 0.479575 0.981439
Si Si5 0.404993 0.183965 0.305740
Si Si6 0.364520 0.194146 0.520459
O O1 0.750000 0.250000 0.652147
O O2 0.989337 0.250000 0.750000
O O3 0.922320 0.137640 0.632722
O O4 0.985276 0.286796 0.572294
O O5 0.250000 0.942008 0.250000
O O6 0.222184 0.981590 0.436659
O O7 0.996270 0.995362 0.299741
O O8 0.250000 0.913572 0.750000
O O9 0.514414 0.894745 0.686292
O O10 0.327983 0.002566 0.632833
O O11 0.500000 0.500000 0.000000
O O12 0.308054 0.390289 0.984839
O O13 0.488493 0.250000 0.250000
O O14 0.250000 0.171520 0.250000
O O15 0.385019 0.216560 0.410747
O O16 0.250000 0.250000 0.569634
#
# Coordination Sequence:
#
# PCOD9391761 Si02
#       6
#     8   8   8   8   8   8
#     4  11  24  44  67 101 140 182 230 284 351 412
#     4  12  23  45  74  98 138 189 237 289 350 432
#     4  12  28  44  68 106 144 179 236 297 355 422
#     4  12  24  45  75 101 134 190 236 283 355 427
#     4  11  23  47  73  98 137 190 236 282 359 424
#     4  12  25  44  71 101 136 181 234 285 341 423
#
# _framework density 21.462277
#
# number of rings (size 3 to 8) (size 9 to 14) (size 15 to 20)
#    0.000    0.333    6.667    3.500    2.333    2.667 
#    0.000    0.000    0.000    0.000    0.000    0.000 
#    0.000    0.000    0.000    0.000    0.000    0.000 
#
# Total GULP energy -267238.235951 kJ/mol
# GULP energy per Si atom -5567.463249 kJ/mol
# Density = 2.141343 g / cm^3
# Si number density = 21.462277 Si / 1000 Ang^3
#
#
#
# Elastic Constant Matrix: (Units=GPa)
#
#
# Indices 1 2 3 4 5 6 
#
# 1 58.3879 -2.3304 26.5882 0.0000 0.0000 0.0000
# 2 -2.3304 119.2865 26.8543 0.0000 0.0000 0.0000
# 3 26.5882 26.8543 110.4458 0.0000 0.0000 0.0000
# 4 0.0000 0.0000 0.0000 28.9805 0.0000 0.0000
# 5 0.0000 0.0000 0.0000 0.0000 21.4867 0.0000
# 6 0.0000 0.0000 0.0000 0.0000 0.0000 0.2523
#
#
#
# Elastic Compliance Matrix: (Units=1/GPa)
#
#
# Indices 1 2 3 4 5 6 
#
# 1 0.019493 0.001520 -0.005062 0.000000 0.000000 0.000000
# 2 0.001520 0.008987 -0.002551 0.000000 0.000000 0.000000
# 3 -0.005062 -0.002551 0.010893 0.000000 0.000000 0.000000
# 4 0.000000 0.000000 0.000000 0.034506 0.000000 0.000000
# 5 0.000000 0.000000 0.000000 0.000000 0.046540 0.000000
# 6 0.000000 0.000000 0.000000 0.000000 0.000000 3.963736
#
#
# Mechanical properties :
#
#
# Convention : Reuss Voigt Hill
#
# Bulk Modulus (GPa) = 36.78222 43.37161 40.07691
# Shear Modulus (GPa) = 1.21791 25.94442 13.58117
#
# Velocity S-wave (km/s) = 0.75412 3.48061 2.51827
# Velocity P-wave (km/s) = 4.23480 6.03366 5.21242
#
# Compressibility (1/GPa) = 0.02718705
#
# Stress axis : x y z
#
# Youngs Moduli (GPa) = 51.30121 111.26906 91.80038
#
# Poissons Ratio (x) = -0.16918 0.46472
# Poissons Ratio (y) = -0.07800 0.23420
# Poissons Ratio (z) = 0.25970 0.28387
#
# Static dielectric constant tensor:
#      x y z
#    x 1.765810 0.000000 0.000000 
#    y 0.000000 1.872590 0.000000 
#    z 0.000000 0.000000 1.687750 
# 
# From -- ./inp_files/25403.got.cif
#   From: 2010.05.17/outbox.cif.g08.bks.cpg/sg48_13_cif.got.tgz:25403.got - 2010.06.03 20:39:00.
