data_PCOD9391414
_publ_section_title
;
Structure prediction by ZEFSAII (Michael W. Deem and Ramdas Pophale) SiO2 
 PCOD9391414
Probable space group: P N N N
;
_chemical_formula_sum "Si O2"
_cell_formula_units_Z 32
_cell_length_a 8.850011
_cell_length_b 29.125090
_cell_length_c 5.505531
_cell_angle_alpha 90.000000
_cell_angle_beta 90.000000
_cell_angle_gamma 90.000000
_cell_volume 1419.091174
_symmetry_space_group_name_H-M "P N N N"
_symmetry_group_IT_number 48
_space_group.IT_coordinate_system_code '2'
_symmetry_cell_setting 'orthorhombic'
loop_
_space_group_symop_operation_xyz
x,y,z
1/2-x,1/2-y,z
x,1/2-y,1/2-z
1/2-x,y,1/2-z
-x,-y,-z
1/2+x,1/2+y,-z
-x,1/2+y,1/2+z
1/2+x,-y,1/2+z
loop_
_atom_site_type_symbol
_atom_site_label
_atom_site_fract_x
_atom_site_fract_y
_atom_site_fract_z
Si Si1 0.068038 0.478832 0.750762
Si Si2 0.250000 0.662777 0.750000
Si Si3 0.750000 0.668368 0.750000
Si Si4 0.000785 0.793338 0.073488
Si Si5 0.999356 0.621513 0.072198
O O1 0.250000 0.484088 0.750000
O O2 0.025105 0.425411 0.785005
O O3 0.000000 0.500000 0.500000
O O4 0.000000 0.500000 0.000000
O O5 0.348024 0.628969 0.580591
O O6 0.138968 0.696973 0.606607
O O7 0.847915 0.701406 0.578637
O O8 0.638222 0.634540 0.605729
O O9 0.012245 0.750000 0.250000
O O10 0.001586 0.837772 0.239024
#
# Coordination Sequence:
#
# PCOD9391414 Si02
#       5
#     8   4   4   8   8
#     4  12  30  51  83 119 159 209 268 331 406 483
#     4  10  26  45  76 106 154 198 256 318 393 460
#     4  10  24  45  76 106 150 196 256 320 385 460
#     4  11  25  45  72 108 149 199 254 315 387 467
#     4  11  26  47  77 107 152 194 258 316 391 466
#
# _framework density 22.549645999999999
#
# number of rings (size 3 to 8) (size 9 to 14) (size 15 to 20)
#    0.000    1.000    0.000    3.750   12.250   12.000 
#    0.000    3.750    0.000    0.000    0.000    0.000 
#    0.000    0.000    0.000    0.000    0.000    0.000 
#
# Total GULP energy -179193.018012 kJ/mol
# GULP energy per Si atom -5599.781813 kJ/mol
# Density = 2.249832 g / cm^3
# Si number density = 22.549646 Si / 1000 Ang^3
#
#
#
# Elastic Constant Matrix: (Units=GPa)
#
#
# Indices 1 2 3 4 5 6 
#
# 1 151.8003 58.9568 76.3287 0.0000 0.0000 0.0000
# 2 58.9568 187.3309 84.8550 0.0000 0.0000 0.0000
# 3 76.3287 84.8550 156.0848 0.0000 0.0000 0.0000
# 4 0.0000 0.0000 0.0000 50.9865 0.0000 0.0000
# 5 0.0000 0.0000 0.0000 0.0000 -9.8938 0.0000
# 6 0.0000 0.0000 0.0000 0.0000 0.0000 18.8805
#
#
#
# Elastic Compliance Matrix: (Units=1/GPa)
#
#
# Indices 1 2 3 4 5 6 
#
# 1 0.008904 -0.001101 -0.003755 0.000000 0.000000 0.000000
# 2 -0.001101 0.007218 -0.003386 0.000000 0.000000 0.000000
# 3 -0.003755 -0.003386 0.010084 0.000000 0.000000 0.000000
# 4 0.000000 0.000000 0.000000 0.019613 0.000000 0.000000
# 5 0.000000 0.000000 0.000000 0.000000 -0.101074 0.000000
# 6 0.000000 0.000000 0.000000 0.000000 0.000000 0.052965
#
#
# Mechanical properties :
#
#
# Convention : Reuss Voigt Hill
#
# Bulk Modulus (GPa) = 102.86715 103.94409 103.40562
# Shear Modulus (GPa) = 286.78455 30.33304 158.55879
#
# Velocity S-wave (km/s) = 11.28961 3.67163 8.39453
# Velocity P-wave (km/s) = 14.68528 8.01063 11.82852
#
# Compressibility (1/GPa) = 0.00972128
#
# Stress axis : x y z
#
# Youngs Moduli (GPa) = 112.31479 138.53645 99.16758
#
# Poissons Ratio (x) = 0.15253 0.37242
# Poissons Ratio (y) = 0.12366 0.33576
# Poissons Ratio (z) = 0.42179 0.46906
#
# Static dielectric constant tensor:
#      x y z
#    x 1.798100 0.000000 0.000000 
#    y 0.000000 1.793550 0.000000 
#    z 0.000000 0.000000 1.812140 
# 
# From -- ./inp_files/1164.got.cif
#   From: 2010.05.17/outbox.cif.g08.bks.cpg/sg48_1_cif.got.tgz:1164.got - 2010.06.03 20:39:00.
