data_PCOD9391302
_publ_section_title
;
Structure prediction by ZEFSAII (Michael W. Deem and Ramdas Pophale) SiO2 
 PCOD9391302
Probable space group: P N N N
;
_chemical_formula_sum "Si O2"
_cell_formula_units_Z 32
_cell_length_a 29.855300
_cell_length_b 5.269551
_cell_length_c 9.116819
_cell_angle_alpha 90.000000
_cell_angle_beta 90.000000
_cell_angle_gamma 90.000000
_cell_volume 1434.294669
_symmetry_space_group_name_H-M "P N N N"
_symmetry_group_IT_number 48
_space_group.IT_coordinate_system_code '2'
_symmetry_cell_setting 'orthorhombic'
loop_
_space_group_symop_operation_xyz
x,y,z
1/2-x,1/2-y,z
x,1/2-y,1/2-z
1/2-x,y,1/2-z
-x,-y,-z
1/2+x,1/2+y,-z
-x,1/2+y,1/2+z
1/2+x,-y,1/2+z
loop_
_atom_site_type_symbol
_atom_site_label
_atom_site_fract_x
_atom_site_fract_y
_atom_site_fract_z
Si Si1 0.770296 0.504492 0.081202
Si Si2 0.993121 0.250000 0.750000
Si Si3 0.352857 0.354574 0.401869
Si Si4 0.090758 0.845029 0.056489
Si Si5 0.447675 0.750000 0.750000
O O1 0.750000 0.750000 0.007872
O O2 0.750000 0.503349 0.250000
O O3 0.750000 0.250000 0.015652
O O4 0.821728 0.552601 0.038544
O O5 0.022812 0.498097 0.781934
O O6 0.959068 0.161024 0.876818
O O7 0.330020 0.250000 0.250000
O O8 0.382889 0.604093 0.375736
O O9 0.384505 0.114693 0.434792
O O10 0.083895 0.794775 0.886748
#
# Coordination Sequence:
#
# PCOD9391302 Si02
#       5
#     8   4   8   8   4
#     4  10  23  43  69  99 131 170 214 277 344 402
#     4  12  22  46  66  98 143 182 235 286 346 398
#     4  12  24  45  70  98 136 184 226 278 338 413
#     4  12  25  44  70 100 139 182 234 282 340 402
#     4  12  26  40  68 106 137 186 235 290 342 398
#
# _framework density 22.310618000000002
#
# number of rings (size 3 to 8) (size 9 to 14) (size 15 to 20)
#    0.000    0.500    2.500    6.000    0.000    6.500 
#    0.000    1.250    0.000    0.000    0.000    0.000 
#    0.000    0.000    0.000    0.000    0.000    0.000 
#
# Total GULP energy -178295.893274 kJ/mol
# GULP energy per Si atom -5571.746665 kJ/mol
# Density = 2.225984 g / cm^3
# Si number density = 22.310618 Si / 1000 Ang^3
#
#
#
# Elastic Constant Matrix: (Units=GPa)
#
#
# Indices 1 2 3 4 5 6 
#
# 1 80.6195 81.3088 33.9388 0.0000 0.0000 0.0000
# 2 81.3088 249.3764 34.3984 0.0000 0.0000 0.0000
# 3 33.9388 34.3984 118.5997 0.0000 0.0000 0.0000
# 4 0.0000 0.0000 0.0000 -55.1337 0.0000 0.0000
# 5 0.0000 0.0000 0.0000 0.0000 -47.1408 0.0000
# 6 0.0000 0.0000 0.0000 0.0000 0.0000 20.1543
#
#
#
# Elastic Compliance Matrix: (Units=1/GPa)
#
#
# Indices 1 2 3 4 5 6 
#
# 1 0.020172 -0.006022 -0.004026 0.000000 0.000000 0.000000
# 2 -0.006022 0.005975 -0.000010 0.000000 0.000000 0.000000
# 3 -0.004026 -0.000010 0.009587 0.000000 0.000000 0.000000
# 4 0.000000 0.000000 0.000000 -0.018138 0.000000 0.000000
# 5 0.000000 0.000000 0.000000 0.000000 -0.021213 0.000000
# 6 0.000000 0.000000 0.000000 0.000000 0.000000 0.049617
#
#
# Mechanical properties :
#
#
# Convention : Reuss Voigt Hill
#
# Bulk Modulus (GPa) = 64.02629 83.09862 73.56245
# Shear Modulus (GPa) = 70.10612 3.50594 36.80603
#
# Velocity S-wave (km/s) = 5.61168 1.25492 4.06607
# Velocity P-wave (km/s) = 8.41118 6.27908 7.42209
#
# Compressibility (1/GPa) = 0.01561858
#
# Stress axis : x y z
#
# Youngs Moduli (GPa) = 49.57381 167.37214 104.31215
#
# Poissons Ratio (x) = 1.00787 0.41995
# Poissons Ratio (y) = 0.29852 0.00101
# Poissons Ratio (z) = 0.19958 0.00162
#
# Static dielectric constant tensor:
#      x y z
#    x 2.092950 0.000000 0.000000 
#    y 0.000000 1.827640 0.000000 
#    z 0.000000 0.000000 1.890010 
# 
# From -- ./inp_files/7649.got.cif
#   From: 2010.05.17/outbox.cif.g08.bks.cpg/sg48_4_cif.got.tgz:7649.got - 2010.06.03 20:39:00.
