data_PCOD9391730
_publ_section_title
;
Structure prediction by ZEFSAII (Michael W. Deem and Ramdas Pophale) SiO2 
 PCOD9391730
Probable space group: P N N N
;
_chemical_formula_sum "Si O2"
_cell_formula_units_Z 40
_cell_length_a 5.081124
_cell_length_b 12.496188
_cell_length_c 24.609663
_cell_angle_alpha 90.000000
_cell_angle_beta 90.000000
_cell_angle_gamma 90.000000
_cell_volume 1562.582696
_symmetry_space_group_name_H-M "P N N N"
_symmetry_group_IT_number 48
_space_group.IT_coordinate_system_code '2'
_symmetry_cell_setting 'orthorhombic'
loop_
_space_group_symop_operation_xyz
x,y,z
1/2-x,1/2-y,z
x,1/2-y,1/2-z
1/2-x,y,1/2-z
-x,-y,-z
1/2+x,1/2+y,-z
-x,1/2+y,1/2+z
1/2+x,-y,1/2+z
loop_
_atom_site_type_symbol
_atom_site_label
_atom_site_fract_x
_atom_site_fract_y
_atom_site_fract_z
Si Si1 0.250000 0.250000 0.750000
Si Si2 0.250000 0.750000 0.004422
Si Si3 0.128884 0.962268 0.057201
Si Si4 0.250000 0.250000 0.250000
Si Si5 0.444119 0.928515 0.320227
Si Si6 0.939108 0.670861 0.909306
Si Si7 0.585011 0.069316 0.190572
O O1 0.445249 0.177271 0.711298
O O2 0.480183 0.758835 0.960657
O O3 0.273464 0.854178 0.040169
O O4 0.995403 0.927599 0.114666
O O5 0.305819 0.062442 0.071643
O O6 0.000000 0.000000 0.000000
O O7 0.447683 0.167048 0.220584
O O8 0.141313 0.973101 0.313925
O O9 0.633349 0.019320 0.295839
O O10 0.750000 0.750000 0.877245
O O11 0.152257 0.624706 0.868450
#
# Coordination Sequence:
#
# PCOD9391730 Si02
#       7
#     2   4   8   2   8   8   8
#     4  12  28  54  84 106 156 214 264 326 392 462
#     4  12  24  42  76 104 150 200 254 310 394 466
#     4  11  24  45  70 109 148 196 254 316 383 473
#     4  12  24  42  76 102 140 186 244 302 372 454
#     4  11  28  49  73 107 149 196 256 315 381 457
#     4  11  23  42  67 103 149 196 239 314 386 460
#     4  11  26  46  70 109 144 190 246 310 381 455
#
# _framework density 25.598645999999999
#
# number of rings (size 3 to 8) (size 9 to 14) (size 15 to 20)
#    0.000    0.800    3.000    3.000    2.800    9.600 
#    0.000    0.000    0.000    0.000    0.000    0.000 
#    0.000    0.000    0.000    0.000    0.000    0.000 
#
# Total GULP energy -223090.383570 kJ/mol
# GULP energy per Si atom -5577.259589 kJ/mol
# Density = 2.554038 g / cm^3
# Si number density = 25.598646 Si / 1000 Ang^3
#
#
#
# Elastic Constant Matrix: (Units=GPa)
#
#
# Indices 1 2 3 4 5 6 
#
# 1 100.5430 28.4836 20.9003 0.0000 0.0000 0.0000
# 2 28.4836 136.9670 20.3282 0.0000 0.0000 0.0000
# 3 20.9003 20.3282 123.2952 0.0000 0.0000 0.0000
# 4 0.0000 0.0000 0.0000 53.7165 0.0000 0.0000
# 5 0.0000 0.0000 0.0000 0.0000 56.6839 0.0000
# 6 0.0000 0.0000 0.0000 0.0000 0.0000 38.0139
#
#
#
# Elastic Compliance Matrix: (Units=1/GPa)
#
#
# Indices 1 2 3 4 5 6 
#
# 1 0.010833 -0.002030 -0.001502 0.000000 0.000000 0.000000
# 2 -0.002030 0.007865 -0.000953 0.000000 0.000000 0.000000
# 3 -0.001502 -0.000953 0.008522 0.000000 0.000000 0.000000
# 4 0.000000 0.000000 0.000000 0.018616 0.000000 0.000000
# 5 0.000000 0.000000 0.000000 0.000000 0.017642 0.000000
# 6 0.000000 0.000000 0.000000 0.000000 0.000000 0.026306
#
#
# Mechanical properties :
#
#
# Convention : Reuss Voigt Hill
#
# Bulk Modulus (GPa) = 54.78989 55.58106 55.18547
# Shear Modulus (GPa) = 47.69331 49.08906 48.39118
#
# Velocity S-wave (km/s) = 4.32107 4.38384 4.35257
# Velocity P-wave (km/s) = 6.80775 6.88358 6.84577
#
# Compressibility (1/GPa) = 0.01825154
#
# Stress axis : x y z
#
# Youngs Moduli (GPa) = 92.30838 127.15262 117.34020
#
# Poissons Ratio (x) = 0.25812 0.17621
# Poissons Ratio (y) = 0.18739 0.11177
# Poissons Ratio (z) = 0.13862 0.12112
#
# Static dielectric constant tensor:
#      x y z
#    x 2.057870 0.000000 0.000000 
#    y 0.000000 2.087670 0.000000 
#    z 0.000000 0.000000 1.280130 
# 
# From -- ./inp_files/37018.got.cif
#   From: 2010.05.17/outbox.cif.g08.bks.cpg/sg48_19_cif.got.tgz:37018.got - 2010.06.03 20:39:00.
