data_PCOD9391970
_publ_section_title
;
Structure prediction by ZEFSAII (Michael W. Deem and Ramdas Pophale) SiO2 
 PCOD9391970
Probable space group: P N N N
;
_chemical_formula_sum "Si O2"
_cell_formula_units_Z 48
_cell_length_a 12.000000
_cell_length_b 24.000000
_cell_length_c 9.000000
_cell_angle_alpha 90.000000
_cell_angle_beta 90.000000
_cell_angle_gamma 90.000000
_cell_volume 2592.000000
_symmetry_space_group_name_H-M "P N N N"
_symmetry_group_IT_number 48
_space_group.IT_coordinate_system_code '2'
_symmetry_cell_setting 'orthorhombic'
loop_
_space_group_symop_operation_xyz
x,y,z
1/2-x,1/2-y,z
x,1/2-y,1/2-z
1/2-x,y,1/2-z
-x,-y,-z
1/2+x,1/2+y,-z
-x,1/2+y,1/2+z
1/2+x,-y,1/2+z
loop_
_atom_site_type_symbol
_atom_site_label
_atom_site_fract_x
_atom_site_fract_y
_atom_site_fract_z
Si Si1 0.352082 0.163992 0.638908
Si Si2 0.186287 0.126087 0.398763
Si Si3 0.178327 0.531499 0.597940
Si Si4 0.493033 0.565358 0.136399
Si Si5 0.389076 0.498108 0.400056
Si Si6 0.883829 0.740923 0.917286
O O1 0.250000 0.181264 0.750000
O O2 0.282482 0.126072 0.521840
O O3 0.450142 0.122804 0.691701
O O4 0.408813 0.215485 0.549162
O O5 0.250000 0.144198 0.250000
O O6 0.131925 0.067008 0.366781
O O7 0.102404 0.175238 0.447473
O O8 0.250000 0.545913 0.750000
O O9 0.085066 0.570682 0.512675
O O10 0.278837 0.518277 0.485059
O O11 0.097929 0.477693 0.622248
O O12 0.414571 0.535713 0.257644
O O13 0.500000 0.500000 0.500000
O O14 0.750000 0.750000 0.911217
O O15 0.929104 0.750000 0.750000
#
# Coordination Sequence:
#
# PCOD9391970 Si02
#       6
#     8   8   8   8   8   8
#     4  11  21  36  56  87 124 160 201 251 309 379
#     4  11  20  34  57  82 119 164 199 246 312 373
#     4  11  22  38  54  83 118 163 214 251 295 375
#     4  11  23  37  58  84 126 170 204 249 316 371
#     4  12  23  37  57  86 128 171 206 255 309 373
#     4   9  17  33  53  81 114 154 198 239 305 379
#
# _framework density 18.518519000000001
#
# number of rings (size 3 to 8) (size 9 to 14) (size 15 to 20)
#    0.000    1.167    6.667    3.000    2.333    3.000 
#    0.000    0.000    0.000    0.000    0.000    1.167 
#    5.000    5.333    0.000    0.000    0.000    0.000 
#
# Total GULP energy -267222.226871 kJ/mol
# GULP energy per Si atom -5567.129726 kJ/mol
# Density = 1.847637 g / cm^3
# Si number density = 18.518519 Si / 1000 Ang^3
#
#
#
# Elastic Constant Matrix: (Units=GPa)
#
#
# Indices 1 2 3 4 5 6 
#
# 1 81.8087 16.7289 30.3694 0.0000 0.0000 0.0000
# 2 16.7289 118.0507 34.7452 0.0000 0.0000 0.0000
# 3 30.3694 34.7452 92.4708 0.0000 0.0000 0.0000
# 4 0.0000 0.0000 0.0000 13.9206 0.0000 0.0000
# 5 0.0000 0.0000 0.0000 0.0000 42.9349 0.0000
# 6 0.0000 0.0000 0.0000 0.0000 0.0000 20.7587
#
#
#
# Elastic Compliance Matrix: (Units=1/GPa)
#
#
# Indices 1 2 3 4 5 6 
#
# 1 0.013973 -0.000708 -0.004323 0.000000 0.000000 0.000000
# 2 -0.000708 0.009560 -0.003360 0.000000 0.000000 0.000000
# 3 -0.004323 -0.003360 0.013496 0.000000 0.000000 0.000000
# 4 0.000000 0.000000 0.000000 0.071836 0.000000 0.000000
# 5 0.000000 0.000000 0.000000 0.000000 0.023291 0.000000
# 6 0.000000 0.000000 0.000000 0.000000 0.000000 0.048173
#
#
# Mechanical properties :
#
#
# Convention : Reuss Voigt Hill
#
# Bulk Modulus (GPa) = 49.38629 50.66857 50.02743
# Shear Modulus (GPa) = 24.52665 29.55530 27.04098
#
# Velocity S-wave (km/s) = 3.64323 3.99931 3.82542
# Velocity P-wave (km/s) = 6.66513 6.98186 6.82534
#
# Compressibility (1/GPa) = 0.02024853
#
# Stress axis : x y z
#
# Youngs Moduli (GPa) = 71.56543 104.60182 74.09372
#
# Poissons Ratio (x) = 0.07403 0.32032
# Poissons Ratio (y) = 0.05065 0.24893
# Poissons Ratio (z) = 0.30939 0.35143
#
# Static dielectric constant tensor:
#      x y z
#    x 1.646830 0.000000 0.000000 
#    y 0.000000 1.732230 0.000000 
#    z 0.000000 0.000000 1.749230 
# 
# From -- ./inp_files/11235.got.cif
#   From: 2010.05.17/outbox.ucp.g08.bks.cvg/sg48_6_cif.got.tgz:11235.got - 2010.06.11 16:38:40.
