data_PCOD9391578
_publ_section_title
;
Structure prediction by ZEFSAII (Michael W. Deem and Ramdas Pophale) SiO2 
 PCOD9391578
Probable space group: P N N N
;
_chemical_formula_sum "Si O2"
_cell_formula_units_Z 52
_cell_length_a 9.565925
_cell_length_b 24.727537
_cell_length_c 11.635908
_cell_angle_alpha 90.000000
_cell_angle_beta 90.000000
_cell_angle_gamma 90.000000
_cell_volume 2752.378208
_symmetry_space_group_name_H-M "P N N N"
_symmetry_group_IT_number 48
_space_group.IT_coordinate_system_code '2'
_symmetry_cell_setting 'orthorhombic'
loop_
_space_group_symop_operation_xyz
x,y,z
1/2-x,1/2-y,z
x,1/2-y,1/2-z
1/2-x,y,1/2-z
-x,-y,-z
1/2+x,1/2+y,-z
-x,1/2+y,1/2+z
1/2+x,-y,1/2+z
loop_
_atom_site_type_symbol
_atom_site_label
_atom_site_fract_x
_atom_site_fract_y
_atom_site_fract_z
Si Si1 0.855574 0.395083 0.924206
Si Si2 0.529456 0.999441 0.313869
Si Si3 0.800899 0.811613 0.127381
Si Si4 0.250000 0.440240 0.250000
Si Si5 0.311826 0.996212 0.929052
Si Si6 0.632835 0.886487 0.967429
Si Si7 0.441886 0.878564 0.340794
O O1 0.904124 0.381895 0.794779
O O2 0.695372 0.377372 0.919690
O O3 0.856326 0.457741 0.965589
O O4 0.972044 0.370852 0.008617
O O5 0.372889 0.024218 0.310816
O O6 0.594380 0.009093 0.186312
O O7 0.652775 0.020204 0.396971
O O8 0.517658 0.936619 0.351100
O O9 0.750000 0.750000 0.126038
O O10 0.750000 0.835581 0.250000
O O11 0.962937 0.827338 0.129778
O O12 0.729747 0.841210 0.021563
O O13 0.169871 0.402268 0.160786
O O14 0.330859 0.058288 0.963837
#
# Coordination Sequence:
#
# PCOD9391578 Si02
#       7
#     8   8   8   4   8   8   8
#     4  11  22  35  57  87 127 165 197 242 312 386
#     4  11  21  34  53  89 126 166 208 247 300 374
#     4  11  23  42  68  90 114 151 210 268 316 361
#     4  12  26  36  59  94 126 171 218 244 302 380
#     4  11  21  34  55  84 131 169 199 244 307 372
#     4  12  22  41  57  87 126 166 202 261 300 368
#     4  11  21  37  58  89 121 162 202 250 317 371
#
# _framework density 18.892751000000001
#
# number of rings (size 3 to 8) (size 9 to 14) (size 15 to 20)
#    0.000    0.769    6.154    3.231    2.154    1.231 
#    0.000    1.154    0.000    0.000    0.000    0.000 
#    0.000    0.000    0.000    0.000    0.000    0.000 
#
# Total GULP energy -290049.981190 kJ/mol
# GULP energy per Si atom -5577.884254 kJ/mol
# Density = 1.884975 g / cm^3
# Si number density = 18.892751 Si / 1000 Ang^3
#
#
#
# Elastic Constant Matrix: (Units=GPa)
#
#
# Indices 1 2 3 4 5 6 
#
# 1 146.1894 34.9760 37.8741 0.0000 0.0000 0.0000
# 2 34.9760 62.8141 25.4041 0.0000 0.0000 0.0000
# 3 37.8741 25.4041 65.3393 0.0000 0.0000 0.0000
# 4 0.0000 0.0000 0.0000 -4.2324 0.0000 0.0000
# 5 0.0000 0.0000 0.0000 0.0000 28.7084 0.0000
# 6 0.0000 0.0000 0.0000 0.0000 0.0000 18.4615
#
#
#
# Elastic Compliance Matrix: (Units=1/GPa)
#
#
# Indices 1 2 3 4 5 6 
#
# 1 0.008585 -0.003284 -0.003699 0.000000 0.000000 0.000000
# 2 -0.003284 0.020147 -0.005930 0.000000 0.000000 0.000000
# 3 -0.003699 -0.005930 0.019754 0.000000 0.000000 0.000000
# 4 0.000000 0.000000 0.000000 -0.236273 0.000000 0.000000
# 5 0.000000 0.000000 0.000000 0.000000 0.034833 0.000000
# 6 0.000000 0.000000 0.000000 0.000000 0.000000 0.054167
#
#
# Mechanical properties :
#
#
# Convention : Reuss Voigt Hill
#
# Bulk Modulus (GPa) = 44.13024 52.31678 48.22351
# Shear Modulus (GPa) = -76.44196 20.32674 -28.05761
#
# Velocity S-wave (km/s) = -6.36780 3.28365 -3.85788
# Velocity P-wave (km/s) = 5.53680 6.49061 2.39499
#
# Compressibility (1/GPa) = 0.02266020
#
# Stress axis : x y z
#
# Youngs Moduli (GPa) = 116.48902 49.63610 50.62156
#
# Poissons Ratio (x) = 0.16300 0.18726
# Poissons Ratio (y) = 0.38254 0.30016
# Poissons Ratio (z) = 0.43092 0.29432
#
# Static dielectric constant tensor:
#      x y z
#    x 1.743800 0.000000 0.000000 
#    y 0.000000 1.628740 0.000000 
#    z 0.000000 0.000000 1.682250 
# 
# From -- ./inp_files/18936.got.cif
#   From: 2010.05.17/outbox.cif.g08.bks.cpg/sg48_10_cif.got.tgz:18936.got - 2010.06.03 20:39:00.
