data_PCOD9391623
_publ_section_title
;
Structure prediction by ZEFSAII (Michael W. Deem and Ramdas Pophale) SiO2 
 PCOD9391623
Probable space group: P N N N
;
_chemical_formula_sum "Si O2"
_cell_formula_units_Z 34
_cell_length_a 17.035759
_cell_length_b 13.682226
_cell_length_c 6.376980
_cell_angle_alpha 90.000000
_cell_angle_beta 90.000000
_cell_angle_gamma 90.000000
_cell_volume 1486.391805
_symmetry_space_group_name_H-M "P N N N"
_symmetry_group_IT_number 48
_space_group.IT_coordinate_system_code '2'
_symmetry_cell_setting 'orthorhombic'
loop_
_space_group_symop_operation_xyz
x,y,z
1/2-x,1/2-y,z
x,1/2-y,1/2-z
1/2-x,y,1/2-z
-x,-y,-z
1/2+x,1/2+y,-z
-x,1/2+y,1/2+z
1/2+x,-y,1/2+z
loop_
_atom_site_type_symbol
_atom_site_label
_atom_site_fract_x
_atom_site_fract_y
_atom_site_fract_z
Si Si1 0.366637 0.883198 0.515351
Si Si2 0.340335 0.412484 0.240454
Si Si3 0.419048 0.005639 0.870079
Si Si4 0.250000 0.750000 0.250000
Si Si5 0.958607 0.671571 0.431890
O O1 0.371802 0.916318 0.761527
O O2 0.302876 0.813503 0.409438
O O3 0.450191 0.827541 0.491074
O O4 0.352816 0.982795 0.378247
O O5 0.250000 0.382838 0.250000
O O6 0.363877 0.433184 0.478936
O O7 0.397881 0.336714 0.123201
O O8 0.447832 0.067088 0.674775
O O9 0.500000 0.000000 0.000000
O O10 0.941777 0.750000 0.250000
#
# Coordination Sequence:
#
# PCOD9391623 Si02
#       5
#     8   8   8   2   8
#     4  11  22  41  70 100 149 191 235 303 370 449
#     4  11  23  44  69  99 139 188 241 302 364 439
#     4  11  21  42  73  98 131 196 244 279 368 452
#     4  12  24  44  66 116 166 180 252 330 372 452
#     4  11  23  41  68 102 138 186 240 300 364 444
#
# _framework density 22.874182999999999
#
# number of rings (size 3 to 8) (size 9 to 14) (size 15 to 20)
#    0.000    0.941    7.059    1.412    0.000    4.706 
#    0.000    8.235    0.000    0.000    0.000    0.000 
#    0.000    0.000    0.000    0.000    0.000    0.000 
#
# Total GULP energy -189598.557074 kJ/mol
# GULP energy per Si atom -5576.428149 kJ/mol
# Density = 2.282212 g / cm^3
# Si number density = 22.874183 Si / 1000 Ang^3
#
#
#
# Elastic Constant Matrix: (Units=GPa)
#
#
# Indices 1 2 3 4 5 6 
#
# 1 197.1651 53.8382 81.8054 0.0000 0.0000 0.0000
# 2 53.8382 84.5137 49.6680 0.0000 0.0000 0.0000
# 3 81.8054 49.6680 142.0854 0.0000 0.0000 0.0000
# 4 0.0000 0.0000 0.0000 50.7967 0.0000 0.0000
# 5 0.0000 0.0000 0.0000 0.0000 24.9493 0.0000
# 6 0.0000 0.0000 0.0000 0.0000 0.0000 -5.7024
#
#
#
# Elastic Compliance Matrix: (Units=1/GPa)
#
#
# Indices 1 2 3 4 5 6 
#
# 1 0.007114 -0.002674 -0.003161 0.000000 0.000000 0.000000
# 2 -0.002674 0.015897 -0.004017 0.000000 0.000000 0.000000
# 3 -0.003161 -0.004017 0.010262 0.000000 0.000000 0.000000
# 4 0.000000 0.000000 0.000000 0.019686 0.000000 0.000000
# 5 0.000000 0.000000 0.000000 0.000000 0.040081 0.000000
# 6 0.000000 0.000000 0.000000 0.000000 0.000000 -0.175364
#
#
# Mechanical properties :
#
#
# Convention : Reuss Voigt Hill
#
# Bulk Modulus (GPa) = 73.70255 88.26527 80.98391
# Shear Modulus (GPa) = -86.06318 29.90556 -28.07881
#
# Velocity S-wave (km/s) = -6.14054 3.61971 -3.50742
# Velocity P-wave (km/s) = 4.24078 7.49272 4.36787
#
# Compressibility (1/GPa) = 0.01356805
#
# Stress axis : x y z
#
# Youngs Moduli (GPa) = 140.57757 62.90567 97.44451
#
# Poissons Ratio (x) = 0.16821 0.30801
# Poissons Ratio (y) = 0.37589 0.39148
# Poissons Ratio (z) = 0.44435 0.25272
#
# Static dielectric constant tensor:
#      x y z
#    x -3.566940 0.000000 0.000000 
#    y 0.000000 1.984840 0.000000 
#    z 0.000000 0.000000 1.867620 
# 
# From -- ./inp_files/4042.got.cif
#   From: 2010.05.17/outbox.cif.g08.bks.cpg/sg48_3_cif.got.tgz:4042.got - 2010.06.03 20:39:00.
