data_PCOD9391256
_publ_section_title
;
Structure prediction by ZEFSAII (Michael W. Deem and Ramdas Pophale) SiO2 
 PCOD9391256
Probable space group: P N N N
;
_chemical_formula_sum "Si O2"
_cell_formula_units_Z 40
_cell_length_a 11.572577
_cell_length_b 9.404330
_cell_length_c 16.438977
_cell_angle_alpha 90.000000
_cell_angle_beta 90.000000
_cell_angle_gamma 90.000000
_cell_volume 1789.092220
_symmetry_space_group_name_H-M "P N N N"
_symmetry_group_IT_number 48
_space_group.IT_coordinate_system_code '2'
_symmetry_cell_setting 'orthorhombic'
loop_
_space_group_symop_operation_xyz
x,y,z
1/2-x,1/2-y,z
x,1/2-y,1/2-z
1/2-x,y,1/2-z
-x,-y,-z
1/2+x,1/2+y,-z
-x,1/2+y,1/2+z
1/2+x,-y,1/2+z
loop_
_atom_site_type_symbol
_atom_site_label
_atom_site_fract_x
_atom_site_fract_y
_atom_site_fract_z
Si Si1 0.284877 0.586111 0.104034
Si Si2 0.187590 0.899203 0.664707
Si Si3 0.307737 0.403038 0.955950
Si Si4 0.031240 0.502211 0.096172
Si Si5 0.504733 0.809863 0.333915
O O1 0.250000 0.750000 0.080713
O O2 0.168754 0.492958 0.114819
O O3 0.380965 0.611347 0.174102
O O4 0.345425 0.498506 0.031777
O O5 0.250000 0.750000 0.646289
O O6 0.250000 0.942462 0.750000
O O7 0.213627 0.008067 0.593199
O O8 0.047925 0.901728 0.654868
O O9 0.250000 0.250000 0.975605
O O10 0.408205 0.394582 0.889374
O O11 0.012450 0.665315 0.118132
O O12 0.000000 0.500000 0.000000
O O13 0.553930 0.750000 0.250000
#
# Coordination Sequence:
#
# PCOD9391256 Si02
#       5
#     8   8   8   8   8
#     4  10  23  41  66  95 130 181 230 275 346 425
#     4  11  24  41  66  97 132 178 231 283 351 419
#     4  12  22  39  66  99 139 173 225 289 352 409
#     4  11  21  41  66  93 129 176 218 280 342 413
#     4  11  24  41  67 101 135 175 229 294 352 417
#
# _framework density 22.357707000000001
#
# number of rings (size 3 to 8) (size 9 to 14) (size 15 to 20)
#    0.000    1.000    4.000    2.400    2.800    3.600 
#    3.600    0.000    0.000    0.000    0.000    0.000 
#    0.000    0.000    0.000    0.000    0.000    0.000 
#
# Total GULP energy -222735.702976 kJ/mol
# GULP energy per Si atom -5568.392574 kJ/mol
# Density = 2.230682 g / cm^3
# Si number density = 22.357707 Si / 1000 Ang^3
#
#
#
# Elastic Constant Matrix: (Units=GPa)
#
#
# Indices 1 2 3 4 5 6 
#
# 1 141.4688 18.0260 21.0301 0.0000 0.0000 0.0000
# 2 18.0260 67.5766 9.4970 0.0000 0.0000 0.0000
# 3 21.0301 9.4970 57.1454 0.0000 0.0000 0.0000
# 4 0.0000 0.0000 0.0000 33.6979 0.0000 0.0000
# 5 0.0000 0.0000 0.0000 0.0000 29.3267 0.0000
# 6 0.0000 0.0000 0.0000 0.0000 0.0000 31.7407
#
#
#
# Elastic Compliance Matrix: (Units=1/GPa)
#
#
# Indices 1 2 3 4 5 6 
#
# 1 0.007661 -0.001687 -0.002539 0.000000 0.000000 0.000000
# 2 -0.001687 0.015523 -0.001959 0.000000 0.000000 0.000000
# 3 -0.002539 -0.001959 0.018759 0.000000 0.000000 0.000000
# 4 0.000000 0.000000 0.000000 0.029675 0.000000 0.000000
# 5 0.000000 0.000000 0.000000 0.000000 0.034099 0.000000
# 6 0.000000 0.000000 0.000000 0.000000 0.000000 0.031505
#
#
# Mechanical properties :
#
#
# Convention : Reuss Voigt Hill
#
# Bulk Modulus (GPa) = 33.81370 40.36635 37.09002
# Shear Modulus (GPa) = 31.35768 33.46224 32.40996
#
# Velocity S-wave (km/s) = 3.74912 3.87289 3.81151
# Velocity P-wave (km/s) = 5.82220 6.17195 5.99962
#
# Compressibility (1/GPa) = 0.02957381
#
# Stress axis : x y z
#
# Youngs Moduli (GPa) = 130.53015 64.41941 53.30719
#
# Poissons Ratio (x) = 0.10866 0.13535
# Poissons Ratio (y) = 0.22017 0.10443
# Poissons Ratio (z) = 0.33142 0.12620
#
# Static dielectric constant tensor:
#      x y z
#    x 6.634100 0.000000 0.000000 
#    y 0.000000 1.779990 0.000000 
#    z 0.000000 0.000000 1.772630 
# 
# From -- ./inp_files/10706.got.cif
#   From: 2010.05.17/outbox.cif.g08.bks.cpg/sg48_6_cif.got.tgz:10706.got - 2010.06.03 20:39:00.
