data_PCOD9391137
_publ_section_title
;
Structure prediction by ZEFSAII (Michael W. Deem and Ramdas Pophale) SiO2 
 PCOD9391137
Probable space group: P N N N
;
_chemical_formula_sum "Si O2"
_cell_formula_units_Z 54
_cell_length_a 5.638473
_cell_length_b 31.423522
_cell_length_c 13.864412
_cell_angle_alpha 90.000000
_cell_angle_beta 90.000000
_cell_angle_gamma 90.000000
_cell_volume 2456.505951
_symmetry_space_group_name_H-M "P N N N"
_symmetry_group_IT_number 48
_space_group.IT_coordinate_system_code '2'
_symmetry_cell_setting 'orthorhombic'
loop_
_space_group_symop_operation_xyz
x,y,z
1/2-x,1/2-y,z
x,1/2-y,1/2-z
1/2-x,y,1/2-z
-x,-y,-z
1/2+x,1/2+y,-z
-x,1/2+y,1/2+z
1/2+x,-y,1/2+z
loop_
_atom_site_type_symbol
_atom_site_label
_atom_site_fract_x
_atom_site_fract_y
_atom_site_fract_z
Si Si1 0.647906 0.114994 0.854772
Si Si2 0.816373 0.513390 0.418286
Si Si3 0.000739 0.130933 0.301551
Si Si4 0.424053 0.933006 0.966680
Si Si5 0.421688 0.790350 0.096739
Si Si6 0.495636 0.275053 0.376717
Si Si7 0.250000 0.071915 0.750000
Si Si8 0.750000 0.750000 0.250000
O O1 0.750000 0.105519 0.750000
O O2 0.689156 0.163745 0.882757
O O3 0.377248 0.102751 0.827460
O O4 0.729365 0.086229 0.944588
O O5 0.629802 0.542106 0.477337
O O6 0.693943 0.467849 0.397052
O O7 0.886825 0.538619 0.321432
O O8 0.000000 0.500000 0.500000
O O9 0.750000 0.119688 0.250000
O O10 0.004487 0.106712 0.403523
O O11 0.250000 0.119917 0.250000
O O12 0.995781 0.181749 0.316321
O O13 0.250000 0.750000 0.103546
O O14 0.607556 0.780947 0.179888
O O15 0.522135 0.788716 0.989064
O O16 0.250000 0.250000 0.356196
O O17 0.750000 0.250000 0.365924
#
# Coordination Sequence:
#
# PCOD9391137 Si02
#       8
#     8   8   8   8   8   8   4   2
#     4  11  21  41  62  95 134 175 228 279 350 424
#     4  10  22  42  67  97 136 185 230 291 363 428
#     4  12  28  48  74 110 141 189 246 304 369 427
#     4  10  24  42  65 101 140 178 237 297 359 431
#     4  11  23  38  60  94 135 179 228 284 349 421
#     4  11  24  48  73 102 142 189 236 302 362 425
#     4  10  23  38  64  99 124 174 233 278 358 427
#     4  12  20  36  56  90 126 172 230 272 342 422
#
# _framework density 21.982441000000001
#
# number of rings (size 3 to 8) (size 9 to 14) (size 15 to 20)
#    0.000    1.185    2.222    3.333    3.111    1.778 
#    0.000    1.481    0.000    0.000    0.000    0.000 
#    0.000    0.000    0.000    0.000    0.000    0.000 
#
# Total GULP energy -301083.349656 kJ/mol
# GULP energy per Si atom -5575.617586 kJ/mol
# Density = 2.193241 g / cm^3
# Si number density = 21.982441 Si / 1000 Ang^3
#
#
#
# Elastic Constant Matrix: (Units=GPa)
#
#
# Indices 1 2 3 4 5 6 
#
# 1 66.2002 31.6836 23.4672 0.0000 0.0000 0.0000
# 2 31.6836 126.9946 33.0225 0.0000 0.0000 0.0000
# 3 23.4672 33.0225 115.4581 0.0000 0.0000 0.0000
# 4 0.0000 0.0000 0.0000 41.5473 0.0000 0.0000
# 5 0.0000 0.0000 0.0000 0.0000 25.4277 0.0000
# 6 0.0000 0.0000 0.0000 0.0000 0.0000 12.2289
#
#
#
# Elastic Compliance Matrix: (Units=1/GPa)
#
#
# Indices 1 2 3 4 5 6 
#
# 1 0.017817 -0.003785 -0.002539 0.000000 0.000000 0.000000
# 2 -0.003785 0.009311 -0.001894 0.000000 0.000000 0.000000
# 3 -0.002539 -0.001894 0.009719 0.000000 0.000000 0.000000
# 4 0.000000 0.000000 0.000000 0.024069 0.000000 0.000000
# 5 0.000000 0.000000 0.000000 0.000000 0.039327 0.000000
# 6 0.000000 0.000000 0.000000 0.000000 0.000000 0.081774
#
#
# Mechanical properties :
#
#
# Convention : Reuss Voigt Hill
#
# Bulk Modulus (GPa) = 48.99106 53.88882 51.43994
# Shear Modulus (GPa) = 24.35982 30.53941 27.44961
#
# Velocity S-wave (km/s) = 3.33250 3.73133 3.53754
# Velocity P-wave (km/s) = 6.09444 6.56745 6.33536
#
# Compressibility (1/GPa) = 0.02041189
#
# Stress axis : x y z
#
# Youngs Moduli (GPa) = 56.12553 107.39860 102.89317
#
# Poissons Ratio (x) = 0.40650 0.26123
# Poissons Ratio (y) = 0.21244 0.19486
# Poissons Ratio (z) = 0.14249 0.20339
#
# Static dielectric constant tensor:
#      x y z
#    x 1.999020 0.000000 0.000000 
#    y 0.000000 1.841520 0.000000 
#    z 0.000000 0.000000 1.796930 
# 
# From -- ./inp_files/24572.got.cif
#   From: 2010.05.17/outbox.cif.g08.bks.cpg/sg48_13_cif.got.tgz:24572.got - 2010.06.03 20:39:00.
