data_PCOD9391186
_publ_section_title
;
Structure prediction by ZEFSAII (Michael W. Deem and Ramdas Pophale) SiO2 
 PCOD9391186
Probable space group: P N N N
;
_chemical_formula_sum "Si O2"
_cell_formula_units_Z 58
_cell_length_a 9.288200
_cell_length_b 10.628321
_cell_length_c 25.788190
_cell_angle_alpha 90.000000
_cell_angle_beta 90.000000
_cell_angle_gamma 90.000000
_cell_volume 2545.757795
_symmetry_space_group_name_H-M "P N N N"
_symmetry_group_IT_number 48
_space_group.IT_coordinate_system_code '2'
_symmetry_cell_setting 'orthorhombic'
loop_
_space_group_symop_operation_xyz
x,y,z
1/2-x,1/2-y,z
x,1/2-y,1/2-z
1/2-x,y,1/2-z
-x,-y,-z
1/2+x,1/2+y,-z
-x,1/2+y,1/2+z
1/2+x,-y,1/2+z
loop_
_atom_site_type_symbol
_atom_site_label
_atom_site_fract_x
_atom_site_fract_y
_atom_site_fract_z
Si Si1 0.250000 0.750000 0.250000
Si Si2 0.182786 0.612139 0.411909
Si Si3 0.540573 0.454827 0.139078
Si Si4 0.423736 0.395492 0.248990
Si Si5 0.841025 0.991014 0.405752
Si Si6 0.706052 0.911239 0.510437
Si Si7 0.537779 0.726707 0.564867
Si Si8 0.920383 0.079040 0.666644
O O1 0.144030 0.825653 0.289778
O O2 0.250000 0.750000 0.412368
O O3 0.189213 0.550886 0.468039
O O4 0.284743 0.545609 0.368989
O O5 0.027468 0.576427 0.389666
O O6 0.491486 0.456320 0.198219
O O7 0.709854 0.462297 0.129706
O O8 0.478898 0.326081 0.112278
O O9 0.458942 0.250000 0.250000
O O10 0.250000 0.409484 0.250000
O O11 0.476263 0.461464 0.300721
O O12 0.919244 0.117698 0.428004
O O13 0.775226 0.916427 0.454465
O O14 0.951149 0.901054 0.374328
O O15 0.562284 0.827789 0.517724
O O16 0.820659 0.855599 0.552060
#
# Coordination Sequence:
#
# PCOD9391186 Si02
#       8
#     2   8   8   8   8   8   8   8
#     4  12  24  48  74 106 136 204 258 294 344 466
#     4  11  23  43  74 100 142 196 250 292 353 459
#     4  11  25  45  69 111 142 185 248 307 381 437
#     4  11  23  41  74 106 137 185 249 306 365 438
#     4  12  26  46  72 111 153 190 237 319 378 433
#     4  10  24  44  71 107 143 192 253 289 370 452
#     4  10  22  44  73 101 150 187 237 300 371 445
#     4  12  24  46  75 102 144 192 252 299 367 438
#
# _framework density 22.783000000000001
#
# number of rings (size 3 to 8) (size 9 to 14) (size 15 to 20)
#    0.000    0.966    4.138    1.655    0.000    6.069 
#    2.483    0.690    3.034    0.000    0.000    0.000 
#    0.000    0.000    0.000    0.000    0.000    0.000 
#
# Total GULP energy -323394.234054 kJ/mol
# GULP energy per Si atom -5575.762656 kJ/mol
# Density = 2.273114 g / cm^3
# Si number density = 22.783000 Si / 1000 Ang^3
#
#
#
# Elastic Constant Matrix: (Units=GPa)
#
#
# Indices 1 2 3 4 5 6 
#
# 1 126.9301 33.6359 51.1907 0.0000 0.0000 0.0000
# 2 33.6359 107.4483 48.3599 0.0000 0.0000 0.0000
# 3 51.1907 48.3599 98.0252 0.0000 0.0000 0.0000
# 4 0.0000 0.0000 0.0000 -38.5650 0.0000 0.0000
# 5 0.0000 0.0000 0.0000 0.0000 29.1160 0.0000
# 6 0.0000 0.0000 0.0000 0.0000 0.0000 19.3170
#
#
#
# Elastic Compliance Matrix: (Units=1/GPa)
#
#
# Indices 1 2 3 4 5 6 
#
# 1 0.010065 -0.001009 -0.004758 0.000000 0.000000 0.000000
# 2 -0.001009 0.012064 -0.005425 0.000000 0.000000 0.000000
# 3 -0.004758 -0.005425 0.015363 0.000000 0.000000 0.000000
# 4 0.000000 0.000000 0.000000 -0.025930 0.000000 0.000000
# 5 0.000000 0.000000 0.000000 0.000000 0.034345 0.000000
# 6 0.000000 0.000000 0.000000 0.000000 0.000000 0.051768
#
#
# Mechanical properties :
#
#
# Convention : Reuss Voigt Hill
#
# Bulk Modulus (GPa) = 66.19303 66.53073 66.36188
# Shear Modulus (GPa) = 39.96982 15.25476 27.61229
#
# Velocity S-wave (km/s) = 4.19306 2.59041 3.48511
# Velocity P-wave (km/s) = 7.24977 6.18161 6.73689
#
# Compressibility (1/GPa) = 0.01510733
#
# Stress axis : x y z
#
# Youngs Moduli (GPa) = 99.35692 82.88928 65.09337
#
# Poissons Ratio (x) = 0.08365 0.30972
# Poissons Ratio (y) = 0.10027 0.35312
# Poissons Ratio (z) = 0.47275 0.44966
#
# Static dielectric constant tensor:
#      x y z
#    x 1.853370 0.000000 0.000000 
#    y 0.000000 1.944210 0.000000 
#    z 0.000000 0.000000 1.849140 
# 
# From -- ./inp_files/37539.got.cif
#   From: 2010.05.17/outbox.cif.g08.bks.cpg/sg48_19_cif.got.tgz:37539.got - 2010.06.03 20:39:00.
