data_PCOD9391981
_publ_section_title
;
Structure prediction by ZEFSAII (Michael W. Deem and Ramdas Pophale) SiO2 
 PCOD9391981
Probable space group: P C C M
;
_chemical_formula_sum "Si O2"
_cell_formula_units_Z 40
_cell_length_a 7.925550
_cell_length_b 28.159591
_cell_length_c 8.548508
_cell_angle_alpha 90.000000
_cell_angle_beta 90.000000
_cell_angle_gamma 90.000000
_cell_volume 1907.858122
_symmetry_space_group_name_H-M "P C C M"
_symmetry_group_IT_number 49
_symmetry_cell_setting 'orthorhombic'
loop_
_space_group_symop_operation_xyz
x,y,z
-x,-y,z
x,-y,1/2-z
-x,y,1/2-z
-x,-y,-z
x,y,-z
-x,y,1/2+z
x,-y,1/2+z
loop_
_atom_site_type_symbol
_atom_site_label
_atom_site_fract_x
_atom_site_fract_y
_atom_site_fract_z
Si Si1 0.189118 0.951869 0.685591
Si Si2 0.693169 0.250486 0.811156
Si Si3 0.306113 0.646956 0.811903
Si Si4 0.689110 0.148676 0.812072
Si Si5 0.693608 0.548992 0.186099
O O1 0.191918 0.954191 0.500000
O O2 0.251277 0.900757 0.741316
O O3 0.000000 0.953291 0.750000
O O4 0.276054 0.000000 0.750000
O O5 0.500000 0.251009 0.750000
O O6 0.769082 0.301605 0.764199
O O7 0.771635 0.199512 0.763939
O O8 0.686655 0.250236 0.000000
O O9 0.500000 0.648093 0.750000
O O10 0.228521 0.598709 0.743587
O O11 0.308517 0.643520 0.000000
O O12 0.500000 0.153080 0.750000
O O13 0.696102 0.144991 0.000000
O O14 0.770935 0.500000 0.250000
O O15 0.500000 0.549495 0.250000
O O16 0.688753 0.547795 0.000000
#
# Coordination Sequence:
#
# PCOD9391981 Si02
#       5
#     8   8   8   8   8
#     4  11  22  38  57  77  99 128 160 195 235 282
#     4   8  15  25  39  57  81 109 139 175 219 265
#     4   9  14  21  31  45  64  91 125 164 208 256
#     4  10  19  33  51  75 102 129 160 198 238 281
#     4  10  16  21  27  37  54  81 118 164 210 254
#
# _framework density 20.965919
#
# number of rings (size 3 to 8) (size 9 to 14) (size 15 to 20)
#    0.000    2.400    0.000    7.200    0.000    2.000 
#    0.000    2.000    0.000    0.000    0.000    0.000 
#    0.000    0.000    0.000    0.000    0.000    1.000 
#
# Total GULP energy -222763.629809 kJ/mol
# GULP energy per Si atom -5569.090745 kJ/mol
# Density = 2.091820 g / cm^3
# Si number density = 20.965919 Si / 1000 Ang^3
#
#
#
# Elastic Constant Matrix: (Units=GPa)
#
#
# Indices 1 2 3 4 5 6 
#
# 1 12.8906 22.6248 0.1317 0.0000 0.0000 0.0000
# 2 22.6248 308.1952 84.7745 0.0000 0.0000 0.0000
# 3 0.1317 84.7745 128.3881 0.0000 0.0000 0.0000
# 4 0.0000 0.0000 0.0000 35.7491 0.0000 0.0000
# 5 0.0000 0.0000 0.0000 0.0000 7.9423 0.0000
# 6 0.0000 0.0000 0.0000 0.0000 0.0000 131.7750
#
#
#
# Elastic Compliance Matrix: (Units=1/GPa)
#
#
# Indices 1 2 3 4 5 6 
#
# 1 0.091941 -0.008216 0.005330 0.000000 0.000000 0.000000
# 2 -0.008216 0.004699 -0.003094 0.000000 0.000000 0.000000
# 3 0.005330 -0.003094 0.009827 0.000000 0.000000 0.000000
# 4 0.000000 0.000000 0.000000 0.027973 0.000000 0.000000
# 5 0.000000 0.000000 0.000000 0.000000 0.125908 0.000000
# 6 0.000000 0.000000 0.000000 0.000000 0.000000 0.007589
#
#
# Mechanical properties :
#
#
# Convention : Reuss Voigt Hill
#
# Bulk Modulus (GPa) = 10.58112 73.83733 42.20922
# Shear Modulus (GPa) = 16.05661 57.88946 36.97304
#
# Velocity S-wave (km/s) = 2.77039 5.26034 4.20394
# Velocity P-wave (km/s) = 3.91039 8.49642 6.61363
#
# Compressibility (1/GPa) = 0.09450799
#
# Stress axis : x y z
#
# Youngs Moduli (GPa) = 10.87648 212.81324 101.76492
#
# Poissons Ratio (x) = 1.74842 -0.54246
# Poissons Ratio (y) = 0.08936 0.31489
# Poissons Ratio (z) = -0.05798 0.65851
#
# Static dielectric constant tensor:
#      x y z
#    x 1.787790 0.000000 0.000000 
#    y 0.000000 1.937070 0.000000 
#    z 0.000000 0.000000 1.690840 
# 
# From -- ./inp_files/1887.got.cif
#   From: 2010.05.17/outbox.cif.g08.bks.cpg/sg49_1_cif.got.tgz:1887.got - 2010.06.03 21:02:19.
