data_PCOD9391014
_publ_section_title
;
Structure prediction by ZEFSAII (Michael W. Deem and Ramdas Pophale) SiO2 
 PCOD9391014
Probable space group: P N N N
;
_chemical_formula_sum "Si O2"
_cell_formula_units_Z 40
_cell_length_a 5.000605
_cell_length_b 26.875739
_cell_length_c 13.848476
_cell_angle_alpha 90.000000
_cell_angle_beta 90.000000
_cell_angle_gamma 90.000000
_cell_volume 1861.165306
_symmetry_space_group_name_H-M "P N N N"
_symmetry_group_IT_number 48
_space_group.IT_coordinate_system_code '2'
_symmetry_cell_setting 'orthorhombic'
loop_
_space_group_symop_operation_xyz
x,y,z
1/2-x,1/2-y,z
x,1/2-y,1/2-z
1/2-x,y,1/2-z
-x,-y,-z
1/2+x,1/2+y,-z
-x,1/2+y,1/2+z
1/2+x,-y,1/2+z
loop_
_atom_site_type_symbol
_atom_site_label
_atom_site_fract_x
_atom_site_fract_y
_atom_site_fract_z
Si Si1 0.733938 0.305603 0.011744
Si Si2 0.113187 0.907353 0.054192
Si Si3 0.897019 0.072499 0.350773
Si Si4 0.112149 0.045963 0.648852
Si Si5 0.740484 0.665851 0.639420
O O1 0.750000 0.250000 0.972744
O O2 0.512437 0.314793 0.093798
O O3 0.011692 0.314526 0.067512
O O4 0.647069 0.347952 0.935739
O O5 0.325185 0.931416 0.126737
O O6 0.824793 0.932027 0.071452
O O7 0.219535 0.917251 0.945677
O O8 0.750000 0.086240 0.250000
O O9 0.160503 0.106946 0.357390
O O10 0.933229 0.013313 0.351974
O O11 0.250000 0.059097 0.750000
O O12 0.750000 0.682678 0.750000
#
# Coordination Sequence:
#
# PCOD9391014 Si02
#       5
#     8   8   8   8   8
#     4  11  24  40  60  85 116 161 210 260 316 363
#     4  11  22  41  62  87 122 161 206 257 308 364
#     4  10  22  38  61  94 132 168 200 238 299 377
#     4  11  24  40  63  91 122 161 207 256 308 368
#     4  11  22  37  57  88 127 164 203 245 294 369
#
# _framework density 21.491910000000001
#
# number of rings (size 3 to 8) (size 9 to 14) (size 15 to 20)
#    0.000    1.200    0.000    7.800    0.000    8.800 
#    0.000    0.000    0.000    3.600    0.000    0.000 
#    0.000    0.000    0.000    0.000    0.000    0.000 
#
# Total GULP energy -223492.116132 kJ/mol
# GULP energy per Si atom -5587.302903 kJ/mol
# Density = 2.144299 g / cm^3
# Si number density = 21.491910 Si / 1000 Ang^3
#
#
#
# Elastic Constant Matrix: (Units=GPa)
#
#
# Indices 1 2 3 4 5 6 
#
# 1 -677.3545 -19.0821 70.8262 0.0000 0.0000 0.0000
# 2 -19.0821 116.1915 14.6001 0.0000 0.0000 0.0000
# 3 70.8262 14.6001 40.5374 0.0000 0.0000 0.0000
# 4 0.0000 0.0000 0.0000 -16.8777 0.0000 0.0000
# 5 0.0000 0.0000 0.0000 0.0000 20.4365 0.0000
# 6 0.0000 0.0000 0.0000 0.0000 0.0000 39.0026
#
#
#
# Elastic Compliance Matrix: (Units=1/GPa)
#
#
# Indices 1 2 3 4 5 6 
#
# 1 -0.001221 -0.000491 0.002310 0.000000 0.000000 0.000000
# 2 -0.000491 0.008817 -0.002318 0.000000 0.000000 0.000000
# 3 0.002310 -0.002318 0.021467 0.000000 0.000000 0.000000
# 4 0.000000 0.000000 0.000000 -0.059250 0.000000 0.000000
# 5 0.000000 0.000000 0.000000 0.000000 0.048932 0.000000
# 6 0.000000 0.000000 0.000000 0.000000 0.000000 0.025639
#
#
# Mechanical properties :
#
#
# Convention : Reuss Voigt Hill
#
# Bulk Modulus (GPa) = 35.63047 -43.10413 -3.73683
# Shear Modulus (GPa) = 91.34352 -30.61905 30.36223
#
# Velocity S-wave (km/s) = 6.52638 -3.77859 3.76271
# Velocity P-wave (km/s) = 8.56773 6.25591 4.13942
#
# Compressibility (1/GPa) = 0.02806587
#
# Stress axis : x y z
#
# Youngs Moduli (GPa) = -819.02463 113.41519 46.58210
#
# Poissons Ratio (x) = 0.05566 -0.10760
# Poissons Ratio (y) = -0.40196 0.10798
# Poissons Ratio (z) = 1.89195 0.26291
#
# Static dielectric constant tensor:
#      x y z
#    x 1.849940 0.000000 0.000000 
#    y 0.000000 1.866500 0.000000 
#    z 0.000000 0.000000 1.627840 
# 
# From -- ./inp_files/24306.got.cif
#   From: 2010.05.17/outbox.cif.g08.bks.cpg/sg48_13_cif.got.tgz:24306.got - 2010.06.03 20:39:00.
