data_PCOD9391936
_publ_section_title
;
Structure prediction by ZEFSAII (Michael W. Deem and Ramdas Pophale) SiO2 
 PCOD9391936
Probable space group: P N N N
;
_chemical_formula_sum "Si O2"
_cell_formula_units_Z 64
_cell_length_a 24.000000
_cell_length_b 12.000000
_cell_length_c 12.000000
_cell_angle_alpha 90.000000
_cell_angle_beta 90.000000
_cell_angle_gamma 90.000000
_cell_volume 3456.000000
_symmetry_space_group_name_H-M "P N N N"
_symmetry_group_IT_number 48
_space_group.IT_coordinate_system_code '2'
_symmetry_cell_setting 'orthorhombic'
loop_
_space_group_symop_operation_xyz
x,y,z
1/2-x,1/2-y,z
x,1/2-y,1/2-z
1/2-x,y,1/2-z
-x,-y,-z
1/2+x,1/2+y,-z
-x,1/2+y,1/2+z
1/2+x,-y,1/2+z
loop_
_atom_site_type_symbol
_atom_site_label
_atom_site_fract_x
_atom_site_fract_y
_atom_site_fract_z
Si Si1 0.185942 0.616195 0.256170
Si Si2 0.687277 0.127934 0.209177
Si Si3 0.051566 0.423828 0.034708
Si Si4 0.485503 0.378940 0.225063
Si Si5 0.534843 0.669431 0.030376
Si Si6 0.403859 0.993338 0.663595
Si Si7 0.138734 0.600425 0.019830
Si Si8 0.093808 0.652859 0.442904
O O1 0.190436 0.750000 0.250000
O O2 0.250000 0.573904 0.250000
O O3 0.161730 0.574728 0.140735
O O4 0.139101 0.604647 0.354175
O O5 0.666027 0.250000 0.250000
O O6 0.750000 0.117702 0.250000
O O7 0.649394 0.030942 0.261280
O O8 0.683224 0.124444 0.075994
O O9 0.103103 0.493122 0.988338
O O10 0.052501 0.414585 0.170406
O O11 0.044533 0.300535 0.985563
O O12 0.000000 0.500000 0.000000
O O13 0.500275 0.250000 0.250000
O O14 0.541472 0.450867 0.228370
O O15 0.463721 0.381060 0.096781
O O16 0.580122 0.611544 0.109634
O O17 0.472788 0.645313 0.080062
O O18 0.397329 0.911884 0.557557
O O19 0.104716 0.715739 0.035719
#
# Coordination Sequence:
#
# PCOD9391936 Si02
#       8
#     8   8   8   8   8   8   8   8
#     4   9  21  35  56  84 123 152 187 242 310 361
#     4  11  24  40  62  88 115 159 206 258 303 360
#     4  11  21  37  56  84 123 158 198 245 296 361
#     4   9  19  34  57  83 119 158 190 234 290 354
#     4  10  22  37  57  87 124 164 198 236 296 369
#     4  11  21  35  61  84 123 152 204 238 298 360
#     4  11  22  37  58  88 121 152 196 248 304 353
#     4  10  19  36  58  91 119 155 189 239 300 364
#
# _framework density 18.518519000000001
#
# number of rings (size 3 to 8) (size 9 to 14) (size 15 to 20)
#    0.000    1.750    2.500    2.625    7.000    1.000 
#    0.000    2.500    0.000    1.500    0.000    0.875 
#    0.000    0.000    0.000    0.000    0.000    0.000 
#
# Total GULP energy -356706.077532 kJ/mol
# GULP energy per Si atom -5573.532461 kJ/mol
# Density = 1.847637 g / cm^3
# Si number density = 18.518519 Si / 1000 Ang^3
#
#
#
# Elastic Constant Matrix: (Units=GPa)
#
#
# Indices 1 2 3 4 5 6 
#
# 1 69.9031 33.6899 38.5801 0.0000 0.0000 0.0000
# 2 33.6899 86.6410 26.8893 0.0000 0.0000 0.0000
# 3 38.5801 26.8893 77.1468 0.0000 0.0000 0.0000
# 4 0.0000 0.0000 0.0000 18.1998 0.0000 0.0000
# 5 0.0000 0.0000 0.0000 0.0000 16.3206 0.0000
# 6 0.0000 0.0000 0.0000 0.0000 0.0000 13.5500
#
#
#
# Elastic Compliance Matrix: (Units=1/GPa)
#
#
# Indices 1 2 3 4 5 6 
#
# 1 0.022072 -0.005782 -0.009022 0.000000 0.000000 0.000000
# 2 -0.005782 0.014457 -0.002147 0.000000 0.000000 0.000000
# 3 -0.009022 -0.002147 0.018223 0.000000 0.000000 0.000000
# 4 0.000000 0.000000 0.000000 0.054946 0.000000 0.000000
# 5 0.000000 0.000000 0.000000 0.000000 0.061272 0.000000
# 6 0.000000 0.000000 0.000000 0.000000 0.000000 0.073801
#
#
# Mechanical properties :
#
#
# Convention : Reuss Voigt Hill
#
# Bulk Modulus (GPa) = 47.96776 48.00107 47.98442
# Shear Modulus (GPa) = 17.50559 18.58285 18.04422
#
# Velocity S-wave (km/s) = 3.07791 3.17120 3.12491
# Velocity P-wave (km/s) = 6.21210 6.27579 6.24403
#
# Compressibility (1/GPa) = 0.02084734
#
# Stress axis : x y z
#
# Youngs Moduli (GPa) = 45.30637 69.17201 54.87663
#
# Poissons Ratio (x) = 0.39998 0.49512
# Poissons Ratio (y) = 0.26198 0.11783
# Poissons Ratio (z) = 0.40877 0.14852
#
# Static dielectric constant tensor:
#      x y z
#    x 1.704060 0.000000 0.000000 
#    y 0.000000 1.480880 0.000000 
#    z 0.000000 0.000000 1.695500 
# 
# From -- ./inp_files/23437.got.cif
#   From: 2010.05.17/outbox.ucp.g08.bks.cvg/sg48_12_cif.got.tgz:23437.got - 2010.06.11 16:38:40.
