data_PCOD9391036
_publ_section_title
;
Structure prediction by ZEFSAII (Michael W. Deem and Ramdas Pophale) SiO2 
 PCOD9391036
Probable space group: P N N N
;
_chemical_formula_sum "Si O2"
_cell_formula_units_Z 40
_cell_length_a 15.084187
_cell_length_b 9.144023
_cell_length_c 14.412572
_cell_angle_alpha 90.000000
_cell_angle_beta 90.000000
_cell_angle_gamma 90.000000
_cell_volume 1987.928259
_symmetry_space_group_name_H-M "P N N N"
_symmetry_group_IT_number 48
_space_group.IT_coordinate_system_code '2'
_symmetry_cell_setting 'orthorhombic'
loop_
_space_group_symop_operation_xyz
x,y,z
1/2-x,1/2-y,z
x,1/2-y,1/2-z
1/2-x,y,1/2-z
-x,-y,-z
1/2+x,1/2+y,-z
-x,1/2+y,1/2+z
1/2+x,-y,1/2+z
loop_
_atom_site_type_symbol
_atom_site_label
_atom_site_fract_x
_atom_site_fract_y
_atom_site_fract_z
Si Si1 0.238362 0.078844 0.856332
Si Si2 0.343417 0.833541 0.906479
Si Si3 0.984922 0.899770 0.721993
Si Si4 0.539858 0.930245 0.406849
Si Si5 0.042354 0.620889 0.068687
O O1 0.250000 0.250000 0.854361
O O2 0.250000 0.025307 0.750000
O O3 0.144482 0.042735 0.900074
O O4 0.314102 0.001595 0.913342
O O5 0.250000 0.750000 0.883336
O O6 0.425275 0.840180 0.832766
O O7 0.381943 0.798688 0.007684
O O8 0.936132 0.750000 0.750000
O O9 0.005222 0.987786 0.815525
O O10 0.936818 0.017564 0.656047
O O11 0.520205 0.756519 0.402579
O O12 0.500000 0.000000 0.500000
O O13 0.000000 0.500000 0.000000
#
# Coordination Sequence:
#
# PCOD9391036 Si02
#       5
#     8   8   8   8   8
#     4  11  22  35  60  91 126 157 198 263 322 367
#     4  11  22  39  61  94 126 160 208 271 324 371
#     4  11  22  37  60  90 124 164 212 261 315 383
#     4  12  23  39  60  92 128 173 209 257 325 392
#     4  10  22  39  59  88 128 167 213 259 315 387
#
# _framework density 20.121451
#
# number of rings (size 3 to 8) (size 9 to 14) (size 15 to 20)
#    0.000    1.000    2.000    7.800    2.800    0.000 
#    0.000    0.000    0.000    8.400    0.000   12.600 
#    0.000    0.000    0.000    0.000    0.000    0.000 
#
# Total GULP energy -222935.315417 kJ/mol
# GULP energy per Si atom -5573.382885 kJ/mol
# Density = 2.007565 g / cm^3
# Si number density = 20.121451 Si / 1000 Ang^3
#
#
#
# Elastic Constant Matrix: (Units=GPa)
#
#
# Indices 1 2 3 4 5 6 
#
# 1 55.9291 8.4930 34.4902 0.0000 0.0000 0.0000
# 2 8.4930 117.5855 30.1983 0.0000 0.0000 0.0000
# 3 34.4902 30.1983 125.5615 0.0000 0.0000 0.0000
# 4 0.0000 0.0000 0.0000 39.3903 0.0000 0.0000
# 5 0.0000 0.0000 0.0000 0.0000 26.6257 0.0000
# 6 0.0000 0.0000 0.0000 0.0000 0.0000 33.5838
#
#
#
# Elastic Compliance Matrix: (Units=1/GPa)
#
#
# Indices 1 2 3 4 5 6 
#
# 1 0.021526 -0.000039 -0.005904 0.000000 0.000000 0.000000
# 2 -0.000039 0.009064 -0.002169 0.000000 0.000000 0.000000
# 3 -0.005904 -0.002169 0.010108 0.000000 0.000000 0.000000
# 4 0.000000 0.000000 0.000000 0.025387 0.000000 0.000000
# 5 0.000000 0.000000 0.000000 0.000000 0.037558 0.000000
# 6 0.000000 0.000000 0.000000 0.000000 0.000000 0.029776
#
#
# Mechanical properties :
#
#
# Convention : Reuss Voigt Hill
#
# Bulk Modulus (GPa) = 40.85829 49.49324 45.17576
# Shear Modulus (GPa) = 31.68546 34.97961 33.33253
#
# Velocity S-wave (km/s) = 3.97257 4.17396 4.07451
# Velocity P-wave (km/s) = 6.43363 6.91953 6.68100
#
# Compressibility (1/GPa) = 0.02447484
#
# Stress axis : x y z
#
# Youngs Moduli (GPa) = 46.45472 110.32178 98.93479
#
# Poissons Ratio (x) = 0.00426 0.58408
# Poissons Ratio (y) = 0.00179 0.21463
# Poissons Ratio (z) = 0.27426 0.23934
#
# Static dielectric constant tensor:
#      x y z
#    x 1.749660 0.000000 0.000000 
#    y 0.000000 1.769610 0.000000 
#    z 0.000000 0.000000 1.871270 
# 
# From -- ./inp_files/12297.got.cif
#   From: 2010.05.17/outbox.cif.g08.bks.cpg/sg48_7_cif.got.tgz:12297.got - 2010.06.03 20:39:00.
