data_PCOD9391320
_publ_section_title
;
Structure prediction by ZEFSAII (Michael W. Deem and Ramdas Pophale) SiO2 
 PCOD9391320
Probable space group: P N N N
;
_chemical_formula_sum "Si O2"
_cell_formula_units_Z 32
_cell_length_a 27.876234
_cell_length_b 9.595057
_cell_length_c 5.187032
_cell_angle_alpha 90.000000
_cell_angle_beta 90.000000
_cell_angle_gamma 90.000000
_cell_volume 1387.396478
_symmetry_space_group_name_H-M "P N N N"
_symmetry_group_IT_number 48
_space_group.IT_coordinate_system_code '2'
_symmetry_cell_setting 'orthorhombic'
loop_
_space_group_symop_operation_xyz
x,y,z
1/2-x,1/2-y,z
x,1/2-y,1/2-z
1/2-x,y,1/2-z
-x,-y,-z
1/2+x,1/2+y,-z
-x,1/2+y,1/2+z
1/2+x,-y,1/2+z
loop_
_atom_site_type_symbol
_atom_site_label
_atom_site_fract_x
_atom_site_fract_y
_atom_site_fract_z
Si Si1 0.054162 0.750000 0.750000
Si Si2 0.010444 0.250000 0.750000
Si Si3 0.839792 0.896599 0.849129
Si Si4 0.096634 0.048566 0.656883
Si Si5 0.196562 0.814719 0.009563
O O1 0.084642 0.611718 0.797046
O O2 0.022047 0.717842 0.497386
O O3 0.046007 0.127692 0.657430
O O4 0.817975 0.750000 0.750000
O O5 0.873333 0.937125 0.606386
O O6 0.804044 0.020649 0.937473
O O7 0.873492 0.888114 0.101658
O O8 0.250000 0.750000 0.010802
O O9 0.168885 0.750000 0.250000
O O10 0.176571 0.750000 0.750000
#
# Coordination Sequence:
#
# PCOD9391320 Si02
#       5
#     4   4   8   8   8
#     4  12  26  40  66  98 133 192 232 301 350 412
#     4  12  22  46  62  94 146 181 237 294 358 408
#     4  12  24  44  69 102 143 182 230 292 352 417
#     4  12  25  42  67 101 137 183 242 289 347 416
#     4  10  23  44  72 106 138 177 222 286 352 424
#
# _framework density 23.064784
#
# number of rings (size 3 to 8) (size 9 to 14) (size 15 to 20)
#    0.000    0.500    2.500    6.000    5.250    0.000 
#    0.000    2.500    0.000    6.000    0.000    0.000 
#    0.000    0.000    0.000    0.000    0.000    0.000 
#
# Total GULP energy -178825.953251 kJ/mol
# GULP energy per Si atom -5588.311039 kJ/mol
# Density = 2.301229 g / cm^3
# Si number density = 23.064784 Si / 1000 Ang^3
#
#
#
# Elastic Constant Matrix: (Units=GPa)
#
#
# Indices 1 2 3 4 5 6 
#
# 1 84.5870 53.8430 44.0893 0.0000 0.0000 0.0000
# 2 53.8430 198.2189 42.1905 0.0000 0.0000 0.0000
# 3 44.0893 42.1905 209.8672 0.0000 0.0000 0.0000
# 4 0.0000 0.0000 0.0000 243.9041 0.0000 0.0000
# 5 0.0000 0.0000 0.0000 0.0000 12.6683 0.0000
# 6 0.0000 0.0000 0.0000 0.0000 0.0000 22.4411
#
#
#
# Elastic Compliance Matrix: (Units=1/GPa)
#
#
# Indices 1 2 3 4 5 6 
#
# 1 0.015465 -0.003666 -0.002512 0.000000 0.000000 0.000000
# 2 -0.003666 0.006140 -0.000464 0.000000 0.000000 0.000000
# 3 -0.002512 -0.000464 0.005386 0.000000 0.000000 0.000000
# 4 0.000000 0.000000 0.000000 0.004100 0.000000 0.000000
# 5 0.000000 0.000000 0.000000 0.000000 0.078937 0.000000
# 6 0.000000 0.000000 0.000000 0.000000 0.000000 0.044561
#
#
# Mechanical properties :
#
#
# Convention : Reuss Voigt Hill
#
# Bulk Modulus (GPa) = 72.95935 85.87986 79.41960
# Shear Modulus (GPa) = 28.99528 79.30605 54.15067
#
# Velocity S-wave (km/s) = 3.54944 5.87015 4.85063
# Velocity P-wave (km/s) = 6.96413 9.12469 8.11662
#
# Compressibility (1/GPa) = 0.01370626
#
# Stress axis : x y z
#
# Youngs Moduli (GPa) = 64.66163 162.87795 185.66934
#
# Poissons Ratio (x) = 0.59714 0.46639
# Poissons Ratio (y) = 0.23706 0.08616
# Poissons Ratio (z) = 0.16242 0.07559
#
# Static dielectric constant tensor:
#      x y z
#    x 3.752880 0.000000 0.000000 
#    y 0.000000 1.920440 0.000000 
#    z 0.000000 0.000000 1.859170 
# 
# From -- ./inp_files/1073.got.cif
#   From: 2010.05.17/outbox.cif.g08.bks.cpg/sg48_1_cif.got.tgz:1073.got - 2010.06.03 20:39:00.
