data_PCOD9391403
_publ_section_title
;
Structure prediction by ZEFSAII (Michael W. Deem and Ramdas Pophale) SiO2 
 PCOD9391403
Probable space group: P N N N
;
_chemical_formula_sum "Si O2"
_cell_formula_units_Z 56
_cell_length_a 8.680064
_cell_length_b 22.524487
_cell_length_c 13.508557
_cell_angle_alpha 90.000000
_cell_angle_beta 90.000000
_cell_angle_gamma 90.000000
_cell_volume 2641.111861
_symmetry_space_group_name_H-M "P N N N"
_symmetry_group_IT_number 48
_space_group.IT_coordinate_system_code '2'
_symmetry_cell_setting 'orthorhombic'
loop_
_space_group_symop_operation_xyz
x,y,z
1/2-x,1/2-y,z
x,1/2-y,1/2-z
1/2-x,y,1/2-z
-x,-y,-z
1/2+x,1/2+y,-z
-x,1/2+y,1/2+z
1/2+x,-y,1/2+z
loop_
_atom_site_type_symbol
_atom_site_label
_atom_site_fract_x
_atom_site_fract_y
_atom_site_fract_z
Si Si1 0.750000 0.133974 0.250000
Si Si2 0.241614 0.052945 0.635287
Si Si3 0.076193 0.152008 0.536325
Si Si4 0.485165 0.614975 0.025963
Si Si5 0.930309 0.260554 0.640563
Si Si6 0.584983 0.836508 0.688306
Si Si7 0.250000 0.250000 0.076342
Si Si8 0.824150 0.069109 0.448877
O O1 0.579834 0.163885 0.256003
O O2 0.763192 0.094223 0.346027
O O3 0.250000 0.036105 0.750000
O O4 0.144507 0.113307 0.624805
O O5 0.403581 0.070560 0.585410
O O6 0.165385 0.000913 0.569778
O O7 0.206161 0.190597 0.481625
O O8 0.974336 0.205510 0.573037
O O9 0.978422 0.105255 0.473289
O O10 0.473169 0.677895 0.085635
O O11 0.549688 0.623764 0.912237
O O12 0.313174 0.587426 0.023098
O O13 0.750000 0.250000 0.650967
O O14 0.001857 0.250000 0.750000
O O15 0.750000 0.850434 0.750000
O O16 0.611324 0.770986 0.644442
#
# Coordination Sequence:
#
# PCOD9391403 Si02
#       8
#     4   8   8   8   8   8   4   8
#     4  10  24  44  71  96 138 183 236 286 356 418
#     4  12  25  45  68  98 139 184 242 290 349 424
#     4  12  23  42  71  99 135 182 228 287 362 419
#     4  11  23  45  71 100 138 186 227 295 365 414
#     4  11  22  41  70 103 140 172 230 298 357 438
#     4  11  23  43  69 104 144 181 232 291 352 431
#     4  12  23  42  69 100 146 176 229 292 357 434
#     4  11  24  45  68  97 134 184 237 289 348 427
#
# _framework density 21.203189999999999
#
# number of rings (size 3 to 8) (size 9 to 14) (size 15 to 20)
#    0.000    0.714    5.000    2.786    0.000    0.000 
#    0.000    6.429    0.000    0.000    0.000    0.000 
#    0.000    0.000    0.000    0.000    0.000    0.000 
#
# Total GULP energy -311878.365410 kJ/mol
# GULP energy per Si atom -5569.256525 kJ/mol
# Density = 2.115493 g / cm^3
# Si number density = 21.203190 Si / 1000 Ang^3
#
#
#
# Elastic Constant Matrix: (Units=GPa)
#
#
# Indices 1 2 3 4 5 6 
#
# 1 105.4021 35.5154 31.8763 0.0000 0.0000 0.0000
# 2 35.5154 127.4650 36.5845 0.0000 0.0000 0.0000
# 3 31.8763 36.5845 92.7972 0.0000 0.0000 0.0000
# 4 0.0000 0.0000 0.0000 28.0078 0.0000 0.0000
# 5 0.0000 0.0000 0.0000 0.0000 21.8487 0.0000
# 6 0.0000 0.0000 0.0000 0.0000 0.0000 28.8321
#
#
#
# Elastic Compliance Matrix: (Units=1/GPa)
#
#
# Indices 1 2 3 4 5 6 
#
# 1 0.011137 -0.002261 -0.002934 0.000000 0.000000 0.000000
# 2 -0.002261 0.009305 -0.002892 0.000000 0.000000 0.000000
# 3 -0.002934 -0.002892 0.012924 0.000000 0.000000 0.000000
# 4 0.000000 0.000000 0.000000 0.035704 0.000000 0.000000
# 5 0.000000 0.000000 0.000000 0.000000 0.045769 0.000000
# 6 0.000000 0.000000 0.000000 0.000000 0.000000 0.034684
#
#
# Mechanical properties :
#
#
# Convention : Reuss Voigt Hill
#
# Bulk Modulus (GPa) = 58.16573 59.29075 58.72824
# Shear Modulus (GPa) = 29.16678 30.51693 29.84185
#
# Velocity S-wave (km/s) = 3.71291 3.79788 3.75563
# Velocity P-wave (km/s) = 6.77296 6.87427 6.82381
#
# Compressibility (1/GPa) = 0.01719226
#
# Stress axis : x y z
#
# Youngs Moduli (GPa) = 89.79371 107.46631 77.37421
#
# Poissons Ratio (x) = 0.24296 0.22703
# Poissons Ratio (y) = 0.20301 0.22376
# Poissons Ratio (z) = 0.26347 0.31078
#
# Static dielectric constant tensor:
#      x y z
#    x 1.623270 0.000000 0.000000 
#    y 0.000000 1.762270 0.000000 
#    z 0.000000 0.000000 1.877800 
# 
# From -- ./inp_files/25638.got.cif
#   From: 2010.05.17/outbox.cif.g08.bks.cpg/sg48_13_cif.got.tgz:25638.got - 2010.06.03 20:39:00.
