data_PCOD9391354
_publ_section_title
;
Structure prediction by ZEFSAII (Michael W. Deem and Ramdas Pophale) SiO2 
 PCOD9391354
Probable space group: P N N N
;
_chemical_formula_sum "Si O2"
_cell_formula_units_Z 52
_cell_length_a 21.220144
_cell_length_b 5.122014
_cell_length_c 25.189896
_cell_angle_alpha 90.000000
_cell_angle_beta 90.000000
_cell_angle_gamma 90.000000
_cell_volume 2737.886639
_symmetry_space_group_name_H-M "P N N N"
_symmetry_group_IT_number 48
_space_group.IT_coordinate_system_code '2'
_symmetry_cell_setting 'orthorhombic'
loop_
_space_group_symop_operation_xyz
x,y,z
1/2-x,1/2-y,z
x,1/2-y,1/2-z
1/2-x,y,1/2-z
-x,-y,-z
1/2+x,1/2+y,-z
-x,1/2+y,1/2+z
1/2+x,-y,1/2+z
loop_
_atom_site_type_symbol
_atom_site_label
_atom_site_fract_x
_atom_site_fract_y
_atom_site_fract_z
Si Si1 0.885458 0.245725 0.511066
Si Si2 0.309842 0.362253 0.879402
Si Si3 0.750000 0.250000 0.035071
Si Si4 0.548385 0.222694 0.879780
Si Si5 0.921092 0.769832 0.446543
Si Si6 0.606617 0.017960 0.284551
Si Si7 0.036081 0.200153 0.190659
O O1 0.811750 0.187816 0.499665
O O2 0.901490 0.220977 0.572711
O O3 0.905120 0.522443 0.484303
O O4 0.926859 0.027205 0.481464
O O5 0.250000 0.250000 0.848697
O O6 0.276103 0.528487 0.925354
O O7 0.360345 0.179644 0.908910
O O8 0.353289 0.505873 0.837716
O O9 0.481827 0.277205 0.910042
O O10 0.565326 0.457422 0.840367
O O11 0.540492 0.957748 0.845831
O O12 0.604721 0.750000 0.250000
O O13 0.634520 0.250000 0.250000
O O14 0.536190 0.106993 0.300144
O O15 0.061592 0.250000 0.250000
#
# Coordination Sequence:
#
# PCOD9391354 Si02
#       7
#     8   8   4   8   8   8   8
#     4  11  23  39  59  89 120 153 198 239 296 360
#     4  11  23  39  61  77 119 166 210 242 301 341
#     4  10  24  40  59  84 123 160 194 244 294 366
#     4  12  22  38  63  90 116 154 193 248 301 354
#     4  11  22  37  58  87 116 156 198 248 293 349
#     4  11  25  41  60  82 116 159 213 262 292 337
#     4  11  23  39  62  88 120 153 193 248 304 353
#
# _framework density 18.992750000000001
#
# number of rings (size 3 to 8) (size 9 to 14) (size 15 to 20)
#    0.000    0.923    3.077    5.077    4.308    0.308 
#    0.000    0.000    0.000    0.000    0.000    3.231 
#    0.000    0.000    0.000    0.000    0.000    0.000 
#
# Total GULP energy -290287.884641 kJ/mol
# GULP energy per Si atom -5582.459320 kJ/mol
# Density = 1.894952 g / cm^3
# Si number density = 18.992750 Si / 1000 Ang^3
#
#
#
# Elastic Constant Matrix: (Units=GPa)
#
#
# Indices 1 2 3 4 5 6 
#
# 1 59.6695 5.9214 33.1857 0.0000 0.0000 0.0000
# 2 5.9214 106.2486 45.7036 0.0000 0.0000 0.0000
# 3 33.1857 45.7036 119.5658 0.0000 0.0000 0.0000
# 4 0.0000 0.0000 0.0000 23.4735 0.0000 0.0000
# 5 0.0000 0.0000 0.0000 0.0000 128.7314 0.0000
# 6 0.0000 0.0000 0.0000 0.0000 0.0000 -7.6286
#
#
#
# Elastic Compliance Matrix: (Units=1/GPa)
#
#
# Indices 1 2 3 4 5 6 
#
# 1 0.020023 0.001525 -0.006140 0.000000 0.000000 0.000000
# 2 0.001525 0.011380 -0.004773 0.000000 0.000000 0.000000
# 3 -0.006140 -0.004773 0.011893 0.000000 0.000000 0.000000
# 4 0.000000 0.000000 0.000000 0.042601 0.000000 0.000000
# 5 0.000000 0.000000 0.000000 0.000000 0.007768 0.000000
# 6 0.000000 0.000000 0.000000 0.000000 0.000000 -0.131086
#
#
# Mechanical properties :
#
#
# Convention : Reuss Voigt Hill
#
# Bulk Modulus (GPa) = 40.78543 50.56725 45.67634
# Shear Modulus (GPa) = -477.45663 42.29349 -217.58157
#
# Velocity S-wave (km/s) = -15.87245 4.72404 -10.71490
# Velocity P-wave (km/s) = 17.73110 7.51251 11.35681
#
# Compressibility (1/GPa) = 0.02451856
#
# Stress axis : x y z
#
# Youngs Moduli (GPa) = 49.94341 87.87197 84.08656
#
# Poissons Ratio (x) = -0.13404 0.51633
# Poissons Ratio (y) = -0.07619 0.40138
# Poissons Ratio (z) = 0.30667 0.41945
#
# Static dielectric constant tensor:
#      x y z
#    x 1.681970 0.000000 0.000000 
#    y 0.000000 1.698620 0.000000 
#    z 0.000000 0.000000 1.803760 
# 
# From -- ./inp_files/34815.got.cif
#   From: 2010.05.17/outbox.cif.g08.bks.cpg/sg48_18_cif.got.tgz:34815.got - 2010.06.03 20:39:00.
