data_PCOD9391637
_publ_section_title
;
Structure prediction by ZEFSAII (Michael W. Deem and Ramdas Pophale) SiO2 
 PCOD9391637
Probable space group: P N N N
;
_chemical_formula_sum "Si O2"
_cell_formula_units_Z 40
_cell_length_a 22.852860
_cell_length_b 13.045350
_cell_length_c 5.230936
_cell_angle_alpha 90.000000
_cell_angle_beta 90.000000
_cell_angle_gamma 90.000000
_cell_volume 1559.465248
_symmetry_space_group_name_H-M "P N N N"
_symmetry_group_IT_number 48
_space_group.IT_coordinate_system_code '2'
_symmetry_cell_setting 'orthorhombic'
loop_
_space_group_symop_operation_xyz
x,y,z
1/2-x,1/2-y,z
x,1/2-y,1/2-z
1/2-x,y,1/2-z
-x,-y,-z
1/2+x,1/2+y,-z
-x,1/2+y,1/2+z
1/2+x,-y,1/2+z
loop_
_atom_site_type_symbol
_atom_site_label
_atom_site_fract_x
_atom_site_fract_y
_atom_site_fract_z
Si Si1 0.347631 0.029085 0.632252
Si Si2 0.333416 0.809656 0.497741
Si Si3 0.975379 0.211851 0.011509
Si Si4 0.314602 0.132424 0.157895
Si Si5 0.977560 0.030143 0.230124
O O1 0.359234 0.080636 0.356465
O O2 0.408603 0.990022 0.738863
O O3 0.313799 0.926104 0.549390
O O4 0.322373 0.101856 0.859739
O O5 0.317352 0.750000 0.750000
O O6 0.404707 0.803292 0.475175
O O7 0.311960 0.750000 0.250000
O O8 0.004337 0.250000 0.750000
O O9 0.997152 0.081223 0.952282
O O10 0.982337 0.170571 0.315196
O O11 0.318288 0.250000 0.250000
O O12 0.250000 0.098984 0.250000
O O13 0.000000 0.000000 0.500000
#
# Coordination Sequence:
#
# PCOD9391637 Si02
#       5
#     8   8   8   8   8
#     4  11  22  40  66  93 126 170 216 271 333 398
#     4   9  17  31  56  88 118 153 196 242 298 373
#     4   9  17  31  50  72 102 146 199 239 276 348
#     4  11  24  44  69  95 125 169 229 289 345 399
#     4  11  22  37  56  85 125 164 203 253 321 395
#
# _framework density 25.649819999999998
#
# number of rings (size 3 to 8) (size 9 to 14) (size 15 to 20)
#    0.000    1.800    0.000    4.800    0.000    8.000 
#    0.000   10.000    0.000    9.000    0.000    0.000 
#    0.000    0.000    0.000    0.000    0.000    0.000 
#
# Total GULP energy -222790.233809 kJ/mol
# GULP energy per Si atom -5569.755845 kJ/mol
# Density = 2.559144 g / cm^3
# Si number density = 25.649820 Si / 1000 Ang^3
#
#
#
# Elastic Constant Matrix: (Units=GPa)
#
#
# Indices 1 2 3 4 5 6 
#
# 1 36.3631 25.5361 13.5800 0.0000 0.0000 0.0000
# 2 25.5361 210.4446 94.9147 0.0000 0.0000 0.0000
# 3 13.5800 94.9147 234.9095 0.0000 0.0000 0.0000
# 4 0.0000 0.0000 0.0000 67.1573 0.0000 0.0000
# 5 0.0000 0.0000 0.0000 0.0000 31.4411 0.0000
# 6 0.0000 0.0000 0.0000 0.0000 0.0000 20.5559
#
#
#
# Elastic Compliance Matrix: (Units=1/GPa)
#
#
# Indices 1 2 3 4 5 6 
#
# 1 0.030082 -0.003505 -0.000323 0.000000 0.000000 0.000000
# 2 -0.003505 0.006219 -0.002310 0.000000 0.000000 0.000000
# 3 -0.000323 -0.002310 0.005209 0.000000 0.000000 0.000000
# 4 0.000000 0.000000 0.000000 0.014890 0.000000 0.000000
# 5 0.000000 0.000000 0.000000 0.000000 0.031805 0.000000
# 6 0.000000 0.000000 0.000000 0.000000 0.000000 0.048648
#
#
# Mechanical properties :
#
#
# Convention : Reuss Voigt Hill
#
# Bulk Modulus (GPa) = 34.20597 83.30876 58.75737
# Shear Modulus (GPa) = 31.47141 47.00997 39.24069
#
# Velocity S-wave (km/s) = 3.50661 4.28572 3.91559
# Velocity P-wave (km/s) = 5.45525 7.55246 6.58784
#
# Compressibility (1/GPa) = 0.02923466
#
# Stress axis : x y z
#
# Youngs Moduli (GPa) = 33.24231 160.79624 191.97314
#
# Poissons Ratio (x) = 0.56353 0.06201
# Poissons Ratio (y) = 0.11650 0.44350
# Poissons Ratio (z) = 0.01074 0.37147
#
# Static dielectric constant tensor:
#      x y z
#    x 2.084540 0.000000 0.000000 
#    y 0.000000 3.410760 0.000000 
#    z 0.000000 0.000000 2.230670 
# 
# From -- ./inp_files/6294.got.cif
#   From: 2010.05.17/outbox.cif.g08.bks.cpg/sg48_4_cif.got.tgz:6294.got - 2010.06.03 20:39:00.
