data_PCOD9391678
_publ_section_title
;
Structure prediction by ZEFSAII (Michael W. Deem and Ramdas Pophale) SiO2 
 PCOD9391678
Probable space group: P N N N
;
_chemical_formula_sum "Si O2"
_cell_formula_units_Z 32
_cell_length_a 8.758526
_cell_length_b 11.272401
_cell_length_c 12.972827
_cell_angle_alpha 90.000000
_cell_angle_beta 90.000000
_cell_angle_gamma 90.000000
_cell_volume 1280.802244
_symmetry_space_group_name_H-M "P N N N"
_symmetry_group_IT_number 48
_space_group.IT_coordinate_system_code '2'
_symmetry_cell_setting 'orthorhombic'
loop_
_space_group_symop_operation_xyz
x,y,z
1/2-x,1/2-y,z
x,1/2-y,1/2-z
1/2-x,y,1/2-z
-x,-y,-z
1/2+x,1/2+y,-z
-x,1/2+y,1/2+z
1/2+x,-y,1/2+z
loop_
_atom_site_type_symbol
_atom_site_label
_atom_site_fract_x
_atom_site_fract_y
_atom_site_fract_z
Si Si1 0.913527 0.477022 0.139557
Si Si2 0.587163 0.310950 0.548666
Si Si3 0.605816 0.878770 0.699968
Si Si4 0.624083 0.901477 0.467104
O O1 0.762446 0.545837 0.098845
O O2 0.046776 0.568253 0.106665
O O3 0.952433 0.444019 0.258172
O O4 0.918093 0.356728 0.070492
O O5 0.750000 0.250000 0.566947
O O6 0.461652 0.212413 0.578375
O O7 0.592340 0.750000 0.750000
O O8 0.750000 0.943742 0.750000
O O9 0.660611 0.863841 0.583502
O O10 0.500000 0.000000 0.500000
#
# Coordination Sequence:
#
# PCOD9391678 Si02
#       4
#     8   8   8   8
#     4  11  24  44  75 108 149 200 251 317 395 451
#     4  11  22  42  71 107 145 198 250 309 389 454
#     4  11  24  43  73 112 144 189 263 313 369 474
#     4  12  25  44  73 109 153 198 252 320 392 456
#
# _framework density 24.984342000000002
#
# number of rings (size 3 to 8) (size 9 to 14) (size 15 to 20)
#    0.000    0.750    5.000    3.750    3.500    1.000 
#    0.000    3.750    5.500    3.000    0.000    0.000 
#    0.000    0.000    0.000    0.000    0.000    0.000 
#
# Total GULP energy -178555.823529 kJ/mol
# GULP energy per Si atom -5579.869485 kJ/mol
# Density = 2.492748 g / cm^3
# Si number density = 24.984342 Si / 1000 Ang^3
#
#
#
# Elastic Constant Matrix: (Units=GPa)
#
#
# Indices 1 2 3 4 5 6 
#
# 1 168.7777 78.2105 66.9627 0.0000 0.0000 0.0000
# 2 78.2105 93.7944 10.0315 0.0000 0.0000 0.0000
# 3 66.9627 10.0315 70.8662 0.0000 0.0000 0.0000
# 4 0.0000 0.0000 0.0000 -14.2618 0.0000 0.0000
# 5 0.0000 0.0000 0.0000 0.0000 13.3840 0.0000
# 6 0.0000 0.0000 0.0000 0.0000 0.0000 54.5849
#
#
#
# Elastic Compliance Matrix: (Units=1/GPa)
#
#
# Indices 1 2 3 4 5 6 
#
# 1 0.018395 -0.013687 -0.015444 0.000000 0.000000 0.000000
# 2 -0.013687 0.021009 0.009959 0.000000 0.000000 0.000000
# 3 -0.015444 0.009959 0.027295 0.000000 0.000000 0.000000
# 4 0.000000 0.000000 0.000000 -0.070117 0.000000 0.000000
# 5 0.000000 0.000000 0.000000 0.000000 0.074716 0.000000
# 6 0.000000 0.000000 0.000000 0.000000 0.000000 0.018320
#
#
# Mechanical properties :
#
#
# Convention : Reuss Voigt Hill
#
# Bulk Modulus (GPa) = 35.26749 71.53862 53.40306
# Shear Modulus (GPa) = 36.38669 22.62364 29.50517
#
# Velocity S-wave (km/s) = 3.82039 3.01244 3.44022
# Velocity P-wave (km/s) = 5.79716 6.38712 6.09927
#
# Compressibility (1/GPa) = 0.02835472
#
# Stress axis : x y z
#
# Youngs Moduli (GPa) = 54.36353 47.59841 36.63713
#
# Poissons Ratio (x) = 0.65146 0.56583
# Poissons Ratio (y) = 0.74405 -0.36486
# Poissons Ratio (z) = 0.83959 -0.47402
#
# Static dielectric constant tensor:
#      x y z
#    x 2.035080 0.000000 0.000000 
#    y 0.000000 1.940380 0.000000 
#    z 0.000000 0.000000 2.163130 
# 
# From -- ./inp_files/10126.got.cif
#   From: 2010.05.17/outbox.cif.g08.bks.cpg/sg48_6_cif.got.tgz:10126.got - 2010.06.03 20:39:00.
