data_PCOD9391469
_publ_section_title
;
Structure prediction by ZEFSAII (Michael W. Deem and Ramdas Pophale) SiO2 
 PCOD9391469
Probable space group: P N N N
;
_chemical_formula_sum "Si O2"
_cell_formula_units_Z 40
_cell_length_a 16.817592
_cell_length_b 6.230307
_cell_length_c 19.580817
_cell_angle_alpha 90.000000
_cell_angle_beta 90.000000
_cell_angle_gamma 90.000000
_cell_volume 2051.653748
_symmetry_space_group_name_H-M "P N N N"
_symmetry_group_IT_number 48
_space_group.IT_coordinate_system_code '2'
_symmetry_cell_setting 'orthorhombic'
loop_
_space_group_symop_operation_xyz
x,y,z
1/2-x,1/2-y,z
x,1/2-y,1/2-z
1/2-x,y,1/2-z
-x,-y,-z
1/2+x,1/2+y,-z
-x,1/2+y,1/2+z
1/2+x,-y,1/2+z
loop_
_atom_site_type_symbol
_atom_site_label
_atom_site_fract_x
_atom_site_fract_y
_atom_site_fract_z
Si Si1 0.186135 0.946937 0.631180
Si Si2 0.750000 0.750000 0.487656
Si Si3 0.033185 0.817843 0.552717
Si Si4 0.750000 0.750000 0.750000
Si Si5 0.165768 0.636022 0.315119
Si Si6 0.605942 0.509804 0.945670
Si Si7 0.250000 0.250000 0.750000
O O1 0.250000 0.750000 0.636586
O O2 0.094931 0.883665 0.612535
O O3 0.208897 0.082202 0.563587
O O4 0.199370 0.096707 0.698261
O O5 0.687253 0.875854 0.533413
O O6 0.078183 0.634234 0.508814
O O7 0.955127 0.693218 0.576851
O O8 0.000000 0.000000 0.500000
O O9 0.807440 0.602365 0.704908
O O10 0.250000 0.750000 0.327373
O O11 0.127783 0.750000 0.250000
O O12 0.115413 0.646821 0.382242
#
# Coordination Sequence:
#
# PCOD9391469 Si02
#       7
#     8   4   8   2   8   8   2
#     4  11  22  44  69 100 130 173 221 279 337 395
#     4  11  21  35  68 105 120 162 230 264 333 405
#     4  11  24  40  64  95 138 165 207 280 342 395
#     4   8  16  36  58  82 114 156 196 250 280 372
#     4   9  20  35  58  86 121 163 210 250 300 380
#     4  11  23  37  63  99 126 169 214 273 327 391
#     4  10  26  40  78  98 126 176 238 276 318 418
#
# _framework density 19.496466000000002
#
# number of rings (size 3 to 8) (size 9 to 14) (size 15 to 20)
#    0.000    1.800    4.000    0.900    2.800    3.200 
#    0.000    0.000   22.000    0.000    2.600    0.000 
#    0.000    0.000    0.000    0.000    0.000    0.000 
#
# Total GULP energy -222976.316329 kJ/mol
# GULP energy per Si atom -5574.407908 kJ/mol
# Density = 1.945209 g / cm^3
# Si number density = 19.496466 Si / 1000 Ang^3
#
#
#
# Elastic Constant Matrix: (Units=GPa)
#
#
# Indices 1 2 3 4 5 6 
#
# 1 71.6530 16.0082 35.6141 0.0000 0.0000 0.0000
# 2 16.0082 66.9603 14.0672 0.0000 0.0000 0.0000
# 3 35.6141 14.0672 101.1081 0.0000 0.0000 0.0000
# 4 0.0000 0.0000 0.0000 12.8494 0.0000 0.0000
# 5 0.0000 0.0000 0.0000 0.0000 2.4984 0.0000
# 6 0.0000 0.0000 0.0000 0.0000 0.0000 19.0221
#
#
#
# Elastic Compliance Matrix: (Units=1/GPa)
#
#
# Indices 1 2 3 4 5 6 
#
# 1 0.017474 -0.002971 -0.005742 0.000000 0.000000 0.000000
# 2 -0.002971 0.015889 -0.001164 0.000000 0.000000 0.000000
# 3 -0.005742 -0.001164 0.012075 0.000000 0.000000 0.000000
# 4 0.000000 0.000000 0.000000 0.077825 0.000000 0.000000
# 5 0.000000 0.000000 0.000000 0.000000 0.400256 0.000000
# 6 0.000000 0.000000 0.000000 0.000000 0.000000 0.052570
#
#
# Mechanical properties :
#
#
# Convention : Reuss Voigt Hill
#
# Bulk Modulus (GPa) = 38.93490 41.23338 40.08414
# Shear Modulus (GPa) = 8.27262 18.47611 13.37437
#
# Velocity S-wave (km/s) = 2.06212 3.08176 2.62198
# Velocity P-wave (km/s) = 5.06788 5.81877 5.45625
#
# Compressibility (1/GPa) = 0.02568390
#
# Stress axis : x y z
#
# Youngs Moduli (GPa) = 57.22885 62.93625 82.81748
#
# Poissons Ratio (x) = 0.18700 0.47550
# Poissons Ratio (y) = 0.17004 0.09641
# Poissons Ratio (z) = 0.32858 0.07326
#
# Static dielectric constant tensor:
#      x y z
#    x 1.696170 0.000000 0.000000 
#    y 0.000000 1.727080 0.000000 
#    z 0.000000 0.000000 1.670740 
# 
# From -- ./inp_files/4432.got.cif
#   From: 2010.05.17/outbox.cif.g08.bks.cpg/sg48_3_cif.got.tgz:4432.got - 2010.06.03 20:39:00.
