data_PCOD9391250
_publ_section_title
;
Structure prediction by ZEFSAII (Michael W. Deem and Ramdas Pophale) SiO2 
 PCOD9391250
Probable space group: P N N N
;
_chemical_formula_sum "Si O2"
_cell_formula_units_Z 40
_cell_length_a 13.110669
_cell_length_b 11.905202
_cell_length_c 11.806056
_cell_angle_alpha 90.000000
_cell_angle_beta 90.000000
_cell_angle_gamma 90.000000
_cell_volume 1842.750173
_symmetry_space_group_name_H-M "P N N N"
_symmetry_group_IT_number 48
_space_group.IT_coordinate_system_code '2'
_symmetry_cell_setting 'orthorhombic'
loop_
_space_group_symop_operation_xyz
x,y,z
1/2-x,1/2-y,z
x,1/2-y,1/2-z
1/2-x,y,1/2-z
-x,-y,-z
1/2+x,1/2+y,-z
-x,1/2+y,1/2+z
1/2+x,-y,1/2+z
loop_
_atom_site_type_symbol
_atom_site_label
_atom_site_fract_x
_atom_site_fract_y
_atom_site_fract_z
Si Si1 0.331372 0.003210 0.492093
Si Si2 0.646040 0.698790 0.124529
Si Si3 0.896136 0.024552 0.564528
Si Si4 0.915007 0.270314 0.612603
Si Si5 0.871756 0.625686 0.727020
O O1 0.209953 0.021467 0.482896
O O2 0.366582 0.881045 0.446104
O O3 0.356444 0.062725 0.611859
O O4 0.384121 0.086112 0.400878
O O5 0.750000 0.750000 0.070162
O O6 0.647575 0.750000 0.250000
O O7 0.534951 0.735062 0.082984
O O8 0.871628 0.155957 0.564448
O O9 0.911143 0.970126 0.688522
O O10 0.000000 0.000000 0.500000
O O11 0.902648 0.250000 0.750000
O O12 0.913375 0.750000 0.750000
O O13 0.750000 0.629264 0.750000
#
# Coordination Sequence:
#
# PCOD9391250 Si02
#       5
#     8   8   8   8   8
#     4  11  22  39  66  91 130 172 219 278 336 402
#     4  10  23  41  63  93 129 173 224 282 341 415
#     4  11  23  38  60  94 132 173 216 273 343 410
#     4  11  22  40  64  95 130 170 221 277 341 409
#     4   9  20  35  58  92 124 163 214 271 329 391
#
# _framework density 21.706686999999999
#
# number of rings (size 3 to 8) (size 9 to 14) (size 15 to 20)
#    0.000    1.600    2.000    2.400    8.400    0.800 
#    0.000    0.000    0.000    0.000    0.000    5.600 
#    0.000    0.000    0.000    0.000    0.000    0.000 
#
# Total GULP energy -222733.620643 kJ/mol
# GULP energy per Si atom -5568.340516 kJ/mol
# Density = 2.165728 g / cm^3
# Si number density = 21.706687 Si / 1000 Ang^3
#
#
#
# Elastic Constant Matrix: (Units=GPa)
#
#
# Indices 1 2 3 4 5 6 
#
# 1 101.9615 19.4553 23.2086 0.0000 0.0000 0.0000
# 2 19.4553 182.0179 58.8694 0.0000 0.0000 0.0000
# 3 23.2086 58.8694 71.1898 0.0000 0.0000 0.0000
# 4 0.0000 0.0000 0.0000 41.8754 0.0000 0.0000
# 5 0.0000 0.0000 0.0000 0.0000 -3.6199 0.0000
# 6 0.0000 0.0000 0.0000 0.0000 0.0000 27.4270
#
#
#
# Elastic Compliance Matrix: (Units=1/GPa)
#
#
# Indices 1 2 3 4 5 6 
#
# 1 0.010594 -0.000021 -0.003436 0.000000 0.000000 0.000000
# 2 -0.000021 0.007500 -0.006195 0.000000 0.000000 0.000000
# 3 -0.003436 -0.006195 0.020290 0.000000 0.000000 0.000000
# 4 0.000000 0.000000 0.000000 0.023880 0.000000 0.000000
# 5 0.000000 0.000000 0.000000 0.000000 -0.276248 0.000000
# 6 0.000000 0.000000 0.000000 0.000000 0.000000 0.036460
#
#
# Mechanical properties :
#
#
# Convention : Reuss Voigt Hill
#
# Bulk Modulus (GPa) = 52.41344 62.02619 57.21982
# Shear Modulus (GPa) = -32.92528 30.04557 -1.43985
#
# Velocity S-wave (km/s) = -3.89887 3.72447 -0.81533
# Velocity P-wave (km/s) = 1.98252 6.86530 5.05285
#
# Compressibility (1/GPa) = 0.01907907
#
# Stress axis : x y z
#
# Youngs Moduli (GPa) = 94.39480 133.33606 49.28497
#
# Poissons Ratio (x) = 0.00279 0.16936
# Poissons Ratio (y) = 0.00197 0.30532
# Poissons Ratio (z) = 0.32438 0.82603
#
# Static dielectric constant tensor:
#      x y z
#    x 1.818560 0.000000 0.000000 
#    y 0.000000 1.735200 0.000000 
#    z 0.000000 0.000000 1.884420 
# 
# From -- ./inp_files/20980.got.cif
#   From: 2010.05.17/outbox.cif.g08.bks.cpg/sg48_11_cif.got.tgz:20980.got - 2010.06.03 20:39:00.
