data_PCOD9391301
_publ_section_title
;
Structure prediction by ZEFSAII (Michael W. Deem and Ramdas Pophale) SiO2 
 PCOD9391301
Probable space group: P N N N
;
_chemical_formula_sum "Si O2"
_cell_formula_units_Z 48
_cell_length_a 10.061151
_cell_length_b 14.005378
_cell_length_c 14.660399
_cell_angle_alpha 90.000000
_cell_angle_beta 90.000000
_cell_angle_gamma 90.000000
_cell_volume 2065.800090
_symmetry_space_group_name_H-M "P N N N"
_symmetry_group_IT_number 48
_space_group.IT_coordinate_system_code '2'
_symmetry_cell_setting 'orthorhombic'
loop_
_space_group_symop_operation_xyz
x,y,z
1/2-x,1/2-y,z
x,1/2-y,1/2-z
1/2-x,y,1/2-z
-x,-y,-z
1/2+x,1/2+y,-z
-x,1/2+y,1/2+z
1/2+x,-y,1/2+z
loop_
_atom_site_type_symbol
_atom_site_label
_atom_site_fract_x
_atom_site_fract_y
_atom_site_fract_z
Si Si1 0.400629 0.736651 0.977030
Si Si2 0.793434 0.857618 0.383634
Si Si3 0.397764 0.844189 0.714587
Si Si4 0.984038 0.574078 0.413195
Si Si5 0.031420 0.534167 0.219854
Si Si6 0.926183 0.580810 0.942509
O O1 0.250000 0.750000 0.010929
O O2 0.392957 0.664246 0.892813
O O3 0.464423 0.833838 0.937522
O O4 0.489975 0.681070 0.049262
O O5 0.750000 0.750000 0.359780
O O6 0.665550 0.925991 0.371682
O O7 0.926253 0.893355 0.329821
O O8 0.818071 0.870758 0.492267
O O9 0.473193 0.750000 0.750000
O O10 0.250000 0.840168 0.750000
O O11 0.455279 0.938655 0.753240
O O12 0.075141 0.566890 0.321148
O O13 0.000000 0.500000 0.500000
O O14 0.124547 0.482786 0.143043
O O15 0.000000 0.500000 0.000000
#
# Coordination Sequence:
#
# PCOD9391301 Si02
#       6
#     8   8   8   8   8   8
#     4  12  23  39  67  99 138 175 225 290 346 406
#     4  11  24  46  70  99 137 182 233 287 344 417
#     4  11  18  32  62 101 126 167 227 282 332 390
#     4  12  26  40  66 102 136 176 232 285 344 403
#     4  11  23  41  69 100 135 179 230 283 341 416
#     4  10  23  43  68  97 135 180 226 278 355 410
#
# _framework density 23.235548999999999
#
# number of rings (size 3 to 8) (size 9 to 14) (size 15 to 20)
#    0.000    0.833    6.667    1.500    4.667    1.333 
#    0.000    0.833    0.000    5.000    0.000    0.000 
#    0.000    0.000    0.000    0.000    0.000    0.000 
#
# Total GULP energy -267219.306210 kJ/mol
# GULP energy per Si atom -5567.068879 kJ/mol
# Density = 2.318266 g / cm^3
# Si number density = 23.235549 Si / 1000 Ang^3
#
#
#
# Elastic Constant Matrix: (Units=GPa)
#
#
# Indices 1 2 3 4 5 6 
#
# 1 38.9617 5.5235 4.6729 0.0000 0.0000 0.0000
# 2 5.5235 132.5795 30.7934 0.0000 0.0000 0.0000
# 3 4.6729 30.7934 134.4604 0.0000 0.0000 0.0000
# 4 0.0000 0.0000 0.0000 43.8233 0.0000 0.0000
# 5 0.0000 0.0000 0.0000 0.0000 19.8799 0.0000
# 6 0.0000 0.0000 0.0000 0.0000 0.0000 30.2316
#
#
#
# Elastic Compliance Matrix: (Units=1/GPa)
#
#
# Indices 1 2 3 4 5 6 
#
# 1 0.025879 -0.000918 -0.000689 0.000000 0.000000 0.000000
# 2 -0.000918 0.007999 -0.001800 0.000000 0.000000 0.000000
# 3 -0.000689 -0.001800 0.007873 0.000000 0.000000 0.000000
# 4 0.000000 0.000000 0.000000 0.022819 0.000000 0.000000
# 5 0.000000 0.000000 0.000000 0.000000 0.050302 0.000000
# 6 0.000000 0.000000 0.000000 0.000000 0.000000 0.033078
#
#
# Mechanical properties :
#
#
# Convention : Reuss Voigt Hill
#
# Bulk Modulus (GPa) = 28.62302 43.10900 35.86601
# Shear Modulus (GPa) = 30.04623 36.45441 33.25032
#
# Velocity S-wave (km/s) = 3.59989 3.96524 3.78697
# Velocity P-wave (km/s) = 5.44282 6.28947 5.88140
#
# Compressibility (1/GPa) = 0.03493691
#
# Stress axis : x y z
#
# Youngs Moduli (GPa) = 38.64136 125.01619 127.01146
#
# Poissons Ratio (x) = 0.11478 0.08752
# Poissons Ratio (y) = 0.03548 0.22862
# Poissons Ratio (z) = 0.02663 0.22503
#
# Static dielectric constant tensor:
#      x y z
#    x 1.882270 0.000000 0.000000 
#    y 0.000000 1.853260 0.000000 
#    z 0.000000 0.000000 2.106210 
# 
# From -- ./inp_files/26442.got.cif
#   From: 2010.05.17/outbox.cif.g08.bks.cpg/sg48_14_cif.got.tgz:26442.got - 2010.06.03 20:39:00.
