data_PCOD9391150
_publ_section_title
;
Structure prediction by ZEFSAII (Michael W. Deem and Ramdas Pophale) SiO2 
 PCOD9391150
Probable space group: P N N N
;
_chemical_formula_sum "Si O2"
_cell_formula_units_Z 48
_cell_length_a 17.642044
_cell_length_b 7.812817
_cell_length_c 14.381175
_cell_angle_alpha 90.000000
_cell_angle_beta 90.000000
_cell_angle_gamma 90.000000
_cell_volume 1982.215756
_symmetry_space_group_name_H-M "P N N N"
_symmetry_group_IT_number 48
_space_group.IT_coordinate_system_code '2'
_symmetry_cell_setting 'orthorhombic'
loop_
_space_group_symop_operation_xyz
x,y,z
1/2-x,1/2-y,z
x,1/2-y,1/2-z
1/2-x,y,1/2-z
-x,-y,-z
1/2+x,1/2+y,-z
-x,1/2+y,1/2+z
1/2+x,-y,1/2+z
loop_
_atom_site_type_symbol
_atom_site_label
_atom_site_fract_x
_atom_site_fract_y
_atom_site_fract_z
Si Si1 0.442483 0.586042 0.816545
Si Si2 0.152828 0.397854 0.544831
Si Si3 0.890651 0.423661 0.861525
Si Si4 0.611136 0.490075 0.846811
Si Si5 0.067744 0.070720 0.629988
Si Si6 0.202947 0.925851 0.537311
O O1 0.437058 0.750000 0.750000
O O2 0.389673 0.554469 0.903989
O O3 0.527095 0.565837 0.853422
O O4 0.428342 0.433579 0.741741
O O5 0.153469 0.425293 0.433516
O O6 0.102941 0.236301 0.578380
O O7 0.239673 0.429735 0.574387
O O8 0.889110 0.216152 0.858175
O O9 0.869672 0.507342 0.762451
O O10 0.828296 0.473219 0.936040
O O11 0.978379 0.463415 0.888738
O O12 0.126136 0.925682 0.596270
O O13 0.250000 0.750000 0.534987
#
# Coordination Sequence:
#
# PCOD9391150 Si02
#       6
#     8   8   8   8   8   8
#     4  11  24  43  71 107 140 185 243 299 348 423
#     4  12  24  43  71 105 145 184 232 290 370 420
#     4  10  22  45  72 104 143 187 243 284 359 419
#     4  10  22  42  73 106 138 188 238 292 349 426
#     4  11  25  45  72 100 145 187 234 296 352 428
#     4  12  25  43  68 108 140 187 233 293 362 428
#
# _framework density 24.215328
#
# number of rings (size 3 to 8) (size 9 to 14) (size 15 to 20)
#    0.000    1.000    3.333    3.000    0.000    4.000 
#    0.000    3.333    0.000    2.000    0.000    0.000 
#    0.000    0.000    0.000    0.000    0.000    0.000 
#
# Total GULP energy -268107.826392 kJ/mol
# GULP energy per Si atom -5585.579716 kJ/mol
# Density = 2.416021 g / cm^3
# Si number density = 24.215328 Si / 1000 Ang^3
#
#
#
# Elastic Constant Matrix: (Units=GPa)
#
#
# Indices 1 2 3 4 5 6 
#
# 1 57.1220 17.0107 18.5445 0.0000 0.0000 0.0000
# 2 17.0107 107.0224 1.0958 0.0000 0.0000 0.0000
# 3 18.5445 1.0958 46.3074 0.0000 0.0000 0.0000
# 4 0.0000 0.0000 0.0000 -3.3949 0.0000 0.0000
# 5 0.0000 0.0000 0.0000 0.0000 -205.3268 0.0000
# 6 0.0000 0.0000 0.0000 0.0000 0.0000 20.4632
#
#
#
# Elastic Compliance Matrix: (Units=1/GPa)
#
#
# Indices 1 2 3 4 5 6 
#
# 1 0.021218 -0.003286 -0.008419 0.000000 0.000000 0.000000
# 2 -0.003286 0.009855 0.001083 0.000000 0.000000 0.000000
# 3 -0.008419 0.001083 0.024941 0.000000 0.000000 0.000000
# 4 0.000000 0.000000 0.000000 -0.294559 0.000000 0.000000
# 5 0.000000 0.000000 0.000000 0.000000 -0.004870 0.000000
# 6 0.000000 0.000000 0.000000 0.000000 0.000000 0.048868
#
#
# Mechanical properties :
#
#
# Convention : Reuss Voigt Hill
#
# Bulk Modulus (GPa) = 28.76165 31.52818 30.14492
# Shear Modulus (GPa) = -30.91930 -26.06499 -28.49214
#
# Velocity S-wave (km/s) = -3.57718 -3.28439 -3.43391
# Velocity P-wave (km/s) = 2.27120 1.15531 1.80182
#
# Compressibility (1/GPa) = 0.03476852
#
# Stress axis : x y z
#
# Youngs Moduli (GPa) = 47.12884 101.47021 40.09477
#
# Poissons Ratio (x) = 0.33347 0.33758
# Poissons Ratio (y) = 0.15488 -0.04342
# Poissons Ratio (z) = 0.39680 -0.10988
#
# Static dielectric constant tensor:
#      x y z
#    x 1.907630 0.000000 0.000000 
#    y 0.000000 1.400050 0.000000 
#    z 0.000000 0.000000 -2.709370 
# 
# From -- ./inp_files/27862.got.cif
#   From: 2010.05.17/outbox.cif.g08.bks.cpg/sg48_14_cif.got.tgz:27862.got - 2010.06.03 20:39:00.
