data_PCOD9391851
_publ_section_title
;
Structure prediction by ZEFSAII (Michael W. Deem and Ramdas Pophale) SiO2 
 PCOD9391851
Probable space group: P N N N
;
_chemical_formula_sum "Si O2"
_cell_formula_units_Z 64
_cell_length_a 12.434248
_cell_length_b 15.808070
_cell_length_c 12.441002
_cell_angle_alpha 90.000000
_cell_angle_beta 90.000000
_cell_angle_gamma 90.000000
_cell_volume 2445.421552
_symmetry_space_group_name_H-M "P N N N"
_symmetry_group_IT_number 48
_space_group.IT_coordinate_system_code '2'
_symmetry_cell_setting 'orthorhombic'
loop_
_space_group_symop_operation_xyz
x,y,z
1/2-x,1/2-y,z
x,1/2-y,1/2-z
1/2-x,y,1/2-z
-x,-y,-z
1/2+x,1/2+y,-z
-x,1/2+y,1/2+z
1/2+x,-y,1/2+z
loop_
_atom_site_type_symbol
_atom_site_label
_atom_site_fract_x
_atom_site_fract_y
_atom_site_fract_z
Si Si1 0.208297 0.367894 0.862043
Si Si2 0.227144 0.654063 0.073931
Si Si3 0.018764 0.175298 0.110004
Si Si4 0.807267 0.435121 0.142576
Si Si5 0.019439 0.847114 0.290604
Si Si6 0.578566 0.067994 0.594669
Si Si7 0.273115 0.393740 0.085762
Si Si8 0.525881 0.633266 0.649816
O O1 0.250000 0.334500 0.750000
O O2 0.222999 0.467984 0.860637
O O3 0.084277 0.346703 0.866814
O O4 0.269004 0.348288 0.970112
O O5 0.250000 0.750000 0.052467
O O6 0.503084 0.582719 0.194848
O O7 0.119293 0.631843 0.133684
O O8 0.329197 0.627537 0.143274
O O9 0.145981 0.169869 0.141866
O O10 0.981254 0.145202 0.227026
O O11 0.000840 0.275289 0.094506
O O12 0.974176 0.113669 0.012397
O O13 0.750000 0.399923 0.250000
O O14 0.758007 0.390763 0.039255
O O15 0.934626 0.432082 0.115538
O O16 0.028521 0.750000 0.250000
O O17 0.649247 0.979936 0.585407
O O18 0.149821 0.398080 0.129174
#
# Coordination Sequence:
#
# PCOD9391851 Si02
#       8
#     8   8   8   8   8   8   8   8
#     4  11  27  49  72 106 147 196 252 315 379 465
#     4  12  24  44  70 106 150 190 247 307 374 452
#     4  11  26  49  74 109 154 199 251 317 388 467
#     4  11  25  47  76 108 151 190 248 320 388 452
#     4  12  28  47  74 107 153 201 255 310 381 459
#     4  12  26  45  75 109 148 202 251 312 387 454
#     4  12  26  47  77 110 149 200 256 317 385 462
#     4  11  26  46  77 112 147 198 254 321 387 463
#
# _framework density 26.171357
#
# number of rings (size 3 to 8) (size 9 to 14) (size 15 to 20)
#    0.000    0.500    2.500    4.500    7.000    4.500 
#    2.250    0.000    0.000    0.000    0.000    0.000 
#    0.000    0.000    0.000    0.000    0.000    0.000 
#
# Total GULP energy -356684.693088 kJ/mol
# GULP energy per Si atom -5573.198329 kJ/mol
# Density = 2.611179 g / cm^3
# Si number density = 26.171357 Si / 1000 Ang^3
#
#
#
# Elastic Constant Matrix: (Units=GPa)
#
#
# Indices 1 2 3 4 5 6 
#
# 1 128.7019 13.5974 15.9766 0.0000 0.0000 0.0000
# 2 13.5974 94.5601 37.9071 0.0000 0.0000 0.0000
# 3 15.9766 37.9071 127.8892 0.0000 0.0000 0.0000
# 4 0.0000 0.0000 0.0000 25.9328 0.0000 0.0000
# 5 0.0000 0.0000 0.0000 0.0000 37.9352 0.0000
# 6 0.0000 0.0000 0.0000 0.0000 0.0000 26.0521
#
#
#
# Elastic Compliance Matrix: (Units=1/GPa)
#
#
# Indices 1 2 3 4 5 6 
#
# 1 0.007951 -0.000846 -0.000743 0.000000 0.000000 0.000000
# 2 -0.000846 0.012091 -0.003478 0.000000 0.000000 0.000000
# 3 -0.000743 -0.003478 0.008943 0.000000 0.000000 0.000000
# 4 0.000000 0.000000 0.000000 0.038561 0.000000 0.000000
# 5 0.000000 0.000000 0.000000 0.000000 0.026361 0.000000
# 6 0.000000 0.000000 0.000000 0.000000 0.000000 0.038385
#
#
# Mechanical properties :
#
#
# Convention : Reuss Voigt Hill
#
# Bulk Modulus (GPa) = 53.04341 54.01261 53.52801
# Shear Modulus (GPa) = 33.62255 36.89535 35.25895
#
# Velocity S-wave (km/s) = 3.58817 3.75875 3.67445
# Velocity P-wave (km/s) = 6.12196 6.28653 6.20479
#
# Compressibility (1/GPa) = 0.01885248
#
# Stress axis : x y z
#
# Youngs Moduli (GPa) = 125.76353 82.70438 111.81892
#
# Poissons Ratio (x) = 0.06994 0.08305
# Poissons Ratio (y) = 0.10635 0.38894
# Poissons Ratio (z) = 0.09340 0.28767
#
# Static dielectric constant tensor:
#      x y z
#    x 2.915930 0.000000 0.000000 
#    y 0.000000 2.138170 0.000000 
#    z 0.000000 0.000000 2.178880 
# 
# From -- ./inp_files/26735.got.cif
#   From: 2010.05.17/outbox.cif.g08.bks.cpg/sg48_14_cif.got.tgz:26735.got - 2010.06.03 20:39:00.
