data_PCOD9391945
_publ_section_title
;
Structure prediction by ZEFSAII (Michael W. Deem and Ramdas Pophale) SiO2 
 PCOD9391945
Probable space group: P N N N
;
_chemical_formula_sum "Si O2"
_cell_formula_units_Z 58
_cell_length_a 27.000000
_cell_length_b 18.000000
_cell_length_c 6.000000
_cell_angle_alpha 90.000000
_cell_angle_beta 90.000000
_cell_angle_gamma 90.000000
_cell_volume 2916.000000
_symmetry_space_group_name_H-M "P N N N"
_symmetry_group_IT_number 48
_space_group.IT_coordinate_system_code '2'
_symmetry_cell_setting 'orthorhombic'
loop_
_space_group_symop_operation_xyz
x,y,z
1/2-x,1/2-y,z
x,1/2-y,1/2-z
1/2-x,y,1/2-z
-x,-y,-z
1/2+x,1/2+y,-z
-x,1/2+y,1/2+z
1/2+x,-y,1/2+z
loop_
_atom_site_type_symbol
_atom_site_label
_atom_site_fract_x
_atom_site_fract_y
_atom_site_fract_z
Si Si1 0.413062 0.174416 0.820686
Si Si2 0.309844 0.215527 0.000219
Si Si3 0.360468 0.536703 0.681925
Si Si4 0.299484 0.671827 0.633981
Si Si5 0.950595 0.960775 0.564014
Si Si6 0.750000 0.250000 0.750000
Si Si7 0.706871 0.560007 0.603493
Si Si8 0.616194 0.935353 0.560906
O O1 0.438189 0.250000 0.750000
O O2 0.387723 0.131215 0.614631
O O3 0.368039 0.195778 0.982556
O O4 0.448212 0.117009 0.937960
O O5 0.303058 0.250000 0.250000
O O6 0.278108 0.139851 0.008742
O O7 0.301702 0.250000 0.750000
O O8 0.346162 0.620666 0.657223
O O9 0.405831 0.510427 0.531571
O O10 0.313294 0.490864 0.591738
O O11 0.372030 0.510043 0.927957
O O12 0.308071 0.750000 0.750000
O O13 0.250000 0.638693 0.750000
O O14 0.284273 0.694871 0.388699
O O15 0.936025 0.944607 0.816710
O O16 0.000000 0.000000 0.500000
O O17 0.750000 0.525534 0.750000
O O18 0.660719 0.575577 0.768003
#
# Coordination Sequence:
#
# PCOD9391945 Si02
#       8
#     8   8   8   8   8   2   8   8
#     4  10  20  35  62  86 114 159 206 254 312 376
#     4  11  22  39  60  82 125 172 217 264 313 371
#     4  10  22  37  58  89 117 160 202 257 321 381
#     4   9  20  35  57  86 116 158 203 246 314 387
#     4  10  22  39  63  87 117 156 210 262 332 387
#     4   8  18  36  60  82 120 164 208 244 308 386
#     4  11  23  35  53  89 120 164 212 254 311 372
#     4  10  20  40  57  86 123 157 202 262 314 375
#
# _framework density 19.890260999999999
#
# number of rings (size 3 to 8) (size 9 to 14) (size 15 to 20)
#    0.000    2.069    4.138    1.655    2.897    5.793 
#    0.000    2.759    7.586    0.000    0.000    0.000 
#    0.000    0.000    0.000    0.000    0.000    0.000 
#
# Total GULP energy -322987.297239 kJ/mol
# GULP energy per Si atom -5568.746504 kJ/mol
# Density = 1.984499 g / cm^3
# Si number density = 19.890261 Si / 1000 Ang^3
#
#
#
# Elastic Constant Matrix: (Units=GPa)
#
#
# Indices 1 2 3 4 5 6 
#
# 1 76.1381 52.0160 29.6031 0.0000 0.0000 0.0000
# 2 52.0160 95.3362 38.9370 0.0000 0.0000 0.0000
# 3 29.6031 38.9370 96.1368 0.0000 0.0000 0.0000
# 4 0.0000 0.0000 0.0000 -2.6798 0.0000 0.0000
# 5 0.0000 0.0000 0.0000 0.0000 104.3915 0.0000
# 6 0.0000 0.0000 0.0000 0.0000 0.0000 14.8876
#
#
#
# Elastic Compliance Matrix: (Units=1/GPa)
#
#
# Indices 1 2 3 4 5 6 
#
# 1 0.021328 -0.010729 -0.002222 0.000000 0.000000 0.000000
# 2 -0.010729 0.017966 -0.003973 0.000000 0.000000 0.000000
# 3 -0.002222 -0.003973 0.012695 0.000000 0.000000 0.000000
# 4 0.000000 0.000000 0.000000 -0.373157 0.000000 0.000000
# 5 0.000000 0.000000 0.000000 0.000000 0.009579 0.000000
# 6 0.000000 0.000000 0.000000 0.000000 0.000000 0.067170
#
#
# Mechanical properties :
#
#
# Convention : Reuss Voigt Hill
#
# Bulk Modulus (GPa) = 55.12336 56.52482 55.82409
# Shear Modulus (GPa) = -24.44687 33.12352 4.33833
#
# Velocity S-wave (km/s) = -3.50964 4.08525 1.47847
# Velocity P-wave (km/s) = 3.36905 7.12267 5.57149
#
# Compressibility (1/GPa) = 0.01814113
#
# Stress axis : x y z
#
# Youngs Moduli (GPa) = 46.88704 55.66220 78.77117
#
# Poissons Ratio (x) = 0.59721 0.17503
# Poissons Ratio (y) = 0.50306 0.31292
# Poissons Ratio (z) = 0.10418 0.22112
#
# Static dielectric constant tensor:
#      x y z
#    x 1.680500 0.000000 0.000000 
#    y 0.000000 1.745280 0.000000 
#    z 0.000000 0.000000 1.762560 
# 
# From -- ./inp_files/4703.got.cif
#   From: 2010.05.17/outbox.ucp.g08.bks.cvg/sg48_3_cif.got.tgz:4703.got - 2010.06.11 16:38:40.
