data_PCOD9391261
_publ_section_title
;
Structure prediction by ZEFSAII (Michael W. Deem and Ramdas Pophale) SiO2 
 PCOD9391261
Probable space group: P N N N
;
_chemical_formula_sum "Si O2"
_cell_formula_units_Z 32
_cell_length_a 7.685194
_cell_length_b 35.723371
_cell_length_c 5.233966
_cell_angle_alpha 90.000000
_cell_angle_beta 90.000000
_cell_angle_gamma 90.000000
_cell_volume 1436.938450
_symmetry_space_group_name_H-M "P N N N"
_symmetry_group_IT_number 48
_space_group.IT_coordinate_system_code '2'
_symmetry_cell_setting 'orthorhombic'
loop_
_space_group_symop_operation_xyz
x,y,z
1/2-x,1/2-y,z
x,1/2-y,1/2-z
1/2-x,y,1/2-z
-x,-y,-z
1/2+x,1/2+y,-z
-x,1/2+y,1/2+z
1/2+x,-y,1/2+z
loop_
_atom_site_type_symbol
_atom_site_label
_atom_site_fract_x
_atom_site_fract_y
_atom_site_fract_z
Si Si1 0.553589 0.266825 0.506455
Si Si2 0.457160 0.891059 0.684929
Si Si3 0.545321 0.023720 0.253964
Si Si4 0.944226 0.653580 0.169343
O O1 0.750000 0.250000 0.502869
O O2 0.460280 0.250000 0.750000
O O3 0.553177 0.310752 0.565534
O O4 0.473401 0.250000 0.250000
O O5 0.250000 0.889395 0.750000
O O6 0.520969 0.934123 0.696506
O O7 0.483006 0.869443 0.414786
O O8 0.558196 0.872017 0.918841
O O9 0.750000 0.028414 0.250000
O O10 0.500000 0.000000 0.500000
O O11 0.500000 0.000000 0.000000
O O12 0.750000 0.665425 0.250000
#
# Coordination Sequence:
#
# PCOD9391261 Si02
#       4
#     8   8   8   8
#     4  10  23  41  68  96 126 174 231 266 350 409
#     4  11  26  44  70 101 139 188 234 275 351 427
#     4  11  24  43  68 102 139 185 234 284 341 415
#     4  12  26  44  69 105 140 174 232 300 350 405
#
# _framework density 22.269569000000001
#
# number of rings (size 3 to 8) (size 9 to 14) (size 15 to 20)
#    0.000    1.000    0.000    5.250   10.500   10.500 
#    0.000    1.250    0.000    0.000    0.000    0.000 
#    0.000    0.000    0.000    0.000    0.000    0.000 
#
# Total GULP energy -178598.397346 kJ/mol
# GULP energy per Si atom -5581.199917 kJ/mol
# Density = 2.221888 g / cm^3
# Si number density = 22.269569 Si / 1000 Ang^3
#
#
#
# Elastic Constant Matrix: (Units=GPa)
#
#
# Indices 1 2 3 4 5 6 
#
# 1 75.1776 33.2351 15.1077 0.0000 0.0000 0.0000
# 2 33.2351 237.6156 115.6689 0.0000 0.0000 0.0000
# 3 15.1077 115.6689 250.5777 0.0000 0.0000 0.0000
# 4 0.0000 0.0000 0.0000 45.9123 0.0000 0.0000
# 5 0.0000 0.0000 0.0000 0.0000 25.6200 0.0000
# 6 0.0000 0.0000 0.0000 0.0000 0.0000 24.2962
#
#
#
# Elastic Compliance Matrix: (Units=1/GPa)
#
#
# Indices 1 2 3 4 5 6 
#
# 1 0.014180 -0.002021 0.000078 0.000000 0.000000 0.000000
# 2 -0.002021 0.005716 -0.002517 0.000000 0.000000 0.000000
# 3 0.000078 -0.002517 0.005148 0.000000 0.000000 0.000000
# 4 0.000000 0.000000 0.000000 0.021781 0.000000 0.000000
# 5 0.000000 0.000000 0.000000 0.000000 0.039032 0.000000
# 6 0.000000 0.000000 0.000000 0.000000 0.000000 0.041159
#
#
# Mechanical properties :
#
#
# Convention : Reuss Voigt Hill
#
# Bulk Modulus (GPa) = 62.01983 99.04381 80.53182
# Shear Modulus (GPa) = 35.38319 45.78966 40.58643
#
# Velocity S-wave (km/s) = 3.99037 4.53940 4.27371
# Velocity P-wave (km/s) = 7.01005 8.48802 7.78419
#
# Compressibility (1/GPa) = 0.01612387
#
# Stress axis : x y z
#
# Youngs Moduli (GPa) = 70.52318 174.93562 194.25498
#
# Poissons Ratio (x) = 0.35361 -0.01518
# Poissons Ratio (y) = 0.14255 0.48891
# Poissons Ratio (z) = -0.00551 0.44029
#
# Static dielectric constant tensor:
#      x y z
#    x 1.822930 0.000000 0.000000 
#    y 0.000000 2.002740 0.000000 
#    z 0.000000 0.000000 1.793200 
# 
# From -- ./inp_files/1050.got.cif
#   From: 2010.05.17/outbox.cif.g08.bks.cpg/sg48_1_cif.got.tgz:1050.got - 2010.06.03 20:39:00.
