data_PCOD9391881
_publ_section_title
;
Structure prediction by ZEFSAII (Michael W. Deem and Ramdas Pophale) SiO2 
 PCOD9391881
Probable space group: P N N N
;
_chemical_formula_sum "Si O2"
_cell_formula_units_Z 64
_cell_length_a 24.126263
_cell_length_b 9.649164
_cell_length_c 13.382963
_cell_angle_alpha 90.000000
_cell_angle_beta 90.000000
_cell_angle_gamma 90.000000
_cell_volume 3115.530612
_symmetry_space_group_name_H-M "P N N N"
_symmetry_group_IT_number 48
_space_group.IT_coordinate_system_code '2'
_symmetry_cell_setting 'orthorhombic'
loop_
_space_group_symop_operation_xyz
x,y,z
1/2-x,1/2-y,z
x,1/2-y,1/2-z
1/2-x,y,1/2-z
-x,-y,-z
1/2+x,1/2+y,-z
-x,1/2+y,1/2+z
1/2+x,-y,1/2+z
loop_
_atom_site_type_symbol
_atom_site_label
_atom_site_fract_x
_atom_site_fract_y
_atom_site_fract_z
Si Si1 0.406089 0.728188 0.132937
Si Si2 0.701143 0.495247 0.333987
Si Si3 0.807355 0.255728 0.008624
Si Si4 0.488750 0.417427 0.603430
Si Si5 0.975683 0.110545 0.208240
Si Si6 0.127627 0.262872 0.911566
Si Si7 0.443276 0.063127 0.447724
Si Si8 0.361248 0.529735 0.847328
O O1 0.394268 0.750000 0.250000
O O2 0.464995 0.799152 0.110230
O O3 0.412467 0.568233 0.101211
O O4 0.358691 0.792736 0.062492
O O5 0.750000 0.518152 0.250000
O O6 0.710427 0.373844 0.412906
O O7 0.677287 0.625268 0.397804
O O8 0.653613 0.429580 0.264411
O O9 0.750000 0.250000 0.946680
O O10 0.829012 0.121423 0.071739
O O11 0.500000 0.500000 0.500000
O O12 0.493410 0.512832 0.701180
O O13 0.427845 0.349634 0.612575
O O14 0.950682 0.250000 0.250000
O O15 0.926873 0.044291 0.142339
O O16 0.027885 0.148577 0.141234
O O17 0.149088 0.134946 0.845363
O O18 0.101758 0.166261 0.001560
O O19 0.500000 0.000000 0.500000
#
# Coordination Sequence:
#
# PCOD9391881 Si02
#       8
#     8   8   8   8   8   8   8   8
#     4  12  25  45  70  98 135 186 244 296 360 434
#     4  12  26  45  69 102 145 185 236 299 374 450
#     4  12  26  48  71  99 135 183 244 312 360 430
#     4  12  25  40  65 102 144 185 234 296 358 443
#     4  12  24  38  63  98 140 188 227 280 366 438
#     4  12  25  41  67 102 151 186 234 291 366 439
#     4  12  22  41  66 100 143 186 230 288 357 437
#     4  12  24  40  67 101 140 184 228 292 367 442
#
# _framework density 20.542245999999999
#
# number of rings (size 3 to 8) (size 9 to 14) (size 15 to 20)
#    0.000    0.000    7.500    3.000    1.750    1.250 
#    0.000    0.000    0.000    0.000    0.000    0.000 
#    3.750    0.000    0.000    0.000    0.000    0.000 
#
# Total GULP energy -356421.472858 kJ/mol
# GULP energy per Si atom -5569.085513 kJ/mol
# Density = 2.049549 g / cm^3
# Si number density = 20.542246 Si / 1000 Ang^3
#
#
#
# Elastic Constant Matrix: (Units=GPa)
#
#
# Indices 1 2 3 4 5 6 
#
# 1 103.8109 29.9405 34.9592 0.0000 0.0000 0.0000
# 2 29.9405 100.6920 18.3324 0.0000 0.0000 0.0000
# 3 34.9592 18.3324 70.7149 0.0000 0.0000 0.0000
# 4 0.0000 0.0000 0.0000 32.8660 0.0000 0.0000
# 5 0.0000 0.0000 0.0000 0.0000 30.6230 0.0000
# 6 0.0000 0.0000 0.0000 0.0000 0.0000 20.4505
#
#
#
# Elastic Compliance Matrix: (Units=1/GPa)
#
#
# Indices 1 2 3 4 5 6 
#
# 1 0.012197 -0.002654 -0.005342 0.000000 0.000000 0.000000
# 2 -0.002654 0.011001 -0.001540 0.000000 0.000000 0.000000
# 3 -0.005342 -0.001540 0.017181 0.000000 0.000000 0.000000
# 4 0.000000 0.000000 0.000000 0.030427 0.000000 0.000000
# 5 0.000000 0.000000 0.000000 0.000000 0.032655 0.000000
# 6 0.000000 0.000000 0.000000 0.000000 0.000000 0.048899
#
#
# Mechanical properties :
#
#
# Convention : Reuss Voigt Hill
#
# Bulk Modulus (GPa) = 46.93124 49.07577 48.00350
# Shear Modulus (GPa) = 28.00582 29.58693 28.79638
#
# Velocity S-wave (km/s) = 3.69633 3.79924 3.74814
# Velocity P-wave (km/s) = 6.41194 6.57173 6.49233
#
# Compressibility (1/GPa) = 0.02130777
#
# Stress axis : x y z
#
# Youngs Moduli (GPa) = 81.98500 90.90208 58.20272
#
# Poissons Ratio (x) = 0.24128 0.31091
# Poissons Ratio (y) = 0.21761 0.08962
# Poissons Ratio (z) = 0.43795 0.13996
#
# Static dielectric constant tensor:
#      x y z
#    x 1.846360 0.000000 0.000000 
#    y 0.000000 1.816730 0.000000 
#    z 0.000000 0.000000 1.842150 
# 
# From -- ./inp_files/28641.got.cif
#   From: 2010.05.17/outbox.cif.g08.bks.cpg/sg48_15_cif.got.tgz:28641.got - 2010.06.03 20:39:00.
