data_PCOD9391937
_publ_section_title
;
Structure prediction by ZEFSAII (Michael W. Deem and Ramdas Pophale) SiO2 
 PCOD9391937
Probable space group: P N N N
;
_chemical_formula_sum "Si O2"
_cell_formula_units_Z 48
_cell_length_a 9.000000
_cell_length_b 18.000000
_cell_length_c 15.000000
_cell_angle_alpha 90.000000
_cell_angle_beta 90.000000
_cell_angle_gamma 90.000000
_cell_volume 2430.000000
_symmetry_space_group_name_H-M "P N N N"
_symmetry_group_IT_number 48
_space_group.IT_coordinate_system_code '2'
_symmetry_cell_setting 'orthorhombic'
loop_
_space_group_symop_operation_xyz
x,y,z
1/2-x,1/2-y,z
x,1/2-y,1/2-z
1/2-x,y,1/2-z
-x,-y,-z
1/2+x,1/2+y,-z
-x,1/2+y,1/2+z
1/2+x,-y,1/2+z
loop_
_atom_site_type_symbol
_atom_site_label
_atom_site_fract_x
_atom_site_fract_y
_atom_site_fract_z
Si Si1 0.480997 0.960205 0.635525
Si Si2 0.073394 0.752695 0.145959
Si Si3 0.750000 0.928634 0.750000
Si Si4 0.133129 0.188987 0.524176
Si Si5 0.750000 0.367066 0.250000
Si Si6 0.582312 0.609289 0.045807
Si Si7 0.965422 0.807250 0.671470
O O1 0.638550 0.970449 0.684810
O O2 0.365587 0.916104 0.695555
O O3 0.503161 0.912464 0.546126
O O4 0.421252 0.039817 0.610529
O O5 0.250000 0.750000 0.139062
O O6 0.031820 0.750000 0.250000
O O7 0.999877 0.683965 0.093094
O O8 0.005796 0.824226 0.094887
O O9 0.860732 0.877263 0.692122
O O10 0.250000 0.250000 0.559322
O O11 0.245296 0.121295 0.519504
O O12 0.074395 0.216123 0.428380
O O13 0.640399 0.322481 0.315912
O O14 0.927376 0.750000 0.750000
#
# Coordination Sequence:
#
# PCOD9391937 Si02
#       7
#     8   8   4   8   4   8   8
#     4  10  22  41  61  89 124 170 201 257 299 386
#     4  10  24  41  62  92 119 153 207 266 313 360
#     4  10  19  36  60  84 123 156 208 234 300 372
#     4  10  21  37  62  89 118 159 200 253 303 371
#     4  10  25  36  56  92 125 152 210 244 310 370
#     4  10  22  42  64  86 125 163 210 250 315 360
#     4  11  21  34  56  89 123 160 192 250 310 371
#
# _framework density 19.753086
#
# number of rings (size 3 to 8) (size 9 to 14) (size 15 to 20)
#    0.000    1.833    1.667    1.500    9.333    5.667 
#    0.000    2.500    0.000    0.000    0.000    0.000 
#    0.000    0.000    0.000    0.000    0.000    0.000 
#
# Total GULP energy -267377.193367 kJ/mol
# GULP energy per Si atom -5570.358195 kJ/mol
# Density = 1.970813 g / cm^3
# Si number density = 19.753086 Si / 1000 Ang^3
#
#
#
# Elastic Constant Matrix: (Units=GPa)
#
#
# Indices 1 2 3 4 5 6 
#
# 1 -65.6899 -48.6705 -231.7092 0.0000 0.0000 0.0000
# 2 -48.6705 13.2303 -97.3644 0.0000 0.0000 0.0000
# 3 -231.7092 -97.3644 -326.1467 0.0000 0.0000 0.0000
# 4 0.0000 0.0000 0.0000 45.0579 0.0000 0.0000
# 5 0.0000 0.0000 0.0000 0.0000 44.3771 0.0000
# 6 0.0000 0.0000 0.0000 0.0000 0.0000 35.0202
#
#
#
# Elastic Compliance Matrix: (Units=1/GPa)
#
#
# Indices 1 2 3 4 5 6 
#
# 1 0.011237 -0.005447 -0.006357 0.000000 0.000000 0.000000
# 2 -0.005447 0.026283 -0.003977 0.000000 0.000000 0.000000
# 3 -0.006357 -0.003977 0.002638 0.000000 0.000000 0.000000
# 4 0.000000 0.000000 0.000000 0.022194 0.000000 0.000000
# 5 0.000000 0.000000 0.000000 0.000000 0.022534 0.000000
# 6 0.000000 0.000000 0.000000 0.000000 0.000000 0.028555
#
#
# Mechanical properties :
#
#
# Convention : Reuss Voigt Hill
#
# Bulk Modulus (GPa) = 116.33157 -126.01050 -4.83947
# Shear Modulus (GPa) = 33.81408 24.83355 29.32382
#
# Velocity S-wave (km/s) = 4.14192 3.54955 3.85712
# Velocity P-wave (km/s) = 9.04957 6.86529 4.16908
#
# Compressibility (1/GPa) = 0.00859612
#
# Stress axis : x y z
#
# Youngs Moduli (GPa) = 88.98937 38.04776 379.13068
#
# Poissons Ratio (x) = 0.20724 2.41030
# Poissons Ratio (y) = 0.48471 1.50762
# Poissons Ratio (z) = 0.56574 0.15130
#
# Static dielectric constant tensor:
#      x y z
#    x 1.712760 0.000000 0.000000 
#    y 0.000000 1.793240 0.000000 
#    z 0.000000 0.000000 1.599580 
# 
# From -- ./inp_files/14189.got.cif
#   From: 2010.05.17/outbox.ucp.g08.bks.cvg/sg48_8_cif.got.tgz:14189.got - 2010.06.11 16:38:40.
