data_PCOD9391926
_publ_section_title
;
Structure prediction by ZEFSAII (Michael W. Deem and Ramdas Pophale) SiO2 
 PCOD9391926
Probable space group: P N N N
;
_chemical_formula_sum "Si O2"
_cell_formula_units_Z 34
_cell_length_a 10.625685
_cell_length_b 7.195152
_cell_length_c 17.919725
_cell_angle_alpha 90.000000
_cell_angle_beta 90.000000
_cell_angle_gamma 90.000000
_cell_volume 1370.024238
_symmetry_space_group_name_H-M "P N N N"
_symmetry_group_IT_number 48
_space_group.IT_coordinate_system_code '2'
_symmetry_cell_setting 'orthorhombic'
loop_
_space_group_symop_operation_xyz
x,y,z
1/2-x,1/2-y,z
x,1/2-y,1/2-z
1/2-x,y,1/2-z
-x,-y,-z
1/2+x,1/2+y,-z
-x,1/2+y,1/2+z
1/2+x,-y,1/2+z
loop_
_atom_site_type_symbol
_atom_site_label
_atom_site_fract_x
_atom_site_fract_y
_atom_site_fract_z
Si Si1 0.750000 0.250000 0.750000
Si Si2 0.877845 0.520486 0.343247
Si Si3 0.364894 0.950124 0.391866
Si Si4 0.101246 0.967117 0.436429
Si Si5 0.892904 0.528389 0.170150
O O1 0.672371 0.118226 0.692805
O O2 0.887019 0.471546 0.256076
O O3 0.887369 0.746680 0.339646
O O4 0.737693 0.465862 0.368629
O O5 0.999522 0.453132 0.388080
O O6 0.243488 0.041210 0.430417
O O7 0.384334 0.755175 0.433443
O O8 0.025159 0.029429 0.363077
O O9 0.000000 0.000000 0.500000
#
# Coordination Sequence:
#
# PCOD9391926 Si02
#       5
#     2   8   8   8   8
#     4   8  12  20  36  58  72  88 128 154 184 232
#     4   8  12  21  35  55  71  90 121 149 192 232
#     4   9  15  23  38  53  72 102 129 158 189 236
#     4   9  16  24  32  48  74 103 128 148 181 229
#     4   8  13  20  35  53  75  96 113 149 190 235
#
# _framework density 24.817080000000001
#
# number of rings (size 3 to 8) (size 9 to 14) (size 15 to 20)
#    0.000    3.765    0.000    5.647    0.000    0.000 
#    0.000    1.176    0.000    0.000    0.000    0.000 
#    0.000   15.059    0.000   61.176    0.000    0.000 
#
# Total GULP energy -189594.963858 kJ/mol
# GULP energy per Si atom -5576.322466 kJ/mol
# Density = 2.476060 g / cm^3
# Si number density = 24.817080 Si / 1000 Ang^3
#
#
#
# Elastic Constant Matrix: (Units=GPa)
#
#
# Indices 1 2 3 4 5 6 
#
# 1 270.6815 13.2384 34.3786 0.0000 0.0000 0.0000
# 2 13.2384 98.1414 0.5928 0.0000 0.0000 0.0000
# 3 34.3786 0.5928 48.6662 0.0000 0.0000 0.0000
# 4 0.0000 0.0000 0.0000 -71.4066 0.0000 0.0000
# 5 0.0000 0.0000 0.0000 0.0000 20.9663 0.0000
# 6 0.0000 0.0000 0.0000 0.0000 0.0000 -23.6294
#
#
#
# Elastic Compliance Matrix: (Units=1/GPa)
#
#
# Indices 1 2 3 4 5 6 
#
# 1 0.004086 -0.000534 -0.002880 0.000000 0.000000 0.000000
# 2 -0.000534 0.010260 0.000252 0.000000 0.000000 0.000000
# 3 -0.002880 0.000252 0.022580 0.000000 0.000000 0.000000
# 4 0.000000 0.000000 0.000000 -0.014004 0.000000 0.000000
# 5 0.000000 0.000000 0.000000 0.000000 0.047696 0.000000
# 6 0.000000 0.000000 0.000000 0.000000 0.000000 -0.042320
#
#
# Mechanical properties :
#
#
# Convention : Reuss Voigt Hill
#
# Bulk Modulus (GPa) = 32.67742 57.10097 44.88920
# Shear Modulus (GPa) = 111.55385 9.80466 60.67925
#
# Velocity S-wave (km/s) = 6.71178 1.98981 4.95012
# Velocity P-wave (km/s) = 8.55920 5.32333 7.12733
#
# Compressibility (1/GPa) = 0.03060217
#
# Stress axis : x y z
#
# Youngs Moduli (GPa) = 244.72115 97.46721 44.28772
#
# Poissons Ratio (x) = 0.05203 0.12755
# Poissons Ratio (y) = 0.13063 -0.01117
# Poissons Ratio (z) = 0.70483 -0.02457
#
# Static dielectric constant tensor:
#      x y z
#    x 2.045720 0.000000 0.000000 
#    y 0.000000 2.046430 0.000000 
#    z 0.000000 0.000000 2.058560 
# 
# From -- ./inp_files/26208.got.cif
#   From: 2010.05.17/outbox.cif.g08.bks.cpg/sg48_14_cif.got.tgz:26208.got - 2010.06.03 20:39:00.
