data_PCOD9391793
_publ_section_title
;
Structure prediction by ZEFSAII (Michael W. Deem and Ramdas Pophale) SiO2 
 PCOD9391793
Probable space group: P N N N
;
_chemical_formula_sum "Si O2"
_cell_formula_units_Z 58
_cell_length_a 18.730705
_cell_length_b 8.123771
_cell_length_c 16.257746
_cell_angle_alpha 90.000000
_cell_angle_beta 90.000000
_cell_angle_gamma 90.000000
_cell_volume 2473.842981
_symmetry_space_group_name_H-M "P N N N"
_symmetry_group_IT_number 48
_space_group.IT_coordinate_system_code '2'
_symmetry_cell_setting 'orthorhombic'
loop_
_space_group_symop_operation_xyz
x,y,z
1/2-x,1/2-y,z
x,1/2-y,1/2-z
1/2-x,y,1/2-z
-x,-y,-z
1/2+x,1/2+y,-z
-x,1/2+y,1/2+z
1/2+x,-y,1/2+z
loop_
_atom_site_type_symbol
_atom_site_label
_atom_site_fract_x
_atom_site_fract_y
_atom_site_fract_z
Si Si1 0.750000 0.750000 0.250000
Si Si2 0.332621 0.578962 0.355778
Si Si3 0.458070 0.418918 0.103066
Si Si4 0.320458 0.953341 0.340296
Si Si5 0.629392 0.584648 0.362616
Si Si6 0.987028 0.954959 0.595910
Si Si7 0.092957 0.428411 0.580021
Si Si8 0.333903 0.738353 0.843913
O O1 0.692646 0.632196 0.298048
O O2 0.336760 0.772642 0.378004
O O3 0.255870 0.501509 0.380455
O O4 0.322335 0.572880 0.257521
O O5 0.405465 0.496839 0.383231
O O6 0.384417 0.419667 0.150504
O O7 0.494950 0.241460 0.105392
O O8 0.517701 0.551606 0.128643
O O9 0.429861 0.462702 0.012409
O O10 0.544278 0.552081 0.346823
O O11 0.626775 0.748852 0.416432
O O12 0.646604 0.402648 0.395020
O O13 0.000000 0.000000 0.500000
O O14 0.143533 0.567956 0.615832
O O15 0.250000 0.750000 0.836967
O O16 0.363972 0.750000 0.750000
#
# Coordination Sequence:
#
# PCOD9391793 Si02
#       8
#     2   8   8   8   8   8   8   8
#     4  12  28  48  74 108 144 200 254 308 386 440
#     4   9  21  42  71 102 135 179 233 294 365 435
#     4  11  24  44  66 102 142 183 241 298 362 435
#     4   9  20  43  69 101 136 177 235 298 359 430
#     4  12  24  47  72  97 145 191 241 305 365 435
#     4  12  25  45  69 103 143 190 242 299 363 445
#     4  11  24  43  69  99 142 186 239 299 359 444
#     4  11  24  44  68  99 139 186 245 305 360 434
#
# _framework density 23.445305999999999
#
# number of rings (size 3 to 8) (size 9 to 14) (size 15 to 20)
#    0.000    1.241    2.759    4.138    1.931    4.414 
#    7.448    1.379    0.000    0.000    0.000    0.000 
#    0.000    0.000    0.000    0.000    0.000    0.000 
#
# Total GULP energy -323381.584520 kJ/mol
# GULP energy per Si atom -5575.544561 kJ/mol
# Density = 2.339194 g / cm^3
# Si number density = 23.445306 Si / 1000 Ang^3
#
#
#
# Elastic Constant Matrix: (Units=GPa)
#
#
# Indices 1 2 3 4 5 6 
#
# 1 146.8381 26.8541 32.6174 0.0000 0.0000 0.0000
# 2 26.8541 99.1015 20.3311 0.0000 0.0000 0.0000
# 3 32.6174 20.3311 40.6487 0.0000 0.0000 0.0000
# 4 0.0000 0.0000 0.0000 19.9033 0.0000 0.0000
# 5 0.0000 0.0000 0.0000 0.0000 31.7200 0.0000
# 6 0.0000 0.0000 0.0000 0.0000 0.0000 41.0534
#
#
#
# Elastic Compliance Matrix: (Units=1/GPa)
#
#
# Indices 1 2 3 4 5 6 
#
# 1 0.008374 -0.000992 -0.006223 0.000000 0.000000 0.000000
# 2 -0.000992 0.011362 -0.004887 0.000000 0.000000 0.000000
# 3 -0.006223 -0.004887 0.032039 0.000000 0.000000 0.000000
# 4 0.000000 0.000000 0.000000 0.050243 0.000000 0.000000
# 5 0.000000 0.000000 0.000000 0.000000 0.031526 0.000000
# 6 0.000000 0.000000 0.000000 0.000000 0.000000 0.024359
#
#
# Mechanical properties :
#
#
# Convention : Reuss Voigt Hill
#
# Bulk Modulus (GPa) = 36.27058 49.57706 42.92382
# Shear Modulus (GPa) = 26.13738 32.32105 29.22921
#
# Velocity S-wave (km/s) = 3.34252 3.71694 3.53469
# Velocity P-wave (km/s) = 5.51366 6.29385 5.91663
#
# Compressibility (1/GPa) = 0.02757055
#
# Stress axis : x y z
#
# Youngs Moduli (GPa) = 119.41598 88.01186 31.21219
#
# Poissons Ratio (x) = 0.08735 0.19424
# Poissons Ratio (y) = 0.11852 0.15252
# Poissons Ratio (z) = 0.74315 0.43008
#
# Static dielectric constant tensor:
#      x y z
#    x 2.002390 0.000000 0.000000 
#    y 0.000000 1.892070 0.000000 
#    z 0.000000 0.000000 2.013070 
# 
# From -- ./inp_files/32022.got.cif
#   From: 2010.05.17/outbox.cif.g08.bks.cpg/sg48_17_cif.got.tgz:32022.got - 2010.06.03 20:39:00.
