data_PCOD9391790
_publ_section_title
;
Structure prediction by ZEFSAII (Michael W. Deem and Ramdas Pophale) SiO2 
 PCOD9391790
Probable space group: P N N N
;
_chemical_formula_sum "Si O2"
_cell_formula_units_Z 30
_cell_length_a 3.877090
_cell_length_b 19.780497
_cell_length_c 11.956811
_cell_angle_alpha 90.000000
_cell_angle_beta 90.000000
_cell_angle_gamma 90.000000
_cell_volume 916.977008
_symmetry_space_group_name_H-M "P N N N"
_symmetry_group_IT_number 48
_space_group.IT_coordinate_system_code '2'
_symmetry_cell_setting 'orthorhombic'
loop_
_space_group_symop_operation_xyz
x,y,z
1/2-x,1/2-y,z
x,1/2-y,1/2-z
1/2-x,y,1/2-z
-x,-y,-z
1/2+x,1/2+y,-z
-x,1/2+y,1/2+z
1/2+x,-y,1/2+z
loop_
_atom_site_type_symbol
_atom_site_label
_atom_site_fract_x
_atom_site_fract_y
_atom_site_fract_z
Si Si1 0.788072 0.554637 0.574463
Si Si2 0.250000 0.750000 0.912446
Si Si3 0.750000 0.455172 0.750000
Si Si4 0.750000 0.750000 0.250000
Si Si5 0.750000 0.141726 0.250000
Si Si6 0.676674 0.150197 0.914402
O O1 0.576582 0.506261 0.661987
O O2 0.552756 0.601542 0.495222
O O3 0.000000 0.500000 0.500000
O O4 0.016667 0.598886 0.663081
O O5 0.440248 0.803167 0.831349
O O6 0.099048 0.802826 0.002605
O O7 0.900406 0.400557 0.662985
O O8 0.529983 0.799660 0.168527
#
# Coordination Sequence:
#
# PCOD9391790 Si02
#       6
#     8   4   4   2   4   8
#     4  12  24  43  68 100 138 183 237 304 376 452
#     4  11  24  43  66  94 134 179 232 295 362 442
#     4  12  24  41  66  97 134 178 232 294 368 444
#     4  12  24  40  64  92 128 174 228 286 356 432
#     4  11  24  43  66  97 134 179 234 294 366 449
#     4  12  24  43  67  99 138 186 241 305 372 447
#
# _framework density 32.716197000000001
#
# number of rings (size 3 to 8) (size 9 to 14) (size 15 to 20)
#    0.000    0.267    0.000   10.400    0.000    0.000 
#    0.000    2.667    0.000    0.000    0.000    0.000 
#    0.000    0.000    0.000    0.000    0.000    0.267 
#
# Total GULP energy -167295.239312 kJ/mol
# GULP energy per Si atom -5576.507977 kJ/mol
# Density = 3.264173 g / cm^3
# Si number density = 32.716197 Si / 1000 Ang^3
#
#
#
# Elastic Constant Matrix: (Units=GPa)
#
#
# Indices 1 2 3 4 5 6 
#
# 1 98.9954 113.3048 108.4311 0.0000 0.0000 0.0000
# 2 113.3048 273.4126 188.9396 0.0000 0.0000 0.0000
# 3 108.4311 188.9396 289.7184 0.0000 0.0000 0.0000
# 4 0.0000 0.0000 0.0000 228.1526 0.0000 0.0000
# 5 0.0000 0.0000 0.0000 0.0000 92.4845 0.0000
# 6 0.0000 0.0000 0.0000 0.0000 0.0000 78.1644
#
#
#
# Elastic Compliance Matrix: (Units=1/GPa)
#
#
# Indices 1 2 3 4 5 6 
#
# 1 0.021582 -0.006120 -0.004086 0.000000 0.000000 0.000000
# 2 -0.006120 0.008393 -0.003183 0.000000 0.000000 0.000000
# 3 -0.004086 -0.003183 0.007057 0.000000 0.000000 0.000000
# 4 0.000000 0.000000 0.000000 0.004383 0.000000 0.000000
# 5 0.000000 0.000000 0.000000 0.000000 0.010813 0.000000
# 6 0.000000 0.000000 0.000000 0.000000 0.000000 0.012794
#
#
# Mechanical properties :
#
#
# Convention : Reuss Voigt Hill
#
# Bulk Modulus (GPa) = 97.53012 164.83081 131.18047
# Shear Modulus (GPa) = 52.51132 96.52371 74.51751
#
# Velocity S-wave (km/s) = 4.01066 5.43759 4.77770
# Velocity P-wave (km/s) = 7.16400 9.48233 8.40350
#
# Compressibility (1/GPa) = 0.01025324
#
# Stress axis : x y z
#
# Youngs Moduli (GPa) = 46.33574 119.14077 141.70564
#
# Poissons Ratio (x) = 0.72914 0.57902
# Poissons Ratio (y) = 0.28357 0.45109
# Poissons Ratio (z) = 0.18933 0.37926
#
# Static dielectric constant tensor:
#      x y z
#    x 2.722690 0.000000 0.000000 
#    y 0.000000 2.535330 0.000000 
#    z 0.000000 0.000000 2.537210 
# 
# From -- ./inp_files/17409.got.cif
#   From: 2010.05.17/outbox.cif.g08.bks.cpg/sg48_9_cif.got.tgz:17409.got - 2010.06.03 20:39:00.
