data_PCOD9391363
_publ_section_title
;
Structure prediction by ZEFSAII (Michael W. Deem and Ramdas Pophale) SiO2 
 PCOD9391363
Probable space group: P N N N
;
_chemical_formula_sum "Si O2"
_cell_formula_units_Z 22
_cell_length_a 25.379457
_cell_length_b 5.094434
_cell_length_c 6.723660
_cell_angle_alpha 90.000000
_cell_angle_beta 90.000000
_cell_angle_gamma 90.000000
_cell_volume 869.328685
_symmetry_space_group_name_H-M "P N N N"
_symmetry_group_IT_number 48
_space_group.IT_coordinate_system_code '2'
_symmetry_cell_setting 'orthorhombic'
loop_
_space_group_symop_operation_xyz
x,y,z
1/2-x,1/2-y,z
x,1/2-y,1/2-z
1/2-x,y,1/2-z
-x,-y,-z
1/2+x,1/2+y,-z
-x,1/2+y,1/2+z
1/2+x,-y,1/2+z
loop_
_atom_site_type_symbol
_atom_site_label
_atom_site_fract_x
_atom_site_fract_y
_atom_site_fract_z
Si Si1 0.507371 0.750000 0.250000
Si Si2 0.184616 0.504955 0.608801
Si Si3 0.750000 0.750000 0.750000
Si Si4 0.079075 0.375218 0.435650
O O1 0.468187 0.537214 0.162261
O O2 0.548806 0.671367 0.421737
O O3 0.188415 0.250000 0.750000
O O4 0.217364 0.436272 0.407004
O O5 0.123102 0.536464 0.549267
O O6 0.197843 0.750000 0.750000
O O7 0.108396 0.250000 0.250000
#
# Coordination Sequence:
#
# PCOD9391363 Si02
#       4
#     4   8   2   8
#     4  10  24  40  72 114 164 214 266 316 392 494
#     4  12  30  53  86 123 160 211 283 344 415 507
#     4  12  30  62  88 116 168 222 270 366 444 474
#     4  11  23  44  73 114 162 215 265 325 401 479
#
# _framework density 25.306885000000001
#
# number of rings (size 3 to 8) (size 9 to 14) (size 15 to 20)
#    0.000    0.727    3.636    1.636    5.091   11.636 
#    0.000    0.000    0.000    0.000    0.000    0.000 
#    0.000    0.000    0.000    0.000    0.000    0.000 
#
# Total GULP energy -122861.157023 kJ/mol
# GULP energy per Si atom -5584.598046 kJ/mol
# Density = 2.524929 g / cm^3
# Si number density = 25.306885 Si / 1000 Ang^3
#
#
#
# Elastic Constant Matrix: (Units=GPa)
#
#
# Indices 1 2 3 4 5 6 
#
# 1 157.4384 38.9677 98.4900 0.0000 0.0000 0.0000
# 2 38.9677 122.0744 77.2390 0.0000 0.0000 0.0000
# 3 98.4900 77.2390 210.4357 0.0000 0.0000 0.0000
# 4 0.0000 0.0000 0.0000 48.5018 0.0000 0.0000
# 5 0.0000 0.0000 0.0000 0.0000 31.4047 0.0000
# 6 0.0000 0.0000 0.0000 0.0000 0.0000 229.0202
#
#
#
# Elastic Compliance Matrix: (Units=1/GPa)
#
#
# Indices 1 2 3 4 5 6 
#
# 1 0.008988 -0.000270 -0.004108 0.000000 0.000000 0.000000
# 2 -0.000270 0.010678 -0.003793 0.000000 0.000000 0.000000
# 3 -0.004108 -0.003793 0.008067 0.000000 0.000000 0.000000
# 4 0.000000 0.000000 0.000000 0.020618 0.000000 0.000000
# 5 0.000000 0.000000 0.000000 0.000000 0.031842 0.000000
# 6 0.000000 0.000000 0.000000 0.000000 0.000000 0.004366
#
#
# Mechanical properties :
#
#
# Convention : Reuss Voigt Hill
#
# Bulk Modulus (GPa) = 87.78462 102.14913 94.96687
# Shear Modulus (GPa) = 47.75677 80.13544 63.94611
#
# Velocity S-wave (km/s) = 4.34880 5.63331 5.03221
# Velocity P-wave (km/s) = 7.74464 9.09748 8.44818
#
# Compressibility (1/GPa) = 0.01139152
#
# Stress axis : x y z
#
# Youngs Moduli (GPa) = 111.25750 93.65305 123.96813
#
# Poissons Ratio (x) = 0.02531 0.50920
# Poissons Ratio (y) = 0.03006 0.47018
# Poissons Ratio (z) = 0.45699 0.35520
#
# Static dielectric constant tensor:
#      x y z
#    x 1.981240 0.000000 0.000000 
#    y 0.000000 2.042610 0.000000 
#    z 0.000000 0.000000 2.133770 
# 
# From -- ./inp_files/349.got.cif
#   From: 2010.05.17/outbox.cif.g08.bks.cpg/sg48_1_cif.got.tgz:349.got - 2010.06.03 20:39:00.
