data_PCOD9391823
_publ_section_title
;
Structure prediction by ZEFSAII (Michael W. Deem and Ramdas Pophale) SiO2 
 PCOD9391823
Probable space group: P N N N
;
_chemical_formula_sum "Si O2"
_cell_formula_units_Z 42
_cell_length_a 8.372228
_cell_length_b 16.127782
_cell_length_c 13.289819
_cell_angle_alpha 90.000000
_cell_angle_beta 90.000000
_cell_angle_gamma 90.000000
_cell_volume 1794.464031
_symmetry_space_group_name_H-M "P N N N"
_symmetry_group_IT_number 48
_space_group.IT_coordinate_system_code '2'
_symmetry_cell_setting 'orthorhombic'
loop_
_space_group_symop_operation_xyz
x,y,z
1/2-x,1/2-y,z
x,1/2-y,1/2-z
1/2-x,y,1/2-z
-x,-y,-z
1/2+x,1/2+y,-z
-x,1/2+y,1/2+z
1/2+x,-y,1/2+z
loop_
_atom_site_type_symbol
_atom_site_label
_atom_site_fract_x
_atom_site_fract_y
_atom_site_fract_z
Si Si1 0.427828 0.784807 0.984481
Si Si2 0.930081 0.009589 0.785655
Si Si3 0.250000 0.250000 0.750000
Si Si4 0.441164 0.067518 0.920810
Si Si5 0.938371 0.154564 0.270895
Si Si6 0.902828 0.863545 0.081941
O O1 0.250000 0.750000 0.972691
O O2 0.453437 0.848501 0.075639
O O3 0.533973 0.703337 0.002179
O O4 0.468266 0.843944 0.890298
O O5 0.750000 0.023543 0.750000
O O6 0.045967 0.033403 0.692249
O O7 0.974780 0.065801 0.881011
O O8 0.963423 0.911472 0.793487
O O9 0.143436 0.192141 0.821073
O O10 0.261391 0.092869 0.948300
O O11 0.500000 0.000000 0.000000
O O12 0.975906 0.250000 0.250000
O O13 0.750000 0.141141 0.250000
#
# Coordination Sequence:
#
# PCOD9391823 Si02
#       6
#     8   8   2   8   8   8
#     4  12  24  44  74 109 142 185 249 303 364 449
#     4  12  26  46  73 109 145 192 246 307 369 446
#     4  12  20  40  70 100 132 196 230 288 384 436
#     4  12  24  44  71 105 147 190 245 304 366 445
#     4  11  24  48  72  99 147 198 238 294 377 434
#     4  12  24  45  76 102 149 195 243 305 378 438
#
# _framework density 23.405315999999999
#
# number of rings (size 3 to 8) (size 9 to 14) (size 15 to 20)
#    0.000    0.190    7.619    2.286    0.000    1.905 
#    3.429    4.762    0.000    0.000    0.000    0.000 
#    0.000    0.000    0.000    0.000    0.000    0.000 
#
# Total GULP energy -235007.688656 kJ/mol
# GULP energy per Si atom -5595.421158 kJ/mol
# Density = 2.335204 g / cm^3
# Si number density = 23.405316 Si / 1000 Ang^3
#
#
#
# Elastic Constant Matrix: (Units=GPa)
#
#
# Indices 1 2 3 4 5 6 
#
# 1 98.9880 52.9016 10.3455 0.0000 0.0000 0.0000
# 2 52.9016 148.1368 29.0501 0.0000 0.0000 0.0000
# 3 10.3455 29.0501 52.6230 0.0000 0.0000 0.0000
# 4 0.0000 0.0000 0.0000 45.3503 0.0000 0.0000
# 5 0.0000 0.0000 0.0000 0.0000 23.3963 0.0000
# 6 0.0000 0.0000 0.0000 0.0000 0.0000 33.4170
#
#
#
# Elastic Compliance Matrix: (Units=1/GPa)
#
#
# Indices 1 2 3 4 5 6 
#
# 1 0.012485 -0.004460 0.000008 0.000000 0.000000 0.000000
# 2 -0.004460 0.009163 -0.004182 0.000000 0.000000 0.000000
# 3 0.000008 -0.004182 0.021310 0.000000 0.000000 0.000000
# 4 0.000000 0.000000 0.000000 0.022051 0.000000 0.000000
# 5 0.000000 0.000000 0.000000 0.000000 0.042742 0.000000
# 6 0.000000 0.000000 0.000000 0.000000 0.000000 0.029925
#
#
# Mechanical properties :
#
#
# Convention : Reuss Voigt Hill
#
# Bulk Modulus (GPa) = 38.92545 53.81580 46.37062
# Shear Modulus (GPa) = 30.57968 34.26276 32.42122
#
# Velocity S-wave (km/s) = 3.61851 3.83023 3.72588
# Velocity P-wave (km/s) = 5.84169 6.52716 6.19391
#
# Compressibility (1/GPa) = 0.02569013
#
# Stress axis : x y z
#
# Youngs Moduli (GPa) = 80.09618 109.13092 46.92616
#
# Poissons Ratio (x) = 0.48673 -0.00036
# Poissons Ratio (y) = 0.35723 0.19623
# Poissons Ratio (z) = -0.00061 0.45635
#
# Static dielectric constant tensor:
#      x y z
#    x 1.839110 0.000000 0.000000 
#    y 0.000000 1.940160 0.000000 
#    z 0.000000 0.000000 2.129050 
# 
# From -- ./inp_files/25134.got.cif
#   From: 2010.05.17/outbox.cif.g08.bks.cpg/sg48_13_cif.got.tgz:25134.got - 2010.06.03 20:39:00.
