data_PCOD9391806
_publ_section_title
;
Structure prediction by ZEFSAII (Michael W. Deem and Ramdas Pophale) SiO2 
 PCOD9391806
Probable space group: P N N N
;
_chemical_formula_sum "Si O2"
_cell_formula_units_Z 34
_cell_length_a 8.123308
_cell_length_b 23.122411
_cell_length_c 7.932158
_cell_angle_alpha 90.000000
_cell_angle_beta 90.000000
_cell_angle_gamma 90.000000
_cell_volume 1489.900936
_symmetry_space_group_name_H-M "P N N N"
_symmetry_group_IT_number 48
_space_group.IT_coordinate_system_code '2'
_symmetry_cell_setting 'orthorhombic'
loop_
_space_group_symop_operation_xyz
x,y,z
1/2-x,1/2-y,z
x,1/2-y,1/2-z
1/2-x,y,1/2-z
-x,-y,-z
1/2+x,1/2+y,-z
-x,1/2+y,1/2+z
1/2+x,-y,1/2+z
loop_
_atom_site_type_symbol
_atom_site_label
_atom_site_fract_x
_atom_site_fract_y
_atom_site_fract_z
Si Si1 0.310885 0.565861 0.937981
Si Si2 0.703115 0.943754 0.563306
Si Si3 0.801291 0.673397 0.060476
Si Si4 0.313093 0.809999 0.056908
Si Si5 0.750000 0.750000 0.750000
O O1 0.250000 0.555225 0.750000
O O2 0.507398 0.562798 0.957742
O O3 0.244277 0.510147 0.038084
O O4 0.251958 0.629615 0.985602
O O5 0.750000 0.926725 0.750000
O O6 0.787451 0.895928 0.447878
O O7 0.750000 0.690009 0.250000
O O8 0.991052 0.690336 0.040271
O O9 0.703111 0.702293 0.900919
O O10 0.250000 0.750000 0.977061
O O11 0.250000 0.809792 0.250000
#
# Coordination Sequence:
#
# PCOD9391806 Si02
#       5
#     8   8   8   8   2
#     4  11  25  43  69 102 145 192 240 306 369 429
#     4  11  24  45  71 105 142 190 251 299 361 438
#     4  12  27  48  78 107 149 195 245 301 364 439
#     4  11  27  46  70 105 145 191 239 300 371 432
#     4  12  30  44  74 114 140 192 238 300 352 450
#
# _framework density 22.820312000000001
#
# number of rings (size 3 to 8) (size 9 to 14) (size 15 to 20)
#    0.000    0.706    1.176    4.588    9.882    8.000 
#    0.000    0.000    0.000    0.000    0.000    0.000 
#    0.000    0.000    0.000    0.000    0.000    0.000 
#
# Total GULP energy -189695.787874 kJ/mol
# GULP energy per Si atom -5579.287879 kJ/mol
# Density = 2.276837 g / cm^3
# Si number density = 22.820312 Si / 1000 Ang^3
#
#
#
# Elastic Constant Matrix: (Units=GPa)
#
#
# Indices 1 2 3 4 5 6 
#
# 1 95.1609 50.7402 -4.2114 0.0000 0.0000 0.0000
# 2 50.7402 206.4082 40.8004 0.0000 0.0000 0.0000
# 3 -4.2114 40.8004 119.1116 0.0000 0.0000 0.0000
# 4 0.0000 0.0000 0.0000 -167.4309 0.0000 0.0000
# 5 0.0000 0.0000 0.0000 0.0000 16.9611 0.0000
# 6 0.0000 0.0000 0.0000 0.0000 0.0000 47.0022
#
#
#
# Elastic Compliance Matrix: (Units=1/GPa)
#
#
# Indices 1 2 3 4 5 6 
#
# 1 0.012367 -0.003354 0.001586 0.000000 0.000000 0.000000
# 2 -0.003354 0.006106 -0.002210 0.000000 0.000000 0.000000
# 3 0.001586 -0.002210 0.009209 0.000000 0.000000 0.000000
# 4 0.000000 0.000000 0.000000 -0.005973 0.000000 0.000000
# 5 0.000000 0.000000 0.000000 0.000000 0.058958 0.000000
# 6 0.000000 0.000000 0.000000 0.000000 0.000000 0.021276
#
#
# Mechanical properties :
#
#
# Convention : Reuss Voigt Hill
#
# Bulk Modulus (GPa) = 50.69435 66.14879 58.42157
# Shear Modulus (GPa) = 42.92816 1.52992 22.22904
#
# Velocity S-wave (km/s) = 4.34191 0.81968 3.12443
# Velocity P-wave (km/s) = 6.88470 5.47225 6.21871
#
# Compressibility (1/GPa) = 0.01972607
#
# Stress axis : x y z
#
# Youngs Moduli (GPa) = 80.86135 163.77247 108.59394
#
# Poissons Ratio (x) = 0.54922 -0.17223
# Poissons Ratio (y) = 0.27117 0.24001
# Poissons Ratio (z) = -0.12824 0.36196
#
# Static dielectric constant tensor:
#      x y z
#    x 1.828780 0.000000 0.000000 
#    y 0.000000 1.915920 0.000000 
#    z 0.000000 0.000000 2.155750 
# 
# From -- ./inp_files/8759.got.cif
#   From: 2010.05.17/outbox.cif.g08.bks.cpg/sg48_5_cif.got.tgz:8759.got - 2010.06.03 20:39:00.
