data_PCOD9391535
_publ_section_title
;
Structure prediction by ZEFSAII (Michael W. Deem and Ramdas Pophale) SiO2 
 PCOD9391535
Probable space group: P N N N
;
_chemical_formula_sum "Si O2"
_cell_formula_units_Z 48
_cell_length_a 13.379788
_cell_length_b 7.159137
_cell_length_c 24.665323
_cell_angle_alpha 90.000000
_cell_angle_beta 90.000000
_cell_angle_gamma 90.000000
_cell_volume 2362.635431
_symmetry_space_group_name_H-M "P N N N"
_symmetry_group_IT_number 48
_space_group.IT_coordinate_system_code '2'
_symmetry_cell_setting 'orthorhombic'
loop_
_space_group_symop_operation_xyz
x,y,z
1/2-x,1/2-y,z
x,1/2-y,1/2-z
1/2-x,y,1/2-z
-x,-y,-z
1/2+x,1/2+y,-z
-x,1/2+y,1/2+z
1/2+x,-y,1/2+z
loop_
_atom_site_type_symbol
_atom_site_label
_atom_site_fract_x
_atom_site_fract_y
_atom_site_fract_z
Si Si1 0.142707 0.733143 0.908529
Si Si2 0.058530 0.109530 0.114395
Si Si3 0.847305 0.516785 0.507625
Si Si4 0.655293 0.011890 0.912471
Si Si5 0.953317 0.626829 0.048222
Si Si6 0.723474 0.971763 0.690427
O O1 0.250000 0.750000 0.882253
O O2 0.116468 0.517997 0.919404
O O3 0.054936 0.835465 0.876636
O O4 0.147477 0.845799 0.965851
O O5 0.075077 0.004919 0.057370
O O6 0.114581 0.303149 0.098242
O O7 0.111719 0.021799 0.166316
O O8 0.738759 0.504453 0.539043
O O9 0.614152 0.798088 0.474362
O O10 0.558038 0.141157 0.919038
O O11 0.711396 0.060739 0.857277
O O12 0.000000 0.500000 0.000000
O O13 0.750000 0.750000 0.691502
O O14 0.750000 0.041532 0.750000
#
# Coordination Sequence:
#
# PCOD9391535 Si02
#       6
#     8   8   8   8   8   8
#     4  11  23  30  46  73 102 145 181 203 253 318
#     4   9  18  30  45  69 104 134 173 224 250 308
#     4  11  20  33  48  67 107 139 179 215 253 310
#     4   9  18  31  49  71 104 138 179 221 259 325
#     4  11  21  32  47  69 100 144 178 209 256 305
#     4   8  14  27  51  75  97 131 171 221 282 307
#
# _framework density 20.316296999999999
#
# number of rings (size 3 to 8) (size 9 to 14) (size 15 to 20)
#    0.000    2.167    3.333    3.000    2.333    0.000 
#    0.000    0.000    0.000    0.000    0.000   23.333 
#    0.000   21.333    0.000   18.833    2.667    0.333 
#
# Total GULP energy -267583.171506 kJ/mol
# GULP energy per Si atom -5574.649406 kJ/mol
# Density = 2.027006 g / cm^3
# Si number density = 20.316297 Si / 1000 Ang^3
#
#
#
# Elastic Constant Matrix: (Units=GPa)
#
#
# Indices 1 2 3 4 5 6 
#
# 1 180.0787 36.1943 59.5886 0.0000 0.0000 0.0000
# 2 36.1943 107.6013 29.2605 0.0000 0.0000 0.0000
# 3 59.5886 29.2605 104.0198 0.0000 0.0000 0.0000
# 4 0.0000 0.0000 0.0000 2.1206 0.0000 0.0000
# 5 0.0000 0.0000 0.0000 0.0000 14.9322 0.0000
# 6 0.0000 0.0000 0.0000 0.0000 0.0000 13.8380
#
#
#
# Elastic Compliance Matrix: (Units=1/GPa)
#
#
# Indices 1 2 3 4 5 6 
#
# 1 0.007035 -0.001376 -0.003643 0.000000 0.000000 0.000000
# 2 -0.001376 0.010332 -0.002118 0.000000 0.000000 0.000000
# 3 -0.003643 -0.002118 0.012296 0.000000 0.000000 0.000000
# 4 0.000000 0.000000 0.000000 0.471556 0.000000 0.000000
# 5 0.000000 0.000000 0.000000 0.000000 0.066969 0.000000
# 6 0.000000 0.000000 0.000000 0.000000 0.000000 0.072265
#
#
# Mechanical properties :
#
#
# Convention : Reuss Voigt Hill
#
# Bulk Modulus (GPa) = 64.97950 71.30964 68.14457
# Shear Modulus (GPa) = 7.57739 23.95527 15.76633
#
# Velocity S-wave (km/s) = 1.93334 3.43755 2.78878
# Velocity P-wave (km/s) = 6.08581 7.13664 6.63207
#
# Compressibility (1/GPa) = 0.01538947
#
# Stress axis : x y z
#
# Youngs Moduli (GPa) = 142.14287 96.78296 81.32418
#
# Poissons Ratio (x) = 0.13315 0.29628
# Poissons Ratio (y) = 0.19555 0.17227
# Poissons Ratio (z) = 0.51785 0.20502
#
# Static dielectric constant tensor:
#      x y z
#    x 1.826520 0.000000 0.000000 
#    y 0.000000 1.881880 0.000000 
#    z 0.000000 0.000000 1.758520 
# 
# From -- ./inp_files/20357.got.cif
#   From: 2010.05.17/outbox.cif.g08.bks.cpg/sg48_11_cif.got.tgz:20357.got - 2010.06.03 20:39:00.
