data_PCOD9391100
_publ_section_title
;
Structure prediction by ZEFSAII (Michael W. Deem and Ramdas Pophale) SiO2 
 PCOD9391100
Probable space group: P N N N
;
_chemical_formula_sum "Si O2"
_cell_formula_units_Z 58
_cell_length_a 20.137783
_cell_length_b 7.162918
_cell_length_c 16.497978
_cell_angle_alpha 90.000000
_cell_angle_beta 90.000000
_cell_angle_gamma 90.000000
_cell_volume 2379.755593
_symmetry_space_group_name_H-M "P N N N"
_symmetry_group_IT_number 48
_space_group.IT_coordinate_system_code '2'
_symmetry_cell_setting 'orthorhombic'
loop_
_space_group_symop_operation_xyz
x,y,z
1/2-x,1/2-y,z
x,1/2-y,1/2-z
1/2-x,y,1/2-z
-x,-y,-z
1/2+x,1/2+y,-z
-x,1/2+y,1/2+z
1/2+x,-y,1/2+z
loop_
_atom_site_type_symbol
_atom_site_label
_atom_site_fract_x
_atom_site_fract_y
_atom_site_fract_z
Si Si1 0.651023 0.421859 0.186919
Si Si2 0.176415 0.024640 0.442454
Si Si3 0.078589 0.011711 0.974241
Si Si4 0.368912 0.528839 0.260192
Si Si5 0.562333 0.947518 0.055146
Si Si6 0.750000 0.750000 0.250000
Si Si7 0.016050 0.029943 0.733701
Si Si8 0.317851 0.454140 0.093973
O O1 0.672401 0.250000 0.250000
O O2 0.630085 0.412244 0.090917
O O3 0.700524 0.601542 0.202778
O O4 0.576251 0.458542 0.215097
O O5 0.128051 0.966664 0.514367
O O6 0.251083 0.952444 0.437542
O O7 0.181534 0.249000 0.444155
O O8 0.145407 0.996782 0.354174
O O9 0.077007 0.226784 0.943430
O O10 0.114864 0.961499 0.059143
O O11 0.000000 0.000000 0.000000
O O12 0.364688 0.750000 0.250000
O O13 0.443416 0.457605 0.245322
O O14 0.321302 0.445058 0.191211
O O15 0.539446 0.010754 0.142884
O O16 0.500000 0.000000 0.000000
O O17 0.011912 0.250000 0.750000
#
# Coordination Sequence:
#
# PCOD9391100 Si02
#       8
#     8   8   8   8   8   2   8   8
#     4  12  27  47  80 111 146 204 259 316 397 467
#     4  10  22  41  63  95 131 183 238 287 358 450
#     4  11  25  44  69 107 150 183 246 322 375 457
#     4  11  23  38  65  95 143 181 232 286 365 441
#     4  11  22  40  67 100 138 191 243 299 385 446
#     4  12  26  56  80 106 160 196 266 336 388 470
#     4  11  22  43  67 103 140 190 239 307 375 444
#     4  10  23  40  64  94 134 185 230 292 363 436
#
# _framework density 24.372250999999999
#
# number of rings (size 3 to 8) (size 9 to 14) (size 15 to 20)
#    0.000    1.103    3.448    1.862    3.862    6.621 
#    0.000    0.000    0.000    0.000    0.000    0.000 
#    0.000    0.000    0.000    0.000    0.000    0.000 
#
# Total GULP energy -323218.475879 kJ/mol
# GULP energy per Si atom -5572.732343 kJ/mol
# Density = 2.431678 g / cm^3
# Si number density = 24.372251 Si / 1000 Ang^3
#
#
#
# Elastic Constant Matrix: (Units=GPa)
#
#
# Indices 1 2 3 4 5 6 
#
# 1 166.3045 11.5516 37.0573 0.0000 0.0000 0.0000
# 2 11.5516 117.7680 1.8831 0.0000 0.0000 0.0000
# 3 37.0573 1.8831 114.3444 0.0000 0.0000 0.0000
# 4 0.0000 0.0000 0.0000 24.1459 0.0000 0.0000
# 5 0.0000 0.0000 0.0000 0.0000 60.1720 0.0000
# 6 0.0000 0.0000 0.0000 0.0000 0.0000 3.3442
#
#
#
# Elastic Compliance Matrix: (Units=1/GPa)
#
#
# Indices 1 2 3 4 5 6 
#
# 1 0.006524 -0.000606 -0.002104 0.000000 0.000000 0.000000
# 2 -0.000606 0.008550 0.000056 0.000000 0.000000 0.000000
# 3 -0.002104 0.000056 0.009427 0.000000 0.000000 0.000000
# 4 0.000000 0.000000 0.000000 0.041415 0.000000 0.000000
# 5 0.000000 0.000000 0.000000 0.000000 0.016619 0.000000
# 6 0.000000 0.000000 0.000000 0.000000 0.000000 0.299021
#
#
# Mechanical properties :
#
#
# Convention : Reuss Voigt Hill
#
# Bulk Modulus (GPa) = 52.10888 55.48896 53.79892
# Shear Modulus (GPa) = 12.71417 40.72741 26.72079
#
# Velocity S-wave (km/s) = 2.28648 4.09229 3.31473
# Velocity P-wave (km/s) = 5.32893 6.71906 6.06396
#
# Compressibility (1/GPa) = 0.01919059
#
# Stress axis : x y z
#
# Youngs Moduli (GPa) = 153.27802 116.96108 106.08290
#
# Poissons Ratio (x) = 0.07091 0.22324
# Poissons Ratio (y) = 0.09293 -0.00591
# Poissons Ratio (z) = 0.32255 -0.00651
#
# Static dielectric constant tensor:
#      x y z
#    x 1.936160 0.000000 0.000000 
#    y 0.000000 2.031630 0.000000 
#    z 0.000000 0.000000 1.593730 
# 
# From -- ./inp_files/31999.got.cif
#   From: 2010.05.17/outbox.cif.g08.bks.cpg/sg48_16_cif.got.tgz:31999.got - 2010.06.03 20:39:00.
