data_PCOD9391609
_publ_section_title
;
Structure prediction by ZEFSAII (Michael W. Deem and Ramdas Pophale) SiO2 
 PCOD9391609
Probable space group: P N N N
;
_chemical_formula_sum "Si O2"
_cell_formula_units_Z 56
_cell_length_a 15.044776
_cell_length_b 20.841204
_cell_length_c 8.270607
_cell_angle_alpha 90.000000
_cell_angle_beta 90.000000
_cell_angle_gamma 90.000000
_cell_volume 2593.259128
_symmetry_space_group_name_H-M "P N N N"
_symmetry_group_IT_number 48
_space_group.IT_coordinate_system_code '2'
_symmetry_cell_setting 'orthorhombic'
loop_
_space_group_symop_operation_xyz
x,y,z
1/2-x,1/2-y,z
x,1/2-y,1/2-z
1/2-x,y,1/2-z
-x,-y,-z
1/2+x,1/2+y,-z
-x,1/2+y,1/2+z
1/2+x,-y,1/2+z
loop_
_atom_site_type_symbol
_atom_site_label
_atom_site_fract_x
_atom_site_fract_y
_atom_site_fract_z
Si Si1 0.057454 0.315780 0.814834
Si Si2 0.102569 0.881039 0.150952
Si Si3 0.149206 0.453909 0.813756
Si Si4 0.848242 0.506517 0.812266
Si Si5 0.520377 0.060632 0.340149
Si Si6 0.761798 0.326171 0.065915
Si Si7 0.045158 0.812073 0.633268
O O1 0.099420 0.250000 0.750000
O O2 0.112980 0.381289 0.793842
O O3 0.965278 0.327685 0.715712
O O4 0.032557 0.306017 0.002823
O O5 0.131857 0.931216 0.287752
O O6 0.046235 0.922594 0.021879
O O7 0.189545 0.855192 0.055878
O O8 0.250000 0.459358 0.750000
O O9 0.086162 0.505429 0.724763
O O10 0.143338 0.472240 0.002970
O O11 0.750000 0.519696 0.750000
O O12 0.920091 0.541683 0.700803
O O13 0.533368 0.126979 0.246080
O O14 0.750000 0.250000 0.070609
O O15 0.750000 0.352234 0.250000
O O16 0.866005 0.328865 0.033192
O O17 0.055963 0.750000 0.750000
#
# Coordination Sequence:
#
# PCOD9391609 Si02
#       7
#     8   8   8   8   8   8   8
#     4  12  27  48  74 104 143 194 252 308 373 444
#     4  12  26  42  71 112 148 192 243 304 361 453
#     4  12  28  50  75 105 148 195 249 317 377 442
#     4  12  27  45  72 110 141 190 248 310 371 445
#     4  12  24  46  75 103 149 194 238 298 379 441
#     4  11  21  39  65 103 149 195 237 283 362 449
#     4  12  24  45  74 105 151 198 244 295 377 453
#
# _framework density 21.594450999999999
#
# number of rings (size 3 to 8) (size 9 to 14) (size 15 to 20)
#    0.000    0.143    5.714    4.286    8.000    0.286 
#    0.000    1.429    0.000    0.429    0.000    0.000 
#    0.000    0.000    0.000    0.000    0.000    0.000 
#
# Total GULP energy -313411.029858 kJ/mol
# GULP energy per Si atom -5596.625533 kJ/mol
# Density = 2.154530 g / cm^3
# Si number density = 21.594451 Si / 1000 Ang^3
#
#
#
# Elastic Constant Matrix: (Units=GPa)
#
#
# Indices 1 2 3 4 5 6 
#
# 1 113.6940 54.8729 22.7544 0.0000 0.0000 0.0000
# 2 54.8729 166.2285 63.1077 0.0000 0.0000 0.0000
# 3 22.7544 63.1077 97.8911 0.0000 0.0000 0.0000
# 4 0.0000 0.0000 0.0000 -0.2372 0.0000 0.0000
# 5 0.0000 0.0000 0.0000 0.0000 28.2546 0.0000
# 6 0.0000 0.0000 0.0000 0.0000 0.0000 67.1295
#
#
#
# Elastic Compliance Matrix: (Units=1/GPa)
#
#
# Indices 1 2 3 4 5 6 
#
# 1 0.010468 -0.003352 -0.000272 0.000000 0.000000 0.000000
# 2 -0.003352 0.009039 -0.005048 0.000000 0.000000 0.000000
# 3 -0.000272 -0.005048 0.013533 0.000000 0.000000 0.000000
# 4 0.000000 0.000000 0.000000 -4.216092 0.000000 0.000000
# 5 0.000000 0.000000 0.000000 0.000000 0.035393 0.000000
# 6 0.000000 0.000000 0.000000 0.000000 0.000000 0.014897
#
#
# Mechanical properties :
#
#
# Convention : Reuss Voigt Hill
#
# Bulk Modulus (GPa) = 63.71381 73.25373 68.48377
# Shear Modulus (GPa) = -1.21649 34.83461 16.80906
#
# Velocity S-wave (km/s) = -0.75137 4.02073 2.79300
# Velocity P-wave (km/s) = 5.36806 7.45327 6.49489
#
# Compressibility (1/GPa) = 0.01569519
#
# Stress axis : x y z
#
# Youngs Moduli (GPa) = 95.53024 110.63450 73.89401
#
# Poissons Ratio (x) = 0.37087 0.02011
# Poissons Ratio (y) = 0.32023 0.37301
# Poissons Ratio (z) = 0.02600 0.55847
#
# Static dielectric constant tensor:
#      x y z
#    x 1.794780 0.000000 0.000000 
#    y 0.000000 1.821960 0.000000 
#    z 0.000000 0.000000 1.817760 
# 
# From -- ./inp_files/13108.got.cif
#   From: 2010.05.17/outbox.cif.g08.bks.cpg/sg48_7_cif.got.tgz:13108.got - 2010.06.03 20:39:00.
