data_PCOD9391628
_publ_section_title
;
Structure prediction by ZEFSAII (Michael W. Deem and Ramdas Pophale) SiO2 
 PCOD9391628
Probable space group: P N N N
;
_chemical_formula_sum "Si O2"
_cell_formula_units_Z 44
_cell_length_a 16.085628
_cell_length_b 8.637986
_cell_length_c 14.369565
_cell_angle_alpha 90.000000
_cell_angle_beta 90.000000
_cell_angle_gamma 90.000000
_cell_volume 1996.614119
_symmetry_space_group_name_H-M "P N N N"
_symmetry_group_IT_number 48
_space_group.IT_coordinate_system_code '2'
_symmetry_cell_setting 'orthorhombic'
loop_
_space_group_symop_operation_xyz
x,y,z
1/2-x,1/2-y,z
x,1/2-y,1/2-z
1/2-x,y,1/2-z
-x,-y,-z
1/2+x,1/2+y,-z
-x,1/2+y,1/2+z
1/2+x,-y,1/2+z
loop_
_atom_site_type_symbol
_atom_site_label
_atom_site_fract_x
_atom_site_fract_y
_atom_site_fract_z
Si Si1 0.613370 0.750000 0.250000
Si Si2 0.211999 0.543686 0.549186
Si Si3 0.646321 0.580032 0.587194
Si Si4 0.940899 0.698594 0.446258
Si Si5 0.250000 0.250000 0.250000
Si Si6 0.750000 0.008718 0.250000
Si Si7 0.622545 0.223811 0.594726
Si Si8 0.750000 0.250000 0.750000
O O1 0.566739 0.720536 0.345501
O O2 0.671212 0.897986 0.256605
O O3 0.280612 0.453028 0.487986
O O4 0.133024 0.426163 0.552795
O O5 0.248447 0.583689 0.649539
O O6 0.174876 0.690443 0.496901
O O7 0.579076 0.689135 0.533995
O O8 0.689709 0.654332 0.678798
O O9 0.611766 0.407973 0.609213
O O10 0.035517 0.642285 0.431167
O O11 0.684048 0.168015 0.678910
#
# Coordination Sequence:
#
# PCOD9391628 Si02
#       8
#     4   8   8   8   2   4   8   2
#     4   9  17  34  63  97 120 164 226 274 330 405
#     4  11  21  43  70  99 137 180 232 284 358 418
#     4  12  23  45  69  97 136 184 235 286 351 428
#     4  11  22  41  70 100 134 174 233 295 339 411
#     4  12  26  44  74 102 134 190 250 280 346 442
#     4   9  18  34  69  94 124 172 226 276 332 414
#     4  12  26  42  67 102 139 181 228 289 352 419
#     4  12  24  44  66  92 140 188 228 268 354 432
#
# _framework density 22.037306999999998
#
# number of rings (size 3 to 8) (size 9 to 14) (size 15 to 20)
#    0.000    0.909    5.455    2.182    0.000    0.000 
#    0.000    3.636    0.000    0.000    0.000    0.000 
#    0.000    0.000    0.000    0.000    0.000    0.000 
#
# Total GULP energy -245011.638248 kJ/mol
# GULP energy per Si atom -5568.446324 kJ/mol
# Density = 2.198715 g / cm^3
# Si number density = 22.037307 Si / 1000 Ang^3
#
#
#
# Elastic Constant Matrix: (Units=GPa)
#
#
# Indices 1 2 3 4 5 6 
#
# 1 117.1823 -7.2072 23.6827 0.0000 0.0000 0.0000
# 2 -7.2072 58.8691 22.1836 0.0000 0.0000 0.0000
# 3 23.6827 22.1836 171.0224 0.0000 0.0000 0.0000
# 4 0.0000 0.0000 0.0000 15.9032 0.0000 0.0000
# 5 0.0000 0.0000 0.0000 0.0000 14.0730 0.0000
# 6 0.0000 0.0000 0.0000 0.0000 0.0000 24.8586
#
#
#
# Elastic Compliance Matrix: (Units=1/GPa)
#
#
# Indices 1 2 3 4 5 6 
#
# 1 0.008927 0.001639 -0.001449 0.000000 0.000000 0.000000
# 2 0.001639 0.018161 -0.002583 0.000000 0.000000 0.000000
# 3 -0.001449 -0.002583 0.006383 0.000000 0.000000 0.000000
# 4 0.000000 0.000000 0.000000 0.062880 0.000000 0.000000
# 5 0.000000 0.000000 0.000000 0.000000 0.071058 0.000000
# 6 0.000000 0.000000 0.000000 0.000000 0.000000 0.040227
#
#
# Mechanical properties :
#
#
# Convention : Reuss Voigt Hill
#
# Bulk Modulus (GPa) = 34.86046 47.15468 41.00757
# Shear Modulus (GPa) = 22.52419 31.52796 27.02607
#
# Velocity S-wave (km/s) = 3.20049 3.78651 3.50577
# Velocity P-wave (km/s) = 5.43237 6.36875 5.91911
#
# Compressibility (1/GPa) = 0.02868579
#
# Stress axis : x y z
#
# Youngs Moduli (GPa) = 112.01573 55.06396 156.67085
#
# Poissons Ratio (x) = -0.09024 0.22699
# Poissons Ratio (y) = -0.18358 0.40462
# Poissons Ratio (z) = 0.16229 0.14221
#
# Static dielectric constant tensor:
#      x y z
#    x 1.929420 0.000000 0.000000 
#    y 0.000000 1.868670 0.000000 
#    z 0.000000 0.000000 1.898160 
# 
# From -- ./inp_files/27849.got.cif
#   From: 2010.05.17/outbox.cif.g08.bks.cpg/sg48_14_cif.got.tgz:27849.got - 2010.06.03 20:39:00.
