data_PCOD9391815
_publ_section_title
;
Structure prediction by ZEFSAII (Michael W. Deem and Ramdas Pophale) SiO2 
 PCOD9391815
Probable space group: P N N N
;
_chemical_formula_sum "Si O2"
_cell_formula_units_Z 32
_cell_length_a 7.789428
_cell_length_b 11.630518
_cell_length_c 13.822512
_cell_angle_alpha 90.000000
_cell_angle_beta 90.000000
_cell_angle_gamma 90.000000
_cell_volume 1252.251616
_symmetry_space_group_name_H-M "P N N N"
_symmetry_group_IT_number 48
_space_group.IT_coordinate_system_code '2'
_symmetry_cell_setting 'orthorhombic'
loop_
_space_group_symop_operation_xyz
x,y,z
1/2-x,1/2-y,z
x,1/2-y,1/2-z
1/2-x,y,1/2-z
-x,-y,-z
1/2+x,1/2+y,-z
-x,1/2+y,1/2+z
1/2+x,-y,1/2+z
loop_
_atom_site_type_symbol
_atom_site_label
_atom_site_fract_x
_atom_site_fract_y
_atom_site_fract_z
Si Si1 0.508337 0.790529 0.645029
Si Si2 0.450575 0.115244 0.725898
Si Si3 0.165602 0.629107 0.464176
Si Si4 0.146603 0.060867 0.370792
O O1 0.448492 0.750000 0.750000
O O2 0.390624 0.860948 0.574419
O O3 0.533670 0.667259 0.593903
O O4 0.681710 0.865001 0.657470
O O5 0.483984 0.250000 0.750000
O O6 0.250000 0.093837 0.750000
O O7 0.513196 0.106523 0.614150
O O8 0.559456 0.024584 0.791627
O O9 0.250000 0.750000 0.435154
O O10 0.293629 0.524176 0.453021
#
# Coordination Sequence:
#
# PCOD9391815 Si02
#       4
#     8   8   8   8
#     4  11  25  48  77 110 157 211 256 311 390 465
#     4  11  24  46  77 117 150 193 261 334 392 455
#     4  12  25  46  77 112 153 206 261 316 389 463
#     4  11  24  50  81 107 156 208 257 321 391 463
#
# _framework density 25.553971000000001
#
# number of rings (size 3 to 8) (size 9 to 14) (size 15 to 20)
#    0.000    0.750    2.500    6.000    0.000    5.500 
#   13.500    0.000    0.000    1.500    0.000    0.000 
#    0.000    0.000    0.000    0.000    0.000    0.000 
#
# Total GULP energy -179010.961101 kJ/mol
# GULP energy per Si atom -5594.092534 kJ/mol
# Density = 2.549581 g / cm^3
# Si number density = 25.553971 Si / 1000 Ang^3
#
#
#
# Elastic Constant Matrix: (Units=GPa)
#
#
# Indices 1 2 3 4 5 6 
#
# 1 124.3642 70.1453 61.0223 0.0000 0.0000 0.0000
# 2 70.1453 246.5014 50.1190 0.0000 0.0000 0.0000
# 3 61.0223 50.1190 131.4429 0.0000 0.0000 0.0000
# 4 0.0000 0.0000 0.0000 14.6703 0.0000 0.0000
# 5 0.0000 0.0000 0.0000 0.0000 38.4351 0.0000
# 6 0.0000 0.0000 0.0000 0.0000 0.0000 9.5292
#
#
#
# Elastic Compliance Matrix: (Units=1/GPa)
#
#
# Indices 1 2 3 4 5 6 
#
# 1 0.011578 -0.002387 -0.004465 0.000000 0.000000 0.000000
# 2 -0.002387 0.004890 -0.000756 0.000000 0.000000 0.000000
# 3 -0.004465 -0.000756 0.009969 0.000000 0.000000 0.000000
# 4 0.000000 0.000000 0.000000 0.068165 0.000000 0.000000
# 5 0.000000 0.000000 0.000000 0.000000 0.026018 0.000000
# 6 0.000000 0.000000 0.000000 0.000000 0.000000 0.104941
#
#
# Mechanical properties :
#
#
# Convention : Reuss Voigt Hill
#
# Bulk Modulus (GPa) = 89.12251 96.09796 92.61023
# Shear Modulus (GPa) = 20.44846 33.92839 27.18843
#
# Velocity S-wave (km/s) = 2.83186 3.64774 3.26538
# Velocity P-wave (km/s) = 6.75607 7.44505 7.10891
#
# Compressibility (1/GPa) = 0.01122051
#
# Stress axis : x y z
#
# Youngs Moduli (GPa) = 86.37067 204.50872 100.30967
#
# Poissons Ratio (x) = 0.48813 0.44788
# Poissons Ratio (y) = 0.20615 0.07587
# Poissons Ratio (z) = 0.38564 0.15468
#
# Static dielectric constant tensor:
#      x y z
#    x 2.089820 0.000000 0.000000 
#    y 0.000000 1.976250 0.000000 
#    z 0.000000 0.000000 2.021960 
# 
# From -- ./inp_files/24860.got.cif
#   From: 2010.05.17/outbox.cif.g08.bks.cpg/sg48_13_cif.got.tgz:24860.got - 2010.06.03 20:39:00.
