data_PCOD9391105
_publ_section_title
;
Structure prediction by ZEFSAII (Michael W. Deem and Ramdas Pophale) SiO2 
 PCOD9391105
Probable space group: P N N N
;
_chemical_formula_sum "Si O2"
_cell_formula_units_Z 60
_cell_length_a 11.859220
_cell_length_b 25.156103
_cell_length_c 8.064187
_cell_angle_alpha 90.000000
_cell_angle_beta 90.000000
_cell_angle_gamma 90.000000
_cell_volume 2405.803099
_symmetry_space_group_name_H-M "P N N N"
_symmetry_group_IT_number 48
_space_group.IT_coordinate_system_code '2'
_symmetry_cell_setting 'orthorhombic'
loop_
_space_group_symop_operation_xyz
x,y,z
1/2-x,1/2-y,z
x,1/2-y,1/2-z
1/2-x,y,1/2-z
-x,-y,-z
1/2+x,1/2+y,-z
-x,1/2+y,1/2+z
1/2+x,-y,1/2+z
loop_
_atom_site_type_symbol
_atom_site_label
_atom_site_fract_x
_atom_site_fract_y
_atom_site_fract_z
Si Si1 0.923048 0.946884 0.358718
Si Si2 0.263518 0.546387 0.563293
Si Si3 0.250000 0.132885 0.750000
Si Si4 0.620154 0.996831 0.673647
Si Si5 0.248765 0.836481 0.547614
Si Si6 0.382949 0.109875 0.205328
Si Si7 0.153926 0.209573 0.464415
Si Si8 0.073710 0.745802 0.548177
O O1 0.853063 0.909011 0.233792
O O2 0.926908 0.913520 0.529698
O O3 0.037634 0.966093 0.276751
O O4 0.855032 0.999310 0.419938
O O5 0.250000 0.563004 0.750000
O O6 0.147671 0.519395 0.504658
O O7 0.276820 0.604389 0.480249
O O8 0.213510 0.170282 0.597480
O O9 0.750000 0.999584 0.750000
O O10 0.575383 0.936467 0.673386
O O11 0.250000 0.833988 0.750000
O O12 0.154308 0.794329 0.493194
O O13 0.368684 0.810106 0.500481
O O14 0.250000 0.108487 0.250000
O O15 0.398962 0.172336 0.181264
O O16 0.250000 0.250000 0.415755
O O17 0.048600 0.243627 0.526905
O O18 0.070994 0.750000 0.750000
#
# Coordination Sequence:
#
# PCOD9391105 Si02
#       8
#     8   8   4   8   8   8   8   8
#     4  11  22  42  68  93 142 183 233 292 363 437
#     4  11  22  39  65 101 139 186 232 275 357 435
#     4  10  25  48  64  94 138 189 234 290 356 438
#     4  11  24  41  66 101 137 183 234 296 359 438
#     4   8  18  38  63 101 142 172 218 283 347 422
#     4  10  22  41  64  97 134 176 232 301 358 426
#     4  11  25  40  68  94 133 185 236 287 350 422
#     4   9  19  38  64 100 137 172 222 288 351 401
#
# _framework density 24.939698
#
# number of rings (size 3 to 8) (size 9 to 14) (size 15 to 20)
#    0.000    1.867    3.333    1.400    3.733    2.667 
#    0.000    0.000    0.000    0.000    0.000    2.800 
#    0.000    0.000    0.000    0.000    0.000    0.000 
#
# Total GULP energy -334645.352301 kJ/mol
# GULP energy per Si atom -5577.422538 kJ/mol
# Density = 2.488293 g / cm^3
# Si number density = 24.939698 Si / 1000 Ang^3
#
#
#
# Elastic Constant Matrix: (Units=GPa)
#
#
# Indices 1 2 3 4 5 6 
#
# 1 138.7512 74.4989 35.2179 0.0000 0.0000 0.0000
# 2 74.4989 200.9606 30.4458 0.0000 0.0000 0.0000
# 3 35.2179 30.4458 57.2005 0.0000 0.0000 0.0000
# 4 0.0000 0.0000 0.0000 37.0211 0.0000 0.0000
# 5 0.0000 0.0000 0.0000 0.0000 33.8437 0.0000
# 6 0.0000 0.0000 0.0000 0.0000 0.0000 1.4818
#
#
#
# Elastic Compliance Matrix: (Units=1/GPa)
#
#
# Indices 1 2 3 4 5 6 
#
# 1 0.009976 -0.003010 -0.004540 0.000000 0.000000 0.000000
# 2 -0.003010 0.006321 -0.001511 0.000000 0.000000 0.000000
# 3 -0.004540 -0.001511 0.021082 0.000000 0.000000 0.000000
# 4 0.000000 0.000000 0.000000 0.027012 0.000000 0.000000
# 5 0.000000 0.000000 0.000000 0.000000 0.029548 0.000000
# 6 0.000000 0.000000 0.000000 0.000000 0.000000 0.674855
#
#
# Mechanical properties :
#
#
# Convention : Reuss Voigt Hill
#
# Bulk Modulus (GPa) = 51.93099 75.24863 63.58981
# Shear Modulus (GPa) = 6.30252 31.58596 18.94424
#
# Velocity S-wave (km/s) = 1.59141 3.56264 2.75908
# Velocity P-wave (km/s) = 4.92388 6.86738 5.97518
#
# Compressibility (1/GPa) = 0.01925633
#
# Stress axis : x y z
#
# Youngs Moduli (GPa) = 100.24303 158.20262 47.43465
#
# Poissons Ratio (x) = 0.47625 0.21534
# Poissons Ratio (y) = 0.30177 0.07167
# Poissons Ratio (z) = 0.45507 0.23904
#
# Static dielectric constant tensor:
#      x y z
#    x 2.004670 0.000000 0.000000 
#    y 0.000000 1.996180 0.000000 
#    z 0.000000 0.000000 2.106070 
# 
# From -- ./inp_files/11468.got.cif
#   From: 2010.05.17/outbox.cif.g08.bks.cpg/sg48_6_cif.got.tgz:11468.got - 2010.06.03 20:39:00.
