data_PCOD9391595
_publ_section_title
;
Structure prediction by ZEFSAII (Michael W. Deem and Ramdas Pophale) SiO2 
 PCOD9391595
Probable space group: P N N N
;
_chemical_formula_sum "Si O2"
_cell_formula_units_Z 56
_cell_length_a 15.286750
_cell_length_b 11.659170
_cell_length_c 15.680149
_cell_angle_alpha 90.000000
_cell_angle_beta 90.000000
_cell_angle_gamma 90.000000
_cell_volume 2794.685767
_symmetry_space_group_name_H-M "P N N N"
_symmetry_group_IT_number 48
_space_group.IT_coordinate_system_code '2'
_symmetry_cell_setting 'orthorhombic'
loop_
_space_group_symop_operation_xyz
x,y,z
1/2-x,1/2-y,z
x,1/2-y,1/2-z
1/2-x,y,1/2-z
-x,-y,-z
1/2+x,1/2+y,-z
-x,1/2+y,1/2+z
1/2+x,-y,1/2+z
loop_
_atom_site_type_symbol
_atom_site_label
_atom_site_fract_x
_atom_site_fract_y
_atom_site_fract_z
Si Si1 0.415740 0.963807 0.611364
Si Si2 0.521127 0.677291 0.023344
Si Si3 0.267245 0.618747 0.628988
Si Si4 0.434208 0.415723 0.446371
Si Si5 0.722403 0.081577 0.928741
Si Si6 0.450349 0.882015 0.782576
Si Si7 0.625608 0.205605 0.653455
O O1 0.452991 0.860757 0.551498
O O2 0.319823 0.949582 0.651887
O O3 0.471219 0.958258 0.698865
O O4 0.417264 0.070300 0.546495
O O5 0.467696 0.687694 0.111115
O O6 0.566024 0.794621 0.995801
O O7 0.250000 0.750000 0.652528
O O8 0.262176 0.607956 0.527350
O O9 0.359924 0.585987 0.668434
O O10 0.500000 0.500000 0.500000
O O11 0.338593 0.469664 0.430534
O O12 0.476655 0.395123 0.354223
O O13 0.663111 0.185706 0.896937
O O14 0.810123 0.098925 0.871597
O O15 0.443682 0.750000 0.750000
O O16 0.625963 0.250000 0.750000
#
# Coordination Sequence:
#
# PCOD9391595 Si02
#       7
#     8   8   8   8   8   8   8
#     4  11  24  39  63  99 132 172 219 277 337 396
#     4  11  23  43  63  92 139 174 217 273 344 402
#     4  12  19  37  66  98 127 159 219 281 326 388
#     4  12  23  41  66  98 131 174 219 275 341 403
#     4  11  21  38  64  93 129 166 221 268 326 390
#     4  12  23  38  67 103 128 168 226 283 331 392
#     4  11  22  39  64  97 128 171 225 280 329 392
#
# _framework density 20.038029999999999
#
# number of rings (size 3 to 8) (size 9 to 14) (size 15 to 20)
#    0.000    0.571    8.571    1.286    2.000    0.000 
#    0.000    0.714    0.000    0.000    3.714    1.000 
#    0.000    0.000    0.000    0.000    0.000    0.000 
#
# Total GULP energy -312222.960107 kJ/mol
# GULP energy per Si atom -5575.410002 kJ/mol
# Density = 1.999242 g / cm^3
# Si number density = 20.038030 Si / 1000 Ang^3
#
#
#
# Elastic Constant Matrix: (Units=GPa)
#
#
# Indices 1 2 3 4 5 6 
#
# 1 56.1697 30.3469 28.0604 0.0000 0.0000 0.0000
# 2 30.3469 94.5553 24.4257 0.0000 0.0000 0.0000
# 3 28.0604 24.4257 136.9265 0.0000 0.0000 0.0000
# 4 0.0000 0.0000 0.0000 25.6616 0.0000 0.0000
# 5 0.0000 0.0000 0.0000 0.0000 24.9624 0.0000
# 6 0.0000 0.0000 0.0000 0.0000 0.0000 24.8771
#
#
#
# Elastic Compliance Matrix: (Units=1/GPa)
#
#
# Indices 1 2 3 4 5 6 
#
# 1 0.023095 -0.006489 -0.003575 0.000000 0.000000 0.000000
# 2 -0.006489 0.012910 -0.000973 0.000000 0.000000 0.000000
# 3 -0.003575 -0.000973 0.008209 0.000000 0.000000 0.000000
# 4 0.000000 0.000000 0.000000 0.038969 0.000000 0.000000
# 5 0.000000 0.000000 0.000000 0.000000 0.040060 0.000000
# 6 0.000000 0.000000 0.000000 0.000000 0.000000 0.040198
#
#
# Mechanical properties :
#
#
# Convention : Reuss Voigt Hill
#
# Bulk Modulus (GPa) = 45.16753 50.36861 47.76807
# Shear Modulus (GPa) = 25.92084 28.75478 27.33781
#
# Velocity S-wave (km/s) = 3.60054 3.79226 3.69765
# Velocity P-wave (km/s) = 6.31467 6.66079 6.49004
#
# Compressibility (1/GPa) = 0.02213980
#
# Stress axis : x y z
#
# Youngs Moduli (GPa) = 43.29961 77.46120 121.81024
#
# Poissons Ratio (x) = 0.50261 0.43552
# Poissons Ratio (y) = 0.28095 0.11855
# Poissons Ratio (z) = 0.15481 0.07538
#
# Static dielectric constant tensor:
#      x y z
#    x 1.807800 0.000000 0.000000 
#    y 0.000000 1.753100 0.000000 
#    z 0.000000 0.000000 -0.313710 
# 
# From -- ./inp_files/27303.got.cif
#   From: 2010.05.17/outbox.cif.g08.bks.cpg/sg48_14_cif.got.tgz:27303.got - 2010.06.03 20:39:00.
