data_PCOD9391660
_publ_section_title
;
Structure prediction by ZEFSAII (Michael W. Deem and Ramdas Pophale) SiO2 
 PCOD9391660
Probable space group: P N N N
;
_chemical_formula_sum "Si O2"
_cell_formula_units_Z 48
_cell_length_a 22.163160
_cell_length_b 10.793060
_cell_length_c 10.091175
_cell_angle_alpha 90.000000
_cell_angle_beta 90.000000
_cell_angle_gamma 90.000000
_cell_volume 2413.892975
_symmetry_space_group_name_H-M "P N N N"
_symmetry_group_IT_number 48
_space_group.IT_coordinate_system_code '2'
_symmetry_cell_setting 'orthorhombic'
loop_
_space_group_symop_operation_xyz
x,y,z
1/2-x,1/2-y,z
x,1/2-y,1/2-z
1/2-x,y,1/2-z
-x,-y,-z
1/2+x,1/2+y,-z
-x,1/2+y,1/2+z
1/2+x,-y,1/2+z
loop_
_atom_site_type_symbol
_atom_site_label
_atom_site_fract_x
_atom_site_fract_y
_atom_site_fract_z
Si Si1 0.572269 0.071564 0.261667
Si Si2 0.889461 0.327505 0.525692
Si Si3 0.862605 0.044120 0.509723
Si Si4 0.446191 0.335380 0.365808
Si Si5 0.261417 0.607177 0.093383
Si Si6 0.980433 0.668075 0.380873
O O1 0.597820 0.168250 0.368398
O O2 0.508985 0.110705 0.193457
O O3 0.558924 0.952194 0.352670
O O4 0.617230 0.040650 0.142882
O O5 0.877786 0.183279 0.562216
O O6 0.831525 0.410061 0.560704
O O7 0.950097 0.369737 0.597504
O O8 0.790896 0.027351 0.525653
O O9 0.902372 0.944800 0.588376
O O10 0.419469 0.250000 0.250000
O O11 0.461602 0.249231 0.492180
O O12 0.250000 0.750000 0.050897
O O13 0.250000 0.599038 0.250000
O O14 0.976313 0.750000 0.250000
#
# Coordination Sequence:
#
# PCOD9391660 Si02
#       6
#     8   8   8   8   8   8
#     4  12  23  39  64  98 134 173 218 279 345 398
#     4  11  23  39  62  96 134 167 219 273 331 401
#     4  11  22  41  63  91 136 173 216 274 329 399
#     4  12  24  41  63  99 137 176 219 276 336 405
#     4   9  22  38  61  91 123 172 217 267 326 393
#     4  12  24  39  65  98 134 177 217 269 345 401
#
# _framework density 19.884889999999999
#
# number of rings (size 3 to 8) (size 9 to 14) (size 15 to 20)
#    0.000    0.833    5.000    2.500    7.000    0.667 
#    0.000    2.500    0.000    3.500    0.000    0.000 
#    0.000    0.000    0.000    0.000    0.000    0.000 
#
# Total GULP energy -268357.861709 kJ/mol
# GULP energy per Si atom -5590.788786 kJ/mol
# Density = 1.983963 g / cm^3
# Si number density = 19.884890 Si / 1000 Ang^3
#
#
#
# Elastic Constant Matrix: (Units=GPa)
#
#
# Indices 1 2 3 4 5 6 
#
# 1 126.1166 54.8243 33.8903 0.0000 0.0000 0.0000
# 2 54.8243 63.6626 52.3173 0.0000 0.0000 0.0000
# 3 33.8903 52.3173 95.4780 0.0000 0.0000 0.0000
# 4 0.0000 0.0000 0.0000 32.1116 0.0000 0.0000
# 5 0.0000 0.0000 0.0000 0.0000 23.9784 0.0000
# 6 0.0000 0.0000 0.0000 0.0000 0.0000 17.2055
#
#
#
# Elastic Compliance Matrix: (Units=1/GPa)
#
#
# Indices 1 2 3 4 5 6 
#
# 1 0.013067 -0.013537 0.002779 0.000000 0.000000 0.000000
# 2 -0.013537 0.042599 -0.018537 0.000000 0.000000 0.000000
# 3 0.002779 -0.018537 0.019645 0.000000 0.000000 0.000000
# 4 0.000000 0.000000 0.000000 0.031141 0.000000 0.000000
# 5 0.000000 0.000000 0.000000 0.000000 0.041704 0.000000
# 6 0.000000 0.000000 0.000000 0.000000 0.000000 0.058121
#
#
# Mechanical properties :
#
#
# Convention : Reuss Voigt Hill
#
# Bulk Modulus (GPa) = 59.80477 63.03567 61.42022
# Shear Modulus (GPa) = 18.48837 24.27413 21.38125
#
# Velocity S-wave (km/s) = 3.05252 3.49769 3.28266
# Velocity P-wave (km/s) = 6.52416 6.93404 6.73222
#
# Compressibility (1/GPa) = 0.01672108
#
# Stress axis : x y z
#
# Youngs Moduli (GPa) = 76.52898 23.47467 50.90470
#
# Poissons Ratio (x) = 0.31778 -0.14149
# Poissons Ratio (y) = 1.03597 0.94363
# Poissons Ratio (z) = -0.21271 0.43516
#
# Static dielectric constant tensor:
#      x y z
#    x 1.712310 0.000000 0.000000 
#    y 0.000000 1.777270 0.000000 
#    z 0.000000 0.000000 1.702980 
# 
# From -- ./inp_files/15886.got.cif
#   From: 2010.05.17/outbox.cif.g08.bks.cpg/sg48_8_cif.got.tgz:15886.got - 2010.06.03 20:39:00.
