data_PCOD9391635
_publ_section_title
;
Structure prediction by ZEFSAII (Michael W. Deem and Ramdas Pophale) SiO2 
 PCOD9391635
Probable space group: P N N N
;
_chemical_formula_sum "Si O2"
_cell_formula_units_Z 64
_cell_length_a 12.508355
_cell_length_b 19.045963
_cell_length_c 12.871226
_cell_angle_alpha 90.000000
_cell_angle_beta 90.000000
_cell_angle_gamma 90.000000
_cell_volume 3066.359363
_symmetry_space_group_name_H-M "P N N N"
_symmetry_group_IT_number 48
_space_group.IT_coordinate_system_code '2'
_symmetry_cell_setting 'orthorhombic'
loop_
_space_group_symop_operation_xyz
x,y,z
1/2-x,1/2-y,z
x,1/2-y,1/2-z
1/2-x,y,1/2-z
-x,-y,-z
1/2+x,1/2+y,-z
-x,1/2+y,1/2+z
1/2+x,-y,1/2+z
loop_
_atom_site_type_symbol
_atom_site_label
_atom_site_fract_x
_atom_site_fract_y
_atom_site_fract_z
Si Si1 0.923270 0.079406 0.310620
Si Si2 0.576730 0.579406 0.310620
Si Si3 0.856749 0.273890 0.447761
Si Si4 0.643251 0.773890 0.447761
Si Si5 0.437361 0.214041 0.150311
Si Si6 0.193875 0.921132 0.913390
Si Si7 0.437361 0.714042 0.349689
Si Si8 0.806125 0.921132 0.086610
O O1 0.871816 0.084138 0.195280
O O2 0.819385 0.087801 0.385137
O O3 0.013626 0.137170 0.331199
O O4 0.964033 1.000000 0.324488
O O5 0.486374 0.637170 0.331200
O O6 0.628184 0.584138 0.195280
O O7 0.680615 0.587801 0.385137
O O8 0.750000 0.250000 0.389484
O O9 0.846397 0.355107 0.478861
O O10 0.868053 0.223441 0.547199
O O11 0.958643 0.261444 0.376784
O O12 0.750000 0.750000 0.389484
O O13 0.631947 0.723441 0.547199
O O14 0.541357 0.761444 0.376785
O O15 0.653603 0.855107 0.478861
O O16 0.385605 0.250000 0.250000
O O17 0.178066 1.000000 0.954943
O O18 0.385605 0.750000 0.250000
#
# Coordination Sequence:
#
# PCOD9391635 Si02
#       8
#     8   8   8   8   8   8   8   8
#     4   9  17  32  57  87 114 145 186 239 295 338
#     4   9  17  32  57  87 114 145 186 239 295 338
#     4  11  22  36  56  84 115 149 193 233 283 335
#     4  11  22  36  56  84 115 149 193 233 283 335
#     4  11  22  36  56  84 115 149 193 233 283 335
#     4   9  17  32  57  87 114 145 186 239 295 338
#     4  11  22  36  56  84 115 149 193 233 283 335
#     4   9  17  32  57  87 114 145 186 239 295 338
#
# _framework density 20.871656999999999
#
# number of rings (size 3 to 8) (size 9 to 14) (size 15 to 20)
#    0.000    2.000    5.000    1.500    0.000    1.000 
#    0.000    7.500    0.000    0.000    0.000    3.500 
#    0.000    0.000    0.000    0.000    0.000    0.000 
#
# Total GULP energy -357083.912330 kJ/mol
# GULP energy per Si atom -5579.436130 kJ/mol
# Density = 2.082415 g / cm^3
# Si number density = 20.871657 Si / 1000 Ang^3
#
#
#
# Elastic Constant Matrix: (Units=GPa)
#
#
# Indices 1 2 3 4 5 6 
#
# 1 45.4683 23.4659 -3.7370 0.0000 0.0000 0.0000
# 2 23.4659 187.6807 20.1026 0.0000 0.0000 0.0000
# 3 -3.7370 20.1026 50.4521 0.0000 0.0000 0.0000
# 4 0.0000 0.0000 0.0000 20.6930 0.0000 0.0000
# 5 0.0000 0.0000 0.0000 0.0000 2.0977 0.0000
# 6 0.0000 0.0000 0.0000 0.0000 0.0000 21.2917
#
#
#
# Elastic Compliance Matrix: (Units=1/GPa)
#
#
# Indices 1 2 3 4 5 6 
#
# 1 0.023966 -0.003329 0.003102 0.000000 0.000000 0.000000
# 2 -0.003329 0.006028 -0.002648 0.000000 0.000000 0.000000
# 3 0.003102 -0.002648 0.021106 0.000000 0.000000 0.000000
# 4 0.000000 0.000000 0.000000 0.048326 0.000000 0.000000
# 5 0.000000 0.000000 0.000000 0.000000 0.476705 0.000000
# 6 0.000000 0.000000 0.000000 0.000000 0.000000 0.046967
#
#
# Mechanical properties :
#
#
# Convention : Reuss Voigt Hill
#
# Bulk Modulus (GPa) = 22.05134 40.36268 31.20701
# Shear Modulus (GPa) = 7.76440 25.06778 16.41609
#
# Velocity S-wave (km/s) = 1.93084 3.46937 2.80755
# Velocity P-wave (km/s) = 3.94449 5.95224 5.04917
#
# Compressibility (1/GPa) = 0.04534873
#
# Stress axis : x y z
#
# Youngs Moduli (GPa) = 41.72546 165.89059 47.38036
#
# Poissons Ratio (x) = 0.55220 -0.14695
# Poissons Ratio (y) = 0.13889 0.12548
# Poissons Ratio (z) = -0.12941 0.43935
#
# Static dielectric constant tensor:
#      x y z
#    x 1.727310 0.000000 0.000000 
#    y 0.000000 1.774590 0.000000 
#    z 0.000000 0.000000 1.765300 
# 
# From -- ./inp_files/27509.got.cif
#   From: 2010.05.17/outbox.cif.g08.bks.cpg/sg48_14_cif.got.tgz:27509.got - 2010.06.03 20:39:00.
