data_PCOD9391470
_publ_section_title
;
Structure prediction by ZEFSAII (Michael W. Deem and Ramdas Pophale) SiO2 
 PCOD9391470
Probable space group: P N N N
;
_chemical_formula_sum "Si O2"
_cell_formula_units_Z 48
_cell_length_a 12.380427
_cell_length_b 6.251549
_cell_length_c 29.601920
_cell_angle_alpha 90.000000
_cell_angle_beta 90.000000
_cell_angle_gamma 90.000000
_cell_volume 2291.095244
_symmetry_space_group_name_H-M "P N N N"
_symmetry_group_IT_number 48
_space_group.IT_coordinate_system_code '2'
_symmetry_cell_setting 'orthorhombic'
loop_
_space_group_symop_operation_xyz
x,y,z
1/2-x,1/2-y,z
x,1/2-y,1/2-z
1/2-x,y,1/2-z
-x,-y,-z
1/2+x,1/2+y,-z
-x,1/2+y,1/2+z
1/2+x,-y,1/2+z
loop_
_atom_site_type_symbol
_atom_site_label
_atom_site_fract_x
_atom_site_fract_y
_atom_site_fract_z
Si Si1 0.990787 0.998880 0.163267
Si Si2 0.462641 0.250000 0.250000
Si Si3 0.461598 0.877063 0.043552
Si Si4 0.139671 0.309707 0.110066
Si Si5 0.653327 0.913748 0.419580
Si Si6 0.642606 0.116840 0.807061
Si Si7 0.750000 0.250000 0.007724
O O1 0.974837 0.151605 0.206914
O O2 0.083817 0.106839 0.132582
O O3 0.041984 0.773486 0.180192
O O4 0.889220 0.991976 0.129406
O O5 0.392233 0.448750 0.268604
O O6 0.548365 0.703927 0.059282
O O7 0.444795 0.058532 0.080941
O O8 0.347208 0.790261 0.027197
O O9 0.500000 0.000000 0.000000
O O10 0.250000 0.250000 0.084505
O O11 0.170674 0.469703 0.150197
O O12 0.750000 0.750000 0.411325
O O13 0.701645 0.075514 0.456972
O O14 0.750000 0.250000 0.797375
#
# Coordination Sequence:
#
# PCOD9391470 Si02
#       7
#     8   4   8   8   8   8   4
#     4  11  24  44  70  96 143 183 238 290 364 427
#     4  10  26  41  68 103 138 186 234 299 355 446
#     4  12  26  45  69 105 145 185 244 293 352 423
#     4  11  24  40  66 104 144 189 231 287 354 432
#     4  12  27  49  72 104 139 194 238 302 363 430
#     4  11  22  43  64 103 144 186 231 288 365 436
#     4  12  28  46  76 103 146 191 242 304 356 426
#
# _framework density 20.950679000000001
#
# number of rings (size 3 to 8) (size 9 to 14) (size 15 to 20)
#    0.000    0.667    5.000    2.000    5.833    2.000 
#    0.000    0.000    0.000    7.500    0.000    0.000 
#    0.000    0.000    0.000    0.000    0.000    0.000 
#
# Total GULP energy -268126.586903 kJ/mol
# GULP energy per Si atom -5585.970560 kJ/mol
# Density = 2.090299 g / cm^3
# Si number density = 20.950679 Si / 1000 Ang^3
#
#
#
# Elastic Constant Matrix: (Units=GPa)
#
#
# Indices 1 2 3 4 5 6 
#
# 1 104.8837 37.0682 36.2280 0.0000 0.0000 0.0000
# 2 37.0682 94.5798 33.6822 0.0000 0.0000 0.0000
# 3 36.2280 33.6822 99.8396 0.0000 0.0000 0.0000
# 4 0.0000 0.0000 0.0000 -629.8476 0.0000 0.0000
# 5 0.0000 0.0000 0.0000 0.0000 78.3154 0.0000
# 6 0.0000 0.0000 0.0000 0.0000 0.0000 35.4304
#
#
#
# Elastic Compliance Matrix: (Units=1/GPa)
#
#
# Indices 1 2 3 4 5 6 
#
# 1 0.011860 -0.003541 -0.003109 0.000000 0.000000 0.000000
# 2 -0.003541 0.013074 -0.003126 0.000000 0.000000 0.000000
# 3 -0.003109 -0.003126 0.012199 0.000000 0.000000 0.000000
# 4 0.000000 0.000000 0.000000 -0.001588 0.000000 0.000000
# 5 0.000000 0.000000 0.000000 0.000000 0.012769 0.000000
# 6 0.000000 0.000000 0.000000 0.000000 0.000000 0.028224
#
#
# Mechanical properties :
#
#
# Convention : Reuss Voigt Hill
#
# Bulk Modulus (GPa) = 56.87907 57.02887 56.95397
# Shear Modulus (GPa) = 49.04385 -90.39872 -20.67743
#
# Velocity S-wave (km/s) = 4.84355 -6.57587 -3.14500
# Velocity P-wave (km/s) = 7.64774 5.51148 3.74911
#
# Compressibility (1/GPa) = 0.01758116
#
# Stress axis : x y z
#
# Youngs Moduli (GPa) = 84.31951 76.48734 81.97613
#
# Poissons Ratio (x) = 0.27084 0.25485
# Poissons Ratio (y) = 0.29857 0.25624
# Poissons Ratio (z) = 0.26213 0.23909
#
# Static dielectric constant tensor:
#      x y z
#    x 1.658890 0.000000 0.000000 
#    y 0.000000 1.779560 0.000000 
#    z 0.000000 0.000000 1.787250 
# 
# From -- ./inp_files/37896.got.cif
#   From: 2010.05.17/outbox.cif.g08.bks.cpg/sg48_19_cif.got.tgz:37896.got - 2010.06.03 20:39:00.
