data_PCOD9391697
_publ_section_title
;
Structure prediction by ZEFSAII (Michael W. Deem and Ramdas Pophale) SiO2 
 PCOD9391697
Probable space group: P N N N
;
_chemical_formula_sum "Si O2"
_cell_formula_units_Z 26
_cell_length_a 5.053260
_cell_length_b 31.839755
_cell_length_c 7.081635
_cell_angle_alpha 90.000000
_cell_angle_beta 90.000000
_cell_angle_gamma 90.000000
_cell_volume 1139.396550
_symmetry_space_group_name_H-M "P N N N"
_symmetry_group_IT_number 48
_space_group.IT_coordinate_system_code '2'
_symmetry_cell_setting 'orthorhombic'
loop_
_space_group_symop_operation_xyz
x,y,z
1/2-x,1/2-y,z
x,1/2-y,1/2-z
1/2-x,y,1/2-z
-x,-y,-z
1/2+x,1/2+y,-z
-x,1/2+y,1/2+z
1/2+x,-y,1/2+z
loop_
_atom_site_type_symbol
_atom_site_label
_atom_site_fract_x
_atom_site_fract_y
_atom_site_fract_z
Si Si1 0.151543 0.368745 0.965613
Si Si2 0.250000 0.750000 0.250000
Si Si3 0.142057 0.814689 0.950909
Si Si4 0.496744 0.456853 0.613365
O O1 0.250000 0.371207 0.750000
O O2 0.060762 0.415966 0.016363
O O3 0.394575 0.346053 0.070917
O O4 0.891431 0.340595 0.972086
O O5 0.083284 0.721089 0.394562
O O6 0.250000 0.798443 0.750000
O O7 0.750000 0.450164 0.750000
O O8 0.500000 0.500000 0.500000
O O9 0.250000 0.460815 0.750000
#
# Coordination Sequence:
#
# PCOD9391697 Si02
#       4
#     8   2   8   8
#     4  11  22  46  68  97 141 190 229 289 365 418
#     4  12  26  50  72 104 148 178 238 302 364 412
#     4  12  26  44  73 104 135 187 237 289 356 429
#     4  11  24  42  69 103 142 190 236 294 354 419
#
# _framework density 22.819095000000001
#
# number of rings (size 3 to 8) (size 9 to 14) (size 15 to 20)
#    0.000    0.615    3.077    6.000    0.000    6.154 
#    0.000    3.077    0.000    0.000    0.000    0.000 
#    0.000    0.000    0.000    0.000    0.000    0.000 
#
# Total GULP energy -145380.245214 kJ/mol
# GULP energy per Si atom -5591.547893 kJ/mol
# Density = 2.276716 g / cm^3
# Si number density = 22.819095 Si / 1000 Ang^3
#
#
#
# Elastic Constant Matrix: (Units=GPa)
#
#
# Indices 1 2 3 4 5 6 
#
# 1 173.7066 59.0687 30.7678 0.0000 0.0000 0.0000
# 2 59.0687 177.4928 65.3056 0.0000 0.0000 0.0000
# 3 30.7678 65.3056 103.6477 0.0000 0.0000 0.0000
# 4 0.0000 0.0000 0.0000 14.7530 0.0000 0.0000
# 5 0.0000 0.0000 0.0000 0.0000 41.0559 0.0000
# 6 0.0000 0.0000 0.0000 0.0000 0.0000 6.8597
#
#
#
# Elastic Compliance Matrix: (Units=1/GPa)
#
#
# Indices 1 2 3 4 5 6 
#
# 1 0.006535 -0.001902 -0.000742 0.000000 0.000000 0.000000
# 2 -0.001902 0.007888 -0.004405 0.000000 0.000000 0.000000
# 3 -0.000742 -0.004405 0.012644 0.000000 0.000000 0.000000
# 4 0.000000 0.000000 0.000000 0.067783 0.000000 0.000000
# 5 0.000000 0.000000 0.000000 0.000000 0.024357 0.000000
# 6 0.000000 0.000000 0.000000 0.000000 0.000000 0.145779
#
#
# Mechanical properties :
#
#
# Convention : Reuss Voigt Hill
#
# Bulk Modulus (GPa) = 77.10672 85.01458 81.06065
# Shear Modulus (GPa) = 17.64255 32.51406 25.07830
#
# Velocity S-wave (km/s) = 2.78357 3.77883 3.31872
# Velocity P-wave (km/s) = 6.64792 7.50841 7.09123
#
# Compressibility (1/GPa) = 0.01296904
#
# Stress axis : x y z
#
# Youngs Moduli (GPa) = 153.02373 126.77708 79.08978
#
# Poissons Ratio (x) = 0.24113 0.05865
# Poissons Ratio (y) = 0.29105 0.34842
# Poissons Ratio (z) = 0.11347 0.55849
#
# Static dielectric constant tensor:
#      x y z
#    x 1.793910 0.000000 0.000000 
#    y 0.000000 1.943750 0.000000 
#    z 0.000000 0.000000 1.560370 
# 
# From -- ./inp_files/6152.got.cif
#   From: 2010.05.17/outbox.cif.g08.bks.cpg/sg48_4_cif.got.tgz:6152.got - 2010.06.03 20:39:00.
