data_PCOD9391304
_publ_section_title
;
Structure prediction by ZEFSAII (Michael W. Deem and Ramdas Pophale) SiO2 
 PCOD9391304
Probable space group: P N N N
;
_chemical_formula_sum "Si O2"
_cell_formula_units_Z 30
_cell_length_a 16.480254
_cell_length_b 4.619991
_cell_length_c 13.856773
_cell_angle_alpha 90.000000
_cell_angle_beta 90.000000
_cell_angle_gamma 90.000000
_cell_volume 1055.035645
_symmetry_space_group_name_H-M "P N N N"
_symmetry_group_IT_number 48
_space_group.IT_coordinate_system_code '2'
_symmetry_cell_setting 'orthorhombic'
loop_
_space_group_symop_operation_xyz
x,y,z
1/2-x,1/2-y,z
x,1/2-y,1/2-z
1/2-x,y,1/2-z
-x,-y,-z
1/2+x,1/2+y,-z
-x,1/2+y,1/2+z
1/2+x,-y,1/2+z
loop_
_atom_site_type_symbol
_atom_site_label
_atom_site_fract_x
_atom_site_fract_y
_atom_site_fract_z
Si Si1 0.250000 0.250000 0.750000
Si Si2 0.750000 0.250000 0.116966
Si Si3 0.502183 0.856691 0.349882
Si Si4 0.867687 0.750000 0.750000
Si Si5 0.884180 0.185635 0.999091
Si Si6 0.250000 0.250000 0.405475
O O1 0.288069 0.489845 0.820975
O O2 0.824879 0.393945 0.059033
O O3 0.542474 0.750000 0.250000
O O4 0.446990 0.668698 0.424275
O O5 0.429392 0.047502 0.306545
O O6 0.560433 0.026303 0.421738
O O7 0.810040 0.908317 0.671670
O O8 0.813608 0.969104 0.956956
#
# Coordination Sequence:
#
# PCOD9391304 Si02
#       6
#     2   4   8   4   8   4
#     4  10  26  46  70 106 146 194 234 308 382 430
#     4  11  24  46  73 110 146 194 255 312 368 453
#     4  10  23  45  68 101 144 196 242 305 387 455
#     4   9  20  40  70  95 140 196 252 301 374 452
#     4  10  23  43  70 106 142 190 251 311 375 449
#     4   9  19  42  66 104 142 188 252 316 369 437
#
# _framework density 28.43506
#
# number of rings (size 3 to 8) (size 9 to 14) (size 15 to 20)
#    0.000    2.133    0.000    0.800    5.600    2.133 
#    4.800    4.000    0.000    0.000    0.000    0.000 
#    0.000    0.000    0.000    0.000    0.000    0.000 
#
# Total GULP energy -167184.787103 kJ/mol
# GULP energy per Si atom -5572.826237 kJ/mol
# Density = 2.837034 g / cm^3
# Si number density = 28.435060 Si / 1000 Ang^3
#
#
#
# Elastic Constant Matrix: (Units=GPa)
#
#
# Indices 1 2 3 4 5 6 
#
# 1 143.5932 20.9139 82.4510 0.0000 0.0000 0.0000
# 2 20.9139 80.1476 27.5213 0.0000 0.0000 0.0000
# 3 82.4510 27.5213 145.9839 0.0000 0.0000 0.0000
# 4 0.0000 0.0000 0.0000 28.5168 0.0000 0.0000
# 5 0.0000 0.0000 0.0000 0.0000 -50.7571 0.0000
# 6 0.0000 0.0000 0.0000 0.0000 0.0000 47.0010
#
#
#
# Elastic Compliance Matrix: (Units=1/GPa)
#
#
# Indices 1 2 3 4 5 6 
#
# 1 0.010348 -0.000741 -0.005705 0.000000 0.000000 0.000000
# 2 -0.000741 0.013394 -0.002106 0.000000 0.000000 0.000000
# 3 -0.005705 -0.002106 0.010469 0.000000 0.000000 0.000000
# 4 0.000000 0.000000 0.000000 0.035067 0.000000 0.000000
# 5 0.000000 0.000000 0.000000 0.000000 -0.019702 0.000000
# 6 0.000000 0.000000 0.000000 0.000000 0.000000 0.021276
#
#
# Mechanical properties :
#
#
# Convention : Reuss Voigt Hill
#
# Bulk Modulus (GPa) = 58.45888 70.16636 64.31262
# Shear Modulus (GPa) = 53.38554 20.87468 37.13011
#
# Velocity S-wave (km/s) = 4.33766 2.71240 3.61749
# Velocity P-wave (km/s) = 6.75947 5.87699 6.33362
#
# Compressibility (1/GPa) = 0.01710604
#
# Stress axis : x y z
#
# Youngs Moduli (GPa) = 96.64054 74.66196 95.51953
#
# Poissons Ratio (x) = 0.05535 0.54490
# Poissons Ratio (y) = 0.07164 0.20120
# Poissons Ratio (z) = 0.55129 0.15726
#
# Static dielectric constant tensor:
#      x y z
#    x 2.178130 0.000000 0.000000 
#    y 0.000000 2.239370 0.000000 
#    z 0.000000 0.000000 2.846640 
# 
# From -- ./inp_files/27600.got.cif
#   From: 2010.05.17/outbox.cif.g08.bks.cpg/sg48_14_cif.got.tgz:27600.got - 2010.06.03 20:39:00.
