data_PCOD9391323
_publ_section_title
;
Structure prediction by ZEFSAII (Michael W. Deem and Ramdas Pophale) SiO2 
 PCOD9391323
Probable space group: P N N N
;
_chemical_formula_sum "Si O2"
_cell_formula_units_Z 40
_cell_length_a 9.597781
_cell_length_b 13.865865
_cell_length_c 13.548993
_cell_angle_alpha 90.000000
_cell_angle_beta 90.000000
_cell_angle_gamma 90.000000
_cell_volume 1803.120795
_symmetry_space_group_name_H-M "P N N N"
_symmetry_group_IT_number 48
_space_group.IT_coordinate_system_code '2'
_symmetry_cell_setting 'orthorhombic'
loop_
_space_group_symop_operation_xyz
x,y,z
1/2-x,1/2-y,z
x,1/2-y,1/2-z
1/2-x,y,1/2-z
-x,-y,-z
1/2+x,1/2+y,-z
-x,1/2+y,1/2+z
1/2+x,-y,1/2+z
loop_
_atom_site_type_symbol
_atom_site_label
_atom_site_fract_x
_atom_site_fract_y
_atom_site_fract_z
Si Si1 0.643718 0.444063 0.013987
Si Si2 0.552640 0.267679 0.424584
Si Si3 0.250000 0.750000 0.250000
Si Si4 0.250000 0.750000 0.750000
Si Si5 0.198954 0.420860 0.856202
Si Si6 0.110348 0.598537 0.106999
Si Si7 0.750000 0.750000 0.514746
O O1 0.615404 0.330710 0.027883
O O2 0.713159 0.486755 0.111861
O O3 0.500000 0.500000 0.000000
O O4 0.752047 0.461137 0.923254
O O5 0.637995 0.294136 0.327069
O O6 0.571605 0.351333 0.503942
O O7 0.388232 0.247373 0.418957
O O8 0.156081 0.681015 0.182906
O O9 0.250000 0.385565 0.750000
O O10 0.233932 0.340862 0.939904
O O11 0.034468 0.445279 0.856027
#
# Coordination Sequence:
#
# PCOD9391323 Si02
#       7
#     8   8   2   2   8   8   4
#     4  12  23  44  64  99 139 177 214 288 346 397
#     4  11  23  44  68  95 131 182 223 281 334 407
#     4  12  22  40  78  98 140 182 240 264 340 434
#     4  12  22  42  76  86 124 184 246 248 332 428
#     4  11  26  40  72 100 140 176 233 278 351 420
#     4  11  25  44  69  99 141 183 224 282 344 407
#     4  10  23  45  64 100 138 174 224 296 348 398
#
# _framework density 22.183759999999999
#
# number of rings (size 3 to 8) (size 9 to 14) (size 15 to 20)
#    0.000    0.800    6.000    0.900    9.800    0.400 
#    0.000    0.000    4.400    0.000    0.000    0.000 
#    0.000    0.000    0.000    0.000    0.000    0.000 
#
# Total GULP energy -223450.797122 kJ/mol
# GULP energy per Si atom -5586.269928 kJ/mol
# Density = 2.213327 g / cm^3
# Si number density = 22.183760 Si / 1000 Ang^3
#
#
#
# Elastic Constant Matrix: (Units=GPa)
#
#
# Indices 1 2 3 4 5 6 
#
# 1 222.4869 17.3512 58.4173 0.0000 0.0000 0.0000
# 2 17.3512 42.8325 1.3112 0.0000 0.0000 0.0000
# 3 58.4173 1.3112 105.1281 0.0000 0.0000 0.0000
# 4 0.0000 0.0000 0.0000 13.7978 0.0000 0.0000
# 5 0.0000 0.0000 0.0000 0.0000 17.1321 0.0000
# 6 0.0000 0.0000 0.0000 0.0000 0.0000 20.2476
#
#
#
# Elastic Compliance Matrix: (Units=1/GPa)
#
#
# Indices 1 2 3 4 5 6 
#
# 1 0.005447 -0.002115 -0.003001 0.000000 0.000000 0.000000
# 2 -0.002115 0.024177 0.000874 0.000000 0.000000 0.000000
# 3 -0.003001 0.000874 0.011169 0.000000 0.000000 0.000000
# 4 0.000000 0.000000 0.000000 0.072475 0.000000 0.000000
# 5 0.000000 0.000000 0.000000 0.000000 0.058370 0.000000
# 6 0.000000 0.000000 0.000000 0.000000 0.000000 0.049389
#
#
# Mechanical properties :
#
#
# Convention : Reuss Voigt Hill
#
# Bulk Modulus (GPa) = 30.95099 58.28966 44.62033
# Shear Modulus (GPa) = 20.80904 29.79335 25.30119
#
# Velocity S-wave (km/s) = 3.06605 3.66871 3.38083
# Velocity P-wave (km/s) = 5.14943 6.65423 5.94959
#
# Compressibility (1/GPa) = 0.03230914
#
# Stress axis : x y z
#
# Youngs Moduli (GPa) = 183.57227 41.36205 89.53590
#
# Poissons Ratio (x) = 0.08748 0.26867
# Poissons Ratio (y) = 0.38823 -0.07822
# Poissons Ratio (z) = 0.55084 -0.03614
#
# Static dielectric constant tensor:
#      x y z
#    x 1.877070 0.000000 0.000000 
#    y 0.000000 1.850090 0.000000 
#    z 0.000000 0.000000 1.793830 
# 
# From -- ./inp_files/12397.got.cif
#   From: 2010.05.17/outbox.cif.g08.bks.cpg/sg48_7_cif.got.tgz:12397.got - 2010.06.03 20:39:00.
