data_PCOD9391280
_publ_section_title
;
Structure prediction by ZEFSAII (Michael W. Deem and Ramdas Pophale) SiO2 
 PCOD9391280
Probable space group: P N N N
;
_chemical_formula_sum "Si O2"
_cell_formula_units_Z 64
_cell_length_a 12.053865
_cell_length_b 14.649614
_cell_length_c 17.797580
_cell_angle_alpha 90.000000
_cell_angle_beta 90.000000
_cell_angle_gamma 90.000000
_cell_volume 3142.776222
_symmetry_space_group_name_H-M "P N N N"
_symmetry_group_IT_number 48
_space_group.IT_coordinate_system_code '2'
_symmetry_cell_setting 'orthorhombic'
loop_
_space_group_symop_operation_xyz
x,y,z
1/2-x,1/2-y,z
x,1/2-y,1/2-z
1/2-x,y,1/2-z
-x,-y,-z
1/2+x,1/2+y,-z
-x,1/2+y,1/2+z
1/2+x,-y,1/2+z
loop_
_atom_site_type_symbol
_atom_site_label
_atom_site_fract_x
_atom_site_fract_y
_atom_site_fract_z
Si Si1 0.617692 0.645796 0.260691
Si Si2 0.470984 0.902231 0.858184
Si Si3 0.972076 0.463333 0.309291
Si Si4 0.289042 0.648208 0.440751
Si Si5 0.338204 0.168334 0.066207
Si Si6 0.037871 0.094026 0.573206
Si Si7 0.227104 0.641619 0.609145
Si Si8 0.781606 0.985937 0.837668
O O1 0.578657 0.750000 0.250000
O O2 0.750000 0.644202 0.250000
O O3 0.570311 0.566550 0.206675
O O4 0.581301 0.620592 0.344590
O O5 0.502468 0.922450 0.772732
O O6 0.541316 0.817934 0.892516
O O7 0.338715 0.897154 0.854604
O O8 0.489971 0.986855 0.915488
O O9 0.879575 0.401708 0.350611
O O10 0.088508 0.469483 0.351129
O O11 0.250000 0.750000 0.424484
O O12 0.422223 0.642781 0.447321
O O13 0.234065 0.619858 0.520306
O O14 0.254186 0.580306 0.375321
O O15 0.250000 0.250000 0.059589
O O16 0.283586 0.093629 0.120165
O O17 0.369200 0.124820 0.985934
O O18 0.250000 0.750000 0.615826
O O19 0.750000 0.987122 0.750000
#
# Coordination Sequence:
#
# PCOD9391280 Si02
#       8
#     8   8   8   8   8   8   8   8
#     4  10  23  42  68 104 136 176 230 289 345 412
#     4  11  21  46  70  93 133 186 235 274 340 425
#     4  11  24  42  68  98 143 179 226 295 349 407
#     4  11  25  44  71 100 139 180 235 288 345 428
#     4  12  26  41  71 104 131 181 232 285 346 416
#     4  11  22  46  72  94 135 187 231 277 348 429
#     4  11  25  44  68 102 132 183 238 283 348 415
#     4  12  25  47  66 103 138 181 231 289 356 418
#
# _framework density 20.364159999999998
#
# number of rings (size 3 to 8) (size 9 to 14) (size 15 to 20)
#    0.000    0.875    3.750    3.750    5.250    2.000 
#    0.000    0.000    0.000    0.000    0.000    0.000 
#    0.000    0.000    0.000    0.000    0.000    0.000 
#
# Total GULP energy -357444.994078 kJ/mol
# GULP energy per Si atom -5585.078032 kJ/mol
# Density = 2.031781 g / cm^3
# Si number density = 20.364160 Si / 1000 Ang^3
#
#
#
# Elastic Constant Matrix: (Units=GPa)
#
#
# Indices 1 2 3 4 5 6 
#
# 1 134.9787 49.1225 54.6008 0.0000 0.0000 0.0000
# 2 49.1225 79.1766 57.4507 0.0000 0.0000 0.0000
# 3 54.6008 57.4507 110.9988 0.0000 0.0000 0.0000
# 4 0.0000 0.0000 0.0000 16.9493 0.0000 0.0000
# 5 0.0000 0.0000 0.0000 0.0000 28.9759 0.0000
# 6 0.0000 0.0000 0.0000 0.0000 0.0000 35.7013
#
#
#
# Elastic Compliance Matrix: (Units=1/GPa)
#
#
# Indices 1 2 3 4 5 6 
#
# 1 0.010069 -0.004249 -0.002754 0.000000 0.000000 0.000000
# 2 -0.004249 0.022019 -0.009307 0.000000 0.000000 0.000000
# 3 -0.002754 -0.009307 0.015181 0.000000 0.000000 0.000000
# 4 0.000000 0.000000 0.000000 0.058999 0.000000 0.000000
# 5 0.000000 0.000000 0.000000 0.000000 0.034511 0.000000
# 6 0.000000 0.000000 0.000000 0.000000 0.000000 0.028010
#
#
# Mechanical properties :
#
#
# Convention : Reuss Voigt Hill
#
# Bulk Modulus (GPa) = 68.25902 71.94466 70.10184
# Shear Modulus (GPa) = 24.23767 27.25731 25.74749
#
# Velocity S-wave (km/s) = 3.45369 3.66251 3.55963
# Velocity P-wave (km/s) = 7.03533 7.30007 7.16893
#
# Compressibility (1/GPa) = 0.01465008
#
# Stress axis : x y z
#
# Youngs Moduli (GPa) = 99.31730 45.41584 65.87347
#
# Poissons Ratio (x) = 0.19295 0.18141
# Poissons Ratio (y) = 0.42196 0.61305
# Poissons Ratio (z) = 0.27351 0.42266
#
# Static dielectric constant tensor:
#      x y z
#    x 1.732740 0.000000 0.000000 
#    y 0.000000 4.458000 0.000000 
#    z 0.000000 0.000000 1.732880 
# 
# From -- ./inp_files/31173.got.cif
#   From: 2010.05.17/outbox.cif.g08.bks.cpg/sg48_16_cif.got.tgz:31173.got - 2010.06.03 20:39:00.
