data_PCOD9391515
_publ_section_title
;
Structure prediction by ZEFSAII (Michael W. Deem and Ramdas Pophale) SiO2 
 PCOD9391515
Probable space group: P N N N
;
_chemical_formula_sum "Si O2"
_cell_formula_units_Z 44
_cell_length_a 14.182395
_cell_length_b 19.912818
_cell_length_c 7.800374
_cell_angle_alpha 90.000000
_cell_angle_beta 90.000000
_cell_angle_gamma 90.000000
_cell_volume 2202.914935
_symmetry_space_group_name_H-M "P N N N"
_symmetry_group_IT_number 48
_space_group.IT_coordinate_system_code '2'
_symmetry_cell_setting 'orthorhombic'
loop_
_space_group_symop_operation_xyz
x,y,z
1/2-x,1/2-y,z
x,1/2-y,1/2-z
1/2-x,y,1/2-z
-x,-y,-z
1/2+x,1/2+y,-z
-x,1/2+y,1/2+z
1/2+x,-y,1/2+z
loop_
_atom_site_type_symbol
_atom_site_label
_atom_site_fract_x
_atom_site_fract_y
_atom_site_fract_z
Si Si1 0.750000 0.517841 0.750000
Si Si2 0.571853 0.935847 0.537013
Si Si3 0.145959 0.400715 0.806899
Si Si4 0.750000 0.350212 0.250000
Si Si5 0.409595 0.750000 0.750000
Si Si6 0.638860 0.046113 0.033192
Si Si7 0.527662 0.637308 0.609225
O O1 0.818543 0.549063 0.600212
O O2 0.672139 0.476435 0.650454
O O3 0.579197 0.894889 0.359436
O O4 0.539131 0.890050 0.696994
O O5 0.500000 0.000000 0.500000
O O6 0.250000 0.380707 0.750000
O O7 0.142953 0.480681 0.847709
O O8 0.116218 0.363750 0.982608
O O9 0.664234 0.305152 0.179466
O O10 0.791621 0.397810 0.105700
O O11 0.475436 0.708490 0.621316
O O12 0.538165 0.080327 0.026855
#
# Coordination Sequence:
#
# PCOD9391515 Si02
#       7
#     4   8   8   4   4   8   8
#     4  12  22  34  56 100 134 158 196 256 340 402
#     4  12  22  34  61  91 126 165 200 259 337 377
#     4  12  21  37  61  96 128 159 203 271 332 375
#     4   9  18  38  64  88 122 176 203 254 324 391
#     4   9  22  40  64  81 124 178 220 245 310 385
#     4  11  19  35  60  94 131 155 199 258 328 385
#     4  11  23  41  60  91 128 168 218 260 306 399
#
# _framework density 19.973537
#
# number of rings (size 3 to 8) (size 9 to 14) (size 15 to 20)
#    0.000    0.909    6.364    1.636    2.545    0.000 
#    0.000    0.909    4.000    7.091    0.000    0.000 
#    0.000    0.000    0.000    0.000    0.000    0.000 
#
# Total GULP energy -245069.530437 kJ/mol
# GULP energy per Si atom -5569.762055 kJ/mol
# Density = 1.992808 g / cm^3
# Si number density = 19.973537 Si / 1000 Ang^3
#
#
#
# Elastic Constant Matrix: (Units=GPa)
#
#
# Indices 1 2 3 4 5 6 
#
# 1 90.4865 26.6700 24.3500 0.0000 0.0000 0.0000
# 2 26.6700 59.5674 21.8017 0.0000 0.0000 0.0000
# 3 24.3500 21.8017 107.4848 0.0000 0.0000 0.0000
# 4 0.0000 0.0000 0.0000 -0.4436 0.0000 0.0000
# 5 0.0000 0.0000 0.0000 0.0000 47.5929 0.0000
# 6 0.0000 0.0000 0.0000 0.0000 0.0000 16.9091
#
#
#
# Elastic Compliance Matrix: (Units=1/GPa)
#
#
# Indices 1 2 3 4 5 6 
#
# 1 0.013088 -0.005158 -0.001919 0.000000 0.000000 0.000000
# 2 -0.005158 0.020166 -0.002922 0.000000 0.000000 0.000000
# 3 -0.001919 -0.002922 0.010331 0.000000 0.000000 0.000000
# 4 0.000000 0.000000 0.000000 -2.254287 0.000000 0.000000
# 5 0.000000 0.000000 0.000000 0.000000 0.021012 0.000000
# 6 0.000000 0.000000 0.000000 0.000000 0.000000 0.059140
#
#
# Mechanical properties :
#
#
# Convention : Reuss Voigt Hill
#
# Bulk Modulus (GPa) = 42.39365 44.79802 43.59584
# Shear Modulus (GPa) = -2.37791 25.12612 11.37411
#
# Velocity S-wave (km/s) = -1.09230 3.55064 2.38892
# Velocity P-wave (km/s) = 4.43623 6.26791 5.42987
#
# Compressibility (1/GPa) = 0.02358844
#
# Stress axis : x y z
#
# Youngs Moduli (GPa) = 76.40662 49.58756 96.79565
#
# Poissons Ratio (x) = 0.25575 0.18574
# Poissons Ratio (y) = 0.39407 0.28284
# Poissons Ratio (z) = 0.14661 0.14490
#
# Static dielectric constant tensor:
#      x y z
#    x 1.787890 0.000000 0.000000 
#    y 0.000000 1.712480 0.000000 
#    z 0.000000 0.000000 1.746610 
# 
# From -- ./inp_files/12710.got.cif
#   From: 2010.05.17/outbox.cif.g08.bks.cpg/sg48_7_cif.got.tgz:12710.got - 2010.06.03 20:39:00.
