data_PCOD9391621
_publ_section_title
;
Structure prediction by ZEFSAII (Michael W. Deem and Ramdas Pophale) SiO2 
 PCOD9391621
Probable space group: P N N N
;
_chemical_formula_sum "Si O2"
_cell_formula_units_Z 48
_cell_length_a 9.288133
_cell_length_b 28.940869
_cell_length_c 8.011437
_cell_angle_alpha 90.000000
_cell_angle_beta 90.000000
_cell_angle_gamma 90.000000
_cell_volume 2153.527465
_symmetry_space_group_name_H-M "P N N N"
_symmetry_group_IT_number 48
_space_group.IT_coordinate_system_code '2'
_symmetry_cell_setting 'orthorhombic'
loop_
_space_group_symop_operation_xyz
x,y,z
1/2-x,1/2-y,z
x,1/2-y,1/2-z
1/2-x,y,1/2-z
-x,-y,-z
1/2+x,1/2+y,-z
-x,1/2+y,1/2+z
1/2+x,-y,1/2+z
loop_
_atom_site_type_symbol
_atom_site_label
_atom_site_fract_x
_atom_site_fract_y
_atom_site_fract_z
Si Si1 0.175251 0.501957 0.442342
Si Si2 0.203683 0.400789 0.440460
Si Si3 0.583056 0.251548 0.546063
Si Si4 0.705131 0.400769 0.436506
Si Si5 0.953653 0.651674 0.059224
Si Si6 0.954578 0.348604 0.558549
O O1 0.250000 0.503437 0.250000
O O2 0.228637 0.452248 0.508061
O O3 0.243979 0.547693 0.521327
O O4 0.000000 0.500000 0.500000
O O5 0.250000 0.399562 0.250000
O O6 0.288574 0.360649 0.534848
O O7 0.037667 0.387575 0.456732
O O8 0.750000 0.250000 0.495234
O O9 0.580251 0.250000 0.750000
O O10 0.502561 0.298146 0.493954
O O11 0.519314 0.202603 0.489557
O O12 0.750000 0.389793 0.250000
O O13 0.539299 0.389610 0.467712
O O14 0.788645 0.363314 0.550343
O O15 0.994036 0.649390 0.252316
#
# Coordination Sequence:
#
# PCOD9391621 Si02
#       6
#     8   8   8   8   8   8
#     4  11  25  47  73  98 136 185 233 287 353 425
#     4  11  25  44  65  94 139 169 219 282 348 408
#     4   9  18  36  64  96 127 167 224 278 324 401
#     4  12  25  41  66  97 135 172 225 279 346 408
#     4  11  23  40  68 100 126 175 227 277 336 403
#     4  11  21  42  68  93 130 175 223 276 332 411
#
# _framework density 22.289013000000001
#
# number of rings (size 3 to 8) (size 9 to 14) (size 15 to 20)
#    0.000    1.167    3.333    3.000    2.333    2.667 
#    0.000    7.500    0.000    0.000    0.000    0.000 
#    0.000    0.000    0.000    0.000    0.000    0.000 
#
# Total GULP energy -267679.037898 kJ/mol
# GULP energy per Si atom -5576.646623 kJ/mol
# Density = 2.223828 g / cm^3
# Si number density = 22.289013 Si / 1000 Ang^3
#
#
#
# Elastic Constant Matrix: (Units=GPa)
#
#
# Indices 1 2 3 4 5 6 
#
# 1 66.1732 21.6427 12.3714 0.0000 0.0000 0.0000
# 2 21.6427 155.9099 10.8510 0.0000 0.0000 0.0000
# 3 12.3714 10.8510 60.3449 0.0000 0.0000 0.0000
# 4 0.0000 0.0000 0.0000 15.6106 0.0000 0.0000
# 5 0.0000 0.0000 0.0000 0.0000 36.8379 0.0000
# 6 0.0000 0.0000 0.0000 0.0000 0.0000 37.8397
#
#
#
# Elastic Compliance Matrix: (Units=1/GPa)
#
#
# Indices 1 2 3 4 5 6 
#
# 1 0.016343 -0.002061 -0.002980 0.000000 0.000000 0.000000
# 2 -0.002061 0.006755 -0.000792 0.000000 0.000000 0.000000
# 3 -0.002980 -0.000792 0.017325 0.000000 0.000000 0.000000
# 4 0.000000 0.000000 0.000000 0.064059 0.000000 0.000000
# 5 0.000000 0.000000 0.000000 0.000000 0.027146 0.000000
# 6 0.000000 0.000000 0.000000 0.000000 0.000000 0.026427
#
#
# Mechanical properties :
#
#
# Convention : Reuss Voigt Hill
#
# Bulk Modulus (GPa) = 34.77468 41.35091 38.06280
# Shear Modulus (GPa) = 27.88504 33.89516 30.89010
#
# Velocity S-wave (km/s) = 3.54088 3.90386 3.72679
# Velocity P-wave (km/s) = 5.68794 6.23800 5.96931
#
# Compressibility (1/GPa) = 0.02875655
#
# Stress axis : x y z
#
# Youngs Moduli (GPa) = 61.18778 148.03346 57.72090
#
# Poissons Ratio (x) = 0.30514 0.17200
# Poissons Ratio (y) = 0.12613 0.04572
# Poissons Ratio (z) = 0.18233 0.11726
#
# Static dielectric constant tensor:
#      x y z
#    x 1.791240 0.000000 0.000000 
#    y 0.000000 1.797020 0.000000 
#    z 0.000000 0.000000 1.837240 
# 
# From -- ./inp_files/9499.got.cif
#   From: 2010.05.17/outbox.cif.g08.bks.cpg/sg48_5_cif.got.tgz:9499.got - 2010.06.03 20:39:00.
