data_PCOD9391206
_publ_section_title
;
Structure prediction by ZEFSAII (Michael W. Deem and Ramdas Pophale) SiO2 
 PCOD9391206
Probable space group: P N N N
;
_chemical_formula_sum "Si O2"
_cell_formula_units_Z 38
_cell_length_a 15.535958
_cell_length_b 11.126378
_cell_length_c 8.687210
_cell_angle_alpha 90.000000
_cell_angle_beta 90.000000
_cell_angle_gamma 90.000000
_cell_volume 1501.661923
_symmetry_space_group_name_H-M "P N N N"
_symmetry_group_IT_number 48
_space_group.IT_coordinate_system_code '2'
_symmetry_cell_setting 'orthorhombic'
loop_
_space_group_symop_operation_xyz
x,y,z
1/2-x,1/2-y,z
x,1/2-y,1/2-z
1/2-x,y,1/2-z
-x,-y,-z
1/2+x,1/2+y,-z
-x,1/2+y,1/2+z
1/2+x,-y,1/2+z
loop_
_atom_site_type_symbol
_atom_site_label
_atom_site_fract_x
_atom_site_fract_y
_atom_site_fract_z
Si Si1 0.250000 0.750000 0.750000
Si Si2 0.057892 0.250000 0.250000
Si Si3 0.482099 0.092248 0.642722
Si Si4 0.955147 0.344861 0.967246
Si Si5 0.314993 0.362193 0.014936
Si Si6 0.257592 0.620212 0.477569
O O1 0.205591 0.841340 0.866583
O O2 0.120723 0.167910 0.152329
O O3 0.003927 0.326700 0.128396
O O4 0.539730 0.207458 0.595011
O O5 0.380263 0.122537 0.628659
O O6 0.500000 0.000000 0.500000
O O7 0.504171 0.079681 0.824693
O O8 0.859676 0.390462 0.999886
O O9 0.250000 0.250000 0.995195
O O10 0.273785 0.489170 0.062510
O O11 0.250000 0.750000 0.395419
#
# Coordination Sequence:
#
# PCOD9391206 Si02
#       6
#     2   4   8   8   8   8
#     4   8  22  44  74 116 160 192 254 328 394 472
#     4  10  24  48  73 115 164 202 260 334 406 482
#     4  10  23  47  75 112 156 207 268 329 392 486
#     4  10  22  46  75 110 152 210 263 325 404 477
#     4  11  25  49  76 112 157 205 261 330 398 472
#     4  10  22  47  78 114 153 205 260 324 395 474
#
# _framework density 25.305295999999998
#
# number of rings (size 3 to 8) (size 9 to 14) (size 15 to 20)
#    0.632    1.263    0.000    2.211    0.000    5.053 
#   15.158   17.895    0.000    7.579    0.000    0.000 
#    0.000    0.000    0.000    0.000    0.000    0.000 
#
# Total GULP energy -211739.674895 kJ/mol
# GULP energy per Si atom -5572.096708 kJ/mol
# Density = 2.524770 g / cm^3
# Si number density = 25.305296 Si / 1000 Ang^3
#
#
#
# Elastic Constant Matrix: (Units=GPa)
#
#
# Indices 1 2 3 4 5 6 
#
# 1 184.1046 81.3563 73.8179 0.0000 0.0000 0.0000
# 2 81.3563 206.7972 57.0341 0.0000 0.0000 0.0000
# 3 73.8179 57.0341 178.8915 0.0000 0.0000 0.0000
# 4 0.0000 0.0000 0.0000 35.8334 0.0000 0.0000
# 5 0.0000 0.0000 0.0000 0.0000 -6.5552 0.0000
# 6 0.0000 0.0000 0.0000 0.0000 0.0000 49.0477
#
#
#
# Elastic Compliance Matrix: (Units=1/GPa)
#
#
# Indices 1 2 3 4 5 6 
#
# 1 0.007357 -0.002255 -0.002317 0.000000 0.000000 0.000000
# 2 -0.002255 0.005993 -0.000980 0.000000 0.000000 0.000000
# 3 -0.002317 -0.000980 0.006858 0.000000 0.000000 0.000000
# 4 0.000000 0.000000 0.000000 0.027907 0.000000 0.000000
# 5 0.000000 0.000000 0.000000 0.000000 -0.152550 0.000000
# 6 0.000000 0.000000 0.000000 0.000000 0.000000 0.020388
#
#
# Mechanical properties :
#
#
# Convention : Reuss Voigt Hill
#
# Bulk Modulus (GPa) = 109.83816 110.46774 110.15295
# Shear Modulus (GPa) = -71.52416 39.50417 -16.00999
#
# Velocity S-wave (km/s) = -5.32220 3.95537 -2.51803
# Velocity P-wave (km/s) = 2.39408 8.03795 5.93044
#
# Compressibility (1/GPa) = 0.00910430
#
# Stress axis : x y z
#
# Youngs Moduli (GPa) = 135.91843 166.85332 145.80502
#
# Poissons Ratio (x) = 0.37633 0.33781
# Poissons Ratio (y) = 0.30656 0.14290
# Poissons Ratio (z) = 0.31490 0.16353
#
# Static dielectric constant tensor:
#      x y z
#    x 2.002240 0.000000 0.000000 
#    y 0.000000 2.135260 0.000000 
#    z 0.000000 0.000000 2.058610 
# 
# From -- ./inp_files/31477.got.cif
#   From: 2010.05.17/outbox.cif.g08.bks.cpg/sg48_16_cif.got.tgz:31477.got - 2010.06.03 20:39:00.
