data_PCOD9391356
_publ_section_title
;
Structure prediction by ZEFSAII (Michael W. Deem and Ramdas Pophale) SiO2 
 PCOD9391356
Probable space group: P N N N
;
_chemical_formula_sum "Si O2"
_cell_formula_units_Z 64
_cell_length_a 14.613677
_cell_length_b 17.147862
_cell_length_c 12.370258
_cell_angle_alpha 90.000000
_cell_angle_beta 90.000000
_cell_angle_gamma 90.000000
_cell_volume 3099.903978
_symmetry_space_group_name_H-M "P N N N"
_symmetry_group_IT_number 48
_space_group.IT_coordinate_system_code '2'
_symmetry_cell_setting 'orthorhombic'
loop_
_space_group_symop_operation_xyz
x,y,z
1/2-x,1/2-y,z
x,1/2-y,1/2-z
1/2-x,y,1/2-z
-x,-y,-z
1/2+x,1/2+y,-z
-x,1/2+y,1/2+z
1/2+x,-y,1/2+z
loop_
_atom_site_type_symbol
_atom_site_label
_atom_site_fract_x
_atom_site_fract_y
_atom_site_fract_z
Si Si1 0.735811 0.586712 0.075751
Si Si2 0.204840 0.499120 0.132668
Si Si3 0.945843 0.413812 0.502141
Si Si4 0.006591 0.010788 0.371839
Si Si5 0.268409 0.659895 0.121121
Si Si6 0.073649 0.360137 0.831727
Si Si7 0.591055 0.700175 0.088227
Si Si8 0.151377 0.947164 0.788109
O O1 0.835442 0.595738 0.127533
O O2 0.693268 0.672091 0.064407
O O3 0.676522 0.531002 0.154908
O O4 0.740319 0.545865 0.960093
O O5 0.250000 0.499942 0.250000
O O6 0.200221 0.588752 0.088439
O O7 0.107257 0.457588 0.147259
O O8 0.866862 0.381466 0.587976
O O9 0.895706 0.404576 0.387971
O O10 0.000000 0.500000 0.500000
O O11 0.026843 0.353267 0.517376
O O12 0.922244 0.049860 0.308961
O O13 0.005408 0.922921 0.325995
O O14 0.000000 0.000000 0.500000
O O15 0.250000 0.750000 0.080520
O O16 0.250000 0.666138 0.250000
O O17 0.063418 0.289619 0.915169
O O18 0.081859 0.325013 0.713388
O O19 0.250000 0.916565 0.750000
#
# Coordination Sequence:
#
# PCOD9391356 Si02
#       8
#     8   8   8   8   8   8   8   8
#     4  12  20  42  63  96 135 174 214 268 334 400
#     4  11  25  39  64  96 131 173 223 270 330 388
#     4  12  24  41  65  98 131 175 226 276 331 404
#     4  12  24  40  65  94 127 170 215 270 324 392
#     4  10  24  40  62  94 139 176 215 274 351 402
#     4  11  23  38  61 100 135 165 210 269 348 395
#     4  11  24  37  67  96 135 167 214 277 337 401
#     4  12  23  41  66  95 128 168 226 272 323 390
#
# _framework density 20.645800999999999
#
# number of rings (size 3 to 8) (size 9 to 14) (size 15 to 20)
#    0.000    0.625    6.250    0.750   10.500    2.000 
#    0.000    0.000    0.000    5.625    0.000    0.000 
#    0.000    0.000    0.000    0.000    0.000    0.000 
#
# Total GULP energy -356290.796711 kJ/mol
# GULP energy per Si atom -5567.043699 kJ/mol
# Density = 2.059881 g / cm^3
# Si number density = 20.645801 Si / 1000 Ang^3
#
#
#
# Elastic Constant Matrix: (Units=GPa)
#
#
# Indices 1 2 3 4 5 6 
#
# 1 84.2586 -7.4675 37.2190 0.0000 0.0000 0.0000
# 2 -7.4675 56.3949 20.1592 0.0000 0.0000 0.0000
# 3 37.2190 20.1592 121.1194 0.0000 0.0000 0.0000
# 4 0.0000 0.0000 0.0000 21.4372 0.0000 0.0000
# 5 0.0000 0.0000 0.0000 0.0000 37.6123 0.0000
# 6 0.0000 0.0000 0.0000 0.0000 0.0000 -4.1308
#
#
#
# Elastic Compliance Matrix: (Units=1/GPa)
#
#
# Indices 1 2 3 4 5 6 
#
# 1 0.014430 0.003717 -0.005053 0.000000 0.000000 0.000000
# 2 0.003717 0.019811 -0.004440 0.000000 0.000000 0.000000
# 3 -0.005053 -0.004440 0.010548 0.000000 0.000000 0.000000
# 4 0.000000 0.000000 0.000000 0.046648 0.000000 0.000000
# 5 0.000000 0.000000 0.000000 0.000000 0.026587 0.000000
# 6 0.000000 0.000000 0.000000 0.000000 0.000000 -0.242081
#
#
# Mechanical properties :
#
#
# Convention : Reuss Voigt Hill
#
# Bulk Modulus (GPa) = 30.08618 40.17715 35.13166
# Shear Modulus (GPa) = -49.29638 25.10788 -12.09425
#
# Velocity S-wave (km/s) = -4.89173 3.49108 -2.42295
# Velocity P-wave (km/s) = 4.15947 5.97935 3.03739
#
# Compressibility (1/GPa) = 0.03323785
#
# Stress axis : x y z
#
# Youngs Moduli (GPa) = 69.30226 50.47635 94.80561
#
# Poissons Ratio (x) = -0.18761 0.47903
# Poissons Ratio (y) = -0.25759 0.42090
# Poissons Ratio (z) = 0.35016 0.22409
#
# Static dielectric constant tensor:
#      x y z
#    x 1.795540 0.000000 0.000000 
#    y 0.000000 1.809150 0.000000 
#    z 0.000000 0.000000 1.755710 
# 
# From -- ./inp_files/21581.got.cif
#   From: 2010.05.17/outbox.cif.g08.bks.cpg/sg48_11_cif.got.tgz:21581.got - 2010.06.03 20:39:00.
