data_PCOD9391833
_publ_section_title
;
Structure prediction by ZEFSAII (Michael W. Deem and Ramdas Pophale) SiO2 
 PCOD9391833
Probable space group: P N N N
;
_chemical_formula_sum "Si O2"
_cell_formula_units_Z 64
_cell_length_a 20.164943
_cell_length_b 9.244110
_cell_length_c 17.119724
_cell_angle_alpha 90.000000
_cell_angle_beta 90.000000
_cell_angle_gamma 90.000000
_cell_volume 3191.235557
_symmetry_space_group_name_H-M "P N N N"
_symmetry_group_IT_number 48
_space_group.IT_coordinate_system_code '2'
_symmetry_cell_setting 'orthorhombic'
loop_
_space_group_symop_operation_xyz
x,y,z
1/2-x,1/2-y,z
x,1/2-y,1/2-z
1/2-x,y,1/2-z
-x,-y,-z
1/2+x,1/2+y,-z
-x,1/2+y,1/2+z
1/2+x,-y,1/2+z
loop_
_atom_site_type_symbol
_atom_site_label
_atom_site_fract_x
_atom_site_fract_y
_atom_site_fract_z
Si Si1 0.328013 0.507361 0.991858
Si Si2 0.855876 0.575987 0.750771
Si Si3 0.251137 0.575756 0.657295
Si Si4 0.071410 0.758021 0.473811
Si Si5 0.536972 0.501489 0.650326
Si Si6 0.927542 0.752543 0.522130
Si Si7 0.104899 0.001180 0.599373
Si Si8 0.749154 0.924444 0.622729
O O1 0.370538 0.641991 0.022743
O O2 0.371666 0.370190 0.020810
O O3 0.258925 0.495793 0.039260
O O4 0.306977 0.516506 0.900701
O O5 0.858749 0.750000 0.750000
O O6 0.927324 0.511907 0.766550
O O7 0.814196 0.532900 0.675519
O O8 0.812391 0.533119 0.826521
O O9 0.250000 0.750000 0.646961
O O10 0.250000 0.545871 0.750000
O O11 0.322076 0.513876 0.631516
O O12 0.059423 0.858892 0.397852
O O13 0.999799 0.692721 0.497878
O O14 0.089817 0.869349 0.541812
O O15 0.560509 0.643097 0.598182
O O16 0.457726 0.501208 0.657816
O O17 0.904608 0.858982 0.453733
O O18 0.750000 0.750000 0.616218
#
# Coordination Sequence:
#
# PCOD9391833 Si02
#       8
#     8   8   8   8   8   8   8   8
#     4  12  22  35  63  87 114 159 196 247 302 354
#     4   9  17  34  52  85 121 147 187 236 280 340
#     4  11  25  43  60  84 120 156 205 256 303 365
#     4   9  19  36  57  88 120 153 200 246 291 355
#     4   9  18  36  64  83 121 160 200 243 292 357
#     4   9  19  34  60  90 119 146 201 254 289 350
#     4   9  19  40  58  85 113 161 202 245 300 351
#     4   9  20  32  53  85 123 149 180 234 288 350
#
# _framework density 20.054926999999999
#
# number of rings (size 3 to 8) (size 9 to 14) (size 15 to 20)
#    0.000    2.375    1.250    4.125    5.250    0.000 
#    2.250    4.375    0.000    4.500    0.000    0.000 
#    0.000    0.000    0.000    0.000    0.000    0.000 
#
# Total GULP energy -356762.709759 kJ/mol
# GULP energy per Si atom -5574.417340 kJ/mol
# Density = 2.000928 g / cm^3
# Si number density = 20.054927 Si / 1000 Ang^3
#
#
#
# Elastic Constant Matrix: (Units=GPa)
#
#
# Indices 1 2 3 4 5 6 
#
# 1 92.1400 30.1373 20.2706 0.0000 0.0000 0.0000
# 2 30.1373 48.1779 10.3755 0.0000 0.0000 0.0000
# 3 20.2706 10.3755 41.2913 0.0000 0.0000 0.0000
# 4 0.0000 0.0000 0.0000 3.0818 0.0000 0.0000
# 5 0.0000 0.0000 0.0000 0.0000 39.6261 0.0000
# 6 0.0000 0.0000 0.0000 0.0000 0.0000 22.8197
#
#
#
# Elastic Compliance Matrix: (Units=1/GPa)
#
#
# Indices 1 2 3 4 5 6 
#
# 1 0.014614 -0.008031 -0.005156 0.000000 0.000000 0.000000
# 2 -0.008031 0.026358 -0.002680 0.000000 0.000000 0.000000
# 3 -0.005156 -0.002680 0.027423 0.000000 0.000000 0.000000
# 4 0.000000 0.000000 0.000000 0.324484 0.000000 0.000000
# 5 0.000000 0.000000 0.000000 0.000000 0.025236 0.000000
# 6 0.000000 0.000000 0.000000 0.000000 0.000000 0.043822
#
#
# Mechanical properties :
#
#
# Convention : Reuss Voigt Hill
#
# Bulk Modulus (GPa) = 27.27850 33.68622 30.48236
# Shear Modulus (GPa) = 9.88353 21.16057 15.52205
#
# Velocity S-wave (km/s) = 2.22237 3.25180 2.78506
# Velocity P-wave (km/s) = 4.49629 5.56169 5.05713
#
# Compressibility (1/GPa) = 0.03665891
#
# Stress axis : x y z
#
# Youngs Moduli (GPa) = 68.42580 37.93964 36.46570
#
# Poissons Ratio (x) = 0.30471 0.18803
# Poissons Ratio (y) = 0.54956 0.09774
# Poissons Ratio (z) = 0.35283 0.10169
#
# Static dielectric constant tensor:
#      x y z
#    x 1.858010 0.000000 0.000000 
#    y 0.000000 1.321590 0.000000 
#    z 0.000000 0.000000 1.719990 
# 
# From -- ./inp_files/32217.got.cif
#   From: 2010.05.17/outbox.cif.g08.bks.cpg/sg48_17_cif.got.tgz:32217.got - 2010.06.03 20:39:00.
