data_PCOD9391368
_publ_section_title
;
Structure prediction by ZEFSAII (Michael W. Deem and Ramdas Pophale) SiO2 
 PCOD9391368
Probable space group: P N N N
;
_chemical_formula_sum "Si O2"
_cell_formula_units_Z 52
_cell_length_a 8.293744
_cell_length_b 18.957653
_cell_length_c 16.084010
_cell_angle_alpha 90.000000
_cell_angle_beta 90.000000
_cell_angle_gamma 90.000000
_cell_volume 2528.887619
_symmetry_space_group_name_H-M "P N N N"
_symmetry_group_IT_number 48
_space_group.IT_coordinate_system_code '2'
_symmetry_cell_setting 'orthorhombic'
loop_
_space_group_symop_operation_xyz
x,y,z
1/2-x,1/2-y,z
x,1/2-y,1/2-z
1/2-x,y,1/2-z
-x,-y,-z
1/2+x,1/2+y,-z
-x,1/2+y,1/2+z
1/2+x,-y,1/2+z
loop_
_atom_site_type_symbol
_atom_site_label
_atom_site_fract_x
_atom_site_fract_y
_atom_site_fract_z
Si Si1 0.576974 0.324459 0.119906
Si Si2 0.569785 0.597012 0.735350
Si Si3 0.915423 0.434490 0.704968
Si Si4 0.250000 0.140499 0.750000
Si Si5 0.178731 0.174630 0.568868
Si Si6 0.467855 0.079167 0.527826
Si Si7 0.547243 0.168308 0.079756
O O1 0.552846 0.356951 0.210428
O O2 0.505638 0.246017 0.115212
O O3 0.761361 0.330341 0.090606
O O4 0.491504 0.372498 0.052043
O O5 0.750000 0.624929 0.750000
O O6 0.571069 0.517743 0.772201
O O7 0.526057 0.607742 0.638916
O O8 0.750000 0.409827 0.750000
O O9 0.088797 0.403972 0.731042
O O10 0.913604 0.413705 0.607345
O O11 0.184683 0.180911 0.668470
O O12 0.250000 0.250000 0.538544
O O13 0.290968 0.105599 0.555152
O O14 0.018313 0.163571 0.514271
O O15 0.500000 0.000000 0.500000
#
# Coordination Sequence:
#
# PCOD9391368 Si02
#       7
#     8   8   8   4   8   8   8
#     4  11  23  42  61  97 136 170 226 271 342 405
#     4  11  23  39  64  93 134 180 219 271 333 411
#     4  10  24  41  63  96 134 173 228 277 344 416
#     4  10  25  44  68  96 127 178 224 294 350 407
#     4  11  23  44  68  94 128 171 231 281 346 418
#     4  11  22  41  67  94 132 174 217 283 334 405
#     4  11  25  38  66  96 130 177 216 283 335 414
#
# _framework density 20.562401000000001
#
# number of rings (size 3 to 8) (size 9 to 14) (size 15 to 20)
#    0.000    1.231    3.077    2.077    6.462    1.846 
#    0.000    1.538    0.000    0.923    0.000    0.000 
#    0.000    0.000    0.000    0.000    0.000    0.000 
#
# Total GULP energy -289585.862440 kJ/mol
# GULP energy per Si atom -5568.958893 kJ/mol
# Density = 2.051560 g / cm^3
# Si number density = 20.562401 Si / 1000 Ang^3
#
#
#
# Elastic Constant Matrix: (Units=GPa)
#
#
# Indices 1 2 3 4 5 6 
#
# 1 86.6962 1.3015 32.3243 0.0000 0.0000 0.0000
# 2 1.3015 45.8666 0.0170 0.0000 0.0000 0.0000
# 3 32.3243 0.0170 108.9009 0.0000 0.0000 0.0000
# 4 0.0000 0.0000 0.0000 35.6106 0.0000 0.0000
# 5 0.0000 0.0000 0.0000 0.0000 42.2327 0.0000
# 6 0.0000 0.0000 0.0000 0.0000 0.0000 10.4720
#
#
#
# Elastic Compliance Matrix: (Units=1/GPa)
#
#
# Indices 1 2 3 4 5 6 
#
# 1 0.012976 -0.000367 -0.003852 0.000000 0.000000 0.000000
# 2 -0.000367 0.021813 0.000105 0.000000 0.000000 0.000000
# 3 -0.003852 0.000105 0.010326 0.000000 0.000000 0.000000
# 4 0.000000 0.000000 0.000000 0.028082 0.000000 0.000000
# 5 0.000000 0.000000 0.000000 0.000000 0.023678 0.000000
# 6 0.000000 0.000000 0.000000 0.000000 0.000000 0.095493
#
#
# Mechanical properties :
#
#
# Convention : Reuss Voigt Hill
#
# Bulk Modulus (GPa) = 27.10840 34.30548 30.70694
# Shear Modulus (GPa) = 23.48636 31.51778 27.50207
#
# Velocity S-wave (km/s) = 3.38331 3.91933 3.66114
# Velocity P-wave (km/s) = 5.33615 6.09929 5.73044
#
# Compressibility (1/GPa) = 0.03688894
#
# Stress axis : x y z
#
# Youngs Moduli (GPa) = 77.06496 45.84483 96.84417
#
# Poissons Ratio (x) = 0.01682 0.37300
# Poissons Ratio (y) = 0.02827 -0.01021
# Poissons Ratio (z) = 0.29682 -0.00484
#
# Static dielectric constant tensor:
#      x y z
#    x 1.752420 0.000000 0.000000 
#    y 0.000000 1.857930 0.000000 
#    z 0.000000 0.000000 1.840290 
# 
# From -- ./inp_files/25552.got.cif
#   From: 2010.05.17/outbox.cif.g08.bks.cpg/sg48_13_cif.got.tgz:25552.got - 2010.06.03 20:39:00.
