data_PCOD9391645
_publ_section_title
;
Structure prediction by ZEFSAII (Michael W. Deem and Ramdas Pophale) SiO2 
 PCOD9391645
Probable space group: P N N N
;
_chemical_formula_sum "Si O2"
_cell_formula_units_Z 40
_cell_length_a 5.010981
_cell_length_b 15.468272
_cell_length_c 24.111375
_cell_angle_alpha 90.000000
_cell_angle_beta 90.000000
_cell_angle_gamma 90.000000
_cell_volume 1868.902022
_symmetry_space_group_name_H-M "P N N N"
_symmetry_group_IT_number 48
_space_group.IT_coordinate_system_code '2'
_symmetry_cell_setting 'orthorhombic'
loop_
_space_group_symop_operation_xyz
x,y,z
1/2-x,1/2-y,z
x,1/2-y,1/2-z
1/2-x,y,1/2-z
-x,-y,-z
1/2+x,1/2+y,-z
-x,1/2+y,1/2+z
1/2+x,-y,1/2+z
loop_
_atom_site_type_symbol
_atom_site_label
_atom_site_fract_x
_atom_site_fract_y
_atom_site_fract_z
Si Si1 0.490899 0.516788 0.712679
Si Si2 0.393896 0.429847 0.410081
Si Si3 0.611566 0.339372 0.043451
Si Si4 0.175311 0.342824 0.845313
Si Si5 0.684339 0.122218 0.581545
O O1 0.750000 0.516486 0.750000
O O2 0.546980 0.566895 0.655543
O O3 0.421818 0.418191 0.695076
O O4 0.250000 0.551572 0.750000
O O5 0.672978 0.411905 0.439910
O O6 0.280593 0.523675 0.426112
O O7 0.170531 0.361176 0.428793
O O8 0.750000 0.250000 0.061332
O O9 0.590359 0.340347 0.976976
O O10 0.250000 0.250000 0.820452
O O11 0.438460 0.376877 0.876218
O O12 0.938929 0.330828 0.890551
#
# Coordination Sequence:
#
# PCOD9391645 Si02
#       5
#     8   8   8   8   8
#     4  11  23  42  64  85 113 160 212 258 306 350
#     4  11  23  41  62  89 122 159 206 248 291 363
#     4  12  23  38  63  95 128 158 194 245 302 359
#     4  11  22  38  60  93 130 160 198 245 292 356
#     4  11  22  39  62  91 129 170 196 225 292 370
#
# _framework density 21.402940000000001
#
# number of rings (size 3 to 8) (size 9 to 14) (size 15 to 20)
#    0.000    0.800    0.000   10.800    0.000    0.400 
#    0.000    3.000    0.000    9.000    0.000    0.000 
#    0.000    0.000    0.000    0.000    0.000    0.000 
#
# Total GULP energy -223947.994846 kJ/mol
# GULP energy per Si atom -5598.699871 kJ/mol
# Density = 2.135423 g / cm^3
# Si number density = 21.402940 Si / 1000 Ang^3
#
#
#
# Elastic Constant Matrix: (Units=GPa)
#
#
# Indices 1 2 3 4 5 6 
#
# 1 130.2015 -6.9135 36.2257 0.0000 0.0000 0.0000
# 2 -6.9135 26.8905 -4.2771 0.0000 0.0000 0.0000
# 3 36.2257 -4.2771 102.0801 0.0000 0.0000 0.0000
# 4 0.0000 0.0000 0.0000 22.4961 0.0000 0.0000
# 5 0.0000 0.0000 0.0000 0.0000 35.0653 0.0000
# 6 0.0000 0.0000 0.0000 0.0000 0.0000 39.0219
#
#
#
# Elastic Compliance Matrix: (Units=1/GPa)
#
#
# Indices 1 2 3 4 5 6 
#
# 1 0.008602 0.001738 -0.002980 0.000000 0.000000 0.000000
# 2 0.001738 0.037788 0.000967 0.000000 0.000000 0.000000
# 3 -0.002980 0.000967 0.010894 0.000000 0.000000 0.000000
# 4 0.000000 0.000000 0.000000 0.044452 0.000000 0.000000
# 5 0.000000 0.000000 0.000000 0.000000 0.028518 0.000000
# 6 0.000000 0.000000 0.000000 0.000000 0.000000 0.025627
#
#
# Mechanical properties :
#
#
# Convention : Reuss Voigt Hill
#
# Bulk Modulus (GPa) = 17.62633 34.36024 25.99329
# Shear Modulus (GPa) = 28.51550 34.92581 31.72066
#
# Velocity S-wave (km/s) = 3.65405 4.04397 3.85394
# Velocity P-wave (km/s) = 5.10452 6.15579 5.65464
#
# Compressibility (1/GPa) = 0.05673330
#
# Stress axis : x y z
#
# Youngs Moduli (GPa) = 116.25593 26.46317 91.79225
#
# Poissons Ratio (x) = -0.04598 0.27352
# Poissons Ratio (y) = -0.20200 -0.08874
# Poissons Ratio (z) = 0.34641 -0.02558
#
# Static dielectric constant tensor:
#      x y z
#    x 1.737690 0.000000 0.000000 
#    y 0.000000 1.810370 0.000000 
#    z 0.000000 0.000000 1.515790 
# 
# From -- ./inp_files/24308.got.cif
#   From: 2010.05.17/outbox.cif.g08.bks.cpg/sg48_13_cif.got.tgz:24308.got - 2010.06.03 20:39:00.
