data_PCOD9391283
_publ_section_title
;
Structure prediction by ZEFSAII (Michael W. Deem and Ramdas Pophale) SiO2 
 PCOD9391283
Probable space group: P N N N
;
_chemical_formula_sum "Si O2"
_cell_formula_units_Z 48
_cell_length_a 10.203783
_cell_length_b 8.079111
_cell_length_c 25.194744
_cell_angle_alpha 90.000000
_cell_angle_beta 90.000000
_cell_angle_gamma 90.000000
_cell_volume 2076.991595
_symmetry_space_group_name_H-M "P N N N"
_symmetry_group_IT_number 48
_space_group.IT_coordinate_system_code '2'
_symmetry_cell_setting 'orthorhombic'
loop_
_space_group_symop_operation_xyz
x,y,z
1/2-x,1/2-y,z
x,1/2-y,1/2-z
1/2-x,y,1/2-z
-x,-y,-z
1/2+x,1/2+y,-z
-x,1/2+y,1/2+z
1/2+x,-y,1/2+z
loop_
_atom_site_type_symbol
_atom_site_label
_atom_site_fract_x
_atom_site_fract_y
_atom_site_fract_z
Si Si1 0.168348 0.075855 0.837128
Si Si2 0.393280 0.940290 0.960089
Si Si3 0.392452 0.543872 0.956170
Si Si4 0.710047 0.422580 0.688203
Si Si5 0.443772 0.134226 0.303297
Si Si6 0.436330 0.950127 0.843266
O O1 0.250000 0.250000 0.832462
O O2 0.289157 0.955273 0.821758
O O3 0.114491 0.042652 0.897532
O O4 0.044069 0.022913 0.800463
O O5 0.395885 0.743039 0.951448
O O6 0.250985 0.994448 0.979358
O O7 0.420908 0.016236 0.902634
O O8 0.500000 0.000000 0.000000
O O9 0.500000 0.500000 0.000000
O O10 0.750000 0.250000 0.662109
O O11 0.750000 0.415446 0.750000
O O12 0.556273 0.450176 0.682372
O O13 0.807518 0.570128 0.672032
O O14 0.426143 0.250000 0.250000
O O15 0.513805 0.263345 0.341599
#
# Coordination Sequence:
#
# PCOD9391283 Si02
#       6
#     8   8   8   8   8   8
#     4  11  25  45  70 102 144 191 244 304 369 441
#     4  10  23  44  65  98 139 179 237 295 355 440
#     4  10  23  42  68  99 137 182 234 294 366 430
#     4  11  24  44  68 102 142 180 230 293 361 436
#     4  12  24  45  72 102 138 188 243 300 362 442
#     4  11  23  44  69  97 140 186 237 292 362 434
#
# _framework density 23.110348999999999
#
# number of rings (size 3 to 8) (size 9 to 14) (size 15 to 20)
#    0.000    1.167    3.333    2.000    4.667    2.667 
#    6.000    0.833    0.000    0.000    0.000    0.000 
#    0.000    0.000    0.000    0.000    0.000    0.000 
#
# Total GULP energy -267647.785898 kJ/mol
# GULP energy per Si atom -5575.995540 kJ/mol
# Density = 2.305775 g / cm^3
# Si number density = 23.110349 Si / 1000 Ang^3
#
#
#
# Elastic Constant Matrix: (Units=GPa)
#
#
# Indices 1 2 3 4 5 6 
#
# 1 165.6026 27.4358 71.1646 0.0000 0.0000 0.0000
# 2 27.4358 97.7480 12.0236 0.0000 0.0000 0.0000
# 3 71.1646 12.0236 64.7483 0.0000 0.0000 0.0000
# 4 0.0000 0.0000 0.0000 22.8369 0.0000 0.0000
# 5 0.0000 0.0000 0.0000 0.0000 42.6557 0.0000
# 6 0.0000 0.0000 0.0000 0.0000 0.0000 45.5459
#
#
#
# Elastic Compliance Matrix: (Units=1/GPa)
#
#
# Indices 1 2 3 4 5 6 
#
# 1 0.011728 -0.001746 -0.012566 0.000000 0.000000 0.000000
# 2 -0.001746 0.010729 -0.000073 0.000000 0.000000 0.000000
# 3 -0.012566 -0.000073 0.029269 0.000000 0.000000 0.000000
# 4 0.000000 0.000000 0.000000 0.043789 0.000000 0.000000
# 5 0.000000 0.000000 0.000000 0.000000 0.023444 0.000000
# 6 0.000000 0.000000 0.000000 0.000000 0.000000 0.021956
#
#
# Mechanical properties :
#
#
# Convention : Reuss Voigt Hill
#
# Bulk Modulus (GPa) = 43.56162 61.03853 52.30007
# Shear Modulus (GPa) = 28.19507 36.70604 32.45056
#
# Velocity S-wave (km/s) = 3.49667 3.98966 3.75127
# Velocity P-wave (km/s) = 5.93233 6.90596 6.43758
#
# Compressibility (1/GPa) = 0.02295599
#
# Stress axis : x y z
#
# Youngs Moduli (GPa) = 85.26860 93.20105 34.16609
#
# Poissons Ratio (x) = 0.16273 0.42932
# Poissons Ratio (y) = 0.14888 0.00251
# Poissons Ratio (z) = 1.07145 0.00684
#
# Static dielectric constant tensor:
#      x y z
#    x 1.987340 0.000000 0.000000 
#    y 0.000000 1.996290 0.000000 
#    z 0.000000 0.000000 1.910280 
# 
# From -- ./inp_files/38673.got.cif
#   From: 2010.05.17/outbox.cif.g08.bks.cpg/sg48_20_cif.got.tgz:38673.got - 2010.06.03 20:39:00.
