data_PCOD9391067
_publ_section_title
;
Structure prediction by ZEFSAII (Michael W. Deem and Ramdas Pophale) SiO2 
 PCOD9391067
Probable space group: P N N N
;
_chemical_formula_sum "Si O2"
_cell_formula_units_Z 36
_cell_length_a 8.548429
_cell_length_b 8.098552
_cell_length_c 21.442785
_cell_angle_alpha 90.000000
_cell_angle_beta 90.000000
_cell_angle_gamma 90.000000
_cell_volume 1484.481792
_symmetry_space_group_name_H-M "P N N N"
_symmetry_group_IT_number 48
_space_group.IT_coordinate_system_code '2'
_symmetry_cell_setting 'orthorhombic'
loop_
_space_group_symop_operation_xyz
x,y,z
1/2-x,1/2-y,z
x,1/2-y,1/2-z
1/2-x,y,1/2-z
-x,-y,-z
1/2+x,1/2+y,-z
-x,1/2+y,1/2+z
1/2+x,-y,1/2+z
loop_
_atom_site_type_symbol
_atom_site_label
_atom_site_fract_x
_atom_site_fract_y
_atom_site_fract_z
Si Si1 0.484604 0.750000 0.750000
Si Si2 0.557104 0.612793 0.413603
Si Si3 0.925860 0.754215 0.548590
Si Si4 0.750000 0.982866 0.750000
Si Si5 0.341178 0.586665 0.871651
Si Si6 0.250000 0.750000 0.346417
O O1 0.608859 0.877553 0.779456
O O2 0.393886 0.643327 0.801866
O O3 0.579930 0.729377 0.473818
O O4 0.499557 0.430314 0.433408
O O5 0.719953 0.565336 0.377228
O O6 0.406022 0.688787 0.380038
O O7 0.750000 0.750000 0.572743
O O8 0.014635 0.599115 0.580049
O O9 0.688223 0.101252 0.696617
O O10 0.250000 0.750000 0.893479
#
# Coordination Sequence:
#
# PCOD9391067 Si02
#       6
#     4   8   8   4   8   4
#     4  11  23  42  74 102 138 184 250 306 352 454
#     4  10  24  42  66  99 144 189 230 301 368 430
#     4  10  23  40  66  99 135 187 244 292 353 437
#     4  10  24  42  68 106 132 190 240 288 380 432
#     4  10  22  40  65 101 136 181 241 300 362 426
#     4  11  24  44  66  96 150 187 232 302 368 453
#
# _framework density 24.250888
#
# number of rings (size 3 to 8) (size 9 to 14) (size 15 to 20)
#    0.000    1.778    0.000    3.000   14.000    2.667 
#    0.000    0.000    0.000    2.667    0.000    0.000 
#    0.000    0.000    0.000    0.000    0.000    0.000 
#
# Total GULP energy -200754.661348 kJ/mol
# GULP energy per Si atom -5576.518371 kJ/mol
# Density = 2.419569 g / cm^3
# Si number density = 24.250888 Si / 1000 Ang^3
#
#
#
# Elastic Constant Matrix: (Units=GPa)
#
#
# Indices 1 2 3 4 5 6 
#
# 1 164.0519 51.0173 81.5130 0.0000 0.0000 0.0000
# 2 51.0173 103.6495 51.9813 0.0000 0.0000 0.0000
# 3 81.5130 51.9813 131.6836 0.0000 0.0000 0.0000
# 4 0.0000 0.0000 0.0000 8.3893 0.0000 0.0000
# 5 0.0000 0.0000 0.0000 0.0000 38.7037 0.0000
# 6 0.0000 0.0000 0.0000 0.0000 0.0000 42.0271
#
#
#
# Elastic Compliance Matrix: (Units=1/GPa)
#
#
# Indices 1 2 3 4 5 6 
#
# 1 0.009147 -0.002073 -0.004844 0.000000 0.000000 0.000000
# 2 -0.002073 0.012499 -0.003651 0.000000 0.000000 0.000000
# 3 -0.004844 -0.003651 0.012033 0.000000 0.000000 0.000000
# 4 0.000000 0.000000 0.000000 0.119200 0.000000 0.000000
# 5 0.000000 0.000000 0.000000 0.000000 0.025837 0.000000
# 6 0.000000 0.000000 0.000000 0.000000 0.000000 0.023794
#
#
# Mechanical properties :
#
#
# Convention : Reuss Voigt Hill
#
# Bulk Modulus (GPa) = 79.71625 85.37868 82.54746
# Shear Modulus (GPa) = 21.94642 32.14892 27.04767
#
# Velocity S-wave (km/s) = 3.01154 3.64494 3.34327
# Velocity P-wave (km/s) = 6.71084 7.27990 7.00115
#
# Compressibility (1/GPa) = 0.01254449
#
# Stress axis : x y z
#
# Youngs Moduli (GPa) = 109.32476 80.00536 83.10223
#
# Poissons Ratio (x) = 0.16586 0.40253
# Poissons Ratio (y) = 0.22664 0.30338
# Poissons Ratio (z) = 0.52954 0.29208
#
# Static dielectric constant tensor:
#      x y z
#    x 2.066870 0.000000 0.000000 
#    y 0.000000 1.954360 0.000000 
#    z 0.000000 0.000000 1.982720 
# 
# From -- ./inp_files/33254.got.cif
#   From: 2010.05.17/outbox.cif.g08.bks.cpg/sg48_17_cif.got.tgz:33254.got - 2010.06.03 20:39:00.
