data_PCOD9391762
_publ_section_title
;
Structure prediction by ZEFSAII (Michael W. Deem and Ramdas Pophale) SiO2 
 PCOD9391762
Probable space group: P N N N
;
_chemical_formula_sum "Si O2"
_cell_formula_units_Z 56
_cell_length_a 15.027431
_cell_length_b 10.894931
_cell_length_c 13.407097
_cell_angle_alpha 90.000000
_cell_angle_beta 90.000000
_cell_angle_gamma 90.000000
_cell_volume 2195.047781
_symmetry_space_group_name_H-M "P N N N"
_symmetry_group_IT_number 48
_space_group.IT_coordinate_system_code '2'
_symmetry_cell_setting 'orthorhombic'
loop_
_space_group_symop_operation_xyz
x,y,z
1/2-x,1/2-y,z
x,1/2-y,1/2-z
1/2-x,y,1/2-z
-x,-y,-z
1/2+x,1/2+y,-z
-x,1/2+y,1/2+z
1/2+x,-y,1/2+z
loop_
_atom_site_type_symbol
_atom_site_label
_atom_site_fract_x
_atom_site_fract_y
_atom_site_fract_z
Si Si1 0.676704 0.142962 0.496912
Si Si2 0.642773 0.562410 0.411378
Si Si3 0.371590 0.234011 0.071444
Si Si4 0.433212 0.799305 0.861649
Si Si5 0.161161 0.474991 0.311205
Si Si6 0.672081 0.601532 0.122936
Si Si7 0.002092 0.384557 0.769582
O O1 0.750000 0.250000 0.505944
O O2 0.591599 0.206677 0.449956
O O3 0.660965 0.070623 0.597699
O O4 0.692600 0.036041 0.416436
O O5 0.664153 0.604416 0.525112
O O6 0.623265 0.421573 0.383932
O O7 0.723743 0.627191 0.351811
O O8 0.545569 0.614258 0.379241
O O9 0.462647 0.191864 0.120907
O O10 0.335764 0.334381 0.150223
O O11 0.362764 0.317192 0.970433
O O12 0.413634 0.750000 0.750000
O O13 0.250000 0.497136 0.250000
O O14 0.070410 0.512521 0.253935
O O15 0.590270 0.599254 0.199907
O O16 0.963220 0.250000 0.750000
#
# Coordination Sequence:
#
# PCOD9391762 Si02
#       7
#     8   8   8   8   8   8   8
#     4  11  24  45  79 109 149 206 267 341 420 493
#     4  12  25  46  77 116 163 213 274 333 422 518
#     4  11  25  49  72 108 160 215 272 332 421 500
#     4  12  26  48  76 119 162 212 277 350 425 509
#     4  11  28  52  82 114 160 217 284 351 425 507
#     4  11  23  48  73 115 157 213 265 342 414 505
#     4  12  26  45  78 116 155 209 277 349 420 506
#
# _framework density 25.511973000000001
#
# number of rings (size 3 to 8) (size 9 to 14) (size 15 to 20)
#    0.000    0.571    2.857    4.714    2.000    3.143 
#   15.429    0.000    0.000    0.857    0.000    0.000 
#    0.000    0.000    0.000    0.000    0.000    0.000 
#
# Total GULP energy -312707.014529 kJ/mol
# GULP energy per Si atom -5584.053831 kJ/mol
# Density = 2.545391 g / cm^3
# Si number density = 25.511973 Si / 1000 Ang^3
#
#
#
# Elastic Constant Matrix: (Units=GPa)
#
#
# Indices 1 2 3 4 5 6 
#
# 1 140.8168 51.3051 66.0672 0.0000 0.0000 0.0000
# 2 51.3051 158.3533 63.4670 0.0000 0.0000 0.0000
# 3 66.0672 63.4670 103.5072 0.0000 0.0000 0.0000
# 4 0.0000 0.0000 0.0000 54.9036 0.0000 0.0000
# 5 0.0000 0.0000 0.0000 0.0000 26.8018 0.0000
# 6 0.0000 0.0000 0.0000 0.0000 0.0000 37.9484
#
#
#
# Elastic Compliance Matrix: (Units=1/GPa)
#
#
# Indices 1 2 3 4 5 6 
#
# 1 0.010238 -0.000925 -0.005968 0.000000 0.000000 0.000000
# 2 -0.000925 0.008456 -0.004594 0.000000 0.000000 0.000000
# 3 -0.005968 -0.004594 0.016287 0.000000 0.000000 0.000000
# 4 0.000000 0.000000 0.000000 0.018214 0.000000 0.000000
# 5 0.000000 0.000000 0.000000 0.000000 0.037311 0.000000
# 6 0.000000 0.000000 0.000000 0.000000 0.000000 0.026352
#
#
# Mechanical properties :
#
#
# Convention : Reuss Voigt Hill
#
# Bulk Modulus (GPa) = 83.28363 84.92845 84.10604
# Shear Modulus (GPa) = 34.76194 38.71996 36.74095
#
# Velocity S-wave (km/s) = 3.69531 3.90002 3.79904
# Velocity P-wave (km/s) = 7.13603 7.32407 7.23066
#
# Compressibility (1/GPa) = 0.01200716
#
# Stress axis : x y z
#
# Youngs Moduli (GPa) = 97.67132 118.25627 61.39731
#
# Poissons Ratio (x) = 0.10943 0.36640
# Poissons Ratio (y) = 0.09038 0.28208
# Poissons Ratio (z) = 0.58287 0.54332
#
# Static dielectric constant tensor:
#      x y z
#    x 2.103960 0.000000 0.000000 
#    y 0.000000 2.341450 0.000000 
#    z 0.000000 0.000000 2.029170 
# 
# From -- ./inp_files/27301.got.cif
#   From: 2010.05.17/outbox.cif.g08.bks.cpg/sg48_14_cif.got.tgz:27301.got - 2010.06.03 20:39:00.
