data_PCOD9391598
_publ_section_title
;
Structure prediction by ZEFSAII (Michael W. Deem and Ramdas Pophale) SiO2 
 PCOD9391598
Probable space group: P N N N
;
_chemical_formula_sum "Si O2"
_cell_formula_units_Z 64
_cell_length_a 11.696091
_cell_length_b 29.977261
_cell_length_c 9.128309
_cell_angle_alpha 90.000000
_cell_angle_beta 90.000000
_cell_angle_gamma 90.000000
_cell_volume 3200.538241
_symmetry_space_group_name_H-M "P N N N"
_symmetry_group_IT_number 48
_space_group.IT_coordinate_system_code '2'
_symmetry_cell_setting 'orthorhombic'
loop_
_space_group_symop_operation_xyz
x,y,z
1/2-x,1/2-y,z
x,1/2-y,1/2-z
1/2-x,y,1/2-z
-x,-y,-z
1/2+x,1/2+y,-z
-x,1/2+y,1/2+z
1/2+x,-y,1/2+z
loop_
_atom_site_type_symbol
_atom_site_label
_atom_site_fract_x
_atom_site_fract_y
_atom_site_fract_z
Si Si1 0.727987 0.665827 0.413205
Si Si2 0.840756 0.483362 0.626553
Si Si3 0.001385 0.437852 0.274413
Si Si4 0.060201 0.088234 0.545348
Si Si5 0.171270 0.001525 0.635377
Si Si6 0.381529 0.882629 0.282025
Si Si7 0.978932 0.649373 0.544567
Si Si8 0.127167 0.198669 0.298469
O O1 0.750000 0.684494 0.250000
O O2 0.667649 0.617634 0.405657
O O3 0.853914 0.658973 0.479035
O O4 0.642496 0.692595 0.525333
O O5 0.750000 0.495507 0.750000
O O6 0.937853 0.520052 0.648451
O O7 0.761774 0.487058 0.485333
O O8 0.880900 0.433169 0.654044
O O9 0.999596 0.399826 0.394030
O O10 0.885947 0.458446 0.207801
O O11 0.058301 0.414938 0.130891
O O12 0.954335 0.110843 0.631489
O O13 0.074652 0.036309 0.587613
O O14 0.250000 0.027083 0.750000
O O15 0.250000 0.870880 0.250000
O O16 0.437020 0.849427 0.402784
O O17 0.973672 0.677837 0.697764
O O18 0.128181 0.250000 0.250000
O O19 0.250000 0.178098 0.250000
#
# Coordination Sequence:
#
# PCOD9391598 Si02
#       8
#     8   8   8   8   8   8   8   8
#     4  11  21  38  66 101 129 162 207 250 315 387
#     4  11  22  37  54  76 114 163 213 267 312 358
#     4  12  23  37  56  82 118 167 217 258 317 369
#     4  12  22  38  58  85 122 164 212 270 311 374
#     4  12  25  36  52  79 117 161 218 268 313 361
#     4  11  24  40  57  83 125 166 214 267 308 358
#     4  11  23  38  64  91 127 166 205 254 323 383
#     4   9  20  41  67 100 135 158 188 250 318 399
#
# _framework density 19.996637
#
# number of rings (size 3 to 8) (size 9 to 14) (size 15 to 20)
#    0.000    0.875    5.000    3.750    1.750    1.000 
#    0.000    5.000    0.000    0.000    0.000    2.625 
#    0.000    0.000    0.000    0.000    0.000    0.000 
#
# Total GULP energy -356423.188507 kJ/mol
# GULP energy per Si atom -5569.112320 kJ/mol
# Density = 1.995112 g / cm^3
# Si number density = 19.996637 Si / 1000 Ang^3
#
#
#
# Elastic Constant Matrix: (Units=GPa)
#
#
# Indices 1 2 3 4 5 6 
#
# 1 59.8124 15.2663 47.0805 0.0000 0.0000 0.0000
# 2 15.2663 45.8794 28.7891 0.0000 0.0000 0.0000
# 3 47.0805 28.7891 111.8057 0.0000 0.0000 0.0000
# 4 0.0000 0.0000 0.0000 15.0485 0.0000 0.0000
# 5 0.0000 0.0000 0.0000 0.0000 28.2134 0.0000
# 6 0.0000 0.0000 0.0000 0.0000 0.0000 14.1329
#
#
#
# Elastic Compliance Matrix: (Units=1/GPa)
#
#
# Indices 1 2 3 4 5 6 
#
# 1 0.025170 -0.002057 -0.010069 0.000000 0.000000 0.000000
# 2 -0.002057 0.026165 -0.005871 0.000000 0.000000 0.000000
# 3 -0.010069 -0.005871 0.014696 0.000000 0.000000 0.000000
# 4 0.000000 0.000000 0.000000 0.066452 0.000000 0.000000
# 5 0.000000 0.000000 0.000000 0.000000 0.035444 0.000000
# 6 0.000000 0.000000 0.000000 0.000000 0.000000 0.070757
#
#
# Mechanical properties :
#
#
# Convention : Reuss Voigt Hill
#
# Bulk Modulus (GPa) = 33.29317 44.41883 38.85600
# Shear Modulus (GPa) = 17.56300 19.90307 18.73304
#
# Velocity S-wave (km/s) = 2.96682 3.15829 3.06405
# Velocity P-wave (km/s) = 5.33119 5.96332 5.65609
#
# Compressibility (1/GPa) = 0.03003619
#
# Stress axis : x y z
#
# Youngs Moduli (GPa) = 39.73027 38.21934 68.04618
#
# Poissons Ratio (x) = 0.07861 0.68517
# Poissons Ratio (y) = 0.08172 0.39951
# Poissons Ratio (z) = 0.40005 0.22439
#
# Static dielectric constant tensor:
#      x y z
#    x 1.647010 0.000000 0.000000 
#    y 0.000000 1.693210 0.000000 
#    z 0.000000 0.000000 1.638200 
# 
# From -- ./inp_files/11563.got.cif
#   From: 2010.05.17/outbox.cif.g08.bks.cpg/sg48_6_cif.got.tgz:11563.got - 2010.06.03 20:39:00.
