data_PCOD9391809
_publ_section_title
;
Structure prediction by ZEFSAII (Michael W. Deem and Ramdas Pophale) SiO2 
 PCOD9391809
Probable space group: P N N N
;
_chemical_formula_sum "Si O2"
_cell_formula_units_Z 48
_cell_length_a 14.495851
_cell_length_b 17.013987
_cell_length_c 9.924782
_cell_angle_alpha 90.000000
_cell_angle_beta 90.000000
_cell_angle_gamma 90.000000
_cell_volume 2447.771022
_symmetry_space_group_name_H-M "P N N N"
_symmetry_group_IT_number 48
_space_group.IT_coordinate_system_code '2'
_symmetry_cell_setting 'orthorhombic'
loop_
_space_group_symop_operation_xyz
x,y,z
1/2-x,1/2-y,z
x,1/2-y,1/2-z
1/2-x,y,1/2-z
-x,-y,-z
1/2+x,1/2+y,-z
-x,1/2+y,1/2+z
1/2+x,-y,1/2+z
loop_
_atom_site_type_symbol
_atom_site_label
_atom_site_fract_x
_atom_site_fract_y
_atom_site_fract_z
Si Si1 0.759209 0.030065 0.904188
Si Si2 0.083132 0.437678 0.985980
Si Si3 0.783677 0.159963 0.392442
Si Si4 0.435950 0.427867 0.041752
Si Si5 0.638478 0.656940 0.226465
Si Si6 0.492938 0.837826 0.800323
O O1 0.750000 0.053705 0.750000
O O2 0.843547 0.970188 0.908475
O O3 0.763150 0.108628 0.992688
O O4 0.673450 0.983862 0.968253
O O5 0.092603 0.399300 0.839169
O O6 0.000000 0.500000 0.000000
O O7 0.066116 0.367657 0.091293
O O8 0.750000 0.250000 0.402650
O O9 0.750000 0.126774 0.250000
O O10 0.894172 0.155757 0.376160
O O11 0.490514 0.387064 0.164203
O O12 0.500000 0.500000 0.000000
O O13 0.402573 0.371827 0.917863
O O14 0.618987 0.750000 0.250000
O O15 0.750000 0.647353 0.250000
O O16 0.504083 0.750000 0.750000
#
# Coordination Sequence:
#
# PCOD9391809 Si02
#       6
#     8   8   8   8   8   8
#     4  12  26  45  67 105 142 180 235 287 354 413
#     4  12  24  45  70  99 139 186 229 290 347 419
#     4  11  24  45  73 101 137 187 234 288 350 413
#     4  12  26  42  70 104 138 180 236 291 334 424
#     4  11  25  46  70 100 138 183 235 291 354 412
#     4  12  24  44  69 101 140 182 231 281 352 419
#
# _framework density 19.609677000000001
#
# number of rings (size 3 to 8) (size 9 to 14) (size 15 to 20)
#    0.000    0.333    6.667    3.000    2.333    0.333 
#    0.000    0.833    0.000    0.000    0.000    0.000 
#    0.000    0.000    0.000    0.000    0.000    0.000 
#
# Total GULP energy -268046.033241 kJ/mol
# GULP energy per Si atom -5584.292359 kJ/mol
# Density = 1.956504 g / cm^3
# Si number density = 19.609677 Si / 1000 Ang^3
#
#
#
# Elastic Constant Matrix: (Units=GPa)
#
#
# Indices 1 2 3 4 5 6 
#
# 1 48.8069 17.5991 -16.6852 0.0000 0.0000 0.0000
# 2 17.5991 92.8314 42.2649 0.0000 0.0000 0.0000
# 3 -16.6852 42.2649 119.2583 0.0000 0.0000 0.0000
# 4 0.0000 0.0000 0.0000 52.4161 0.0000 0.0000
# 5 0.0000 0.0000 0.0000 0.0000 20.0988 0.0000
# 6 0.0000 0.0000 0.0000 0.0000 0.0000 38.5307
#
#
#
# Elastic Compliance Matrix: (Units=1/GPa)
#
#
# Indices 1 2 3 4 5 6 
#
# 1 0.025399 -0.007671 0.006272 0.000000 0.000000 0.000000
# 2 -0.007671 0.015161 -0.006446 0.000000 0.000000 0.000000
# 3 0.006272 -0.006446 0.011547 0.000000 0.000000 0.000000
# 4 0.000000 0.000000 0.000000 0.019078 0.000000 0.000000
# 5 0.000000 0.000000 0.000000 0.000000 0.049754 0.000000
# 6 0.000000 0.000000 0.000000 0.000000 0.000000 0.025953
#
#
# Mechanical properties :
#
#
# Convention : Reuss Voigt Hill
#
# Bulk Modulus (GPa) = 27.45932 38.58378 33.02155
# Shear Modulus (GPa) = 28.61677 36.72363 32.67020
#
# Velocity S-wave (km/s) = 3.82425 4.33220 4.08612
# Velocity P-wave (km/s) = 5.79078 6.68899 6.25603
#
# Compressibility (1/GPa) = 0.03641750
#
# Stress axis : x y z
#
# Youngs Moduli (GPa) = 39.37158 65.95708 86.60080
#
# Poissons Ratio (x) = 0.50594 -0.54316
# Poissons Ratio (y) = 0.30201 0.55826
# Poissons Ratio (z) = -0.24694 0.42518
#
# Static dielectric constant tensor:
#      x y z
#    x 1.569400 0.000000 0.000000 
#    y 0.000000 1.684080 0.000000 
#    z 0.000000 0.000000 1.724810 
# 
# From -- ./inp_files/12776.got.cif
#   From: 2010.05.17/outbox.cif.g08.bks.cpg/sg48_7_cif.got.tgz:12776.got - 2010.06.03 20:39:00.
