data_PCOD9391657
_publ_section_title
;
Structure prediction by ZEFSAII (Michael W. Deem and Ramdas Pophale) SiO2 
 PCOD9391657
Probable space group: P N N N
;
_chemical_formula_sum "Si O2"
_cell_formula_units_Z 32
_cell_length_a 9.961596
_cell_length_b 16.874823
_cell_length_c 9.925379
_cell_angle_alpha 90.000000
_cell_angle_beta 90.000000
_cell_angle_gamma 90.000000
_cell_volume 1668.457890
_symmetry_space_group_name_H-M "P N N N"
_symmetry_group_IT_number 48
_space_group.IT_coordinate_system_code '2'
_symmetry_cell_setting 'orthorhombic'
loop_
_space_group_symop_operation_xyz
x,y,z
1/2-x,1/2-y,z
x,1/2-y,1/2-z
1/2-x,y,1/2-z
-x,-y,-z
1/2+x,1/2+y,-z
-x,1/2+y,1/2+z
1/2+x,-y,1/2+z
loop_
_atom_site_type_symbol
_atom_site_label
_atom_site_fract_x
_atom_site_fract_y
_atom_site_fract_z
Si Si1 0.627215 0.554292 0.981630
Si Si2 0.590201 0.735059 0.907943
Si Si3 0.469925 0.678008 0.340576
Si Si4 0.250000 0.393388 0.750000
Si Si5 0.750000 0.049884 0.750000
O O1 0.577775 0.642548 0.944483
O O2 0.707391 0.510368 0.866049
O O3 0.500000 0.500000 0.000000
O O4 0.714420 0.558185 0.116855
O O5 0.750000 0.750000 0.929844
O O6 0.561159 0.750000 0.750000
O O7 0.501200 0.789624 0.008323
O O8 0.417407 0.750000 0.250000
O O9 0.616821 0.656116 0.282596
O O10 0.368472 0.605599 0.311354
#
# Coordination Sequence:
#
# PCOD9391657 Si02
#       5
#     8   8   8   4   4
#     4  12  25  44  64 104 140 173 227 290 337 404
#     4  11  22  40  68  99 133 176 231 282 327 412
#     4  12  22  43  70 100 130 185 235 271 337 414
#     4  12  23  42  72  92 133 180 228 270 335 408
#     4  12  27  42  69 102 146 178 218 294 361 388
#
# _framework density 19.179387999999999
#
# number of rings (size 3 to 8) (size 9 to 14) (size 15 to 20)
#    0.000    0.250    7.500    2.250    0.000    3.000 
#    0.000    0.000    0.000    6.000    0.000    0.000 
#    0.000    0.000    0.000    0.000    0.000    0.000 
#
# Total GULP energy -178697.061406 kJ/mol
# GULP energy per Si atom -5584.283169 kJ/mol
# Density = 1.913573 g / cm^3
# Si number density = 19.179388 Si / 1000 Ang^3
#
#
#
# Elastic Constant Matrix: (Units=GPa)
#
#
# Indices 1 2 3 4 5 6 
#
# 1 74.4122 42.5676 45.5766 0.0000 0.0000 0.0000
# 2 42.5676 118.7884 71.5658 0.0000 0.0000 0.0000
# 3 45.5766 71.5658 196.4589 0.0000 0.0000 0.0000
# 4 0.0000 0.0000 0.0000 33.7409 0.0000 0.0000
# 5 0.0000 0.0000 0.0000 0.0000 24.4232 0.0000
# 6 0.0000 0.0000 0.0000 0.0000 0.0000 36.9882
#
#
#
# Elastic Compliance Matrix: (Units=1/GPa)
#
#
# Indices 1 2 3 4 5 6 
#
# 1 0.017678 -0.004951 -0.002298 0.000000 0.000000 0.000000
# 2 -0.004951 0.012172 -0.003285 0.000000 0.000000 0.000000
# 3 -0.002298 -0.003285 0.006820 0.000000 0.000000 0.000000
# 4 0.000000 0.000000 0.000000 0.029638 0.000000 0.000000
# 5 0.000000 0.000000 0.000000 0.000000 0.040945 0.000000
# 6 0.000000 0.000000 0.000000 0.000000 0.000000 0.027036
#
#
# Mechanical properties :
#
#
# Convention : Reuss Voigt Hill
#
# Bulk Modulus (GPa) = 64.09339 78.78660 71.43999
# Shear Modulus (GPa) = 31.14184 34.36044 32.75114
#
# Velocity S-wave (km/s) = 4.03390 4.23724 4.13682
# Velocity P-wave (km/s) = 7.42879 8.06888 7.75544
#
# Compressibility (1/GPa) = 0.01560223
#
# Stress axis : x y z
#
# Youngs Moduli (GPa) = 56.56759 82.15783 146.62811
#
# Poissons Ratio (x) = 0.40673 0.33691
# Poissons Ratio (y) = 0.28004 0.48173
# Poissons Ratio (z) = 0.12998 0.26992
#
# Static dielectric constant tensor:
#      x y z
#    x 1.626610 0.000000 0.000000 
#    y 0.000000 1.494840 0.000000 
#    z 0.000000 0.000000 1.669460 
# 
# From -- ./inp_files/10313.got.cif
#   From: 2010.05.17/outbox.cif.g08.bks.cpg/sg48_6_cif.got.tgz:10313.got - 2010.06.03 20:39:00.
