data_PCOD9391367
_publ_section_title
;
Structure prediction by ZEFSAII (Michael W. Deem and Ramdas Pophale) SiO2 
 PCOD9391367
Probable space group: P N N N
;
_chemical_formula_sum "Si O2"
_cell_formula_units_Z 40
_cell_length_a 8.281028
_cell_length_b 26.793778
_cell_length_c 8.520316
_cell_angle_alpha 90.000000
_cell_angle_beta 90.000000
_cell_angle_gamma 90.000000
_cell_volume 1890.487934
_symmetry_space_group_name_H-M "P N N N"
_symmetry_group_IT_number 48
_space_group.IT_coordinate_system_code '2'
_symmetry_cell_setting 'orthorhombic'
loop_
_space_group_symop_operation_xyz
x,y,z
1/2-x,1/2-y,z
x,1/2-y,1/2-z
1/2-x,y,1/2-z
-x,-y,-z
1/2+x,1/2+y,-z
-x,1/2+y,1/2+z
1/2+x,-y,1/2+z
loop_
_atom_site_type_symbol
_atom_site_label
_atom_site_fract_x
_atom_site_fract_y
_atom_site_fract_z
Si Si1 0.693669 0.193167 0.080959
Si Si2 0.250000 0.648660 0.250000
Si Si3 0.250000 0.477160 0.250000
Si Si4 0.994002 0.062144 0.685168
Si Si5 0.303454 0.194943 0.067833
Si Si6 0.799873 0.912613 0.017363
O O1 0.750000 0.250000 0.092212
O O2 0.750000 0.169586 0.250000
O O3 0.498582 0.190211 0.063821
O O4 0.775290 0.175909 0.916626
O O5 0.395335 0.612568 0.293755
O O6 0.374472 0.515958 0.328824
O O7 0.148892 0.439407 0.358487
O O8 0.097498 0.062743 0.844775
O O9 0.116778 0.069190 0.544164
O O10 0.250000 0.250000 0.007766
O O11 0.250000 0.192758 0.250000
O O12 0.214792 0.147479 0.986710
#
# Coordination Sequence:
#
# PCOD9391367 Si02
#       6
#     8   4   4   8   8   8
#     4  11  24  42  66  94 136 184 228 278 332 402
#     4  11  23  42  65  96 137 174 223 277 338 398
#     4  11  22  42  70  90 124 174 224 275 350 394
#     4  10  24  41  62  97 134 161 218 285 325 414
#     4  11  23  41  66  99 133 176 226 278 330 407
#     4  11  22  42  66  93 132 171 216 277 339 395
#
# _framework density 21.158557999999999
#
# number of rings (size 3 to 8) (size 9 to 14) (size 15 to 20)
#    0.000    1.200    3.000    3.900    5.600    0.000 
#    0.000    2.000    0.000    0.000    0.000    0.000 
#    0.000    0.000    0.000    0.000    0.000    0.000 
#
# Total GULP energy -222861.016712 kJ/mol
# GULP energy per Si atom -5571.525418 kJ/mol
# Density = 2.111040 g / cm^3
# Si number density = 21.158558 Si / 1000 Ang^3
#
#
#
# Elastic Constant Matrix: (Units=GPa)
#
#
# Indices 1 2 3 4 5 6 
#
# 1 44.3070 9.9359 -15.8396 0.0000 0.0000 0.0000
# 2 9.9359 117.3053 34.9291 0.0000 0.0000 0.0000
# 3 -15.8396 34.9291 81.9129 0.0000 0.0000 0.0000
# 4 0.0000 0.0000 0.0000 31.4796 0.0000 0.0000
# 5 0.0000 0.0000 0.0000 0.0000 13.0669 0.0000
# 6 0.0000 0.0000 0.0000 0.0000 0.0000 -224.0648
#
#
#
# Elastic Compliance Matrix: (Units=1/GPa)
#
#
# Indices 1 2 3 4 5 6 
#
# 1 0.025958 -0.004230 0.006823 0.000000 0.000000 0.000000
# 2 -0.004230 0.010454 -0.005276 0.000000 0.000000 0.000000
# 3 0.006823 -0.005276 0.015777 0.000000 0.000000 0.000000
# 4 0.000000 0.000000 0.000000 0.031767 0.000000 0.000000
# 5 0.000000 0.000000 0.000000 0.000000 0.076529 0.000000
# 6 0.000000 0.000000 0.000000 0.000000 0.000000 -0.004463
#
#
# Mechanical properties :
#
#
# Convention : Reuss Voigt Hill
#
# Bulk Modulus (GPa) = 21.35685 33.50845 27.43265
# Shear Modulus (GPa) = 28.24932 -21.60368 3.32282
#
# Velocity S-wave (km/s) = 3.65790 -3.19883 1.25453
# Velocity P-wave (km/s) = 5.28734 1.49259 3.88483
#
# Compressibility (1/GPa) = 0.04682339
#
# Stress axis : x y z
#
# Youngs Moduli (GPa) = 38.52409 95.65693 63.38249
#
# Poissons Ratio (x) = 0.40467 -0.43248
# Poissons Ratio (y) = 0.16297 0.33439
# Poissons Ratio (z) = -0.26287 0.50467
#
# Static dielectric constant tensor:
#      x y z
#    x 1.752100 0.000000 0.000000 
#    y 0.000000 1.747520 0.000000 
#    z 0.000000 0.000000 3.587580 
# 
# From -- ./inp_files/9078.got.cif
#   From: 2010.05.17/outbox.cif.g08.bks.cpg/sg48_5_cif.got.tgz:9078.got - 2010.06.03 20:39:00.
