data_PCOD9391796
_publ_section_title
;
Structure prediction by ZEFSAII (Michael W. Deem and Ramdas Pophale) SiO2 
 PCOD9391796
Probable space group: P N N N
;
_chemical_formula_sum "Si O2"
_cell_formula_units_Z 28
_cell_length_a 16.607448
_cell_length_b 8.794872
_cell_length_c 7.419904
_cell_angle_alpha 90.000000
_cell_angle_beta 90.000000
_cell_angle_gamma 90.000000
_cell_volume 1083.753993
_symmetry_space_group_name_H-M "P N N N"
_symmetry_group_IT_number 48
_space_group.IT_coordinate_system_code '2'
_symmetry_cell_setting 'orthorhombic'
loop_
_space_group_symop_operation_xyz
x,y,z
1/2-x,1/2-y,z
x,1/2-y,1/2-z
1/2-x,y,1/2-z
-x,-y,-z
1/2+x,1/2+y,-z
-x,1/2+y,1/2+z
1/2+x,-y,1/2+z
loop_
_atom_site_type_symbol
_atom_site_label
_atom_site_fract_x
_atom_site_fract_y
_atom_site_fract_z
Si Si1 0.548176 0.361236 0.886305
Si Si2 0.896354 0.250000 0.250000
Si Si3 0.123681 0.417803 0.803689
Si Si4 0.339052 0.427044 0.278541
O O1 0.594090 0.250000 0.750000
O O2 0.452174 0.727475 0.926545
O O3 0.465352 0.403044 0.785313
O O4 0.601886 0.510314 0.874739
O O5 0.848403 0.410508 0.250878
O O6 0.160078 0.250000 0.750000
O O7 0.126506 0.437258 0.019373
O O8 0.331682 0.250000 0.250000
O O9 0.250000 0.495513 0.250000
#
# Coordination Sequence:
#
# PCOD9391796 Si02
#       4
#     8   4   8   8
#     4  11  24  44  73 113 149 191 252 319 379 445
#     4  12  24  44  73 116 147 198 240 312 396 426
#     4  11  25  45  75 113 152 190 256 320 377 446
#     4  11  25  48  74 105 152 209 250 310 384 461
#
# _framework density 25.836122
#
# number of rings (size 3 to 8) (size 9 to 14) (size 15 to 20)
#    0.000    0.857    2.857    3.429    6.000    0.571 
#    0.000   11.429    0.000    0.000    0.000    0.000 
#    0.000    0.000    0.000    0.000    0.000    0.000 
#
# Total GULP energy -156142.984224 kJ/mol
# GULP energy per Si atom -5576.535151 kJ/mol
# Density = 2.577732 g / cm^3
# Si number density = 25.836122 Si / 1000 Ang^3
#
#
#
# Elastic Constant Matrix: (Units=GPa)
#
#
# Indices 1 2 3 4 5 6 
#
# 1 132.7061 23.2481 54.7579 0.0000 0.0000 0.0000
# 2 23.2481 197.2633 26.4801 0.0000 0.0000 0.0000
# 3 54.7579 26.4801 227.2646 0.0000 0.0000 0.0000
# 4 0.0000 0.0000 0.0000 40.2194 0.0000 0.0000
# 5 0.0000 0.0000 0.0000 0.0000 16.5052 0.0000
# 6 0.0000 0.0000 0.0000 0.0000 0.0000 230.1007
#
#
#
# Elastic Compliance Matrix: (Units=1/GPa)
#
#
# Indices 1 2 3 4 5 6 
#
# 1 0.008471 -0.000736 -0.001955 0.000000 0.000000 0.000000
# 2 -0.000736 0.005214 -0.000430 0.000000 0.000000 0.000000
# 3 -0.001955 -0.000430 0.004921 0.000000 0.000000 0.000000
# 4 0.000000 0.000000 0.000000 0.024864 0.000000 0.000000
# 5 0.000000 0.000000 0.000000 0.000000 0.060587 0.000000
# 6 0.000000 0.000000 0.000000 0.000000 0.000000 0.004346
#
#
# Mechanical properties :
#
#
# Convention : Reuss Voigt Hill
#
# Bulk Modulus (GPa) = 80.88245 85.13402 83.00823
# Shear Modulus (GPa) = 42.09929 87.54826 64.82378
#
# Velocity S-wave (km/s) = 4.04105 5.82748 5.01446
# Velocity P-wave (km/s) = 7.29023 8.84887 8.10709
#
# Compressibility (1/GPa) = 0.01236362
#
# Stress axis : x y z
#
# Youngs Moduli (GPa) = 118.04728 191.79721 203.19401
#
# Poissons Ratio (x) = 0.14114 0.39731
# Poissons Ratio (y) = 0.08687 0.08741
# Poissons Ratio (z) = 0.23082 0.08251
#
# Static dielectric constant tensor:
#      x y z
#    x 2.002300 0.000000 0.000000 
#    y 0.000000 2.256490 0.000000 
#    z 0.000000 0.000000 2.136320 
# 
# From -- ./inp_files/14710.got.cif
#   From: 2010.05.17/outbox.cif.g08.bks.cpg/sg48_8_cif.got.tgz:14710.got - 2010.06.03 20:39:00.
