data_PCOD9391143
_publ_section_title
;
Structure prediction by ZEFSAII (Michael W. Deem and Ramdas Pophale) SiO2 
 PCOD9391143
Probable space group: P N N N
;
_chemical_formula_sum "Si O2"
_cell_formula_units_Z 38
_cell_length_a 6.111490
_cell_length_b 13.916891
_cell_length_c 18.139043
_cell_angle_alpha 90.000000
_cell_angle_beta 90.000000
_cell_angle_gamma 90.000000
_cell_volume 1542.778939
_symmetry_space_group_name_H-M "P N N N"
_symmetry_group_IT_number 48
_space_group.IT_coordinate_system_code '2'
_symmetry_cell_setting 'orthorhombic'
loop_
_space_group_symop_operation_xyz
x,y,z
1/2-x,1/2-y,z
x,1/2-y,1/2-z
1/2-x,y,1/2-z
-x,-y,-z
1/2+x,1/2+y,-z
-x,1/2+y,1/2+z
1/2+x,-y,1/2+z
loop_
_atom_site_type_symbol
_atom_site_label
_atom_site_fract_x
_atom_site_fract_y
_atom_site_fract_z
Si Si1 0.250000 0.750000 0.250000
Si Si2 0.007698 0.096252 0.235991
Si Si3 0.570177 0.596969 0.311220
Si Si4 0.250000 0.750000 0.520959
Si Si5 0.951956 0.576745 0.566984
Si Si6 0.127809 0.149070 0.533683
O O1 0.393559 0.680502 0.301296
O O2 0.250000 0.146070 0.250000
O O3 0.750000 0.134724 0.250000
O O4 0.016632 0.054418 0.152454
O O5 0.019150 0.006460 0.290718
O O6 0.750000 0.620314 0.250000
O O7 0.668154 0.591659 0.392581
O O8 0.082544 0.679568 0.562225
O O9 0.376500 0.673452 0.472111
O O10 0.000000 0.500000 0.500000
O O11 0.705390 0.603576 0.542637
O O12 0.250000 0.250000 0.543721
#
# Coordination Sequence:
#
# PCOD9391143 Si02
#       6
#     2   8   8   4   8   8
#     4  12  20  32  60  90 142 192 232 294 384 448
#     4  11  26  46  70 104 145 187 249 301 370 448
#     4  11  22  37  59  97 143 184 237 297 372 451
#     4  10  25  44  71 103 143 184 252 310 381 450
#     4  11  25  45  75 105 142 195 248 310 381 453
#     4  10  22  42  69 101 141 185 243 307 377 454
#
# _framework density 24.630877000000002
#
# number of rings (size 3 to 8) (size 9 to 14) (size 15 to 20)
#    0.000    1.263    1.053    4.737    5.895    4.211 
#    0.000    0.526    0.000    0.000    0.000    0.000 
#    0.000    0.000    0.000    0.000    0.000    0.000 
#
# Total GULP energy -211719.329526 kJ/mol
# GULP energy per Si atom -5571.561303 kJ/mol
# Density = 2.457482 g / cm^3
# Si number density = 24.630877 Si / 1000 Ang^3
#
#
#
# Elastic Constant Matrix: (Units=GPa)
#
#
# Indices 1 2 3 4 5 6 
#
# 1 139.8703 14.0888 31.4530 0.0000 0.0000 0.0000
# 2 14.0888 84.2654 12.5781 0.0000 0.0000 0.0000
# 3 31.4530 12.5781 151.3934 0.0000 0.0000 0.0000
# 4 0.0000 0.0000 0.0000 14.9250 0.0000 0.0000
# 5 0.0000 0.0000 0.0000 0.0000 18.9514 0.0000
# 6 0.0000 0.0000 0.0000 0.0000 0.0000 -1.7697
#
#
#
# Elastic Compliance Matrix: (Units=1/GPa)
#
#
# Indices 1 2 3 4 5 6 
#
# 1 0.007590 -0.001047 -0.001490 0.000000 0.000000 0.000000
# 2 -0.001047 0.012161 -0.000793 0.000000 0.000000 0.000000
# 3 -0.001490 -0.000793 0.006981 0.000000 0.000000 0.000000
# 4 0.000000 0.000000 0.000000 0.067002 0.000000 0.000000
# 5 0.000000 0.000000 0.000000 0.000000 0.052766 0.000000
# 6 0.000000 0.000000 0.000000 0.000000 0.000000 -0.565069
#
#
# Mechanical properties :
#
#
# Convention : Reuss Voigt Hill
#
# Bulk Modulus (GPa) = 49.81950 54.64100 52.23025
# Shear Modulus (GPa) = -12.33899 27.58196 7.62149
#
# Velocity S-wave (km/s) = -2.24063 3.34999 1.76097
# Velocity P-wave (km/s) = 3.68462 6.09880 5.03844
#
# Compressibility (1/GPa) = 0.02007246
#
# Stress axis : x y z
#
# Youngs Moduli (GPa) = 131.75335 82.23268 143.25170
#
# Poissons Ratio (x) = 0.08607 0.21343
# Poissons Ratio (y) = 0.13789 0.11358
# Poissons Ratio (z) = 0.19630 0.06520
#
# Static dielectric constant tensor:
#      x y z
#    x 2.152890 0.000000 0.000000 
#    y 0.000000 1.947680 0.000000 
#    z 0.000000 0.000000 1.970010 
# 
# From -- ./inp_files/29313.got.cif
#   From: 2010.05.17/outbox.cif.g08.bks.cpg/sg48_15_cif.got.tgz:29313.got - 2010.06.03 20:39:00.
