data_PCOD9391529
_publ_section_title
;
Structure prediction by ZEFSAII (Michael W. Deem and Ramdas Pophale) SiO2 
 PCOD9391529
Probable space group: P N N N
;
_chemical_formula_sum "Si O2"
_cell_formula_units_Z 56
_cell_length_a 13.775411
_cell_length_b 11.893092
_cell_length_c 15.961124
_cell_angle_alpha 90.000000
_cell_angle_beta 90.000000
_cell_angle_gamma 90.000000
_cell_volume 2614.946544
_symmetry_space_group_name_H-M "P N N N"
_symmetry_group_IT_number 48
_space_group.IT_coordinate_system_code '2'
_symmetry_cell_setting 'orthorhombic'
loop_
_space_group_symop_operation_xyz
x,y,z
1/2-x,1/2-y,z
x,1/2-y,1/2-z
1/2-x,y,1/2-z
-x,-y,-z
1/2+x,1/2+y,-z
-x,1/2+y,1/2+z
1/2+x,-y,1/2+z
loop_
_atom_site_type_symbol
_atom_site_label
_atom_site_fract_x
_atom_site_fract_y
_atom_site_fract_z
Si Si1 0.029037 0.001351 0.359458
Si Si2 0.032905 0.353238 0.000015
Si Si3 0.452929 0.966171 0.673239
Si Si4 0.359873 0.708635 0.936297
Si Si5 0.160457 0.329909 0.589850
Si Si6 0.714595 0.367368 0.656065
Si Si7 0.356234 0.494915 0.056750
O O1 0.102416 0.897090 0.346874
O O2 0.958451 0.953061 0.431558
O O3 0.076873 0.104454 0.411310
O O4 0.985078 0.031627 0.270103
O O5 0.927272 0.308918 0.029865
O O6 0.080053 0.251769 0.949280
O O7 0.397069 0.851759 0.648705
O O8 0.387397 0.078009 0.652901
O O9 0.547479 0.969275 0.611217
O O10 0.250000 0.750000 0.927938
O O11 0.374392 0.605838 0.001195
O O12 0.250000 0.250000 0.618679
O O13 0.184424 0.403584 0.507744
O O14 0.750000 0.250000 0.616134
O O15 0.750000 0.361660 0.750000
O O16 0.771170 0.470582 0.617654
#
# Coordination Sequence:
#
# PCOD9391529 Si02
#       7
#     8   8   8   8   8   8   8
#     4  11  25  41  63  97 142 166 221 283 329 389
#     4  11  23  44  65  96 129 184 217 274 338 389
#     4  11  23  43  67 100 136 172 221 283 333 387
#     4  11  22  42  72  97 129 183 230 264 327 407
#     4  11  23  41  69  94 132 180 225 261 332 405
#     4  11  22  35  63 100 129 164 209 274 349 400
#     4  11  19  41  67  97 135 168 217 280 341 396
#
# _framework density 21.415351999999999
#
# number of rings (size 3 to 8) (size 9 to 14) (size 15 to 20)
#    0.000    1.000    4.286    3.857    0.000    4.571 
#    0.000    4.286    0.000    0.857    0.000    0.000 
#    0.000    0.000    0.000    0.000    0.000    0.000 
#
# Total GULP energy -312208.913844 kJ/mol
# GULP energy per Si atom -5575.159176 kJ/mol
# Density = 2.136661 g / cm^3
# Si number density = 21.415352 Si / 1000 Ang^3
#
#
#
# Elastic Constant Matrix: (Units=GPa)
#
#
# Indices 1 2 3 4 5 6 
#
# 1 89.6536 22.4341 30.6174 0.0000 0.0000 0.0000
# 2 22.4341 63.5394 19.7800 0.0000 0.0000 0.0000
# 3 30.6174 19.7800 126.3237 0.0000 0.0000 0.0000
# 4 0.0000 0.0000 0.0000 -11.8689 0.0000 0.0000
# 5 0.0000 0.0000 0.0000 0.0000 11.0911 0.0000
# 6 0.0000 0.0000 0.0000 0.0000 0.0000 61.0052
#
#
#
# Elastic Compliance Matrix: (Units=1/GPa)
#
#
# Indices 1 2 3 4 5 6 
#
# 1 0.012973 -0.003786 -0.002551 0.000000 0.000000 0.000000
# 2 -0.003786 0.017650 -0.001846 0.000000 0.000000 0.000000
# 3 -0.002551 -0.001846 0.008824 0.000000 0.000000 0.000000
# 4 0.000000 0.000000 0.000000 -0.084254 0.000000 0.000000
# 5 0.000000 0.000000 0.000000 0.000000 0.090162 0.000000
# 6 0.000000 0.000000 0.000000 0.000000 0.000000 0.016392
#
#
# Mechanical properties :
#
#
# Convention : Reuss Voigt Hill
#
# Bulk Modulus (GPa) = 43.32920 47.24219 45.28569
# Shear Modulus (GPa) = 58.27049 25.82449 42.04749
#
# Velocity S-wave (km/s) = 5.22195 3.47636 4.43587
# Velocity P-wave (km/s) = 7.52562 6.18233 6.88681
#
# Compressibility (1/GPa) = 0.02307913
#
# Stress axis : x y z
#
# Youngs Moduli (GPa) = 77.08455 56.65817 113.33229
#
# Poissons Ratio (x) = 0.21451 0.28916
# Poissons Ratio (y) = 0.29185 0.20921
# Poissons Ratio (z) = 0.19667 0.10459
#
# Static dielectric constant tensor:
#      x y z
#    x 1.826480 0.000000 0.000000 
#    y 0.000000 1.966490 0.000000 
#    z 0.000000 0.000000 1.797490 
# 
# From -- ./inp_files/27308.got.cif
#   From: 2010.05.17/outbox.cif.g08.bks.cpg/sg48_14_cif.got.tgz:27308.got - 2010.06.03 20:39:00.
