data_PCOD9391265
_publ_section_title
;
Structure prediction by ZEFSAII (Michael W. Deem and Ramdas Pophale) SiO2 
 PCOD9391265
Probable space group: P N N N
;
_chemical_formula_sum "Si O2"
_cell_formula_units_Z 30
_cell_length_a 20.570574
_cell_length_b 13.605675
_cell_length_c 5.139279
_cell_angle_alpha 90.000000
_cell_angle_beta 90.000000
_cell_angle_gamma 90.000000
_cell_volume 1438.363647
_symmetry_space_group_name_H-M "P N N N"
_symmetry_group_IT_number 48
_space_group.IT_coordinate_system_code '2'
_symmetry_cell_setting 'orthorhombic'
loop_
_space_group_symop_operation_xyz
x,y,z
1/2-x,1/2-y,z
x,1/2-y,1/2-z
1/2-x,y,1/2-z
-x,-y,-z
1/2+x,1/2+y,-z
-x,1/2+y,1/2+z
1/2+x,-y,1/2+z
loop_
_atom_site_type_symbol
_atom_site_label
_atom_site_fract_x
_atom_site_fract_y
_atom_site_fract_z
Si Si1 0.924184 0.524262 0.036629
Si Si2 0.250000 0.573362 0.250000
Si Si3 0.348512 0.089873 0.449470
Si Si4 0.643798 0.314830 0.500693
Si Si5 0.250000 0.250000 0.250000
O O1 0.892418 0.574781 0.293800
O O2 0.895387 0.415017 0.023771
O O3 0.897213 0.587906 0.795591
O O4 0.000000 0.500000 0.000000
O O5 0.198403 0.504471 0.398971
O O6 0.284401 0.644115 0.452458
O O7 0.298183 0.318928 0.077340
O O8 0.636441 0.250000 0.250000
O O9 0.624731 0.250000 0.750000
#
# Coordination Sequence:
#
# PCOD9391265 Si02
#       5
#     8   4   8   8   2
#     4  11  24  45  63  89 134 183 221 263 346 403
#     4   9  21  37  61  94 132 158 201 259 351 379
#     4  10  23  41  69  95 132 176 214 291 334 410
#     4  11  23  38  61  95 122 162 208 267 314 394
#     4  10  24  46  70 114 134 166 258 292 368 408
#
# _framework density 20.857035
#
# number of rings (size 3 to 8) (size 9 to 14) (size 15 to 20)
#    0.000    1.600    0.000    4.400    0.000   20.267 
#    7.200    0.000    0.000    0.000    0.000    0.000 
#    0.000    0.000    0.000    0.000    0.000    0.000 
#
# Total GULP energy -167503.621553 kJ/mol
# GULP energy per Si atom -5583.454052 kJ/mol
# Density = 2.080956 g / cm^3
# Si number density = 20.857035 Si / 1000 Ang^3
#
#
#
# Elastic Constant Matrix: (Units=GPa)
#
#
# Indices 1 2 3 4 5 6 
#
# 1 152.0111 44.1999 74.1250 0.0000 0.0000 0.0000
# 2 44.1999 110.4263 57.4209 0.0000 0.0000 0.0000
# 3 74.1250 57.4209 199.0659 0.0000 0.0000 0.0000
# 4 0.0000 0.0000 0.0000 -15.1626 0.0000 0.0000
# 5 0.0000 0.0000 0.0000 0.0000 21.5762 0.0000
# 6 0.0000 0.0000 0.0000 0.0000 0.0000 25.1602
#
#
#
# Elastic Compliance Matrix: (Units=1/GPa)
#
#
# Indices 1 2 3 4 5 6 
#
# 1 0.008413 -0.002045 -0.002543 0.000000 0.000000 0.000000
# 2 -0.002045 0.011151 -0.002455 0.000000 0.000000 0.000000
# 3 -0.002543 -0.002455 0.006678 0.000000 0.000000 0.000000
# 4 0.000000 0.000000 0.000000 -0.065952 0.000000 0.000000
# 5 0.000000 0.000000 0.000000 0.000000 0.046347 0.000000
# 6 0.000000 0.000000 0.000000 0.000000 0.000000 0.039745
#
#
# Mechanical properties :
#
#
# Convention : Reuss Voigt Hill
#
# Bulk Modulus (GPa) = 82.25994 90.33277 86.29635
# Shear Modulus (GPa) = 77.49306 25.36523 51.42915
#
# Velocity S-wave (km/s) = 6.10205 3.49111 4.97106
# Velocity P-wave (km/s) = 9.44311 7.72366 8.62633
#
# Compressibility (1/GPa) = 0.01215659
#
# Stress axis : x y z
#
# Youngs Moduli (GPa) = 118.86234 89.67788 149.73560
#
# Poissons Ratio (x) = 0.18341 0.38074
# Poissons Ratio (y) = 0.24310 0.36759
# Poissons Ratio (z) = 0.30224 0.22015
#
# Static dielectric constant tensor:
#      x y z
#    x 1.761720 0.000000 0.000000 
#    y 0.000000 1.725630 0.000000 
#    z 0.000000 0.000000 1.772330 
# 
# From -- ./inp_files/4890.got.cif
#   From: 2010.05.17/outbox.cif.g08.bks.cpg/sg48_3_cif.got.tgz:4890.got - 2010.06.03 20:39:00.
