data_PCOD9391436
_publ_section_title
;
Structure prediction by ZEFSAII (Michael W. Deem and Ramdas Pophale) SiO2 
 PCOD9391436
Probable space group: P N N N
;
_chemical_formula_sum "Si O2"
_cell_formula_units_Z 22
_cell_length_a 30.880923
_cell_length_b 6.143605
_cell_length_c 5.123844
_cell_angle_alpha 90.000000
_cell_angle_beta 90.000000
_cell_angle_gamma 90.000000
_cell_volume 972.096672
_symmetry_space_group_name_H-M "P N N N"
_symmetry_group_IT_number 48
_space_group.IT_coordinate_system_code '2'
_symmetry_cell_setting 'orthorhombic'
loop_
_space_group_symop_operation_xyz
x,y,z
1/2-x,1/2-y,z
x,1/2-y,1/2-z
1/2-x,y,1/2-z
-x,-y,-z
1/2+x,1/2+y,-z
-x,1/2+y,1/2+z
1/2+x,-y,1/2+z
loop_
_atom_site_type_symbol
_atom_site_label
_atom_site_fract_x
_atom_site_fract_y
_atom_site_fract_z
Si Si1 0.111237 0.250000 0.250000
Si Si2 0.333500 0.608814 0.509226
Si Si3 0.548420 0.403938 0.998363
Si Si4 0.750000 0.250000 0.250000
O O1 0.141691 0.390667 0.058876
O O2 0.081375 0.400158 0.435434
O O3 0.337103 0.750000 0.250000
O O4 0.282609 0.599800 0.583450
O O5 0.351918 0.750000 0.750000
O O6 0.553077 0.250000 0.750000
O O7 0.553934 0.250000 0.250000
O O8 0.500000 0.500000 0.000000
#
# Coordination Sequence:
#
# PCOD9391436 Si02
#       4
#     4   8   8   2
#     4  12  28  48  83 117 158 206 265 325 402 448
#     4  10  24  48  79 112 157 203 253 326 388 473
#     4  12  28  51  78 113 157 209 264 317 388 471
#     4   8  22  52  80 110 164 192 264 322 390 484
#
# _framework density 22.631492000000001
#
# number of rings (size 3 to 8) (size 9 to 14) (size 15 to 20)
#    1.091    0.000    1.818    2.727    0.000   10.182 
#    0.000    5.455    8.000    0.000    0.000    0.000 
#    0.000    0.000    0.000    0.000    0.000    0.000 
#
# Total GULP energy -123056.911255 kJ/mol
# GULP energy per Si atom -5593.495966 kJ/mol
# Density = 2.257998 g / cm^3
# Si number density = 22.631492 Si / 1000 Ang^3
#
#
#
# Elastic Constant Matrix: (Units=GPa)
#
#
# Indices 1 2 3 4 5 6 
#
# 1 221.6861 122.5834 74.3068 0.0000 0.0000 0.0000
# 2 122.5834 173.8713 103.3982 0.0000 0.0000 0.0000
# 3 74.3068 103.3982 220.4002 0.0000 0.0000 0.0000
# 4 0.0000 0.0000 0.0000 52.9337 0.0000 0.0000
# 5 0.0000 0.0000 0.0000 0.0000 121.6267 0.0000
# 6 0.0000 0.0000 0.0000 0.0000 0.0000 28.9884
#
#
#
# Elastic Compliance Matrix: (Units=1/GPa)
#
#
# Indices 1 2 3 4 5 6 
#
# 1 0.007394 -0.005174 -0.000066 0.000000 0.000000 0.000000
# 2 -0.005174 0.011597 -0.003696 0.000000 0.000000 0.000000
# 3 -0.000066 -0.003696 0.006293 0.000000 0.000000 0.000000
# 4 0.000000 0.000000 0.000000 0.018892 0.000000 0.000000
# 5 0.000000 0.000000 0.000000 0.000000 0.008222 0.000000
# 6 0.000000 0.000000 0.000000 0.000000 0.000000 0.034497
#
#
# Mechanical properties :
#
#
# Convention : Reuss Voigt Hill
#
# Bulk Modulus (GPa) = 134.89919 135.17047 135.03483
# Shear Modulus (GPa) = 46.62581 61.75436 54.19008
#
# Velocity S-wave (km/s) = 4.54389 5.22935 4.89863
# Velocity P-wave (km/s) = 9.34160 9.81417 9.58080
#
# Compressibility (1/GPa) = 0.00741294
#
# Stress axis : x y z
#
# Youngs Moduli (GPa) = 135.24942 86.22772 158.89643
#
# Poissons Ratio (x) = 0.44612 0.01041
# Poissons Ratio (y) = 0.69975 0.58734
# Poissons Ratio (z) = 0.00886 0.31873
#
# Static dielectric constant tensor:
#      x y z
#    x 1.701080 0.000000 0.000000 
#    y 0.000000 1.828050 0.000000 
#    z 0.000000 0.000000 1.807050 
# 
# From -- ./inp_files/6719.got.cif
#   From: 2010.05.17/outbox.cif.g08.bks.cpg/sg48_4_cif.got.tgz:6719.got - 2010.06.03 20:39:00.
