data_PCOD9391327
_publ_section_title
;
Structure prediction by ZEFSAII (Michael W. Deem and Ramdas Pophale) SiO2 
 PCOD9391327
Probable space group: P N N N
;
_chemical_formula_sum "Si O2"
_cell_formula_units_Z 52
_cell_length_a 14.275538
_cell_length_b 8.549445
_cell_length_c 19.873916
_cell_angle_alpha 90.000000
_cell_angle_beta 90.000000
_cell_angle_gamma 90.000000
_cell_volume 2425.570249
_symmetry_space_group_name_H-M "P N N N"
_symmetry_group_IT_number 48
_space_group.IT_coordinate_system_code '2'
_symmetry_cell_setting 'orthorhombic'
loop_
_space_group_symop_operation_xyz
x,y,z
1/2-x,1/2-y,z
x,1/2-y,1/2-z
1/2-x,y,1/2-z
-x,-y,-z
1/2+x,1/2+y,-z
-x,1/2+y,1/2+z
1/2+x,-y,1/2+z
loop_
_atom_site_type_symbol
_atom_site_label
_atom_site_fract_x
_atom_site_fract_y
_atom_site_fract_z
Si Si1 0.250000 0.750000 0.750000
Si Si2 0.853094 0.805551 0.647388
Si Si3 0.250000 0.750000 0.250000
Si Si4 0.130786 0.872330 0.546875
Si Si5 0.537583 0.413616 0.583956
Si Si6 0.610524 0.506901 0.784172
Si Si7 0.327402 0.921647 0.621914
Si Si8 0.937072 0.683061 0.315029
O O1 0.304462 0.860526 0.697454
O O2 0.750000 0.750000 0.626872
O O3 0.853582 0.900130 0.718413
O O4 0.899936 0.638264 0.659288
O O5 0.905167 0.929593 0.601953
O O6 0.316427 0.635277 0.206836
O O7 0.105643 0.830020 0.469857
O O8 0.233917 0.920840 0.574657
O O9 0.109985 0.716297 0.589915
O O10 0.061425 0.017222 0.558569
O O11 0.504464 0.301718 0.644209
O O12 0.508489 0.435393 0.778368
O O13 0.374374 0.088767 0.632066
O O14 0.882563 0.750000 0.250000
#
# Coordination Sequence:
#
# PCOD9391327 Si02
#       8
#     2   8   2   8   8   8   8   8
#     4   8  20  40  74  98 136 186 232 296 360 450
#     4  11  21  39  60  92 130 190 231 279 353 435
#     4  12  16  34  52  82 136 184 224 280 348 424
#     4   9  23  49  69  88 138 192 240 291 332 447
#     4  11  23  45  67  97 139 184 243 292 353 424
#     4  11  21  36  60  90 143 176 223 286 359 433
#     4  10  23  45  71 105 135 189 239 288 372 429
#     4  12  25  38  67 113 146 176 227 318 372 424
#
# _framework density 21.438258999999999
#
# number of rings (size 3 to 8) (size 9 to 14) (size 15 to 20)
#    0.000    1.538    3.846    1.385    4.308    2.462 
#   11.077    0.000    0.000    0.000    0.000    0.000 
#    0.000    0.000    0.000    0.000    0.000    0.000 
#
# Total GULP energy -289540.275329 kJ/mol
# GULP energy per Si atom -5568.082218 kJ/mol
# Density = 2.138946 g / cm^3
# Si number density = 21.438259 Si / 1000 Ang^3
#
#
#
# Elastic Constant Matrix: (Units=GPa)
#
#
# Indices 1 2 3 4 5 6 
#
# 1 81.7955 34.8565 31.1925 0.0000 0.0000 0.0000
# 2 34.8565 105.8592 41.8306 0.0000 0.0000 0.0000
# 3 31.1925 41.8306 103.7654 0.0000 0.0000 0.0000
# 4 0.0000 0.0000 0.0000 13.0414 0.0000 0.0000
# 5 0.0000 0.0000 0.0000 0.0000 14.9653 0.0000
# 6 0.0000 0.0000 0.0000 0.0000 0.0000 44.2495
#
#
#
# Elastic Compliance Matrix: (Units=1/GPa)
#
#
# Indices 1 2 3 4 5 6 
#
# 1 0.014961 -0.003746 -0.002987 0.000000 0.000000 0.000000
# 2 -0.003746 0.012174 -0.003782 0.000000 0.000000 0.000000
# 3 -0.002987 -0.003782 0.012060 0.000000 0.000000 0.000000
# 4 0.000000 0.000000 0.000000 0.076679 0.000000 0.000000
# 5 0.000000 0.000000 0.000000 0.000000 0.066821 0.000000
# 6 0.000000 0.000000 0.000000 0.000000 0.000000 0.022599
#
#
# Mechanical properties :
#
#
# Convention : Reuss Voigt Hill
#
# Bulk Modulus (GPa) = 55.05038 56.35324 55.70181
# Shear Modulus (GPa) = 21.51655 26.68726 24.10191
#
# Velocity S-wave (km/s) = 3.17148 3.53206 3.35662
# Velocity P-wave (km/s) = 6.25663 6.55571 6.40791
#
# Compressibility (1/GPa) = 0.01816518
#
# Stress axis : x y z
#
# Youngs Moduli (GPa) = 66.84012 82.14044 82.92098
#
# Poissons Ratio (x) = 0.30768 0.24771
# Poissons Ratio (y) = 0.25037 0.31359
# Poissons Ratio (z) = 0.19968 0.31064
#
# Static dielectric constant tensor:
#      x y z
#    x 1.833320 0.000000 0.000000 
#    y 0.000000 1.836160 0.000000 
#    z 0.000000 0.000000 1.885020 
# 
# From -- ./inp_files/34447.got.cif
#   From: 2010.05.17/outbox.cif.g08.bks.cpg/sg48_18_cif.got.tgz:34447.got - 2010.06.03 20:39:00.
