data_PCOD9391257
_publ_section_title
;
Structure prediction by ZEFSAII (Michael W. Deem and Ramdas Pophale) SiO2 
 PCOD9391257
Probable space group: P N N N
;
_chemical_formula_sum "Si O2"
_cell_formula_units_Z 32
_cell_length_a 36.719027
_cell_length_b 7.470754
_cell_length_c 5.193426
_cell_angle_alpha 90.000000
_cell_angle_beta 90.000000
_cell_angle_gamma 90.000000
_cell_volume 1424.654481
_symmetry_space_group_name_H-M "P N N N"
_symmetry_group_IT_number 48
_space_group.IT_coordinate_system_code '2'
_symmetry_cell_setting 'orthorhombic'
loop_
_space_group_symop_operation_xyz
x,y,z
1/2-x,1/2-y,z
x,1/2-y,1/2-z
1/2-x,y,1/2-z
-x,-y,-z
1/2+x,1/2+y,-z
-x,1/2+y,1/2+z
1/2+x,-y,1/2+z
loop_
_atom_site_type_symbol
_atom_site_label
_atom_site_fract_x
_atom_site_fract_y
_atom_site_fract_z
Si Si1 0.113371 0.547792 0.644495
Si Si2 0.964715 0.123938 0.002767
Si Si3 0.233537 0.951862 0.498815
Si Si4 0.845299 0.555150 0.863611
O O1 0.113789 0.750000 0.750000
O O2 0.072340 0.511316 0.548073
O O3 0.138023 0.538473 0.388907
O O4 0.127308 0.436001 0.892190
O O5 0.968253 0.250000 0.250000
O O6 0.961368 0.250000 0.750000
O O7 0.000000 0.000000 0.000000
O O8 0.250000 0.750000 0.499990
O O9 0.250000 0.041967 0.250000
O O10 0.190365 0.957121 0.474270
O O11 0.250000 0.039260 0.750000
O O12 0.835810 0.750000 0.750000
#
# Coordination Sequence:
#
# PCOD9391257 Si02
#       4
#     8   8   8   8
#     4  11  25  44  71 101 138 187 234 276 350 427
#     4  11  24  45  69 106 141 187 236 286 345 418
#     4  10  23  41  66  96 126 174 233 268 351 411
#     4  12  26  44  69 105 139 175 233 301 351 407
#
# _framework density 22.461587999999999
#
# number of rings (size 3 to 8) (size 9 to 14) (size 15 to 20)
#    0.000    1.000    0.000    6.750   10.500    3.500 
#    0.000    1.250    0.000    0.000    0.000    0.000 
#    0.000    0.000    0.000    0.000    0.000    0.000 
#
# Total GULP energy -178879.873178 kJ/mol
# GULP energy per Si atom -5589.996037 kJ/mol
# Density = 2.241046 g / cm^3
# Si number density = 22.461588 Si / 1000 Ang^3
#
#
#
# Elastic Constant Matrix: (Units=GPa)
#
#
# Indices 1 2 3 4 5 6 
#
# 1 191.2114 45.6727 79.8560 0.0000 0.0000 0.0000
# 2 45.6727 73.8937 25.0182 0.0000 0.0000 0.0000
# 3 79.8560 25.0182 230.5354 0.0000 0.0000 0.0000
# 4 0.0000 0.0000 0.0000 26.2495 0.0000 0.0000
# 5 0.0000 0.0000 0.0000 0.0000 45.1542 0.0000
# 6 0.0000 0.0000 0.0000 0.0000 0.0000 15.1829
#
#
#
# Elastic Compliance Matrix: (Units=1/GPa)
#
#
# Indices 1 2 3 4 5 6 
#
# 1 0.006930 -0.003603 -0.002009 0.000000 0.000000 0.000000
# 2 -0.003603 0.015922 -0.000480 0.000000 0.000000 0.000000
# 3 -0.002009 -0.000480 0.005086 0.000000 0.000000 0.000000
# 4 0.000000 0.000000 0.000000 0.038096 0.000000 0.000000
# 5 0.000000 0.000000 0.000000 0.000000 0.022146 0.000000
# 6 0.000000 0.000000 0.000000 0.000000 0.000000 0.065863
#
#
# Mechanical properties :
#
#
# Convention : Reuss Voigt Hill
#
# Bulk Modulus (GPa) = 63.47790 88.52604 76.00197
# Shear Modulus (GPa) = 29.15813 40.32356 34.74084
#
# Velocity S-wave (km/s) = 3.60687 4.24160 3.93705
# Velocity P-wave (km/s) = 6.75781 7.96781 7.38763
#
# Compressibility (1/GPa) = 0.01575351
#
# Stress axis : x y z
#
# Youngs Moduli (GPa) = 144.30968 62.80517 196.62402
#
# Poissons Ratio (x) = 0.22627 0.39509
# Poissons Ratio (y) = 0.51991 0.09437
# Poissons Ratio (z) = 0.28997 0.03014
#
# Static dielectric constant tensor:
#      x y z
#    x 1.868510 0.000000 0.000000 
#    y 0.000000 1.755480 0.000000 
#    z 0.000000 0.000000 1.838710 
# 
# From -- ./inp_files/6817.got.cif
#   From: 2010.05.17/outbox.cif.g08.bks.cpg/sg48_4_cif.got.tgz:6817.got - 2010.06.03 20:39:00.
