data_PCOD9391098
_publ_section_title
;
Structure prediction by ZEFSAII (Michael W. Deem and Ramdas Pophale) SiO2 
 PCOD9391098
Probable space group: P N N N
;
_chemical_formula_sum "Si O2"
_cell_formula_units_Z 64
_cell_length_a 29.941174
_cell_length_b 11.042021
_cell_length_c 9.239720
_cell_angle_alpha 90.000000
_cell_angle_beta 90.000000
_cell_angle_gamma 90.000000
_cell_volume 3054.753735
_symmetry_space_group_name_H-M "P N N N"
_symmetry_group_IT_number 48
_space_group.IT_coordinate_system_code '2'
_symmetry_cell_setting 'orthorhombic'
loop_
_space_group_symop_operation_xyz
x,y,z
1/2-x,1/2-y,z
x,1/2-y,1/2-z
1/2-x,y,1/2-z
-x,-y,-z
1/2+x,1/2+y,-z
-x,1/2+y,1/2+z
1/2+x,-y,1/2+z
loop_
_atom_site_type_symbol
_atom_site_label
_atom_site_fract_x
_atom_site_fract_y
_atom_site_fract_z
Si Si1 0.183197 0.503280 0.058664
Si Si2 0.361449 0.493288 0.968742
Si Si3 0.390152 0.393533 0.251888
Si Si4 0.371259 0.370960 0.690314
Si Si5 0.041446 0.669467 0.897304
Si Si6 0.629692 0.258557 0.577631
Si Si7 0.736972 0.609270 0.080493
Si Si8 0.952665 0.895740 0.482657
O O1 0.159411 0.437458 0.923918
O O2 0.234124 0.472069 0.030579
O O3 0.157727 0.444042 0.194306
O O4 0.168278 0.641813 0.058230
O O5 0.394127 0.441313 0.090729
O O6 0.354850 0.631916 0.010502
O O7 0.382393 0.467645 0.812992
O O8 0.314261 0.423071 0.954577
O O9 0.389480 0.250000 0.250000
O O10 0.428362 0.432128 0.365398
O O11 0.348555 0.250000 0.750000
O O12 0.414856 0.326645 0.606322
O O13 0.041419 0.750000 0.750000
O O14 0.995021 0.687300 0.984052
O O15 0.085361 0.701905 0.989946
O O16 0.039068 0.521017 0.894585
O O17 0.620286 0.250000 0.750000
O O18 0.750000 0.750000 0.056542
O O19 0.750000 0.581614 0.250000
#
# Coordination Sequence:
#
# PCOD9391098 Si02
#       8
#     8   8   8   8   8   8   8   8
#     4  11  23  43  64  94 139 182 212 290 346 386
#     4  12  24  39  70 104 126 192 231 269 346 418
#     4  11  21  40  65  95 136 176 224 280 347 408
#     4  11  21  39  65  97 131 171 224 275 345 405
#     4  11  22  40  69  96 130 179 230 283 340 415
#     4  12  25  47  66  93 141 183 234 279 342 419
#     4  11  23  42  67 103 141 169 229 290 336 402
#     4  10  22  41  62  98 136 174 222 286 350 404
#
# _framework density 20.950952000000001
#
# number of rings (size 3 to 8) (size 9 to 14) (size 15 to 20)
#    0.000    0.875    5.000    4.125    0.000    1.500 
#    0.000    2.500    0.000    6.750    0.000    0.000 
#    0.000    0.000    0.000    0.000    0.000    0.000 
#
# Total GULP energy -357272.738827 kJ/mol
# GULP energy per Si atom -5582.386544 kJ/mol
# Density = 2.090327 g / cm^3
# Si number density = 20.950952 Si / 1000 Ang^3
#
#
#
# Elastic Constant Matrix: (Units=GPa)
#
#
# Indices 1 2 3 4 5 6 
#
# 1 88.2812 12.9547 13.6589 0.0000 0.0000 0.0000
# 2 12.9547 120.8160 12.9089 0.0000 0.0000 0.0000
# 3 13.6589 12.9089 69.1265 0.0000 0.0000 0.0000
# 4 0.0000 0.0000 0.0000 36.0933 0.0000 0.0000
# 5 0.0000 0.0000 0.0000 0.0000 23.5508 0.0000
# 6 0.0000 0.0000 0.0000 0.0000 0.0000 18.4549
#
#
#
# Elastic Compliance Matrix: (Units=1/GPa)
#
#
# Indices 1 2 3 4 5 6 
#
# 1 0.011811 -0.001038 -0.002140 0.000000 0.000000 0.000000
# 2 -0.001038 0.008537 -0.001389 0.000000 0.000000 0.000000
# 3 -0.002140 -0.001389 0.015148 0.000000 0.000000 0.000000
# 4 0.000000 0.000000 0.000000 0.027706 0.000000 0.000000
# 5 0.000000 0.000000 0.000000 0.000000 0.042461 0.000000
# 6 0.000000 0.000000 0.000000 0.000000 0.000000 0.054186
#
#
# Mechanical properties :
#
#
# Convention : Reuss Voigt Hill
#
# Bulk Modulus (GPa) = 37.93289 39.69655 38.81472
# Shear Modulus (GPa) = 28.12611 31.53320 29.82966
#
# Velocity S-wave (km/s) = 3.66795 3.88377 3.77740
# Velocity P-wave (km/s) = 6.00695 6.25300 6.13121
#
# Compressibility (1/GPa) = 0.02636234
#
# Stress axis : x y z
#
# Youngs Moduli (GPa) = 84.66816 117.14052 66.01326
#
# Poissons Ratio (x) = 0.12157 0.14126
# Poissons Ratio (y) = 0.08787 0.09170
# Poissons Ratio (z) = 0.18118 0.16272
#
# Static dielectric constant tensor:
#      x y z
#    x 1.801160 0.000000 0.000000 
#    y 0.000000 1.748900 0.000000 
#    z 0.000000 0.000000 1.795280 
# 
# From -- ./inp_files/16934.got.cif
#   From: 2010.05.17/outbox.cif.g08.bks.cpg/sg48_9_cif.got.tgz:16934.got - 2010.06.03 20:39:00.
