data_PCOD9391571
_publ_section_title
;
Structure prediction by ZEFSAII (Michael W. Deem and Ramdas Pophale) SiO2 
 PCOD9391571
Probable space group: P N N N
;
_chemical_formula_sum "Si O2"
_cell_formula_units_Z 50
_cell_length_a 13.763228
_cell_length_b 9.136436
_cell_length_c 18.987927
_cell_angle_alpha 90.000000
_cell_angle_beta 90.000000
_cell_angle_gamma 90.000000
_cell_volume 2387.672042
_symmetry_space_group_name_H-M "P N N N"
_symmetry_group_IT_number 48
_space_group.IT_coordinate_system_code '2'
_symmetry_cell_setting 'orthorhombic'
loop_
_space_group_symop_operation_xyz
x,y,z
1/2-x,1/2-y,z
x,1/2-y,1/2-z
1/2-x,y,1/2-z
-x,-y,-z
1/2+x,1/2+y,-z
-x,1/2+y,1/2+z
1/2+x,-y,1/2+z
loop_
_atom_site_type_symbol
_atom_site_label
_atom_site_fract_x
_atom_site_fract_y
_atom_site_fract_z
Si Si1 0.829954 0.488120 0.461204
Si Si2 0.987855 0.263741 0.050584
Si Si3 0.148937 0.543871 0.860933
Si Si4 0.848989 0.316258 0.671952
Si Si5 0.822953 0.880578 0.887890
Si Si6 0.446824 0.237905 0.900240
Si Si7 0.750000 0.250000 0.250000
O O1 0.905760 0.355777 0.470159
O O2 0.738878 0.445807 0.414447
O O3 0.794170 0.546414 0.536824
O O4 0.886589 0.616224 0.419197
O O5 0.941405 0.380410 0.101599
O O6 0.071950 0.183266 0.093581
O O7 0.032002 0.325633 0.978363
O O8 0.116309 0.374902 0.853912
O O9 0.182230 0.640667 0.795055
O O10 0.750000 0.250000 0.638627
O O11 0.855058 0.250000 0.750000
O O12 0.833399 0.490490 0.668433
O O13 0.949411 0.275572 0.633744
O O14 0.750000 0.750000 0.869584
#
# Coordination Sequence:
#
# PCOD9391571 Si02
#       7
#     8   8   8   8   8   8   2
#     4  11  20  43  68 107 140 165 214 291 345 411
#     4  11  21  41  69 107 135 167 222 283 348 412
#     4  12  26  41  68  98 140 183 229 275 338 424
#     4  11  26  44  63  93 132 177 234 277 321 397
#     4  11  23  41  71 101 136 172 216 284 354 395
#     4  11  23  42  70 101 133 173 228 282 349 401
#     4  12  28  48  58 100 146 192 236 276 340 420
#
# _framework density 20.940899000000002
#
# number of rings (size 3 to 8) (size 9 to 14) (size 15 to 20)
#    0.000    0.800    4.800    3.840    4.480    2.560 
#    0.000    2.400    0.000    0.000    0.000    0.000 
#    0.000    0.000    0.000    0.000    0.000    0.000 
#
# Total GULP energy -279495.813903 kJ/mol
# GULP energy per Si atom -5589.916278 kJ/mol
# Density = 2.089324 g / cm^3
# Si number density = 20.940899 Si / 1000 Ang^3
#
#
#
# Elastic Constant Matrix: (Units=GPa)
#
#
# Indices 1 2 3 4 5 6 
#
# 1 58.4641 12.8079 19.1747 0.0000 0.0000 0.0000
# 2 12.8079 101.1641 37.4179 0.0000 0.0000 0.0000
# 3 19.1747 37.4179 56.7628 0.0000 0.0000 0.0000
# 4 0.0000 0.0000 0.0000 49.0933 0.0000 0.0000
# 5 0.0000 0.0000 0.0000 0.0000 18.9526 0.0000
# 6 0.0000 0.0000 0.0000 0.0000 0.0000 2.2429
#
#
#
# Elastic Compliance Matrix: (Units=1/GPa)
#
#
# Indices 1 2 3 4 5 6 
#
# 1 0.019236 -0.000042 -0.006470 0.000000 0.000000 0.000000
# 2 -0.000042 0.013072 -0.008603 0.000000 0.000000 0.000000
# 3 -0.006470 -0.008603 0.025474 0.000000 0.000000 0.000000
# 4 0.000000 0.000000 0.000000 0.020369 0.000000 0.000000
# 5 0.000000 0.000000 0.000000 0.000000 0.052763 0.000000
# 6 0.000000 0.000000 0.000000 0.000000 0.000000 0.445845
#
#
# Mechanical properties :
#
#
# Convention : Reuss Voigt Hill
#
# Bulk Modulus (GPa) = 36.29584 39.46578 37.88081
# Shear Modulus (GPa) = 8.11460 23.85713 15.98586
#
# Velocity S-wave (km/s) = 1.97064 3.37895 2.76593
# Velocity P-wave (km/s) = 4.74848 5.84040 5.32251
#
# Compressibility (1/GPa) = 0.02755137
#
# Stress axis : x y z
#
# Youngs Moduli (GPa) = 51.98641 76.49783 39.25602
#
# Poissons Ratio (x) = 0.00323 0.25399
# Poissons Ratio (y) = 0.00220 0.33772
# Poissons Ratio (z) = 0.33636 0.65810
#
# Static dielectric constant tensor:
#      x y z
#    x 1.728370 0.000000 0.000000 
#    y 0.000000 1.791410 0.000000 
#    z 0.000000 0.000000 1.762590 
# 
# From -- ./inp_files/31589.got.cif
#   From: 2010.05.17/outbox.cif.g08.bks.cpg/sg48_16_cif.got.tgz:31589.got - 2010.06.03 20:39:00.
