data_PCOD9391607
_publ_section_title
;
Structure prediction by ZEFSAII (Michael W. Deem and Ramdas Pophale) SiO2 
 PCOD9391607
Probable space group: P N N N
;
_chemical_formula_sum "Si O2"
_cell_formula_units_Z 58
_cell_length_a 25.043026
_cell_length_b 9.191158
_cell_length_c 12.037091
_cell_angle_alpha 90.000000
_cell_angle_beta 90.000000
_cell_angle_gamma 90.000000
_cell_volume 2770.630304
_symmetry_space_group_name_H-M "P N N N"
_symmetry_group_IT_number 48
_space_group.IT_coordinate_system_code '2'
_symmetry_cell_setting 'orthorhombic'
loop_
_space_group_symop_operation_xyz
x,y,z
1/2-x,1/2-y,z
x,1/2-y,1/2-z
1/2-x,y,1/2-z
-x,-y,-z
1/2+x,1/2+y,-z
-x,1/2+y,1/2+z
1/2+x,-y,1/2+z
loop_
_atom_site_type_symbol
_atom_site_label
_atom_site_fract_x
_atom_site_fract_y
_atom_site_fract_z
Si Si1 0.604061 0.164731 0.139026
Si Si2 0.903580 0.421810 0.739006
Si Si3 0.199764 0.093056 0.311439
Si Si4 0.509951 0.949238 0.124077
Si Si5 0.180960 0.085212 0.562118
Si Si6 0.561023 0.060251 0.490325
Si Si7 0.408896 0.216025 0.626047
Si Si8 0.250000 0.250000 0.750000
O O1 0.620458 0.250000 0.250000
O O2 0.558044 0.047942 0.169650
O O3 0.653058 0.070962 0.088191
O O4 0.574851 0.278789 0.055496
O O5 0.895209 0.250000 0.750000
O O6 0.854360 0.506894 0.790432
O O7 0.912952 0.457017 0.610665
O O8 0.957482 0.461677 0.804106
O O9 0.194082 0.250000 0.250000
O O10 0.250000 0.020951 0.250000
O O11 0.210242 0.093936 0.443686
O O12 0.532050 0.785094 0.120472
O O13 0.500000 0.000000 0.000000
O O14 0.130403 0.193892 0.548142
O O15 0.216077 0.146947 0.664927
O O16 0.500000 0.000000 0.500000
O O17 0.589873 0.949349 0.406791
O O18 0.390234 0.250000 0.750000
#
# Coordination Sequence:
#
# PCOD9391607 Si02
#       8
#     8   8   8   8   8   8   8   2
#     4  11  24  42  64 100 147 182 223 288 357 414
#     4  12  24  41  65  96 134 179 227 271 333 411
#     4  11  25  47  69  97 131 173 227 291 351 411
#     4  11  22  38  61  93 139 185 225 273 333 410
#     4  11  24  45  72  99 132 176 234 299 359 426
#     4  12  23  37  64 101 140 185 229 271 333 426
#     4  11  21  39  63  94 131 177 220 278 340 406
#     4  12  24  44  80 100 124 176 250 294 370 424
#
# _framework density 20.933865000000001
#
# number of rings (size 3 to 8) (size 9 to 14) (size 15 to 20)
#    0.000    0.690    0.690   10.345    0.000    1.931 
#    0.000    0.345    0.000    0.000    0.000    0.000 
#    0.000    0.000    0.000    0.000    0.000    0.000 
#
# Total GULP energy -324233.529503 kJ/mol
# GULP energy per Si atom -5590.233267 kJ/mol
# Density = 2.088622 g / cm^3
# Si number density = 20.933865 Si / 1000 Ang^3
#
#
#
# Elastic Constant Matrix: (Units=GPa)
#
#
# Indices 1 2 3 4 5 6 
#
# 1 93.4229 31.9698 51.0638 0.0000 0.0000 0.0000
# 2 31.9698 111.6407 47.5443 0.0000 0.0000 0.0000
# 3 51.0638 47.5443 160.4413 0.0000 0.0000 0.0000
# 4 0.0000 0.0000 0.0000 36.1815 0.0000 0.0000
# 5 0.0000 0.0000 0.0000 0.0000 27.6500 0.0000
# 6 0.0000 0.0000 0.0000 0.0000 0.0000 24.7579
#
#
#
# Elastic Compliance Matrix: (Units=1/GPa)
#
#
# Indices 1 2 3 4 5 6 
#
# 1 0.013465 -0.002324 -0.003597 0.000000 0.000000 0.000000
# 2 -0.002324 0.010652 -0.002417 0.000000 0.000000 0.000000
# 3 -0.003597 -0.002417 0.008094 0.000000 0.000000 0.000000
# 4 0.000000 0.000000 0.000000 0.027638 0.000000 0.000000
# 5 0.000000 0.000000 0.000000 0.000000 0.036166 0.000000
# 6 0.000000 0.000000 0.000000 0.000000 0.000000 0.040391
#
#
# Mechanical properties :
#
#
# Convention : Reuss Voigt Hill
#
# Bulk Modulus (GPa) = 64.36914 69.62899 66.99906
# Shear Modulus (GPa) = 31.59326 33.37969 32.48647
#
# Velocity S-wave (km/s) = 3.88905 3.99749 3.94364
# Velocity P-wave (km/s) = 7.14016 7.39190 7.26712
#
# Compressibility (1/GPa) = 0.01553539
#
# Stress axis : x y z
#
# Youngs Moduli (GPa) = 74.26447 93.87780 123.55126
#
# Poissons Ratio (x) = 0.21819 0.44440
# Poissons Ratio (y) = 0.17260 0.29861
# Poissons Ratio (z) = 0.26712 0.22689
#
# Static dielectric constant tensor:
#      x y z
#    x 1.784620 0.000000 0.000000 
#    y 0.000000 1.762060 0.000000 
#    z 0.000000 0.000000 7.362010 
# 
# From -- ./inp_files/23657.got.cif
#   From: 2010.05.17/outbox.cif.g08.bks.cpg/sg48_12_cif.got.tgz:23657.got - 2010.06.03 20:39:00.
