data_PCOD9391751
_publ_section_title
;
Structure prediction by ZEFSAII (Michael W. Deem and Ramdas Pophale) SiO2 
 PCOD9391751
Probable space group: P N N N
;
_chemical_formula_sum "Si O2"
_cell_formula_units_Z 32
_cell_length_a 15.456797
_cell_length_b 8.665795
_cell_length_c 11.173953
_cell_angle_alpha 90.000000
_cell_angle_beta 90.000000
_cell_angle_gamma 90.000000
_cell_volume 1496.699986
_symmetry_space_group_name_H-M "P N N N"
_symmetry_group_IT_number 48
_space_group.IT_coordinate_system_code '2'
_symmetry_cell_setting 'orthorhombic'
loop_
_space_group_symop_operation_xyz
x,y,z
1/2-x,1/2-y,z
x,1/2-y,1/2-z
1/2-x,y,1/2-z
-x,-y,-z
1/2+x,1/2+y,-z
-x,1/2+y,1/2+z
1/2+x,-y,1/2+z
loop_
_atom_site_type_symbol
_atom_site_label
_atom_site_fract_x
_atom_site_fract_y
_atom_site_fract_z
Si Si1 0.680246 0.140153 0.497926
Si Si2 0.750000 0.503991 0.250000
Si Si3 0.001435 0.814726 0.489986
Si Si4 0.096823 0.250000 0.750000
Si Si5 0.162966 0.314451 0.383600
O O1 0.750000 0.250000 0.559541
O O2 0.592858 0.237309 0.478723
O O3 0.724448 0.086356 0.371982
O O4 0.662429 0.993870 0.582670
O O5 0.836227 0.608054 0.233089
O O6 0.966942 0.753480 0.362464
O O7 0.926525 0.754252 0.574460
O O8 0.000000 0.000000 0.500000
O O9 0.250000 0.250000 0.448072
O O10 0.168697 0.250000 0.250000
#
# Coordination Sequence:
#
# PCOD9391751 Si02
#       5
#     8   4   8   4   8
#     4  12  26  47  73 113 149 200 262 319 385 461
#     4  11  23  44  78 108 150 204 258 322 374 452
#     4  12  27  45  73 111 153 199 259 316 388 459
#     4  11  24  44  75 108 154 198 259 322 377 452
#     4  11  25  47  71 102 148 196 245 313 385 460
#
# _framework density 21.380369999999999
#
# number of rings (size 3 to 8) (size 9 to 14) (size 15 to 20)
#    0.000    0.500    2.500    5.625    3.500    2.000 
#    0.000    0.000    0.000    0.000    0.000    0.000 
#    0.000    0.000    0.000    0.000    0.000    0.000 
#
# Total GULP energy -178678.582758 kJ/mol
# GULP energy per Si atom -5583.705711 kJ/mol
# Density = 2.133171 g / cm^3
# Si number density = 21.380370 Si / 1000 Ang^3
#
#
#
# Elastic Constant Matrix: (Units=GPa)
#
#
# Indices 1 2 3 4 5 6 
#
# 1 194.2374 95.0289 45.4729 0.0000 0.0000 0.0000
# 2 95.0289 188.3217 48.3982 0.0000 0.0000 0.0000
# 3 45.4729 48.3982 123.5302 0.0000 0.0000 0.0000
# 4 0.0000 0.0000 0.0000 18.5631 0.0000 0.0000
# 5 0.0000 0.0000 0.0000 0.0000 25.4697 0.0000
# 6 0.0000 0.0000 0.0000 0.0000 0.0000 51.6404
#
#
#
# Elastic Compliance Matrix: (Units=1/GPa)
#
#
# Indices 1 2 3 4 5 6 
#
# 1 0.007028 -0.003204 -0.001332 0.000000 0.000000 0.000000
# 2 -0.003204 0.007365 -0.001706 0.000000 0.000000 0.000000
# 3 -0.001332 -0.001706 0.009254 0.000000 0.000000 0.000000
# 4 0.000000 0.000000 0.000000 0.053870 0.000000 0.000000
# 5 0.000000 0.000000 0.000000 0.000000 0.039262 0.000000
# 6 0.000000 0.000000 0.000000 0.000000 0.000000 0.019365
#
#
# Mechanical properties :
#
#
# Convention : Reuss Voigt Hill
#
# Bulk Modulus (GPa) = 89.58125 98.20993 93.89559
# Shear Modulus (GPa) = 32.81940 40.28058 36.54999
#
# Velocity S-wave (km/s) = 3.92219 4.34521 4.13911
# Velocity P-wave (km/s) = 7.90577 8.43853 8.17649
#
# Compressibility (1/GPa) = 0.01116305
#
# Stress axis : x y z
#
# Youngs Moduli (GPa) = 142.29596 135.77144 108.06270
#
# Poissons Ratio (x) = 0.43501 0.14390
# Poissons Ratio (y) = 0.45591 0.18438
# Poissons Ratio (z) = 0.18949 0.23166
#
# Static dielectric constant tensor:
#      x y z
#    x 1.736880 0.000000 0.000000 
#    y 0.000000 1.732380 0.000000 
#    z 0.000000 0.000000 1.756300 
# 
# From -- ./inp_files/10286.got.cif
#   From: 2010.05.17/outbox.cif.g08.bks.cpg/sg48_6_cif.got.tgz:10286.got - 2010.06.03 20:39:00.
