data_PCOD9391643
_publ_section_title
;
Structure prediction by ZEFSAII (Michael W. Deem and Ramdas Pophale) SiO2 
 PCOD9391643
Probable space group: P N N N
;
_chemical_formula_sum "Si O2"
_cell_formula_units_Z 56
_cell_length_a 14.589772
_cell_length_b 18.092180
_cell_length_c 9.717507
_cell_angle_alpha 90.000000
_cell_angle_beta 90.000000
_cell_angle_gamma 90.000000
_cell_volume 2565.040739
_symmetry_space_group_name_H-M "P N N N"
_symmetry_group_IT_number 48
_space_group.IT_coordinate_system_code '2'
_symmetry_cell_setting 'orthorhombic'
loop_
_space_group_symop_operation_xyz
x,y,z
1/2-x,1/2-y,z
x,1/2-y,1/2-z
1/2-x,y,1/2-z
-x,-y,-z
1/2+x,1/2+y,-z
-x,1/2+y,1/2+z
1/2+x,-y,1/2+z
loop_
_atom_site_type_symbol
_atom_site_label
_atom_site_fract_x
_atom_site_fract_y
_atom_site_fract_z
Si Si1 0.750000 0.506271 0.250000
Si Si2 0.951365 0.086831 0.706301
Si Si3 0.494222 0.696177 0.533121
Si Si4 0.510116 0.131534 0.480546
Si Si5 0.186857 0.434447 0.482865
Si Si6 0.698250 0.815815 0.896405
Si Si7 0.071914 0.560295 0.793377
Si Si8 0.750000 0.454005 0.750000
O O1 0.815389 0.546876 0.357215
O O2 0.825176 0.461526 0.165973
O O3 0.993469 0.152989 0.613166
O O4 0.840244 0.085992 0.687851
O O5 0.970596 0.103579 0.866127
O O6 0.000165 0.006886 0.674657
O O7 0.464290 0.781631 0.526032
O O8 0.593435 0.701005 0.604260
O O9 0.445057 0.636912 0.629102
O O10 0.402270 0.114847 0.449377
O O11 0.562689 0.082400 0.367668
O O12 0.282076 0.390622 0.472428
O O13 0.201126 0.497364 0.369602
O O14 0.750000 0.750000 0.972820
O O15 0.750000 0.823545 0.750000
#
# Coordination Sequence:
#
# PCOD9391643 Si02
#       8
#     4   8   8   8   8   8   8   4
#     4  12  26  42  70 102 140 178 240 284 354 418
#     4  12  25  47  71 105 143 188 237 295 358 419
#     4  12  26  44  68 106 146 184 233 299 353 421
#     4  12  25  46  70 101 143 186 230 289 365 413
#     4  12  22  43  65 104 133 178 227 292 346 417
#     4  11  22  37  65  99 135 178 226 278 349 428
#     4  12  24  46  71 101 138 192 239 287 345 427
#     4  12  24  44  78 100 132 186 254 284 340 426
#
# _framework density 21.832014000000001
#
# number of rings (size 3 to 8) (size 9 to 14) (size 15 to 20)
#    0.000    0.143    5.000    6.000    2.000    0.000 
#    0.000    4.643    0.000    0.000    0.000    0.000 
#    0.000    0.000    0.000    0.000    0.000    0.000 
#
# Total GULP energy -312491.600330 kJ/mol
# GULP energy per Si atom -5580.207149 kJ/mol
# Density = 2.178232 g / cm^3
# Si number density = 21.832014 Si / 1000 Ang^3
#
#
#
# Elastic Constant Matrix: (Units=GPa)
#
#
# Indices 1 2 3 4 5 6 
#
# 1 89.1866 21.9900 -11.2467 0.0000 0.0000 0.0000
# 2 21.9900 104.0338 12.8345 0.0000 0.0000 0.0000
# 3 -11.2467 12.8345 94.3841 0.0000 0.0000 0.0000
# 4 0.0000 0.0000 0.0000 12.8072 0.0000 0.0000
# 5 0.0000 0.0000 0.0000 0.0000 21.8354 0.0000
# 6 0.0000 0.0000 0.0000 0.0000 0.0000 32.4026
#
#
#
# Elastic Compliance Matrix: (Units=1/GPa)
#
#
# Indices 1 2 3 4 5 6 
#
# 1 0.012130 -0.002789 0.001825 0.000000 0.000000 0.000000
# 2 -0.002789 0.010418 -0.001749 0.000000 0.000000 0.000000
# 3 0.001825 -0.001749 0.011050 0.000000 0.000000 0.000000
# 4 0.000000 0.000000 0.000000 0.078081 0.000000 0.000000
# 5 0.000000 0.000000 0.000000 0.000000 0.045797 0.000000
# 6 0.000000 0.000000 0.000000 0.000000 0.000000 0.030862
#
#
# Mechanical properties :
#
#
# Convention : Reuss Voigt Hill
#
# Bulk Modulus (GPa) = 35.49712 37.19559 36.34636
# Shear Modulus (GPa) = 24.61173 31.01082 27.81127
#
# Velocity S-wave (km/s) = 3.36121 3.77295 3.57301
# Velocity P-wave (km/s) = 5.59983 6.00453 5.80571
#
# Compressibility (1/GPa) = 0.02817130
#
# Stress axis : x y z
#
# Youngs Moduli (GPa) = 82.43867 95.99169 90.49561
#
# Poissons Ratio (x) = 0.26773 -0.16513
# Poissons Ratio (y) = 0.22993 0.15827
# Poissons Ratio (z) = -0.15042 0.16788
#
# Static dielectric constant tensor:
#      x y z
#    x 1.814820 0.000000 0.000000 
#    y 0.000000 1.913060 0.000000 
#    z 0.000000 0.000000 3.250200 
# 
# From -- ./inp_files/13138.got.cif
#   From: 2010.05.17/outbox.cif.g08.bks.cpg/sg48_7_cif.got.tgz:13138.got - 2010.06.03 20:39:00.
