data_PCOD9391278
_publ_section_title
;
Structure prediction by ZEFSAII (Michael W. Deem and Ramdas Pophale) SiO2 
 PCOD9391278
Probable space group: P N N N
;
_chemical_formula_sum "Si O2"
_cell_formula_units_Z 36
_cell_length_a 11.399390
_cell_length_b 12.571402
_cell_length_c 11.697087
_cell_angle_alpha 90.000000
_cell_angle_beta 90.000000
_cell_angle_gamma 90.000000
_cell_volume 1676.266425
_symmetry_space_group_name_H-M "P N N N"
_symmetry_group_IT_number 48
_space_group.IT_coordinate_system_code '2'
_symmetry_cell_setting 'orthorhombic'
loop_
_space_group_symop_operation_xyz
x,y,z
1/2-x,1/2-y,z
x,1/2-y,1/2-z
1/2-x,y,1/2-z
-x,-y,-z
1/2+x,1/2+y,-z
-x,1/2+y,1/2+z
1/2+x,-y,1/2+z
loop_
_atom_site_type_symbol
_atom_site_label
_atom_site_fract_x
_atom_site_fract_y
_atom_site_fract_z
Si Si1 0.750000 0.250000 0.018240
Si Si2 0.420056 0.848500 0.165392
Si Si3 0.120694 0.203340 0.527922
Si Si4 0.531166 0.111606 0.434796
Si Si5 0.378508 0.087526 0.213644
O O1 0.662940 0.178563 0.941528
O O2 0.662670 0.338555 0.074536
O O3 0.405599 0.750000 0.250000
O O4 0.380326 0.960225 0.214304
O O5 0.556867 0.858692 0.129973
O O6 0.250000 0.250000 0.544629
O O7 0.106128 0.133513 0.413233
O O8 0.039519 0.305684 0.512256
O O9 0.473007 0.118050 0.309308
O O10 0.500000 0.000000 0.500000
O O11 0.250000 0.125661 0.250000
#
# Coordination Sequence:
#
# PCOD9391278 Si02
#       5
#     4   8   8   8   8
#     4  10  23  42  67 100 142 176 232 296 352 430
#     4  11  23  43  68 100 136 183 237 292 355 437
#     4  11  24  42  67  98 140 177 238 291 358 429
#     4  11  23  42  69 100 137 184 234 295 356 428
#     4  12  22  40  72 101 135 189 240 286 366 433
#
# _framework density 21.476300999999999
#
# number of rings (size 3 to 8) (size 9 to 14) (size 15 to 20)
#    0.000    0.889    2.222    7.000    0.000    0.444 
#    0.000    8.889    0.000    0.000    0.000    0.000 
#    0.000    0.000    0.000    0.000    0.000    0.000 
#
# Total GULP energy -200887.706230 kJ/mol
# GULP energy per Si atom -5580.214062 kJ/mol
# Density = 2.142742 g / cm^3
# Si number density = 21.476301 Si / 1000 Ang^3
#
#
#
# Elastic Constant Matrix: (Units=GPa)
#
#
# Indices 1 2 3 4 5 6 
#
# 1 174.6196 40.5197 49.6289 0.0000 0.0000 0.0000
# 2 40.5197 101.6636 22.8728 0.0000 0.0000 0.0000
# 3 49.6289 22.8728 38.1602 0.0000 0.0000 0.0000
# 4 0.0000 0.0000 0.0000 18.9507 0.0000 0.0000
# 5 0.0000 0.0000 0.0000 0.0000 36.9793 0.0000
# 6 0.0000 0.0000 0.0000 0.0000 0.0000 26.1427
#
#
#
# Elastic Compliance Matrix: (Units=1/GPa)
#
#
# Indices 1 2 3 4 5 6 
#
# 1 0.009195 -0.001126 -0.011283 0.000000 0.000000 0.000000
# 2 -0.001126 0.011508 -0.005433 0.000000 0.000000 0.000000
# 3 -0.011283 -0.005433 0.044136 0.000000 0.000000 0.000000
# 4 0.000000 0.000000 0.000000 0.052768 0.000000 0.000000
# 5 0.000000 0.000000 0.000000 0.000000 0.027042 0.000000
# 6 0.000000 0.000000 0.000000 0.000000 0.000000 0.038252
#
#
# Mechanical properties :
#
#
# Convention : Reuss Voigt Hill
#
# Bulk Modulus (GPa) = 34.30074 60.05403 47.17738
# Shear Modulus (GPa) = 21.90066 29.84267 25.87167
#
# Velocity S-wave (km/s) = 3.19683 3.73173 3.47459
# Velocity P-wave (km/s) = 5.44357 6.82579 6.17348
#
# Compressibility (1/GPa) = 0.02915389
#
# Stress axis : x y z
#
# Youngs Moduli (GPa) = 108.75563 86.89954 22.65712
#
# Poissons Ratio (x) = 0.09787 0.25565
# Poissons Ratio (y) = 0.12248 0.12309
# Poissons Ratio (z) = 1.22713 0.47211
#
# Static dielectric constant tensor:
#      x y z
#    x 1.759130 0.000000 0.000000 
#    y 0.000000 1.831300 0.000000 
#    z 0.000000 0.000000 1.816420 
# 
# From -- ./inp_files/19527.got.cif
#   From: 2010.05.17/outbox.cif.g08.bks.cpg/sg48_10_cif.got.tgz:19527.got - 2010.06.03 20:39:00.
