data_PCOD9391582
_publ_section_title
;
Structure prediction by ZEFSAII (Michael W. Deem and Ramdas Pophale) SiO2 
 PCOD9391582
Probable space group: P N N N
;
_chemical_formula_sum "Si O2"
_cell_formula_units_Z 64
_cell_length_a 15.965563
_cell_length_b 21.536015
_cell_length_c 9.827092
_cell_angle_alpha 90.000000
_cell_angle_beta 90.000000
_cell_angle_gamma 90.000000
_cell_volume 3378.894289
_symmetry_space_group_name_H-M "P N N N"
_symmetry_group_IT_number 48
_space_group.IT_coordinate_system_code '2'
_symmetry_cell_setting 'orthorhombic'
loop_
_space_group_symop_operation_xyz
x,y,z
1/2-x,1/2-y,z
x,1/2-y,1/2-z
1/2-x,y,1/2-z
-x,-y,-z
1/2+x,1/2+y,-z
-x,1/2+y,1/2+z
1/2+x,-y,1/2+z
loop_
_atom_site_type_symbol
_atom_site_label
_atom_site_fract_x
_atom_site_fract_y
_atom_site_fract_z
Si Si1 0.571720 0.071285 0.237128
Si Si2 0.383529 0.383722 0.824293
Si Si3 0.634794 0.615513 0.497846
Si Si4 0.949825 0.819735 0.734518
Si Si5 0.201371 0.315653 0.446464
Si Si6 0.325290 0.513571 0.946971
Si Si7 0.453247 0.544540 0.185236
Si Si8 0.862725 0.471838 0.957531
O O1 0.519288 0.131145 0.277492
O O2 0.654593 0.061232 0.326021
O O3 0.595107 0.066126 0.079519
O O4 0.513663 0.012195 0.272618
O O5 0.366794 0.375962 0.664207
O O6 0.334972 0.445216 0.880137
O O7 0.481945 0.399619 0.843400
O O8 0.349789 0.326926 0.914012
O O9 0.574772 0.661497 0.580921
O O10 0.726571 0.632261 0.554867
O O11 0.610825 0.544530 0.530196
O O12 0.980124 0.750000 0.750000
O O13 0.865522 0.823772 0.825987
O O14 0.250000 0.250000 0.439912
O O15 0.236362 0.525089 0.015731
O O16 0.397933 0.523804 0.057996
O O17 0.392644 0.554401 0.313756
#
# Coordination Sequence:
#
# PCOD9391582 Si02
#       8
#     8   8   8   8   8   8   8   8
#     4  11  22  38  60  86 124 160 203 252 314 368
#     4  11  23  38  59  87 124 165 202 250 304 366
#     4  12  23  37  60  87 128 162 209 249 297 364
#     4  12  25  43  60  87 124 170 209 251 296 369
#     4  12  25  41  60  86 129 170 209 240 294 368
#     4  11  22  36  59  91 121 156 202 258 311 363
#     4  11  21  36  57  89 122 160 200 253 313 364
#     4  12  22  37  62  92 120 161 206 255 316 366
#
# _framework density 18.941108
#
# number of rings (size 3 to 8) (size 9 to 14) (size 15 to 20)
#    0.000    0.500    6.250    5.625    0.000    2.000 
#    0.000    0.000    0.000    1.500    0.000    0.000 
#    0.000    4.000    0.000    0.000    0.000    0.000 
#
# Total GULP energy -357790.633936 kJ/mol
# GULP energy per Si atom -5590.478655 kJ/mol
# Density = 1.889800 g / cm^3
# Si number density = 18.941108 Si / 1000 Ang^3
#
#
#
# Elastic Constant Matrix: (Units=GPa)
#
#
# Indices 1 2 3 4 5 6 
#
# 1 87.7585 27.8086 21.2107 0.0000 0.0000 0.0000
# 2 27.8086 62.0731 18.1697 0.0000 0.0000 0.0000
# 3 21.2107 18.1697 95.6590 0.0000 0.0000 0.0000
# 4 0.0000 0.0000 0.0000 19.2176 0.0000 0.0000
# 5 0.0000 0.0000 0.0000 0.0000 37.1647 0.0000
# 6 0.0000 0.0000 0.0000 0.0000 0.0000 38.7034
#
#
#
# Elastic Compliance Matrix: (Units=1/GPa)
#
#
# Indices 1 2 3 4 5 6 
#
# 1 0.013622 -0.005526 -0.001971 0.000000 0.000000 0.000000
# 2 -0.005526 0.019300 -0.002441 0.000000 0.000000 0.000000
# 3 -0.001971 -0.002441 0.011354 0.000000 0.000000 0.000000
# 4 0.000000 0.000000 0.000000 0.052036 0.000000 0.000000
# 5 0.000000 0.000000 0.000000 0.000000 0.026907 0.000000
# 6 0.000000 0.000000 0.000000 0.000000 0.000000 0.025838
#
#
# Mechanical properties :
#
#
# Convention : Reuss Voigt Hill
#
# Bulk Modulus (GPa) = 40.98035 42.20760 41.59398
# Shear Modulus (GPa) = 28.23809 30.90390 29.57099
#
# Velocity S-wave (km/s) = 3.86532 4.04366 3.95550
# Velocity P-wave (km/s) = 6.45009 6.64331 6.54741
#
# Compressibility (1/GPa) = 0.02440194
#
# Stress axis : x y z
#
# Youngs Moduli (GPa) = 73.40923 51.81348 88.07160
#
# Poissons Ratio (x) = 0.28631 0.17358
# Poissons Ratio (y) = 0.40565 0.21495
# Poissons Ratio (z) = 0.14468 0.12646
#
# Static dielectric constant tensor:
#      x y z
#    x 1.693650 0.000000 0.000000 
#    y 0.000000 1.653900 0.000000 
#    z 0.000000 0.000000 1.695280 
# 
# From -- ./inp_files/13296.got.cif
#   From: 2010.05.17/outbox.cif.g08.bks.cpg/sg48_7_cif.got.tgz:13296.got - 2010.06.03 20:39:00.
