data_PCOD9391935
_publ_section_title
;
Structure prediction by ZEFSAII (Michael W. Deem and Ramdas Pophale) SiO2 
 PCOD9391935
Probable space group: P N N N
;
_chemical_formula_sum "Si O2"
_cell_formula_units_Z 64
_cell_length_a 15.000000
_cell_length_b 18.000000
_cell_length_c 12.000000
_cell_angle_alpha 90.000000
_cell_angle_beta 90.000000
_cell_angle_gamma 90.000000
_cell_volume 3240.000000
_symmetry_space_group_name_H-M "P N N N"
_symmetry_group_IT_number 48
_space_group.IT_coordinate_system_code '2'
_symmetry_cell_setting 'orthorhombic'
loop_
_space_group_symop_operation_xyz
x,y,z
1/2-x,1/2-y,z
x,1/2-y,1/2-z
1/2-x,y,1/2-z
-x,-y,-z
1/2+x,1/2+y,-z
-x,1/2+y,1/2+z
1/2+x,-y,1/2+z
loop_
_atom_site_type_symbol
_atom_site_label
_atom_site_fract_x
_atom_site_fract_y
_atom_site_fract_z
Si Si1 0.845248 0.486108 0.204923
Si Si2 0.979379 0.326292 0.513164
Si Si3 0.339528 0.097811 0.977975
Si Si4 0.606131 0.598329 0.733723
Si Si5 0.476499 0.557117 0.206697
Si Si6 0.414825 0.665429 0.771169
Si Si7 0.514428 0.693971 0.350227
Si Si8 0.315126 0.321677 0.060005
O O1 0.750000 0.509787 0.250000
O O2 0.854860 0.519558 0.081842
O O3 0.924727 0.523582 0.275142
O O4 0.855465 0.397935 0.215660
O O5 0.971195 0.397653 0.592319
O O6 0.955667 0.248582 0.573251
O O7 0.083700 0.312188 0.482400
O O8 0.922999 0.342571 0.403842
O O9 0.402896 0.157499 0.916151
O O10 0.361489 0.094010 0.107908
O O11 0.237827 0.125199 0.975046
O O12 0.585163 0.515136 0.778391
O O13 0.514988 0.646518 0.729510
O O14 0.669479 0.639614 0.820873
O O15 0.464535 0.622596 0.298293
O O16 0.389825 0.750000 0.750000
O O17 0.544226 0.750000 0.250000
O O18 0.250000 0.250000 0.070244
#
# Coordination Sequence:
#
# PCOD9391935 Si02
#       8
#     8   8   8   8   8   8   8   8
#     4  10  22  38  56  78 107 143 191 239 283 340
#     4  10  19  36  58  82 117 152 188 234 292 336
#     4  11  21  36  55  78 115 152 181 233 289 342
#     4  10  23  36  55  84 114 150 193 230 285 349
#     4   9  20  37  57  83 113 149 193 240 276 351
#     4  10  22  36  56  81 106 143 189 238 279 338
#     4   9  18  33  54  81 111 144 190 234 284 338
#     4  11  22  35  55  86 118 156 189 234 289 363
#
# _framework density 19.753086
#
# number of rings (size 3 to 8) (size 9 to 14) (size 15 to 20)
#    0.000    2.000    1.250    1.875    1.750   11.750 
#    0.000    1.875    0.000    0.000    0.000    0.000 
#    0.000    7.000    0.000    0.000    0.000    0.000 
#
# Total GULP energy -357021.858359 kJ/mol
# GULP energy per Si atom -5578.466537 kJ/mol
# Density = 1.970813 g / cm^3
# Si number density = 19.753086 Si / 1000 Ang^3
#
#
#
# Elastic Constant Matrix: (Units=GPa)
#
#
# Indices 1 2 3 4 5 6 
#
# 1 20.2974 12.8334 9.5833 0.0000 0.0000 0.0000
# 2 12.8334 144.3409 48.4910 0.0000 0.0000 0.0000
# 3 9.5833 48.4910 91.5761 0.0000 0.0000 0.0000
# 4 0.0000 0.0000 0.0000 20.8282 0.0000 0.0000
# 5 0.0000 0.0000 0.0000 0.0000 13.3596 0.0000
# 6 0.0000 0.0000 0.0000 0.0000 0.0000 9.1144
#
#
#
# Elastic Compliance Matrix: (Units=1/GPa)
#
#
# Indices 1 2 3 4 5 6 
#
# 1 0.053228 -0.003480 -0.003727 0.000000 0.000000 0.000000
# 2 -0.003480 0.008655 -0.004219 0.000000 0.000000 0.000000
# 3 -0.003727 -0.004219 0.013544 0.000000 0.000000 0.000000
# 4 0.000000 0.000000 0.000000 0.048012 0.000000 0.000000
# 5 0.000000 0.000000 0.000000 0.000000 0.074853 0.000000
# 6 0.000000 0.000000 0.000000 0.000000 0.000000 0.109717
#
#
# Mechanical properties :
#
#
# Convention : Reuss Voigt Hill
#
# Bulk Modulus (GPa) = 19.02089 44.22554 31.62321
# Shear Modulus (GPa) = 14.35196 21.01421 17.68308
#
# Velocity S-wave (km/s) = 2.69842 3.26520 2.99525
# Velocity P-wave (km/s) = 4.39987 6.05419 5.29207
#
# Compressibility (1/GPa) = 0.05257377
#
# Stress axis : x y z
#
# Youngs Moduli (GPa) = 18.78718 115.54409 73.83484
#
# Poissons Ratio (x) = 0.40213 0.27521
# Poissons Ratio (y) = 0.06539 0.31148
# Poissons Ratio (z) = 0.07003 0.48743
#
# Static dielectric constant tensor:
#      x y z
#    x 1.693070 0.000000 0.000000 
#    y 0.000000 1.707890 0.000000 
#    z 0.000000 0.000000 1.730850 
# 
# From -- ./inp_files/21575.got.cif
#   From: 2010.05.17/outbox.ucp.g08.bks.cvg/sg48_11_cif.got.tgz:21575.got - 2010.06.11 16:38:40.
