data_PCOD9391741
_publ_section_title
;
Structure prediction by ZEFSAII (Michael W. Deem and Ramdas Pophale) SiO2 
 PCOD9391741
Probable space group: P N N N
;
_chemical_formula_sum "Si O2"
_cell_formula_units_Z 40
_cell_length_a 12.575278
_cell_length_b 5.385884
_cell_length_c 25.327223
_cell_angle_alpha 90.000000
_cell_angle_beta 90.000000
_cell_angle_gamma 90.000000
_cell_volume 1715.387197
_symmetry_space_group_name_H-M "P N N N"
_symmetry_group_IT_number 48
_space_group.IT_coordinate_system_code '2'
_symmetry_cell_setting 'orthorhombic'
loop_
_space_group_symop_operation_xyz
x,y,z
1/2-x,1/2-y,z
x,1/2-y,1/2-z
1/2-x,y,1/2-z
-x,-y,-z
1/2+x,1/2+y,-z
-x,1/2+y,1/2+z
1/2+x,-y,1/2+z
loop_
_atom_site_type_symbol
_atom_site_label
_atom_site_fract_x
_atom_site_fract_y
_atom_site_fract_z
Si Si1 0.036131 0.641674 0.446523
Si Si2 0.931558 0.405208 0.181231
Si Si3 0.250000 0.750000 0.002558
Si Si4 0.250000 0.750000 0.750000
Si Si5 0.171988 0.066292 0.586072
Si Si6 0.063640 0.922962 0.174472
Si Si7 0.250000 0.750000 0.250000
O O1 0.144680 0.773166 0.463697
O O2 0.069356 0.528323 0.389202
O O3 0.000000 0.500000 0.500000
O O4 0.934983 0.809885 0.434724
O O5 0.829879 0.422351 0.217904
O O6 0.876096 0.358256 0.124012
O O7 0.000545 0.658931 0.180487
O O8 0.999516 0.161944 0.194408
O O9 0.244703 0.523761 0.961787
O O10 0.250000 0.250000 0.617444
O O11 0.170876 0.895825 0.209428
#
# Coordination Sequence:
#
# PCOD9391741 Si02
#       7
#     8   8   4   2   8   8   2
#     4  11  23  43  69 105 147 190 255 310 384 462
#     4  11  27  45  70 107 146 183 249 302 388 445
#     4  12  22  40  66 100 138 194 246 306 374 452
#     4  12  26  42  76 102 140 190 234 310 360 462
#     4  11  24  43  69 102 149 198 237 314 383 462
#     4  11  27  49  72 109 144 200 248 321 374 462
#     4  12  26  54  84 102 156 206 270 314 396 462
#
# _framework density 23.318352999999998
#
# number of rings (size 3 to 8) (size 9 to 14) (size 15 to 20)
#    0.000    0.800    2.000    4.200    8.400    4.000 
#    0.000    0.000    0.000    0.000    0.000    0.000 
#    0.000    0.000    0.000    0.000    0.000    0.000 
#
# Total GULP energy -223167.490316 kJ/mol
# GULP energy per Si atom -5579.187258 kJ/mol
# Density = 2.326528 g / cm^3
# Si number density = 23.318353 Si / 1000 Ang^3
#
#
#
# Elastic Constant Matrix: (Units=GPa)
#
#
# Indices 1 2 3 4 5 6 
#
# 1 163.7186 50.8022 54.2682 0.0000 0.0000 0.0000
# 2 50.8022 96.5809 28.7316 0.0000 0.0000 0.0000
# 3 54.2682 28.7316 150.1261 0.0000 0.0000 0.0000
# 4 0.0000 0.0000 0.0000 -294.9941 0.0000 0.0000
# 5 0.0000 0.0000 0.0000 0.0000 -40.2558 0.0000
# 6 0.0000 0.0000 0.0000 0.0000 0.0000 25.9285
#
#
#
# Elastic Compliance Matrix: (Units=1/GPa)
#
#
# Indices 1 2 3 4 5 6 
#
# 1 0.007926 -0.003517 -0.002192 0.000000 0.000000 0.000000
# 2 -0.003517 0.012540 -0.001129 0.000000 0.000000 0.000000
# 3 -0.002192 -0.001129 0.007669 0.000000 0.000000 0.000000
# 4 0.000000 0.000000 0.000000 -0.003390 0.000000 0.000000
# 5 0.000000 0.000000 0.000000 0.000000 -0.024841 0.000000
# 6 0.000000 0.000000 0.000000 0.000000 0.000000 0.038568
#
#
# Mechanical properties :
#
#
# Convention : Reuss Voigt Hill
#
# Bulk Modulus (GPa) = 69.15645 75.33661 72.24653
# Shear Modulus (GPa) = 87.77032 -43.42270 22.17381
#
# Velocity S-wave (km/s) = 6.14180 -4.31997 3.08704
# Velocity P-wave (km/s) = 8.94525 2.73773 6.61486
#
# Compressibility (1/GPa) = 0.01445997
#
# Stress axis : x y z
#
# Youngs Moduli (GPa) = 126.16755 79.74664 130.38783
#
# Poissons Ratio (x) = 0.28047 0.28581
# Poissons Ratio (y) = 0.44373 0.14715
# Poissons Ratio (z) = 0.27656 0.09000
#
# Static dielectric constant tensor:
#      x y z
#    x 1.858280 0.000000 0.000000 
#    y 0.000000 1.990030 0.000000 
#    z 0.000000 0.000000 2.052890 
# 
# From -- ./inp_files/37668.got.cif
#   From: 2010.05.17/outbox.cif.g08.bks.cpg/sg48_19_cif.got.tgz:37668.got - 2010.06.03 20:39:00.
