data_PCOD9391572
_publ_section_title
;
Structure prediction by ZEFSAII (Michael W. Deem and Ramdas Pophale) SiO2 
 PCOD9391572
Probable space group: P N N N
;
_chemical_formula_sum "Si O2"
_cell_formula_units_Z 34
_cell_length_a 6.589288
_cell_length_b 13.970245
_cell_length_c 17.284099
_cell_angle_alpha 90.000000
_cell_angle_beta 90.000000
_cell_angle_gamma 90.000000
_cell_volume 1591.069892
_symmetry_space_group_name_H-M "P N N N"
_symmetry_group_IT_number 48
_space_group.IT_coordinate_system_code '2'
_symmetry_cell_setting 'orthorhombic'
loop_
_space_group_symop_operation_xyz
x,y,z
1/2-x,1/2-y,z
x,1/2-y,1/2-z
1/2-x,y,1/2-z
-x,-y,-z
1/2+x,1/2+y,-z
-x,1/2+y,1/2+z
1/2+x,-y,1/2+z
loop_
_atom_site_type_symbol
_atom_site_label
_atom_site_fract_x
_atom_site_fract_y
_atom_site_fract_z
Si Si1 0.210601 0.416929 0.338748
Si Si2 0.395645 0.515771 0.580705
Si Si3 0.564007 0.609897 0.131985
Si Si4 0.075635 0.669140 0.538664
Si Si5 0.750000 0.750000 0.250000
O O1 0.250000 0.388987 0.250000
O O2 0.437289 0.432799 0.369147
O O3 0.086537 0.519973 0.346120
O O4 0.098091 0.339872 0.395079
O O5 0.500000 0.500000 0.500000
O O6 0.296964 0.425889 0.621708
O O7 0.199695 0.574700 0.557967
O O8 0.595561 0.686861 0.198384
O O9 0.502964 0.657080 0.049230
O O10 0.250000 0.750000 0.544926
#
# Coordination Sequence:
#
# PCOD9391572 Si02
#       5
#     8   8   8   8   2
#     4  11  23  44  71  97 133 183 228 282 344 395
#     4  11  20  43  72  94 131 184 227 266 331 413
#     4  11  24  43  64 104 138 179 222 275 343 418
#     4  11  25  41  68 102 134 175 234 280 334 411
#     4  12  28  40  70 108 148 162 216 288 346 412
#
# _framework density 21.369268000000002
#
# number of rings (size 3 to 8) (size 9 to 14) (size 15 to 20)
#    0.000    0.941    4.706    2.824    3.294    5.647 
#    0.000    4.706    0.000    0.000    0.000    0.000 
#    0.000    0.000    0.000    0.000    0.000    0.000 
#
# Total GULP energy -189496.192322 kJ/mol
# GULP energy per Si atom -5573.417421 kJ/mol
# Density = 2.132063 g / cm^3
# Si number density = 21.369268 Si / 1000 Ang^3
#
#
#
# Elastic Constant Matrix: (Units=GPa)
#
#
# Indices 1 2 3 4 5 6 
#
# 1 97.4192 12.4980 66.1573 0.0000 0.0000 0.0000
# 2 12.4980 59.3728 44.3870 0.0000 0.0000 0.0000
# 3 66.1573 44.3870 173.4443 0.0000 0.0000 0.0000
# 4 0.0000 0.0000 0.0000 36.0481 0.0000 0.0000
# 5 0.0000 0.0000 0.0000 0.0000 24.2220 0.0000
# 6 0.0000 0.0000 0.0000 0.0000 0.0000 42.0698
#
#
#
# Elastic Compliance Matrix: (Units=1/GPa)
#
#
# Indices 1 2 3 4 5 6 
#
# 1 0.013932 0.001286 -0.005643 0.000000 0.000000 0.000000
# 2 0.001286 0.020946 -0.005851 0.000000 0.000000 0.000000
# 3 -0.005643 -0.005851 0.009415 0.000000 0.000000 0.000000
# 4 0.000000 0.000000 0.000000 0.027741 0.000000 0.000000
# 5 0.000000 0.000000 0.000000 0.000000 0.041285 0.000000
# 6 0.000000 0.000000 0.000000 0.000000 0.000000 0.023770
#
#
# Mechanical properties :
#
#
# Convention : Reuss Voigt Hill
#
# Bulk Modulus (GPa) = 41.88034 64.03568 52.95801
# Shear Modulus (GPa) = 30.21785 34.28093 32.24939
#
# Velocity S-wave (km/s) = 3.76450 4.00961 3.88899
# Velocity P-wave (km/s) = 6.20776 7.17407 6.70834
#
# Compressibility (1/GPa) = 0.02387755
#
# Stress axis : x y z
#
# Youngs Moduli (GPa) = 71.77548 47.74137 106.20796
#
# Poissons Ratio (x) = -0.06141 0.59938
# Poissons Ratio (y) = -0.09232 0.62143
# Poissons Ratio (z) = 0.40506 0.27934
#
# Static dielectric constant tensor:
#      x y z
#    x 1.776520 0.000000 0.000000 
#    y 0.000000 1.802340 0.000000 
#    z 0.000000 0.000000 1.743300 
# 
# From -- ./inp_files/3088.got.cif
#   From: 2010.05.17/outbox.cif.g08.bks.cpg/sg48_2_cif.got.tgz:3088.got - 2010.06.03 20:39:00.
