data_PCOD9391892
_publ_section_title
;
Structure prediction by ZEFSAII (Michael W. Deem and Ramdas Pophale) SiO2 
 PCOD9391892
Probable space group: P N N N
;
_chemical_formula_sum "Si O2"
_cell_formula_units_Z 50
_cell_length_a 8.811204
_cell_length_b 14.010930
_cell_length_c 16.649277
_cell_angle_alpha 90.000000
_cell_angle_beta 90.000000
_cell_angle_gamma 90.000000
_cell_volume 2055.405898
_symmetry_space_group_name_H-M "P N N N"
_symmetry_group_IT_number 48
_space_group.IT_coordinate_system_code '2'
_symmetry_cell_setting 'orthorhombic'
loop_
_space_group_symop_operation_xyz
x,y,z
1/2-x,1/2-y,z
x,1/2-y,1/2-z
1/2-x,y,1/2-z
-x,-y,-z
1/2+x,1/2+y,-z
-x,1/2+y,1/2+z
1/2+x,-y,1/2+z
loop_
_atom_site_type_symbol
_atom_site_label
_atom_site_fract_x
_atom_site_fract_y
_atom_site_fract_z
Si Si1 0.438805 0.954446 0.082168
Si Si2 0.750000 0.750000 0.750000
Si Si3 0.070243 0.255530 0.600608
Si Si4 0.125312 0.557080 0.688104
Si Si5 0.355940 0.593014 0.171278
Si Si6 0.890128 0.197078 0.046148
Si Si7 0.497571 0.354488 0.329938
O O1 0.518925 0.853586 0.093971
O O2 0.260116 0.933920 0.098535
O O3 0.490829 0.036669 0.143030
O O4 0.500000 0.000000 0.000000
O O5 0.668614 0.679582 0.689357
O O6 0.250000 0.250000 0.617805
O O7 0.957069 0.311854 0.660065
O O8 0.028675 0.310630 0.516526
O O9 0.250000 0.511422 0.750000
O O10 0.155535 0.604752 0.600201
O O11 0.982802 0.488705 0.677301
O O12 0.077829 0.645689 0.743985
O O13 0.250000 0.597798 0.250000
O O14 0.750000 0.250000 0.001637
O O15 0.935124 0.281516 0.107316
#
# Coordination Sequence:
#
# PCOD9391892 Si02
#       7
#     8   2   8   8   8   8   8
#     4  12  27  51  81 115 162 213 268 334 414 483
#     4  12  24  40  74 128 158 208 264 332 396 488
#     4  12  32  53  82 120 157 211 278 337 400 481
#     4  12  26  46  79 124 162 208 271 331 408 487
#     4  12  29  56  83 114 159 219 273 334 408 488
#     4  12  25  45  76 118 170 208 255 327 412 482
#     4  12  24  41  75 112 162 204 262 324 406 473
#
# _framework density 24.326094999999999
#
# number of rings (size 3 to 8) (size 9 to 14) (size 15 to 20)
#    0.000    0.000    6.400    2.400    5.600    1.920 
#    0.000    0.800    0.000    0.000    0.000    0.000 
#    0.000    0.000    0.000    0.000    0.000    0.000 
#
# Total GULP energy -279252.497694 kJ/mol
# GULP energy per Si atom -5585.049954 kJ/mol
# Density = 2.427073 g / cm^3
# Si number density = 24.326095 Si / 1000 Ang^3
#
#
#
# Elastic Constant Matrix: (Units=GPa)
#
#
# Indices 1 2 3 4 5 6 
#
# 1 182.4122 80.0568 51.4846 0.0000 0.0000 0.0000
# 2 80.0568 131.3923 46.0610 0.0000 0.0000 0.0000
# 3 51.4846 46.0610 89.7104 0.0000 0.0000 0.0000
# 4 0.0000 0.0000 0.0000 43.9233 0.0000 0.0000
# 5 0.0000 0.0000 0.0000 0.0000 35.9884 0.0000
# 6 0.0000 0.0000 0.0000 0.0000 0.0000 -213.4042
#
#
#
# Elastic Compliance Matrix: (Units=1/GPa)
#
#
# Indices 1 2 3 4 5 6 
#
# 1 0.007925 -0.003944 -0.002523 0.000000 0.000000 0.000000
# 2 -0.003944 0.011244 -0.003510 0.000000 0.000000 0.000000
# 3 -0.002523 -0.003510 0.014397 0.000000 0.000000 0.000000
# 4 0.000000 0.000000 0.000000 0.022767 0.000000 0.000000
# 5 0.000000 0.000000 0.000000 0.000000 0.027787 0.000000
# 6 0.000000 0.000000 0.000000 0.000000 0.000000 -0.004686
#
#
# Mechanical properties :
#
#
# Convention : Reuss Voigt Hill
#
# Bulk Modulus (GPa) = 73.46237 84.30219 78.88228
# Shear Modulus (GPa) = 48.11100 -11.63766 18.23667
#
# Velocity S-wave (km/s) = 4.45202 -2.18961 2.74099
# Velocity P-wave (km/s) = 7.52940 5.32332 6.52034
#
# Compressibility (1/GPa) = 0.01361241
#
# Stress axis : x y z
#
# Youngs Moduli (GPa) = 126.17789 88.93279 69.45884
#
# Poissons Ratio (x) = 0.35078 0.17525
# Poissons Ratio (y) = 0.49769 0.24378
# Poissons Ratio (z) = 0.31836 0.31213
#
# Static dielectric constant tensor:
#      x y z
#    x 2.055600 0.000000 0.000000 
#    y 0.000000 1.930720 0.000000 
#    z 0.000000 0.000000 2.012930 
# 
# From -- ./inp_files/30284.got.cif
#   From: 2010.05.17/outbox.cif.g08.bks.cpg/sg48_16_cif.got.tgz:30284.got - 2010.06.03 20:39:00.
