data_PCOD9391517
_publ_section_title
;
Structure prediction by ZEFSAII (Michael W. Deem and Ramdas Pophale) SiO2 
 PCOD9391517
Probable space group: P N N N
;
_chemical_formula_sum "Si O2"
_cell_formula_units_Z 52
_cell_length_a 18.824108
_cell_length_b 10.042863
_cell_length_c 14.316993
_cell_angle_alpha 90.000000
_cell_angle_beta 90.000000
_cell_angle_gamma 90.000000
_cell_volume 2706.598001
_symmetry_space_group_name_H-M "P N N N"
_symmetry_group_IT_number 48
_space_group.IT_coordinate_system_code '2'
_symmetry_cell_setting 'orthorhombic'
loop_
_space_group_symop_operation_xyz
x,y,z
1/2-x,1/2-y,z
x,1/2-y,1/2-z
1/2-x,y,1/2-z
-x,-y,-z
1/2+x,1/2+y,-z
-x,1/2+y,1/2+z
1/2+x,-y,1/2+z
loop_
_atom_site_type_symbol
_atom_site_label
_atom_site_fract_x
_atom_site_fract_y
_atom_site_fract_z
Si Si1 0.307341 0.634694 0.083675
Si Si2 0.585497 0.078231 0.098594
Si Si3 0.828132 0.170492 0.128507
Si Si4 0.221781 0.112181 0.355502
Si Si5 0.899633 0.250000 0.750000
Si Si6 0.165356 0.405301 0.757098
Si Si7 0.572787 0.014820 0.883559
O O1 0.250000 0.750000 0.087947
O O2 0.262940 0.501733 0.091493
O O3 0.355652 0.664029 0.173592
O O4 0.338692 0.637146 0.980682
O O5 0.614984 0.213173 0.143286
O O6 0.631711 0.961995 0.147250
O O7 0.501976 0.059383 0.114483
O O8 0.593223 0.070641 0.986304
O O9 0.750000 0.250000 0.141116
O O10 0.843199 0.033567 0.185319
O O11 0.250000 0.250000 0.395949
O O12 0.250000 0.106224 0.250000
O O13 0.138340 0.080435 0.356065
O O14 0.936669 0.361422 0.813098
O O15 0.138420 0.250000 0.750000
O O16 0.250000 0.392765 0.750000
#
# Coordination Sequence:
#
# PCOD9391517 Si02
#       7
#     8   8   8   8   4   8   8
#     4  11  19  35  66  97 126 169 225 269 319 388
#     4  11  24  44  68  97 134 176 225 273 340 408
#     4  11  21  41  67  99 128 174 229 274 330 401
#     4  11  22  38  59  93 133 169 220 275 324 385
#     4  12  19  38  68  96 131 174 220 266 323 402
#     4  11  25  43  66  96 133 175 229 289 336 386
#     4  11  24  42  68  96 138 180 215 272 347 396
#
# _framework density 19.212309999999999
#
# number of rings (size 3 to 8) (size 9 to 14) (size 15 to 20)
#    0.000    0.923    6.154    1.615    1.077    1.231 
#    5.538    0.000    0.000    3.692    0.000    0.000 
#    0.000    0.000    0.000    0.000    0.000    0.000 
#
# Total GULP energy -289569.315368 kJ/mol
# GULP energy per Si atom -5568.640680 kJ/mol
# Density = 1.916858 g / cm^3
# Si number density = 19.212310 Si / 1000 Ang^3
#
#
#
# Elastic Constant Matrix: (Units=GPa)
#
#
# Indices 1 2 3 4 5 6 
#
# 1 80.5316 41.5219 30.9054 0.0000 0.0000 0.0000
# 2 41.5219 177.0867 46.5390 0.0000 0.0000 0.0000
# 3 30.9054 46.5390 118.1030 0.0000 0.0000 0.0000
# 4 0.0000 0.0000 0.0000 22.9470 0.0000 0.0000
# 5 0.0000 0.0000 0.0000 0.0000 19.9648 0.0000
# 6 0.0000 0.0000 0.0000 0.0000 0.0000 22.3110
#
#
#
# Elastic Compliance Matrix: (Units=1/GPa)
#
#
# Indices 1 2 3 4 5 6 
#
# 1 0.014921 -0.002758 -0.002818 0.000000 0.000000 0.000000
# 2 -0.002758 0.006809 -0.001961 0.000000 0.000000 0.000000
# 3 -0.002818 -0.001961 0.009977 0.000000 0.000000 0.000000
# 4 0.000000 0.000000 0.000000 0.043579 0.000000 0.000000
# 5 0.000000 0.000000 0.000000 0.000000 0.050088 0.000000
# 6 0.000000 0.000000 0.000000 0.000000 0.000000 0.044821
#
#
# Mechanical properties :
#
#
# Convention : Reuss Voigt Hill
#
# Bulk Modulus (GPa) = 60.12118 68.18379 64.15248
# Shear Modulus (GPa) = 26.20354 30.16156 28.18255
#
# Velocity S-wave (km/s) = 3.69710 3.96650 3.83417
# Velocity P-wave (km/s) = 7.04171 7.51959 7.28457
#
# Compressibility (1/GPa) = 0.01663307
#
# Stress axis : x y z
#
# Youngs Moduli (GPa) = 67.02023 146.86227 100.22614
#
# Poissons Ratio (x) = 0.40505 0.28241
# Poissons Ratio (y) = 0.18484 0.19659
# Poissons Ratio (z) = 0.18884 0.28806
#
# Static dielectric constant tensor:
#      x y z
#    x 1.662140 0.000000 0.000000 
#    y 0.000000 1.743290 0.000000 
#    z 0.000000 0.000000 1.804030 
# 
# From -- ./inp_files/28301.got.cif
#   From: 2010.05.17/outbox.cif.g08.bks.cpg/sg48_15_cif.got.tgz:28301.got - 2010.06.03 20:39:00.
