data_PCOD9391909
_publ_section_title
;
Structure prediction by ZEFSAII (Michael W. Deem and Ramdas Pophale) SiO2 
 PCOD9391909
Probable space group: P N N N
;
_chemical_formula_sum "Si O2"
_cell_formula_units_Z 32
_cell_length_a 21.404389
_cell_length_b 7.113484
_cell_length_c 9.441184
_cell_angle_alpha 90.000000
_cell_angle_beta 90.000000
_cell_angle_gamma 90.000000
_cell_volume 1437.512586
_symmetry_space_group_name_H-M "P N N N"
_symmetry_group_IT_number 48
_space_group.IT_coordinate_system_code '2'
_symmetry_cell_setting 'orthorhombic'
loop_
_space_group_symop_operation_xyz
x,y,z
1/2-x,1/2-y,z
x,1/2-y,1/2-z
1/2-x,y,1/2-z
-x,-y,-z
1/2+x,1/2+y,-z
-x,1/2+y,1/2+z
1/2+x,-y,1/2+z
loop_
_atom_site_type_symbol
_atom_site_label
_atom_site_fract_x
_atom_site_fract_y
_atom_site_fract_z
Si Si1 0.084235 0.250000 0.750000
Si Si2 0.195219 0.403716 0.918969
Si Si3 0.250000 0.250000 0.250000
Si Si4 0.657390 0.033786 0.775462
Si Si5 0.750000 0.250000 0.250000
Si Si6 0.012071 0.047908 0.326830
O O1 0.131822 0.298345 0.874883
O O2 0.037686 0.423109 0.741892
O O3 0.250000 0.250000 0.900748
O O4 0.207730 0.598129 0.834079
O O5 0.185362 0.474916 0.075353
O O6 0.198332 0.393266 0.321936
O O7 0.670500 0.250000 0.750000
O O8 0.583261 0.005472 0.786935
O O9 0.003908 0.250000 0.250000
O O10 0.000000 0.000000 0.500000
#
# Coordination Sequence:
#
# PCOD9391909 Si02
#       6
#     4   8   2   8   2   8
#     4  12  25  48  78 111 152 204 252 318 384 455
#     4  12  26  48  74 111 157 198 254 321 381 458
#     4  12  26  48  74 108 156 188 252 316 394 450
#     4  12  27  49  75 112 149 204 257 313 390 459
#     4  12  26  44  76 118 148 196 262 308 392 450
#     4  12  28  51  77 113 156 205 256 318 385 469
#
# _framework density 22.260674000000002
#
# number of rings (size 3 to 8) (size 9 to 14) (size 15 to 20)
#    0.000    0.000    8.750    0.375    5.250    1.000 
#    9.000    0.000    0.000    0.000    0.000    0.000 
#    0.000    0.000    0.000    0.000    0.000    0.000 
#
# Total GULP energy -178217.270863 kJ/mol
# GULP energy per Si atom -5569.289714 kJ/mol
# Density = 2.221001 g / cm^3
# Si number density = 22.260674 Si / 1000 Ang^3
#
#
#
# Elastic Constant Matrix: (Units=GPa)
#
#
# Indices 1 2 3 4 5 6 
#
# 1 230.5196 106.9381 35.8709 0.0000 0.0000 0.0000
# 2 106.9381 261.8628 67.1793 0.0000 0.0000 0.0000
# 3 35.8709 67.1793 100.7318 0.0000 0.0000 0.0000
# 4 0.0000 0.0000 0.0000 41.6795 0.0000 0.0000
# 5 0.0000 0.0000 0.0000 0.0000 41.0456 0.0000
# 6 0.0000 0.0000 0.0000 0.0000 0.0000 41.2236
#
#
#
# Elastic Compliance Matrix: (Units=1/GPa)
#
#
# Indices 1 2 3 4 5 6 
#
# 1 0.005376 -0.002056 -0.000543 0.000000 0.000000 0.000000
# 2 -0.002056 0.005393 -0.002865 0.000000 0.000000 0.000000
# 3 -0.000543 -0.002865 0.012031 0.000000 0.000000 0.000000
# 4 0.000000 0.000000 0.000000 0.023993 0.000000 0.000000
# 5 0.000000 0.000000 0.000000 0.000000 0.024363 0.000000
# 6 0.000000 0.000000 0.000000 0.000000 0.000000 0.024258
#
#
# Mechanical properties :
#
#
# Convention : Reuss Voigt Hill
#
# Bulk Modulus (GPa) = 84.22604 112.56566 98.39585
# Shear Modulus (GPa) = 45.33055 50.33147 47.83101
#
# Velocity S-wave (km/s) = 4.51749 4.76016 4.64041
# Velocity P-wave (km/s) = 8.07023 8.99383 8.54452
#
# Compressibility (1/GPa) = 0.01187281
#
# Stress axis : x y z
#
# Youngs Moduli (GPa) = 185.99631 185.41062 83.11640
#
# Poissons Ratio (x) = 0.38125 0.04515
# Poissons Ratio (y) = 0.38245 0.23810
# Poissons Ratio (z) = 0.10104 0.53115
#
# Static dielectric constant tensor:
#      x y z
#    x 1.839980 0.000000 0.000000 
#    y 0.000000 1.916480 0.000000 
#    z 0.000000 0.000000 2.295410 
# 
# From -- ./inp_files/1987.got.cif
#   From: 2010.05.17/outbox.cif.g08.bks.cpg/sg48_1_cif.got.tgz:1987.got - 2010.06.03 20:39:00.
