data_PCOD9391484
_publ_section_title
;
Structure prediction by ZEFSAII (Michael W. Deem and Ramdas Pophale) SiO2 
 PCOD9391484
Probable space group: P N N N
;
_chemical_formula_sum "Si O2"
_cell_formula_units_Z 48
_cell_length_a 16.729546
_cell_length_b 9.986604
_cell_length_c 12.931154
_cell_angle_alpha 90.000000
_cell_angle_beta 90.000000
_cell_angle_gamma 90.000000
_cell_volume 2160.425369
_symmetry_space_group_name_H-M "P N N N"
_symmetry_group_IT_number 48
_space_group.IT_coordinate_system_code '2'
_symmetry_cell_setting 'orthorhombic'
loop_
_space_group_symop_operation_xyz
x,y,z
1/2-x,1/2-y,z
x,1/2-y,1/2-z
1/2-x,y,1/2-z
-x,-y,-z
1/2+x,1/2+y,-z
-x,1/2+y,1/2+z
1/2+x,-y,1/2+z
loop_
_atom_site_type_symbol
_atom_site_label
_atom_site_fract_x
_atom_site_fract_y
_atom_site_fract_z
Si Si1 0.481210 0.250000 0.750000
Si Si2 0.935213 0.800574 0.638108
Si Si3 0.122662 0.803789 0.607953
Si Si4 0.624669 0.825377 0.435080
Si Si5 0.384984 0.605409 0.378050
Si Si6 0.775203 0.568179 0.132455
Si Si7 0.750000 0.250000 0.250000
Si Si8 0.750000 0.250000 0.750000
O O1 0.432198 0.164583 0.665003
O O2 0.537184 0.348042 0.684725
O O3 0.905706 0.750000 0.750000
O O4 0.916621 0.697197 0.544985
O O5 0.031463 0.809948 0.643827
O O6 0.896601 0.945398 0.609901
O O7 0.118076 0.810549 0.484308
O O8 0.181515 0.699503 0.666575
O O9 0.170226 0.939094 0.634272
O O10 0.694763 0.934467 0.435576
O O11 0.671176 0.688001 0.409610
O O12 0.307261 0.653059 0.316185
O O13 0.750000 0.596161 0.250000
#
# Coordination Sequence:
#
# PCOD9391484 Si02
#       8
#     4   8   8   8   8   8   2   2
#     4  11  20  38  74  97 126 180 240 279 338 418
#     4  12  26  45  68 102 142 179 231 283 350 414
#     4  12  23  42  66  98 134 185 221 276 352 406
#     4  11  21  40  64 104 131 171 226 288 334 406
#     4  11  24  44  72  94 134 191 226 281 349 421
#     4  11  21  36  67 100 135 167 226 283 341 401
#     4  12  26  40  68 100 148 174 226 300 334 418
#     4  10  26  48  66  96 132 174 242 272 336 422
#
# _framework density 22.217846999999999
#
# number of rings (size 3 to 8) (size 9 to 14) (size 15 to 20)
#    0.000    0.667    6.667    2.500    0.000    1.333 
#    0.000    0.833    0.000    0.000    0.000    0.000 
#    0.000    0.000    0.000    0.000    0.000    0.000 
#
# Total GULP energy -267856.850840 kJ/mol
# GULP energy per Si atom -5580.351059 kJ/mol
# Density = 2.216728 g / cm^3
# Si number density = 22.217847 Si / 1000 Ang^3
#
#
#
# Elastic Constant Matrix: (Units=GPa)
#
#
# Indices 1 2 3 4 5 6 
#
# 1 134.5196 23.6358 57.4879 0.0000 0.0000 0.0000
# 2 23.6358 51.2902 14.7737 0.0000 0.0000 0.0000
# 3 57.4879 14.7737 164.2549 0.0000 0.0000 0.0000
# 4 0.0000 0.0000 0.0000 26.9215 0.0000 0.0000
# 5 0.0000 0.0000 0.0000 0.0000 -28.8311 0.0000
# 6 0.0000 0.0000 0.0000 0.0000 0.0000 18.9746
#
#
#
# Elastic Compliance Matrix: (Units=1/GPa)
#
#
# Indices 1 2 3 4 5 6 
#
# 1 0.009296 -0.003436 -0.002944 0.000000 0.000000 0.000000
# 2 -0.003436 0.021285 -0.000712 0.000000 0.000000 0.000000
# 3 -0.002944 -0.000712 0.007183 0.000000 0.000000 0.000000
# 4 0.000000 0.000000 0.000000 0.037145 0.000000 0.000000
# 5 0.000000 0.000000 0.000000 0.000000 -0.034685 0.000000
# 6 0.000000 0.000000 0.000000 0.000000 0.000000 0.052702
#
#
# Mechanical properties :
#
#
# Convention : Reuss Voigt Hill
#
# Bulk Modulus (GPa) = 42.40973 60.20663 51.30818
# Shear Modulus (GPa) = 43.48951 20.35748 31.92349
#
# Velocity S-wave (km/s) = 4.42907 3.03027 3.79468
# Velocity P-wave (km/s) = 6.72942 6.27699 6.50714
#
# Compressibility (1/GPa) = 0.02357949
#
# Stress axis : x y z
#
# Youngs Moduli (GPa) = 107.57480 46.98100 139.22379
#
# Poissons Ratio (x) = 0.16141 0.40994
# Poissons Ratio (y) = 0.36959 0.09913
# Poissons Ratio (z) = 0.31675 0.03345
#
# Static dielectric constant tensor:
#      x y z
#    x 1.832890 0.000000 0.000000 
#    y 0.000000 1.793680 0.000000 
#    z 0.000000 0.000000 1.888030 
# 
# From -- ./inp_files/22188.got.cif
#   From: 2010.05.17/outbox.cif.g08.bks.cpg/sg48_12_cif.got.tgz:22188.got - 2010.06.03 20:39:00.
