data_PCOD9391545
_publ_section_title
;
Structure prediction by ZEFSAII (Michael W. Deem and Ramdas Pophale) SiO2 
 PCOD9391545
Probable space group: P N N N
;
_chemical_formula_sum "Si O2"
_cell_formula_units_Z 60
_cell_length_a 12.067230
_cell_length_b 22.780431
_cell_length_c 12.302405
_cell_angle_alpha 90.000000
_cell_angle_beta 90.000000
_cell_angle_gamma 90.000000
_cell_volume 3381.890541
_symmetry_space_group_name_H-M "P N N N"
_symmetry_group_IT_number 48
_space_group.IT_coordinate_system_code '2'
_symmetry_cell_setting 'orthorhombic'
loop_
_space_group_symop_operation_xyz
x,y,z
1/2-x,1/2-y,z
x,1/2-y,1/2-z
1/2-x,y,1/2-z
-x,-y,-z
1/2+x,1/2+y,-z
-x,1/2+y,1/2+z
1/2+x,-y,1/2+z
loop_
_atom_site_type_symbol
_atom_site_label
_atom_site_fract_x
_atom_site_fract_y
_atom_site_fract_z
Si Si1 0.278150 0.387080 0.960643
Si Si2 0.250000 0.468493 0.750000
Si Si3 0.430478 0.316907 0.617258
Si Si4 0.522089 0.024983 0.179627
Si Si5 0.655369 0.532766 0.839504
Si Si6 0.026837 0.180871 0.869180
Si Si7 0.087784 0.581807 0.044927
Si Si8 0.817612 0.402257 0.636263
O O1 0.262735 0.429319 0.857382
O O2 0.178114 0.340010 0.946938
O O3 0.393144 0.353479 0.949287
O O4 0.291048 0.428163 0.066011
O O5 0.137567 0.504208 0.769491
O O6 0.420474 0.325357 0.747805
O O7 0.465477 0.249501 0.602710
O O8 0.528164 0.359315 0.580910
O O9 0.449880 0.056078 0.272683
O O10 0.453221 0.969013 0.129608
O O11 0.547104 0.063227 0.073602
O O12 0.750000 0.526044 0.750000
O O13 0.623884 0.466017 0.872735
O O14 0.906744 0.149841 0.870615
O O15 0.218718 0.592364 0.049473
O O16 0.750000 0.396162 0.750000
#
# Coordination Sequence:
#
# PCOD9391545 Si02
#       8
#     8   4   8   8   8   8   8   8
#     4  12  22  37  60  86 127 159 195 256 305 370
#     4  12  22  34  57  92 120 163 196 248 316 368
#     4  11  21  38  59  87 117 163 203 243 308 366
#     4  11  22  36  58  87 120 162 202 247 310 371
#     4  11  22  37  60  89 121 160 205 246 305 372
#     4  11  23  37  58  87 122 158 204 255 301 367
#     4  11  20  38  60  82 122 161 199 249 303 374
#     4  11  20  36  55  88 122 155 196 248 306 367
#
# _framework density 17.741555999999999
#
# number of rings (size 3 to 8) (size 9 to 14) (size 15 to 20)
#    0.000    0.800    6.667    2.800    0.000    4.800 
#    0.000    0.000    0.000    5.600    0.000    0.000 
#    0.000    0.000    0.000    0.000    0.000    0.000 
#
# Total GULP energy -334786.395152 kJ/mol
# GULP energy per Si atom -5579.773253 kJ/mol
# Density = 1.770118 g / cm^3
# Si number density = 17.741556 Si / 1000 Ang^3
#
#
#
# Elastic Constant Matrix: (Units=GPa)
#
#
# Indices 1 2 3 4 5 6 
#
# 1 64.1681 34.2706 38.8587 0.0000 0.0000 0.0000
# 2 34.2706 98.5939 52.5745 0.0000 0.0000 0.0000
# 3 38.8587 52.5745 79.8067 0.0000 0.0000 0.0000
# 4 0.0000 0.0000 0.0000 34.3823 0.0000 0.0000
# 5 0.0000 0.0000 0.0000 0.0000 18.4396 0.0000
# 6 0.0000 0.0000 0.0000 0.0000 0.0000 19.2018
#
#
#
# Elastic Compliance Matrix: (Units=1/GPa)
#
#
# Indices 1 2 3 4 5 6 
#
# 1 0.022690 -0.003076 -0.009022 0.000000 0.000000 0.000000
# 2 -0.003076 0.016052 -0.009077 0.000000 0.000000 0.000000
# 3 -0.009022 -0.009077 0.022902 0.000000 0.000000 0.000000
# 4 0.000000 0.000000 0.000000 0.029085 0.000000 0.000000
# 5 0.000000 0.000000 0.000000 0.000000 0.054231 0.000000
# 6 0.000000 0.000000 0.000000 0.000000 0.000000 0.052078
#
#
# Mechanical properties :
#
#
# Convention : Reuss Voigt Hill
#
# Bulk Modulus (GPa) = 51.82536 54.88625 53.35581
# Shear Modulus (GPa) = 20.34006 22.19573 21.26790
#
# Velocity S-wave (km/s) = 3.38962 3.54087 3.46607
# Velocity P-wave (km/s) = 6.67788 6.90802 6.79392
#
# Compressibility (1/GPa) = 0.01929557
#
# Stress axis : x y z
#
# Youngs Moduli (GPa) = 44.07176 62.29727 43.66337
#
# Poissons Ratio (x) = 0.19165 0.39391
# Poissons Ratio (y) = 0.13558 0.39632
# Poissons Ratio (z) = 0.39759 0.56546
#
# Static dielectric constant tensor:
#      x y z
#    x 1.649400 0.000000 0.000000 
#    y 0.000000 1.620550 0.000000 
#    z 0.000000 0.000000 1.615540 
# 
# From -- ./inp_files/20318.got.cif
#   From: 2010.05.17/outbox.cif.g08.bks.cpg/sg48_11_cif.got.tgz:20318.got - 2010.06.03 20:39:00.
