data_PCOD9391875
_publ_section_title
;
Structure prediction by ZEFSAII (Michael W. Deem and Ramdas Pophale) SiO2 
 PCOD9391875
Probable space group: P N N N
;
_chemical_formula_sum "Si O2"
_cell_formula_units_Z 34
_cell_length_a 10.893939
_cell_length_b 20.288614
_cell_length_c 6.577558
_cell_angle_alpha 90.000000
_cell_angle_beta 90.000000
_cell_angle_gamma 90.000000
_cell_volume 1453.791097
_symmetry_space_group_name_H-M "P N N N"
_symmetry_group_IT_number 48
_space_group.IT_coordinate_system_code '2'
_symmetry_cell_setting 'orthorhombic'
loop_
_space_group_symop_operation_xyz
x,y,z
1/2-x,1/2-y,z
x,1/2-y,1/2-z
1/2-x,y,1/2-z
-x,-y,-z
1/2+x,1/2+y,-z
-x,1/2+y,1/2+z
1/2+x,-y,1/2+z
loop_
_atom_site_type_symbol
_atom_site_label
_atom_site_fract_x
_atom_site_fract_y
_atom_site_fract_z
Si Si1 0.141266 0.163341 0.085507
Si Si2 0.250000 0.250000 0.750000
Si Si3 0.750000 0.042068 0.250000
Si Si4 0.160010 0.642609 0.075685
Si Si5 0.428204 0.750000 0.750000
Si Si6 0.043128 0.448325 0.673239
O O1 0.250000 0.165678 0.250000
O O2 0.015795 0.191157 0.172037
O O3 0.167580 0.209891 0.898784
O O4 0.127062 0.095414 0.974104
O O5 0.758133 0.091831 0.440508
O O6 0.634787 0.994535 0.200960
O O7 0.250000 0.665828 0.250000
O O8 0.047730 0.598969 0.188021
O O9 0.131935 0.706875 0.933417
O O10 0.000000 0.500000 0.500000
#
# Coordination Sequence:
#
# PCOD9391875 Si02
#       6
#     8   2   4   8   4   8
#     4  12  26  47  77 119 155 203 265 336 403 481
#     4  12  20  48  72 110 156 196 246 334 404 472
#     4  12  27  53  84 119 159 212 276 340 414 490
#     4  12  29  56  79 120 165 220 275 336 412 499
#     4  12  27  53  80 116 164 214 278 332 416 494
#     4  12  27  49  83 118 161 212 268 339 416 482
#
# _framework density 23.387127
#
# number of rings (size 3 to 8) (size 9 to 14) (size 15 to 20)
#    0.000    0.000    4.706    4.235    6.588    0.471 
#    4.235    0.000    0.000    0.000    0.000    0.000 
#    0.000    0.000    0.000    0.000    0.000    0.000 
#
# Total GULP energy -189324.778269 kJ/mol
# GULP energy per Si atom -5568.375831 kJ/mol
# Density = 2.333390 g / cm^3
# Si number density = 23.387127 Si / 1000 Ang^3
#
#
#
# Elastic Constant Matrix: (Units=GPa)
#
#
# Indices 1 2 3 4 5 6 
#
# 1 95.6101 48.0752 75.5540 0.0000 0.0000 0.0000
# 2 48.0752 117.2163 75.5548 0.0000 0.0000 0.0000
# 3 75.5540 75.5548 173.6601 0.0000 0.0000 0.0000
# 4 0.0000 0.0000 0.0000 58.5452 0.0000 0.0000
# 5 0.0000 0.0000 0.0000 0.0000 111.2186 0.0000
# 6 0.0000 0.0000 0.0000 0.0000 0.0000 46.5633
#
#
#
# Elastic Compliance Matrix: (Units=1/GPa)
#
#
# Indices 1 2 3 4 5 6 
#
# 1 0.016667 -0.003004 -0.005944 0.000000 0.000000 0.000000
# 2 -0.003004 0.012398 -0.004087 0.000000 0.000000 0.000000
# 3 -0.005944 -0.004087 0.010123 0.000000 0.000000 0.000000
# 4 0.000000 0.000000 0.000000 0.017081 0.000000 0.000000
# 5 0.000000 0.000000 0.000000 0.000000 0.008991 0.000000
# 6 0.000000 0.000000 0.000000 0.000000 0.000000 0.021476
#
#
# Mechanical properties :
#
#
# Convention : Reuss Voigt Hill
#
# Bulk Modulus (GPa) = 76.23914 87.20605 81.72260
# Shear Modulus (GPa) = 42.66992 55.75227 49.21110
#
# Velocity S-wave (km/s) = 4.27606 4.88780 4.59213
# Velocity P-wave (km/s) = 7.55308 8.32005 7.94582
#
# Compressibility (1/GPa) = 0.01311662
#
# Stress axis : x y z
#
# Youngs Moduli (GPa) = 59.99841 80.66014 98.78922
#
# Poissons Ratio (x) = 0.24233 0.58722
# Poissons Ratio (y) = 0.18026 0.40373
# Poissons Ratio (z) = 0.35664 0.32964
#
# Static dielectric constant tensor:
#      x y z
#    x 1.540190 0.000000 0.000000 
#    y 0.000000 1.225030 0.000000 
#    z 0.000000 0.000000 1.732820 
# 
# From -- ./inp_files/2277.got.cif
#   From: 2010.05.17/outbox.cif.g08.bks.cpg/sg48_2_cif.got.tgz:2277.got - 2010.06.03 20:39:00.
