data_PCOD9391384
_publ_section_title
;
Structure prediction by ZEFSAII (Michael W. Deem and Ramdas Pophale) SiO2 
 PCOD9391384
Probable space group: P N N N
;
_chemical_formula_sum "Si O2"
_cell_formula_units_Z 14
_cell_length_a 14.139143
_cell_length_b 8.845466
_cell_length_c 4.707966
_cell_angle_alpha 90.000000
_cell_angle_beta 90.000000
_cell_angle_gamma 90.000000
_cell_volume 588.812637
_symmetry_space_group_name_H-M "P N N N"
_symmetry_group_IT_number 48
_space_group.IT_coordinate_system_code '2'
_symmetry_cell_setting 'orthorhombic'
loop_
_space_group_symop_operation_xyz
x,y,z
1/2-x,1/2-y,z
x,1/2-y,1/2-z
1/2-x,y,1/2-z
-x,-y,-z
1/2+x,1/2+y,-z
-x,1/2+y,1/2+z
1/2+x,-y,1/2+z
loop_
_atom_site_type_symbol
_atom_site_label
_atom_site_fract_x
_atom_site_fract_y
_atom_site_fract_z
Si Si1 0.750000 0.750000 0.250000
Si Si2 0.250000 0.030780 0.250000
Si Si3 0.430587 0.640651 0.483194
O O1 0.708252 0.866821 0.488402
O O2 0.168424 0.927697 0.379367
O O3 0.474283 0.750000 0.250000
O O4 0.500000 0.500000 0.500000
O O5 0.417625 0.750000 0.750000
#
# Coordination Sequence:
#
# PCOD9391384 Si02
#       3
#     2   4   8
#     4  10  24  42  78 110 148 196 262 314 384 446
#     4  11  25  46  78 108 156 204 260 312 400 458
#     4  12  28  49  79 113 157 202 261 320 390 460
#
# _framework density 23.776664
#
# number of rings (size 3 to 8) (size 9 to 14) (size 15 to 20)
#    0.000    0.571    0.000    6.000   12.000    2.286 
#    0.000    0.000    0.000    0.000    0.000    0.000 
#    0.000    0.000    0.000    0.000    0.000    0.000 
#
# Total GULP energy -78212.621820 kJ/mol
# GULP energy per Si atom -5586.615844 kJ/mol
# Density = 2.372255 g / cm^3
# Si number density = 23.776664 Si / 1000 Ang^3
#
#
#
# Elastic Constant Matrix: (Units=GPa)
#
#
# Indices 1 2 3 4 5 6 
#
# 1 152.2768 105.5873 53.2081 0.0000 0.0000 0.0000
# 2 105.5873 245.1829 124.0745 0.0000 0.0000 0.0000
# 3 53.2081 124.0745 209.8924 0.0000 0.0000 0.0000
# 4 0.0000 0.0000 0.0000 89.8541 0.0000 0.0000
# 5 0.0000 0.0000 0.0000 0.0000 40.1345 0.0000
# 6 0.0000 0.0000 0.0000 0.0000 0.0000 5.8945
#
#
#
# Elastic Compliance Matrix: (Units=1/GPa)
#
#
# Indices 1 2 3 4 5 6 
#
# 1 0.009363 -0.004039 0.000014 0.000000 0.000000 0.000000
# 2 -0.004039 0.007562 -0.003446 0.000000 0.000000 0.000000
# 3 0.000014 -0.003446 0.006798 0.000000 0.000000 0.000000
# 4 0.000000 0.000000 0.000000 0.011129 0.000000 0.000000
# 5 0.000000 0.000000 0.000000 0.000000 0.024916 0.000000
# 6 0.000000 0.000000 0.000000 0.000000 0.000000 0.169650
#
#
# Mechanical properties :
#
#
# Convention : Reuss Voigt Hill
#
# Bulk Modulus (GPa) = 113.89141 130.34354 122.11747
# Shear Modulus (GPa) = 20.21940 48.80877 34.51409
#
# Velocity S-wave (km/s) = 2.91931 4.53570 3.81411
# Velocity P-wave (km/s) = 7.70504 9.07574 8.41833
#
# Compressibility (1/GPa) = 0.00878029
#
# Stress axis : x y z
#
# Youngs Moduli (GPa) = 106.80567 132.23934 147.10414
#
# Poissons Ratio (x) = 0.53415 -0.00210
# Poissons Ratio (y) = 0.43142 0.50695
# Poissons Ratio (z) = -0.00152 0.45573
#
# Static dielectric constant tensor:
#      x y z
#    x 1.937200 0.000000 0.000000 
#    y 0.000000 1.851680 0.000000 
#    z 0.000000 0.000000 1.914570 
# 
# From -- ./inp_files/2.got.cif
#   From: 2010.05.17/outbox.cif.g08.bks.cpg/sg48_1_cif.got.tgz:2.got - 2010.06.03 20:39:00.
