data_PCOD9391045
_publ_section_title
;
Structure prediction by ZEFSAII (Michael W. Deem and Ramdas Pophale) SiO2 
 PCOD9391045
Probable space group: P N N N
;
_chemical_formula_sum "Si O2"
_cell_formula_units_Z 34
_cell_length_a 29.921775
_cell_length_b 6.249364
_cell_length_c 9.626366
_cell_angle_alpha 90.000000
_cell_angle_beta 90.000000
_cell_angle_gamma 90.000000
_cell_volume 1800.054042
_symmetry_space_group_name_H-M "P N N N"
_symmetry_group_IT_number 48
_space_group.IT_coordinate_system_code '2'
_symmetry_cell_setting 'orthorhombic'
loop_
_space_group_symop_operation_xyz
x,y,z
1/2-x,1/2-y,z
x,1/2-y,1/2-z
1/2-x,y,1/2-z
-x,-y,-z
1/2+x,1/2+y,-z
-x,1/2+y,1/2+z
1/2+x,-y,1/2+z
loop_
_atom_site_type_symbol
_atom_site_label
_atom_site_fract_x
_atom_site_fract_y
_atom_site_fract_z
Si Si1 0.822618 0.439737 0.357344
Si Si2 0.946650 0.490837 0.996707
Si Si3 0.250000 0.250000 0.750000
Si Si4 0.599786 0.750000 0.250000
Si Si5 0.408494 0.250000 0.250000
Si Si6 0.877580 0.353709 0.599309
O O1 0.815124 0.250000 0.250000
O O2 0.781760 0.602448 0.344346
O O3 0.867272 0.572614 0.316347
O O4 0.834195 0.334735 0.504157
O O5 0.927926 0.627612 0.128446
O O6 0.936388 0.597515 0.848445
O O7 0.919191 0.264734 0.980722
O O8 0.000000 0.500000 0.000000
O O9 0.383229 0.397979 0.139304
O O10 0.872364 0.250000 0.750000
#
# Coordination Sequence:
#
# PCOD9391045 Si02
#       6
#     8   8   2   4   4   8
#     4  11  21  43  65  93 126 156 212 258 333 384
#     4  11  24  37  57  92 127 170 225 262 310 365
#     4  10  26  36  72 100 116 152 202 282 312 396
#     4  11  22  37  62  94 122 174 208 263 322 375
#     4  10  22  40  54  83 124 168 210 261 314 368
#     4  10  22  39  63  89 122 176 205 254 323 387
#
# _framework density 18.888321999999999
#
# number of rings (size 3 to 8) (size 9 to 14) (size 15 to 20)
#    0.000    1.412    4.706    0.353    4.941    2.824 
#    0.000    0.000    0.000   10.588    0.000    0.000 
#    0.000    0.000    0.000    0.000    0.000    0.000 
#
# Total GULP energy -189355.836867 kJ/mol
# GULP energy per Si atom -5569.289320 kJ/mol
# Density = 1.884533 g / cm^3
# Si number density = 18.888322 Si / 1000 Ang^3
#
#
#
# Elastic Constant Matrix: (Units=GPa)
#
#
# Indices 1 2 3 4 5 6 
#
# 1 117.6046 43.1074 52.0183 0.0000 0.0000 0.0000
# 2 43.1074 91.5791 26.9298 0.0000 0.0000 0.0000
# 3 52.0183 26.9298 103.2958 0.0000 0.0000 0.0000
# 4 0.0000 0.0000 0.0000 30.5667 0.0000 0.0000
# 5 0.0000 0.0000 0.0000 0.0000 12.2833 0.0000
# 6 0.0000 0.0000 0.0000 0.0000 0.0000 18.6077
#
#
#
# Elastic Compliance Matrix: (Units=1/GPa)
#
#
# Indices 1 2 3 4 5 6 
#
# 1 0.012333 -0.004309 -0.005087 0.000000 0.000000 0.000000
# 2 -0.004309 0.013332 -0.001306 0.000000 0.000000 0.000000
# 3 -0.005087 -0.001306 0.012583 0.000000 0.000000 0.000000
# 4 0.000000 0.000000 0.000000 0.032715 0.000000 0.000000
# 5 0.000000 0.000000 0.000000 0.000000 0.081411 0.000000
# 6 0.000000 0.000000 0.000000 0.000000 0.000000 0.053741
#
#
# Mechanical properties :
#
#
# Convention : Reuss Voigt Hill
#
# Bulk Modulus (GPa) = 59.36934 61.84340 60.60637
# Shear Modulus (GPa) = 21.44687 24.98646 23.21667
#
# Velocity S-wave (km/s) = 3.37331 3.64105 3.50973
# Velocity P-wave (km/s) = 6.83171 7.10556 6.96998
#
# Compressibility (1/GPa) = 0.01684371
#
# Stress axis : x y z
#
# Youngs Moduli (GPa) = 81.08514 75.00830 79.47142
#
# Poissons Ratio (x) = 0.32323 0.40428
# Poissons Ratio (y) = 0.34941 0.10376
# Poissons Ratio (z) = 0.41249 0.09793
#
# Static dielectric constant tensor:
#      x y z
#    x 1.668770 0.000000 0.000000 
#    y 0.000000 1.855290 0.000000 
#    z 0.000000 0.000000 1.680440 
# 
# From -- ./inp_files/7660.got.cif
#   From: 2010.05.17/outbox.cif.g08.bks.cpg/sg48_4_cif.got.tgz:7660.got - 2010.06.03 20:39:00.
