data_PCOD9391133
_publ_section_title
;
Structure prediction by ZEFSAII (Michael W. Deem and Ramdas Pophale) SiO2 
 PCOD9391133
Probable space group: P N N N
;
_chemical_formula_sum "Si O2"
_cell_formula_units_Z 58
_cell_length_a 8.821503
_cell_length_b 27.009234
_cell_length_c 11.286864
_cell_angle_alpha 90.000000
_cell_angle_beta 90.000000
_cell_angle_gamma 90.000000
_cell_volume 2689.231228
_symmetry_space_group_name_H-M "P N N N"
_symmetry_group_IT_number 48
_space_group.IT_coordinate_system_code '2'
_symmetry_cell_setting 'orthorhombic'
loop_
_space_group_symop_operation_xyz
x,y,z
1/2-x,1/2-y,z
x,1/2-y,1/2-z
1/2-x,y,1/2-z
-x,-y,-z
1/2+x,1/2+y,-z
-x,1/2+y,1/2+z
1/2+x,-y,1/2+z
loop_
_atom_site_type_symbol
_atom_site_label
_atom_site_fract_x
_atom_site_fract_y
_atom_site_fract_z
Si Si1 0.750000 0.250000 0.250000
Si Si2 0.673961 0.630943 0.060574
Si Si3 0.989402 0.625874 0.192626
Si Si4 0.967464 0.196164 0.065666
Si Si5 0.825332 0.095859 0.125076
Si Si6 0.895376 0.534868 0.579873
Si Si7 0.372042 0.966324 0.061994
Si Si8 0.418297 0.728885 0.367212
O O1 0.869160 0.217910 0.173514
O O2 0.834622 0.637805 0.122277
O O3 0.551597 0.630466 0.168577
O O4 0.631421 0.670549 0.958678
O O5 0.675416 0.577198 0.002446
O O6 0.054862 0.572995 0.153250
O O7 0.093921 0.670575 0.148681
O O8 0.871400 0.144718 0.050880
O O9 0.982943 0.244231 0.981508
O O10 0.750000 0.108483 0.250000
O O11 0.979472 0.064745 0.156008
O O12 0.714559 0.063845 0.042244
O O13 0.755817 0.501331 0.620721
O O14 0.000000 0.500000 0.500000
O O15 0.500000 0.000000 0.000000
O O16 0.250000 0.750000 0.368568
O O17 0.500144 0.750000 0.250000
#
# Coordination Sequence:
#
# PCOD9391133 Si02
#       8
#     2   8   8   8   8   8   8   8
#     4  12  24  40  74  98 132 192 242 282 356 428
#     4  10  22  42  66  98 141 180 229 287 356 435
#     4  11  23  40  70 103 139 184 223 288 372 422
#     4  11  22  42  66 100 129 178 235 283 348 427
#     4  10  22  42  67  90 129 184 227 278 344 411
#     4   9  20  41  63  91 133 178 221 283 335 404
#     4  11  22  39  65 101 136 175 230 286 342 419
#     4  11  22  39  65 100 139 170 219 295 361 419
#
# _framework density 21.567499999999999
#
# number of rings (size 3 to 8) (size 9 to 14) (size 15 to 20)
#    0.000    1.517    4.138    0.828    0.000    2.759 
#    0.000    4.828    0.000    4.966    0.000    0.000 
#    0.000    0.000    0.000    0.000    0.000    0.000 
#
# Total GULP energy -322895.495683 kJ/mol
# GULP energy per Si atom -5567.163719 kJ/mol
# Density = 2.151841 g / cm^3
# Si number density = 21.567500 Si / 1000 Ang^3
#
#
#
# Elastic Constant Matrix: (Units=GPa)
#
#
# Indices 1 2 3 4 5 6 
#
# 1 94.4033 39.3457 32.9122 0.0000 0.0000 0.0000
# 2 39.3457 127.2657 27.9950 0.0000 0.0000 0.0000
# 3 32.9122 27.9950 75.6521 0.0000 0.0000 0.0000
# 4 0.0000 0.0000 0.0000 14.2954 0.0000 0.0000
# 5 0.0000 0.0000 0.0000 0.0000 25.2565 0.0000
# 6 0.0000 0.0000 0.0000 0.0000 0.0000 21.4236
#
#
#
# Elastic Compliance Matrix: (Units=1/GPa)
#
#
# Indices 1 2 3 4 5 6 
#
# 1 0.013555 -0.003150 -0.004732 0.000000 0.000000 0.000000
# 2 -0.003150 0.009286 -0.002066 0.000000 0.000000 0.000000
# 3 -0.004732 -0.002066 0.016041 0.000000 0.000000 0.000000
# 4 0.000000 0.000000 0.000000 0.069952 0.000000 0.000000
# 5 0.000000 0.000000 0.000000 0.000000 0.039594 0.000000
# 6 0.000000 0.000000 0.000000 0.000000 0.000000 0.046678
#
#
# Mechanical properties :
#
#
# Convention : Reuss Voigt Hill
#
# Bulk Modulus (GPa) = 52.66551 55.31407 53.98979
# Shear Modulus (GPa) = 22.59070 25.33300 23.96185
#
# Velocity S-wave (km/s) = 3.23993 3.43095 3.33681
# Velocity P-wave (km/s) = 6.20227 6.43412 6.31926
#
# Compressibility (1/GPa) = 0.01898776
#
# Stress axis : x y z
#
# Youngs Moduli (GPa) = 73.77207 107.69070 62.33915
#
# Poissons Ratio (x) = 0.33922 0.29496
# Poissons Ratio (y) = 0.23238 0.12878
# Poissons Ratio (z) = 0.34905 0.22247
#
# Static dielectric constant tensor:
#      x y z
#    x 1.645570 0.000000 0.000000 
#    y 0.000000 1.793100 0.000000 
#    z 0.000000 0.000000 1.924010 
# 
# From -- ./inp_files/18954.got.cif
#   From: 2010.05.17/outbox.cif.g08.bks.cpg/sg48_10_cif.got.tgz:18954.got - 2010.06.03 20:39:00.
