data_PCOD9391021
_publ_section_title
;
Structure prediction by ZEFSAII (Michael W. Deem and Ramdas Pophale) SiO2 
 PCOD9391021
Probable space group: P N N N
;
_chemical_formula_sum "Si O2"
_cell_formula_units_Z 26
_cell_length_a 9.486760
_cell_length_b 4.884798
_cell_length_c 22.242562
_cell_angle_alpha 90.000000
_cell_angle_beta 90.000000
_cell_angle_gamma 90.000000
_cell_volume 1030.740481
_symmetry_space_group_name_H-M "P N N N"
_symmetry_group_IT_number 48
_space_group.IT_coordinate_system_code '2'
_symmetry_cell_setting 'orthorhombic'
loop_
_space_group_symop_operation_xyz
x,y,z
1/2-x,1/2-y,z
x,1/2-y,1/2-z
1/2-x,y,1/2-z
-x,-y,-z
1/2+x,1/2+y,-z
-x,1/2+y,1/2+z
1/2+x,-y,1/2+z
loop_
_atom_site_type_symbol
_atom_site_label
_atom_site_fract_x
_atom_site_fract_y
_atom_site_fract_z
Si Si1 0.250000 0.250000 0.482731
Si Si2 0.039571 0.429150 0.380570
Si Si3 0.250000 0.250000 0.750000
Si Si4 0.750000 0.250000 0.066178
Si Si5 0.471492 0.931918 0.195202
O O1 0.128909 0.357574 0.438716
O O2 0.299560 0.499285 0.524372
O O3 0.055866 0.742623 0.362463
O O4 0.878278 0.363759 0.395152
O O5 0.076048 0.232395 0.323709
O O6 0.360601 0.073535 0.789056
O O7 0.411191 0.750000 0.250000
#
# Coordination Sequence:
#
# PCOD9391021 Si02
#       5
#     4   8   2   4   8
#     4  12  26  43  61  92 131 164 211 262 306 376
#     4  12  23  42  65  94 125 169 204 257 320 361
#     4   8  20  36  64  88 132 142 214 244 304 334
#     4  12  24  42  67  90 121 168 220 260 304 360
#     4  10  22  38  64  96 126 157 205 261 303 376
#
# _framework density 25.224585000000001
#
# number of rings (size 3 to 8) (size 9 to 14) (size 15 to 20)
#    0.923    0.000    0.000    8.308    0.000    1.231 
#    0.000    4.615    0.000    0.000    0.000    0.000 
#    0.000    0.000    0.000    0.000    0.000    0.000 
#
# Total GULP energy -145619.946353 kJ/mol
# GULP energy per Si atom -5600.767167 kJ/mol
# Density = 2.516717 g / cm^3
# Si number density = 25.224585 Si / 1000 Ang^3
#
#
#
# Elastic Constant Matrix: (Units=GPa)
#
#
# Indices 1 2 3 4 5 6 
#
# 1 74.2676 -17.0088 -2.7778 0.0000 0.0000 0.0000
# 2 -17.0088 113.9740 12.9447 0.0000 0.0000 0.0000
# 3 -2.7778 12.9447 67.1715 0.0000 0.0000 0.0000
# 4 0.0000 0.0000 0.0000 36.4274 0.0000 0.0000
# 5 0.0000 0.0000 0.0000 0.0000 13.2186 0.0000
# 6 0.0000 0.0000 0.0000 0.0000 0.0000 5.2138
#
#
#
# Elastic Compliance Matrix: (Units=1/GPa)
#
#
# Indices 1 2 3 4 5 6 
#
# 1 0.013943 0.002060 0.000180 0.000000 0.000000 0.000000
# 2 0.002060 0.009275 -0.001702 0.000000 0.000000 0.000000
# 3 0.000180 -0.001702 0.015223 0.000000 0.000000 0.000000
# 4 0.000000 0.000000 0.000000 0.027452 0.000000 0.000000
# 5 0.000000 0.000000 0.000000 0.000000 0.075651 0.000000
# 6 0.000000 0.000000 0.000000 0.000000 0.000000 0.191798
#
#
# Mechanical properties :
#
#
# Convention : Reuss Voigt Hill
#
# Bulk Modulus (GPa) = 25.30585 26.85882 26.08233
# Shear Modulus (GPa) = 14.47436 28.45564 21.46500
#
# Velocity S-wave (km/s) = 2.39805 3.36235 2.92028
# Velocity P-wave (km/s) = 4.20969 5.07394 4.66189
#
# Compressibility (1/GPa) = 0.03951655
#
# Stress axis : x y z
#
# Youngs Moduli (GPa) = 71.71842 107.81975 65.69132
#
# Poissons Ratio (x) = -0.22216 -0.01179
# Poissons Ratio (y) = -0.14777 0.11182
# Poissons Ratio (z) = -0.01288 0.18352
#
# Static dielectric constant tensor:
#      x y z
#    x 1.984660 0.000000 0.000000 
#    y 0.000000 1.909690 0.000000 
#    z 0.000000 0.000000 2.015290 
# 
# From -- ./inp_files/32595.got.cif
#   From: 2010.05.17/outbox.cif.g08.bks.cpg/sg48_17_cif.got.tgz:32595.got - 2010.06.03 20:39:00.
