data_PCOD9391566
_publ_section_title
;
Structure prediction by ZEFSAII (Michael W. Deem and Ramdas Pophale) SiO2 
 PCOD9391566
Probable space group: P N N N
;
_chemical_formula_sum "Si O2"
_cell_formula_units_Z 32
_cell_length_a 11.533837
_cell_length_b 7.378010
_cell_length_c 18.442504
_cell_angle_alpha 90.000000
_cell_angle_beta 90.000000
_cell_angle_gamma 90.000000
_cell_volume 1569.397424
_symmetry_space_group_name_H-M "P N N N"
_symmetry_group_IT_number 48
_space_group.IT_coordinate_system_code '2'
_symmetry_cell_setting 'orthorhombic'
loop_
_space_group_symop_operation_xyz
x,y,z
1/2-x,1/2-y,z
x,1/2-y,1/2-z
1/2-x,y,1/2-z
-x,-y,-z
1/2+x,1/2+y,-z
-x,1/2+y,1/2+z
1/2+x,-y,1/2+z
loop_
_atom_site_type_symbol
_atom_site_label
_atom_site_fract_x
_atom_site_fract_y
_atom_site_fract_z
Si Si1 0.735719 0.031600 0.666958
Si Si2 0.381745 0.808574 0.669144
Si Si3 0.506809 0.836247 0.329972
Si Si4 0.468459 0.025914 0.083672
O O1 0.750000 0.250000 0.667955
O O2 0.750000 0.965126 0.750000
O O3 0.599734 0.027903 0.649816
O O4 0.833829 0.957441 0.612278
O O5 0.250000 0.750000 0.659232
O O6 0.420373 0.750000 0.750000
O O7 0.459951 0.694953 0.614151
O O8 0.387486 0.025973 0.665658
O O9 0.490266 0.750000 0.250000
O O10 0.510426 0.661967 0.380032
O O11 0.500000 0.000000 0.000000
#
# Coordination Sequence:
#
# PCOD9391566 Si02
#       4
#     8   8   8   8
#     4   9  15  34  66  94 120 169 225 273 337 403
#     4  11  24  42  64  95 128 182 238 271 333 433
#     4  11  20  41  70  93 130 178 234 291 336 409
#     4  11  24  41  65 104 142 169 219 295 357 401
#
# _framework density 20.389990000000001
#
# number of rings (size 3 to 8) (size 9 to 14) (size 15 to 20)
#    0.000    1.500    7.500    0.000    0.000    6.000 
#    0.000    5.000    0.000    0.000    0.000    0.000 
#    0.000    0.000    0.000    0.000    0.000    0.000 
#
# Total GULP energy -178400.267978 kJ/mol
# GULP energy per Si atom -5575.008374 kJ/mol
# Density = 2.034358 g / cm^3
# Si number density = 20.389990 Si / 1000 Ang^3
#
#
#
# Elastic Constant Matrix: (Units=GPa)
#
#
# Indices 1 2 3 4 5 6 
#
# 1 69.1329 30.6917 42.7321 0.0000 0.0000 0.0000
# 2 30.6917 112.2262 49.7031 0.0000 0.0000 0.0000
# 3 42.7321 49.7031 162.5669 0.0000 0.0000 0.0000
# 4 0.0000 0.0000 0.0000 7.1743 0.0000 0.0000
# 5 0.0000 0.0000 0.0000 0.0000 18.9112 0.0000
# 6 0.0000 0.0000 0.0000 0.0000 0.0000 38.9002
#
#
#
# Elastic Compliance Matrix: (Units=1/GPa)
#
#
# Indices 1 2 3 4 5 6 
#
# 1 0.018282 -0.003321 -0.003790 0.000000 0.000000 0.000000
# 2 -0.003321 0.010909 -0.002462 0.000000 0.000000 0.000000
# 3 -0.003790 -0.002462 0.007900 0.000000 0.000000 0.000000
# 4 0.000000 0.000000 0.000000 0.139386 0.000000 0.000000
# 5 0.000000 0.000000 0.000000 0.000000 0.052879 0.000000
# 6 0.000000 0.000000 0.000000 0.000000 0.000000 0.025707
#
#
# Mechanical properties :
#
#
# Convention : Reuss Voigt Hill
#
# Bulk Modulus (GPa) = 55.72780 65.57553 60.65166
# Shear Modulus (GPa) = 17.84489 27.71709 22.78099
#
# Velocity S-wave (km/s) = 2.96155 3.69093 3.34618
# Velocity P-wave (km/s) = 6.25177 7.09891 6.68876
#
# Compressibility (1/GPa) = 0.01794436
#
# Stress axis : x y z
#
# Youngs Moduli (GPa) = 54.69823 91.66382 126.57496
#
# Poissons Ratio (x) = 0.30443 0.47974
# Poissons Ratio (y) = 0.18166 0.31168
# Poissons Ratio (z) = 0.20732 0.22572
#
# Static dielectric constant tensor:
#      x y z
#    x 1.626080 0.000000 0.000000 
#    y 0.000000 1.724310 0.000000 
#    z 0.000000 0.000000 1.756780 
# 
# From -- ./inp_files/30796.got.cif
#   From: 2010.05.17/outbox.cif.g08.bks.cpg/sg48_16_cif.got.tgz:30796.got - 2010.06.03 20:39:00.
