data_PCOD9391948
_publ_section_title
;
Structure prediction by ZEFSAII (Michael W. Deem and Ramdas Pophale) SiO2 
 PCOD9391948
Probable space group: P N N N
;
_chemical_formula_sum "Si O2"
_cell_formula_units_Z 64
_cell_length_a 30.000000
_cell_length_b 12.000000
_cell_length_c 9.000000
_cell_angle_alpha 90.000000
_cell_angle_beta 90.000000
_cell_angle_gamma 90.000000
_cell_volume 3240.000000
_symmetry_space_group_name_H-M "P N N N"
_symmetry_group_IT_number 48
_space_group.IT_coordinate_system_code '2'
_symmetry_cell_setting 'orthorhombic'
loop_
_space_group_symop_operation_xyz
x,y,z
1/2-x,1/2-y,z
x,1/2-y,1/2-z
1/2-x,y,1/2-z
-x,-y,-z
1/2+x,1/2+y,-z
-x,1/2+y,1/2+z
1/2+x,-y,1/2+z
loop_
_atom_site_type_symbol
_atom_site_label
_atom_site_fract_x
_atom_site_fract_y
_atom_site_fract_z
Si Si1 0.141063 0.592388 0.910461
Si Si2 0.458879 0.148398 0.083491
Si Si3 0.931948 0.839101 0.113973
Si Si4 0.835169 0.658156 0.528539
Si Si5 0.705541 0.020270 0.350077
Si Si6 0.697638 0.277944 0.924781
Si Si7 0.044578 0.964882 0.681313
Si Si8 0.642653 0.893017 0.855931
O O1 0.166640 0.544791 0.767706
O O2 0.089586 0.602131 0.860222
O O3 0.165913 0.701223 0.972572
O O4 0.145053 0.502354 0.043801
O O5 0.501284 0.113329 0.180252
O O6 0.410124 0.136894 0.158004
O O7 0.460258 0.270169 0.007730
O O8 0.458998 0.056999 0.950771
O O9 0.927178 0.750000 0.250000
O O10 0.950653 0.955734 0.174846
O O11 0.883145 0.860400 0.047920
O O12 0.798961 0.602377 0.421682
O O13 0.836758 0.602149 0.692031
O O14 0.833591 0.790375 0.559090
O O15 0.750000 0.037653 0.250000
O O16 0.697681 0.101893 0.492236
O O17 0.750000 0.250000 0.935397
O O18 0.685731 0.250000 0.750000
#
# Coordination Sequence:
#
# PCOD9391948 Si02
#       8
#     8   8   8   8   8   8   8   8
#     4  11  21  38  65  90 124 158 210 255 309 367
#     4   8  16  30  54  82 122 160 204 247 309 370
#     4   9  16  30  55  82 113 160 208 246 304 374
#     4  10  20  37  62  88 123 164 205 247 311 376
#     4  12  24  40  65  94 121 158 208 261 308 373
#     4  11  24  43  66  87 119 163 208 252 311 375
#     4   9  16  31  54  88 115 158 202 262 303 359
#     4   9  20  38  62  90 126 168 204 249 308 383
#
# _framework density 19.753086
#
# number of rings (size 3 to 8) (size 9 to 14) (size 15 to 20)
#    0.000    2.125    2.500    1.875    0.000    0.000 
#    0.000    7.500   11.000    1.500    0.000    0.000 
#    0.000    0.000    0.000    0.000    0.000    0.000 
#
# Total GULP energy -356910.660569 kJ/mol
# GULP energy per Si atom -5576.729071 kJ/mol
# Density = 1.970813 g / cm^3
# Si number density = 19.753086 Si / 1000 Ang^3
#
#
#
# Elastic Constant Matrix: (Units=GPa)
#
#
# Indices 1 2 3 4 5 6 
#
# 1 59.2990 37.6962 21.5844 0.0000 0.0000 0.0000
# 2 37.6962 83.1336 26.4850 0.0000 0.0000 0.0000
# 3 21.5844 26.4850 63.5829 0.0000 0.0000 0.0000
# 4 0.0000 0.0000 0.0000 33.6503 0.0000 0.0000
# 5 0.0000 0.0000 0.0000 0.0000 12.1867 0.0000
# 6 0.0000 0.0000 0.0000 0.0000 0.0000 25.4494
#
#
#
# Elastic Compliance Matrix: (Units=1/GPa)
#
#
# Indices 1 2 3 4 5 6 
#
# 1 0.024665 -0.009820 -0.004283 0.000000 0.000000 0.000000
# 2 -0.009820 0.017779 -0.004072 0.000000 0.000000 0.000000
# 3 -0.004283 -0.004072 0.018878 0.000000 0.000000 0.000000
# 4 0.000000 0.000000 0.000000 0.029717 0.000000 0.000000
# 5 0.000000 0.000000 0.000000 0.000000 0.082057 0.000000
# 6 0.000000 0.000000 0.000000 0.000000 0.000000 0.039294
#
#
# Mechanical properties :
#
#
# Convention : Reuss Voigt Hill
#
# Bulk Modulus (GPa) = 40.04442 41.94964 40.99703
# Shear Modulus (GPa) = 19.45056 22.27394 20.86225
#
# Velocity S-wave (km/s) = 3.14137 3.36165 3.25337
# Velocity P-wave (km/s) = 5.78568 6.02915 5.90867
#
# Compressibility (1/GPa) = 0.02497227
#
# Stress axis : x y z
#
# Youngs Moduli (GPa) = 40.54347 56.24677 52.97304
#
# Poissons Ratio (x) = 0.55233 0.22686
# Poissons Ratio (y) = 0.39812 0.21571
# Poissons Ratio (z) = 0.17363 0.22904
#
# Static dielectric constant tensor:
#      x y z
#    x 1.681200 0.000000 0.000000 
#    y 0.000000 1.716410 0.000000 
#    z 0.000000 0.000000 1.709800 
# 
# From -- ./inp_files/16953.got.cif
#   From: 2010.05.17/outbox.ucp.g08.bks.cvg/sg48_9_cif.got.tgz:16953.got - 2010.06.11 16:38:40.
