data_PCOD9391000
_publ_section_title
;
Structure prediction by ZEFSAII (Michael W. Deem and Ramdas Pophale) SiO2 
 PCOD9391000
Probable space group: P N N N
;
_chemical_formula_sum "Si O2"
_cell_formula_units_Z 58
_cell_length_a 9.023820
_cell_length_b 11.630351
_cell_length_c 28.048482
_cell_angle_alpha 90.000000
_cell_angle_beta 90.000000
_cell_angle_gamma 90.000000
_cell_volume 2943.693626
_symmetry_space_group_name_H-M "P N N N"
_symmetry_group_IT_number 48
_space_group.IT_coordinate_system_code '2'
_symmetry_cell_setting 'orthorhombic'
loop_
_space_group_symop_operation_xyz
x,y,z
1/2-x,1/2-y,z
x,1/2-y,1/2-z
1/2-x,y,1/2-z
-x,-y,-z
1/2+x,1/2+y,-z
-x,1/2+y,1/2+z
1/2+x,-y,1/2+z
loop_
_atom_site_type_symbol
_atom_site_label
_atom_site_fract_x
_atom_site_fract_y
_atom_site_fract_z
Si Si1 0.807386 0.879279 0.144833
Si Si2 0.775549 0.987657 0.970911
Si Si3 0.945644 0.655681 0.458408
Si Si4 0.750000 0.250000 0.250000
Si Si5 0.424153 0.938225 0.813831
Si Si6 0.070773 0.378777 0.739384
Si Si7 0.601276 0.325130 0.481787
Si Si8 0.375470 0.153728 0.103701
O O1 0.750000 0.750000 0.157468
O O2 0.865852 0.866301 0.091387
O O3 0.936520 0.904661 0.183336
O O4 0.686081 0.979554 0.154275
O O5 0.702829 0.954266 0.921472
O O6 0.836322 0.877575 0.998739
O O7 0.914395 0.070419 0.961949
O O8 0.660775 0.049383 0.006076
O O9 0.012647 0.778934 0.471833
O O10 0.659649 0.162473 0.215504
O O11 0.543039 0.881298 0.848259
O O12 0.491743 0.025622 0.774603
O O13 0.018563 0.250000 0.750000
O O14 0.250000 0.383297 0.750000
O O15 0.750000 0.250000 0.475322
O O16 0.499858 0.312031 0.435496
O O17 0.250000 0.250000 0.110126
#
# Coordination Sequence:
#
# PCOD9391000 Si02
#       8
#     8   8   8   2   8   8   8   8
#     4  11  20  34  68 102 129 159 218 280 345 397
#     4  10  22  41  58  86 136 176 220 264 319 393
#     4  10  22  37  61  95 131 176 211 270 330 389
#     4  12  24  44  68  92 132 168 234 278 320 416
#     4  11  24  40  64  99 126 174 222 278 340 403
#     4   9  15  36  59  92 130 150 198 282 338 383
#     4  10  22  40  61  92 130 174 221 264 315 392
#     4  12  25  41  64  92 134 179 222 269 325 398
#
# _framework density 19.703137000000002
#
# number of rings (size 3 to 8) (size 9 to 14) (size 15 to 20)
#    0.000    1.517    6.207    1.241    4.828    1.103 
#    0.000    0.345    0.000    0.000    0.000    0.966 
#    0.000    0.000    0.000    0.000    0.000    0.000 
#
# Total GULP energy -323566.054046 kJ/mol
# GULP energy per Si atom -5578.725070 kJ/mol
# Density = 1.965829 g / cm^3
# Si number density = 19.703137 Si / 1000 Ang^3
#
#
#
# Elastic Constant Matrix: (Units=GPa)
#
#
# Indices 1 2 3 4 5 6 
#
# 1 81.9479 50.1868 45.0772 0.0000 0.0000 0.0000
# 2 50.1868 103.5383 38.4111 0.0000 0.0000 0.0000
# 3 45.0772 38.4111 128.5315 0.0000 0.0000 0.0000
# 4 0.0000 0.0000 0.0000 28.8239 0.0000 0.0000
# 5 0.0000 0.0000 0.0000 0.0000 25.2618 0.0000
# 6 0.0000 0.0000 0.0000 0.0000 0.0000 25.8373
#
#
#
# Elastic Compliance Matrix: (Units=1/GPa)
#
#
# Indices 1 2 3 4 5 6 
#
# 1 0.019419 -0.007745 -0.004496 0.000000 0.000000 0.000000
# 2 -0.007745 0.013951 -0.001453 0.000000 0.000000 0.000000
# 3 -0.004496 -0.001453 0.009791 0.000000 0.000000 0.000000
# 4 0.000000 0.000000 0.000000 0.034693 0.000000 0.000000
# 5 0.000000 0.000000 0.000000 0.000000 0.039585 0.000000
# 6 0.000000 0.000000 0.000000 0.000000 0.000000 0.038704
#
#
# Mechanical properties :
#
#
# Convention : Reuss Voigt Hill
#
# Bulk Modulus (GPa) = 63.39590 64.59644 63.99617
# Shear Modulus (GPa) = 26.48444 28.00744 27.24594
#
# Velocity S-wave (km/s) = 3.67027 3.77433 3.72267
# Velocity P-wave (km/s) = 7.08566 7.20070 7.14341
#
# Compressibility (1/GPa) = 0.01577389
#
# Stress axis : x y z
#
# Youngs Moduli (GPa) = 51.49573 71.67739 102.13229
#
# Poissons Ratio (x) = 0.55513 0.45918
# Poissons Ratio (y) = 0.39883 0.14841
# Poissons Ratio (z) = 0.23152 0.10416
#
# Static dielectric constant tensor:
#      x y z
#    x 1.706290 0.000000 0.000000 
#    y 0.000000 1.702890 0.000000 
#    z 0.000000 0.000000 1.707000 
# 
# From -- ./inp_files/37545.got.cif
#   From: 2010.05.17/outbox.cif.g08.bks.cpg/sg48_19_cif.got.tgz:37545.got - 2010.06.03 20:39:00.
