data_PCOD9391624
_publ_section_title
;
Structure prediction by ZEFSAII (Michael W. Deem and Ramdas Pophale) SiO2 
 PCOD9391624
Probable space group: P N N N
;
_chemical_formula_sum "Si O2"
_cell_formula_units_Z 36
_cell_length_a 23.521164
_cell_length_b 8.225832
_cell_length_c 7.804846
_cell_angle_alpha 90.000000
_cell_angle_beta 90.000000
_cell_angle_gamma 90.000000
_cell_volume 1510.090529
_symmetry_space_group_name_H-M "P N N N"
_symmetry_group_IT_number 48
_space_group.IT_coordinate_system_code '2'
_symmetry_cell_setting 'orthorhombic'
loop_
_space_group_symop_operation_xyz
x,y,z
1/2-x,1/2-y,z
x,1/2-y,1/2-z
1/2-x,y,1/2-z
-x,-y,-z
1/2+x,1/2+y,-z
-x,1/2+y,1/2+z
1/2+x,-y,1/2+z
loop_
_atom_site_type_symbol
_atom_site_label
_atom_site_fract_x
_atom_site_fract_y
_atom_site_fract_z
Si Si1 0.394125 0.521710 0.856167
Si Si2 0.724118 0.573279 0.014512
Si Si3 0.820743 0.432201 0.821015
Si Si4 0.430103 0.847100 0.013627
Si Si5 0.970023 0.750000 0.250000
O O1 0.409413 0.658635 0.995505
O O2 0.419664 0.587593 0.677238
O O3 0.429260 0.356386 0.871555
O O4 0.326576 0.485447 0.861676
O O5 0.750000 0.750000 0.050920
O O6 0.778404 0.457988 0.981094
O O7 0.694250 0.559578 0.827496
O O8 0.812476 0.250000 0.750000
O O9 0.884825 0.447465 0.878066
O O10 0.488555 0.843667 0.117181
#
# Coordination Sequence:
#
# PCOD9391624 Si02
#       5
#     8   8   8   8   4
#     4  11  26  44  70 105 141 187 234 304 368 417
#     4  11  24  43  67 104 146 185 232 291 364 434
#     4  11  21  42  74 100 136 192 239 282 346 439
#     4  11  24  46  73 102 136 188 246 294 358 434
#     4  12  24  48  71 101 144 182 242 306 362 434
#
# _framework density 23.839632000000002
#
# number of rings (size 3 to 8) (size 9 to 14) (size 15 to 20)
#    0.000    0.889    3.333    4.000    3.111    0.889 
#    0.000    2.222    0.000    0.000    0.000    0.000 
#    0.000    0.000    0.000    0.000    0.000    0.000 
#
# Total GULP energy -201065.982344 kJ/mol
# GULP energy per Si atom -5585.166176 kJ/mol
# Density = 2.378537 g / cm^3
# Si number density = 23.839632 Si / 1000 Ang^3
#
#
#
# Elastic Constant Matrix: (Units=GPa)
#
#
# Indices 1 2 3 4 5 6 
#
# 1 106.1058 36.3677 40.8314 0.0000 0.0000 0.0000
# 2 36.3677 70.7064 9.7225 0.0000 0.0000 0.0000
# 3 40.8314 9.7225 103.9121 0.0000 0.0000 0.0000
# 4 0.0000 0.0000 0.0000 13.0994 0.0000 0.0000
# 5 0.0000 0.0000 0.0000 0.0000 49.5146 0.0000
# 6 0.0000 0.0000 0.0000 0.0000 0.0000 27.6251
#
#
#
# Elastic Compliance Matrix: (Units=1/GPa)
#
#
# Indices 1 2 3 4 5 6 
#
# 1 0.013354 -0.006227 -0.004665 0.000000 0.000000 0.000000
# 2 -0.006227 0.017231 0.000835 0.000000 0.000000 0.000000
# 3 -0.004665 0.000835 0.011378 0.000000 0.000000 0.000000
# 4 0.000000 0.000000 0.000000 0.076340 0.000000 0.000000
# 5 0.000000 0.000000 0.000000 0.000000 0.020196 0.000000
# 6 0.000000 0.000000 0.000000 0.000000 0.000000 0.036199
#
#
# Mechanical properties :
#
#
# Convention : Reuss Voigt Hill
#
# Bulk Modulus (GPa) = 45.76837 50.50750 48.13794
# Shear Modulus (GPa) = 24.74077 30.96799 27.85438
#
# Velocity S-wave (km/s) = 3.22499 3.60809 3.42190
# Velocity P-wave (km/s) = 5.75391 6.21210 5.98739
#
# Compressibility (1/GPa) = 0.02184915
#
# Stress axis : x y z
#
# Youngs Moduli (GPa) = 74.88405 58.03442 87.88605
#
# Poissons Ratio (x) = 0.36139 0.40996
# Poissons Ratio (y) = 0.46632 -0.07336
# Poissons Ratio (z) = 0.34931 -0.04844
#
# Static dielectric constant tensor:
#      x y z
#    x 1.891940 0.000000 0.000000 
#    y 0.000000 1.972100 0.000000 
#    z 0.000000 0.000000 1.973400 
# 
# From -- ./inp_files/15715.got.cif
#   From: 2010.05.17/outbox.cif.g08.bks.cpg/sg48_8_cif.got.tgz:15715.got - 2010.06.03 20:39:00.
