data_PCOD9391379
_publ_section_title
;
Structure prediction by ZEFSAII (Michael W. Deem and Ramdas Pophale) SiO2 
 PCOD9391379
Probable space group: P N N N
;
_chemical_formula_sum "Si O2"
_cell_formula_units_Z 64
_cell_length_a 11.604863
_cell_length_b 14.703840
_cell_length_c 17.415671
_cell_angle_alpha 90.000000
_cell_angle_beta 90.000000
_cell_angle_gamma 90.000000
_cell_volume 2971.741286
_symmetry_space_group_name_H-M "P N N N"
_symmetry_group_IT_number 48
_space_group.IT_coordinate_system_code '2'
_symmetry_cell_setting 'orthorhombic'
loop_
_space_group_symop_operation_xyz
x,y,z
1/2-x,1/2-y,z
x,1/2-y,1/2-z
1/2-x,y,1/2-z
-x,-y,-z
1/2+x,1/2+y,-z
-x,1/2+y,1/2+z
1/2+x,-y,1/2+z
loop_
_atom_site_type_symbol
_atom_site_label
_atom_site_fract_x
_atom_site_fract_y
_atom_site_fract_z
Si Si1 0.964638 0.770209 0.519249
Si Si2 0.297233 0.525940 0.354163
Si Si3 0.445658 0.593297 0.197554
Si Si4 0.079889 0.075128 0.959573
Si Si5 0.372454 0.722876 0.372422
Si Si6 0.963335 0.015436 0.332237
Si Si7 0.122550 0.791723 0.669963
Si Si8 0.334890 0.048610 0.981965
O O1 0.917912 0.667786 0.509830
O O2 0.874417 0.853377 0.514846
O O3 0.039150 0.784230 0.441742
O O4 0.043125 0.775578 0.595308
O O5 0.169619 0.529857 0.318431
O O6 0.350201 0.625124 0.334533
O O7 0.399956 0.457099 0.331129
O O8 0.303472 0.516914 0.446255
O O9 0.519421 0.586957 0.120780
O O10 0.403969 0.697300 0.186164
O O11 0.532048 0.559508 0.264861
O O12 0.211658 0.052696 0.941990
O O13 0.000000 0.000000 0.000000
O O14 0.250000 0.750000 0.408182
O O15 0.881141 0.099985 0.316832
O O16 0.928117 0.982858 0.418242
O O17 0.250000 0.750000 0.657345
O O18 0.077594 0.750000 0.750000
#
# Coordination Sequence:
#
# PCOD9391379 Si02
#       8
#     8   8   8   8   8   8   8   8
#     4  11  22  44  66  95 140 179 242 291 356 425
#     4  11  20  42  70 101 138 185 239 287 352 434
#     4  10  24  42  67 104 145 186 230 295 364 427
#     4  11  25  42  68  97 134 189 239 288 351 435
#     4   9  19  37  66 100 133 180 232 286 352 423
#     4  12  25  43  71 102 143 177 233 294 367 427
#     4  11  27  43  68 101 137 177 227 295 357 420
#     4  12  24  42  71 102 134 187 239 298 351 432
#
# _framework density 21.536193999999998
#
# number of rings (size 3 to 8) (size 9 to 14) (size 15 to 20)
#    0.000    1.125    3.750    2.250    3.500    2.000 
#    0.000    1.875    0.000    1.500    0.000    0.000 
#    0.000    0.000    0.000    0.000    0.000    0.000 
#
# Total GULP energy -356636.652845 kJ/mol
# GULP energy per Si atom -5572.447701 kJ/mol
# Density = 2.148718 g / cm^3
# Si number density = 21.536194 Si / 1000 Ang^3
#
#
#
# Elastic Constant Matrix: (Units=GPa)
#
#
# Indices 1 2 3 4 5 6 
#
# 1 116.4623 23.7864 25.1352 0.0000 0.0000 0.0000
# 2 23.7864 91.4583 27.3515 0.0000 0.0000 0.0000
# 3 25.1352 27.3515 118.3974 0.0000 0.0000 0.0000
# 4 0.0000 0.0000 0.0000 41.7811 0.0000 0.0000
# 5 0.0000 0.0000 0.0000 0.0000 28.0508 0.0000
# 6 0.0000 0.0000 0.0000 0.0000 0.0000 33.0076
#
#
#
# Elastic Compliance Matrix: (Units=1/GPa)
#
#
# Indices 1 2 3 4 5 6 
#
# 1 0.009317 -0.001968 -0.001523 0.000000 0.000000 0.000000
# 2 -0.001968 0.012161 -0.002392 0.000000 0.000000 0.000000
# 3 -0.001523 -0.002392 0.009322 0.000000 0.000000 0.000000
# 4 0.000000 0.000000 0.000000 0.023934 0.000000 0.000000
# 5 0.000000 0.000000 0.000000 0.000000 0.035650 0.000000
# 6 0.000000 0.000000 0.000000 0.000000 0.000000 0.030296
#
#
# Mechanical properties :
#
#
# Convention : Reuss Voigt Hill
#
# Bulk Modulus (GPa) = 52.53547 53.20714 52.87131
# Shear Modulus (GPa) = 36.02559 37.23757 36.63158
#
# Velocity S-wave (km/s) = 4.09442 4.16272 4.12871
# Velocity P-wave (km/s) = 6.84100 6.91837 6.87980
#
# Compressibility (1/GPa) = 0.01903476
#
# Stress axis : x y z
#
# Youngs Moduli (GPa) = 107.32925 82.23063 107.27256
#
# Poissons Ratio (x) = 0.16180 0.16342
# Poissons Ratio (y) = 0.21118 0.25656
# Poissons Ratio (z) = 0.16351 0.19667
#
# Static dielectric constant tensor:
#      x y z
#    x 1.822690 0.000000 0.000000 
#    y 0.000000 1.853850 0.000000 
#    z 0.000000 0.000000 2.336540 
# 
# From -- ./inp_files/31184.got.cif
#   From: 2010.05.17/outbox.cif.g08.bks.cpg/sg48_16_cif.got.tgz:31184.got - 2010.06.03 20:39:00.
