data_PCOD9391209
_publ_section_title
;
Structure prediction by ZEFSAII (Michael W. Deem and Ramdas Pophale) SiO2 
 PCOD9391209
Probable space group: P N N N
;
_chemical_formula_sum "Si O2"
_cell_formula_units_Z 34
_cell_length_a 21.463677
_cell_length_b 11.464730
_cell_length_c 6.167265
_cell_angle_alpha 90.000000
_cell_angle_beta 90.000000
_cell_angle_gamma 90.000000
_cell_volume 1517.611348
_symmetry_space_group_name_H-M "P N N N"
_symmetry_group_IT_number 48
_space_group.IT_coordinate_system_code '2'
_symmetry_cell_setting 'orthorhombic'
loop_
_space_group_symop_operation_xyz
x,y,z
1/2-x,1/2-y,z
x,1/2-y,1/2-z
1/2-x,y,1/2-z
-x,-y,-z
1/2+x,1/2+y,-z
-x,1/2+y,1/2+z
1/2+x,-y,1/2+z
loop_
_atom_site_type_symbol
_atom_site_label
_atom_site_fract_x
_atom_site_fract_y
_atom_site_fract_z
Si Si1 0.962104 0.750000 0.750000
Si Si2 0.750000 0.250000 0.750000
Si Si3 0.166680 0.543335 0.412557
Si Si4 0.628218 0.878854 0.002221
Si Si5 0.548882 0.456551 0.178974
Si Si6 0.250000 0.396631 0.750000
O O1 0.911954 0.736092 0.943439
O O2 0.008183 0.857037 0.709772
O O3 0.794898 0.340787 0.633645
O O4 0.145778 0.462499 0.206110
O O5 0.105811 0.587317 0.535652
O O6 0.210185 0.469796 0.574694
O O7 0.582776 0.954542 0.157532
O O8 0.694215 0.842803 0.105632
O O9 0.500000 0.500000 0.000000
#
# Coordination Sequence:
#
# PCOD9391209 Si02
#       6
#     4   2   8   8   8   4
#     4  12  26  44  75 103 142 196 228 288 384 412
#     4  12  24  38  72  98 146 188 236 292 380 394
#     4  11  24  43  70 104 142 184 234 306 349 432
#     4  11  24  48  70 103 145 186 242 304 349 439
#     4  11  26  45  71 104 143 184 240 299 353 440
#     4  10  22  47  71  96 148 176 238 302 354 410
#
# _framework density 22.40363
#
# number of rings (size 3 to 8) (size 9 to 14) (size 15 to 20)
#    0.000    0.941    4.706    0.706    3.294    1.412 
#    0.000    3.529    0.000    0.000    0.000    0.000 
#    0.000    0.000    0.000    0.000    0.000    0.000 
#
# Total GULP energy -189511.629823 kJ/mol
# GULP energy per Si atom -5573.871465 kJ/mol
# Density = 2.235264 g / cm^3
# Si number density = 22.403630 Si / 1000 Ang^3
#
#
#
# Elastic Constant Matrix: (Units=GPa)
#
#
# Indices 1 2 3 4 5 6 
#
# 1 221.9022 37.5840 56.1041 0.0000 0.0000 0.0000
# 2 37.5840 45.5706 19.0923 0.0000 0.0000 0.0000
# 3 56.1041 19.0923 88.3337 0.0000 0.0000 0.0000
# 4 0.0000 0.0000 0.0000 -4.3357 0.0000 0.0000
# 5 0.0000 0.0000 0.0000 0.0000 82.6164 0.0000
# 6 0.0000 0.0000 0.0000 0.0000 0.0000 25.7818
#
#
#
# Elastic Compliance Matrix: (Units=1/GPa)
#
#
# Indices 1 2 3 4 5 6 
#
# 1 0.005861 -0.003600 -0.002944 0.000000 0.000000 0.000000
# 2 -0.003600 0.026340 -0.003407 0.000000 0.000000 0.000000
# 3 -0.002944 -0.003407 0.013927 0.000000 0.000000 0.000000
# 4 0.000000 0.000000 0.000000 -0.230646 0.000000 0.000000
# 5 0.000000 0.000000 0.000000 0.000000 0.012104 0.000000
# 6 0.000000 0.000000 0.000000 0.000000 0.000000 0.038787
#
#
# Mechanical properties :
#
#
# Convention : Reuss Voigt Hill
#
# Bulk Modulus (GPa) = 38.12985 64.59637 51.36311
# Shear Modulus (GPa) = -47.62689 37.01425 -5.30632
#
# Velocity S-wave (km/s) = -4.61570 4.06908 -1.54067
# Velocity P-wave (km/s) = 3.36895 7.13948 4.45097
#
# Compressibility (1/GPa) = 0.02622617
#
# Stress axis : x y z
#
# Youngs Moduli (GPa) = 170.63052 37.96469 71.80296
#
# Poissons Ratio (x) = 0.13667 0.21140
# Poissons Ratio (y) = 0.61427 0.24461
# Poissons Ratio (z) = 0.50237 0.12933
#
# Static dielectric constant tensor:
#      x y z
#    x 1.492180 0.000000 0.000000 
#    y 0.000000 1.724380 0.000000 
#    z 0.000000 0.000000 1.956520 
# 
# From -- ./inp_files/4991.got.cif
#   From: 2010.05.17/outbox.cif.g08.bks.cpg/sg48_3_cif.got.tgz:4991.got - 2010.06.03 20:39:00.
