data_PCOD9391465
_publ_section_title
;
Structure prediction by ZEFSAII (Michael W. Deem and Ramdas Pophale) SiO2 
 PCOD9391465
Probable space group: P N N N
;
_chemical_formula_sum "Si O2"
_cell_formula_units_Z 54
_cell_length_a 28.678972
_cell_length_b 14.907807
_cell_length_c 5.341729
_cell_angle_alpha 90.000000
_cell_angle_beta 90.000000
_cell_angle_gamma 90.000000
_cell_volume 2283.805912
_symmetry_space_group_name_H-M "P N N N"
_symmetry_group_IT_number 48
_space_group.IT_coordinate_system_code '2'
_symmetry_cell_setting 'orthorhombic'
loop_
_space_group_symop_operation_xyz
x,y,z
1/2-x,1/2-y,z
x,1/2-y,1/2-z
1/2-x,y,1/2-z
-x,-y,-z
1/2+x,1/2+y,-z
-x,1/2+y,1/2+z
1/2+x,-y,1/2+z
loop_
_atom_site_type_symbol
_atom_site_label
_atom_site_fract_x
_atom_site_fract_y
_atom_site_fract_z
Si Si1 0.018370 0.932428 0.704730
Si Si2 0.622493 0.750000 0.250000
Si Si3 0.909691 0.194897 0.495529
Si Si4 0.250000 0.750000 0.750000
Si Si5 0.075047 0.077727 0.004586
Si Si6 0.816466 0.346926 0.872171
Si Si7 0.799054 0.874488 0.374401
Si Si8 0.175580 0.025560 0.133730
O O1 0.042463 0.851283 0.567943
O O2 0.973329 0.900302 0.856587
O O3 0.000000 0.000000 0.500000
O O4 0.057769 0.988697 0.854814
O O5 0.592098 0.831761 0.361631
O O6 0.661141 0.700582 0.423914
O O7 0.896029 0.250000 0.250000
O O8 0.866913 0.126228 0.522146
O O9 0.915866 0.250000 0.750000
O O10 0.220207 0.818566 0.580220
O O11 0.120040 0.046000 0.164011
O O12 0.823910 0.250000 0.750000
O O13 0.807802 0.423279 0.669584
O O14 0.750000 0.843993 0.250000
O O15 0.797569 0.924589 0.639479
O O16 0.815706 0.939814 0.148147
#
# Coordination Sequence:
#
# PCOD9391465 Si02
#       8
#     8   4   8   2   8   8   8   8
#     4  11  26  47  75 111 152 200 254 313 374 467
#     4  10  25  50  78 112 150 194 248 315 386 448
#     4  11  27  47  72 104 143 197 242 300 366 440
#     4  12  26  44  72 110 140 202 246 336 366 448
#     4  10  26  47  78 113 153 200 252 319 387 456
#     4  11  27  45  71 105 149 192 257 311 378 447
#     4  11  26  48  76 111 148 198 250 314 380 466
#     4  11  27  47  77 106 150 199 247 308 387 453
#
# _framework density 23.644743999999999
#
# number of rings (size 3 to 8) (size 9 to 14) (size 15 to 20)
#    0.000    1.185    0.741    1.778   19.704    4.741 
#    0.000    2.963    0.000    0.000    0.000    0.000 
#    0.000    0.000    0.000    0.000    0.000    0.000 
#
# Total GULP energy -301354.869032 kJ/mol
# GULP energy per Si atom -5580.645723 kJ/mol
# Density = 2.359093 g / cm^3
# Si number density = 23.644744 Si / 1000 Ang^3
#
#
#
# Elastic Constant Matrix: (Units=GPa)
#
#
# Indices 1 2 3 4 5 6 
#
# 1 158.5616 61.3389 59.4200 0.0000 0.0000 0.0000
# 2 61.3389 100.5867 34.7984 0.0000 0.0000 0.0000
# 3 59.4200 34.7984 106.1543 0.0000 0.0000 0.0000
# 4 0.0000 0.0000 0.0000 28.7334 0.0000 0.0000
# 5 0.0000 0.0000 0.0000 0.0000 60.4349 0.0000
# 6 0.0000 0.0000 0.0000 0.0000 0.0000 909.5093
#
#
#
# Elastic Compliance Matrix: (Units=1/GPa)
#
#
# Indices 1 2 3 4 5 6 
#
# 1 0.009465 -0.004443 -0.003842 0.000000 0.000000 0.000000
# 2 -0.004443 0.013299 -0.001873 0.000000 0.000000 0.000000
# 3 -0.003842 -0.001873 0.012184 0.000000 0.000000 0.000000
# 4 0.000000 0.000000 0.000000 0.034803 0.000000 0.000000
# 5 0.000000 0.000000 0.000000 0.000000 0.016547 0.000000
# 6 0.000000 0.000000 0.000000 0.000000 0.000000 0.001099
#
#
# Mechanical properties :
#
#
# Convention : Reuss Voigt Hill
#
# Bulk Modulus (GPa) = 68.33343 75.15747 71.74545
# Shear Modulus (GPa) = 44.40916 213.71855 129.06385
#
# Velocity S-wave (km/s) = 4.33850 9.51754 7.39615
# Velocity P-wave (km/s) = 7.35252 12.35448 10.16594
#
# Compressibility (1/GPa) = 0.01463413
#
# Stress axis : x y z
#
# Youngs Moduli (GPa) = 105.65205 75.19480 82.07170
#
# Poissons Ratio (x) = 0.33408 0.31529
# Poissons Ratio (y) = 0.46940 0.15369
# Poissons Ratio (z) = 0.40588 0.14081
#
# Static dielectric constant tensor:
#      x y z
#    x 2.015780 0.000000 0.000000 
#    y 0.000000 1.360620 0.000000 
#    z 0.000000 0.000000 1.920170 
# 
# From -- ./inp_files/7069.got.cif
#   From: 2010.05.17/outbox.cif.g08.bks.cpg/sg48_4_cif.got.tgz:7069.got - 2010.06.03 20:39:00.
