data_PCOD9391103
_publ_section_title
;
Structure prediction by ZEFSAII (Michael W. Deem and Ramdas Pophale) SiO2 
 PCOD9391103
Probable space group: P N N N
;
_chemical_formula_sum "Si O2"
_cell_formula_units_Z 26
_cell_length_a 31.852337
_cell_length_b 5.064694
_cell_length_c 6.928010
_cell_angle_alpha 90.000000
_cell_angle_beta 90.000000
_cell_angle_gamma 90.000000
_cell_volume 1117.642785
_symmetry_space_group_name_H-M "P N N N"
_symmetry_group_IT_number 48
_space_group.IT_coordinate_system_code '2'
_symmetry_cell_setting 'orthorhombic'
loop_
_space_group_symop_operation_xyz
x,y,z
1/2-x,1/2-y,z
x,1/2-y,1/2-z
1/2-x,y,1/2-z
-x,-y,-z
1/2+x,1/2+y,-z
-x,1/2+y,1/2+z
1/2+x,-y,1/2+z
loop_
_atom_site_type_symbol
_atom_site_label
_atom_site_fract_x
_atom_site_fract_y
_atom_site_fract_z
Si Si1 0.177067 0.780258 0.482313
Si Si2 0.456270 0.496411 0.110894
Si Si3 0.627941 0.779465 0.517778
Si Si4 0.750000 0.250000 0.250000
O O1 0.183229 0.750000 0.250000
O O2 0.163762 0.485205 0.541251
O O3 0.217749 0.880070 0.597118
O O4 0.139602 0.982205 0.536442
O O5 0.460412 0.250000 0.250000
O O6 0.416603 0.418036 0.976202
O O7 0.448552 0.750000 0.250000
O O8 0.500000 0.500000 0.000000
O O9 0.628703 0.750000 0.750000
#
# Coordination Sequence:
#
# PCOD9391103 Si02
#       4
#     8   8   8   2
#     4  10  22  41  64  90 123 173 210 268 330 397
#     4  11  22  40  66  98 135 177 226 278 335 402
#     4   9  19  40  65  84 124 172 215 249 327 399
#     4  12  26  42  64 100 132 154 230 278 340 396
#
# _framework density 23.263247
#
# number of rings (size 3 to 8) (size 9 to 14) (size 15 to 20)
#    0.000    1.846    0.000    6.000    0.000    3.692 
#    8.308    4.615    0.000    0.000    0.000    0.000 
#    0.000    0.000    0.000    0.000    0.000    0.000 
#
# Total GULP energy -144866.828407 kJ/mol
# GULP energy per Si atom -5571.801093 kJ/mol
# Density = 2.321030 g / cm^3
# Si number density = 23.263247 Si / 1000 Ang^3
#
#
#
# Elastic Constant Matrix: (Units=GPa)
#
#
# Indices 1 2 3 4 5 6 
#
# 1 143.9901 38.3328 36.4319 0.0000 0.0000 0.0000
# 2 38.3328 148.4813 18.0132 0.0000 0.0000 0.0000
# 3 36.4319 18.0132 113.6386 0.0000 0.0000 0.0000
# 4 0.0000 0.0000 0.0000 -1.8766 0.0000 0.0000
# 5 0.0000 0.0000 0.0000 0.0000 36.5980 0.0000
# 6 0.0000 0.0000 0.0000 0.0000 0.0000 18.1211
#
#
#
# Elastic Compliance Matrix: (Units=1/GPa)
#
#
# Indices 1 2 3 4 5 6 
#
# 1 0.007998 -0.001788 -0.002281 0.000000 0.000000 0.000000
# 2 -0.001788 0.007267 -0.000579 0.000000 0.000000 0.000000
# 3 -0.002281 -0.000579 0.009623 0.000000 0.000000 0.000000
# 4 0.000000 0.000000 0.000000 -0.532871 0.000000 0.000000
# 5 0.000000 0.000000 0.000000 0.000000 0.027324 0.000000
# 6 0.000000 0.000000 0.000000 0.000000 0.000000 0.055184
#
#
# Mechanical properties :
#
#
# Convention : Reuss Voigt Hill
#
# Bulk Modulus (GPa) = 64.13302 65.74066 64.93684
# Shear Modulus (GPa) = -12.16594 31.45729 9.64568
#
# Velocity S-wave (km/s) = -2.28933 3.68126 2.03846
# Velocity P-wave (km/s) = 4.54315 6.81100 5.78921
#
# Compressibility (1/GPa) = 0.01559259
#
# Stress axis : x y z
#
# Youngs Moduli (GPa) = 125.03116 137.61435 103.92075
#
# Poissons Ratio (x) = 0.24607 0.23701
# Poissons Ratio (y) = 0.22357 0.06013
# Poissons Ratio (z) = 0.28516 0.07962
#
# Static dielectric constant tensor:
#      x y z
#    x 2.006740 0.000000 0.000000 
#    y 0.000000 1.843500 0.000000 
#    z 0.000000 0.000000 1.880450 
# 
# From -- ./inp_files/7465.got.cif
#   From: 2010.05.17/outbox.cif.g08.bks.cpg/sg48_4_cif.got.tgz:7465.got - 2010.06.03 20:39:00.
