data_PCOD9391789
_publ_section_title
;
Structure prediction by ZEFSAII (Michael W. Deem and Ramdas Pophale) SiO2 
 PCOD9391789
Probable space group: P N N N
;
_chemical_formula_sum "Si O2"
_cell_formula_units_Z 36
_cell_length_a 9.285788
_cell_length_b 8.440367
_cell_length_c 23.700846
_cell_angle_alpha 90.000000
_cell_angle_beta 90.000000
_cell_angle_gamma 90.000000
_cell_volume 1857.564675
_symmetry_space_group_name_H-M "P N N N"
_symmetry_group_IT_number 48
_space_group.IT_coordinate_system_code '2'
_symmetry_cell_setting 'orthorhombic'
loop_
_space_group_symop_operation_xyz
x,y,z
1/2-x,1/2-y,z
x,1/2-y,1/2-z
1/2-x,y,1/2-z
-x,-y,-z
1/2+x,1/2+y,-z
-x,1/2+y,1/2+z
1/2+x,-y,1/2+z
loop_
_atom_site_type_symbol
_atom_site_label
_atom_site_fract_x
_atom_site_fract_y
_atom_site_fract_z
Si Si1 0.495998 0.769942 0.188390
Si Si2 0.338896 0.401614 0.064790
Si Si3 0.250000 0.250000 0.599674
Si Si4 0.252575 0.002943 0.312561
Si Si5 0.178893 0.584978 0.540184
O O1 0.566844 0.750000 0.250000
O O2 0.609049 0.752277 0.138995
O O3 0.371274 0.637107 0.190359
O O4 0.406815 0.931263 0.180095
O O5 0.250000 0.250000 0.043218
O O6 0.300579 0.412663 0.130478
O O7 0.509768 0.392690 0.054159
O O8 0.296613 0.553329 0.026746
O O9 0.235950 0.420305 0.567824
O O10 0.250000 0.077604 0.250000
O O11 0.250000 0.750000 0.558001
#
# Coordination Sequence:
#
# PCOD9391789 Si02
#       5
#     8   8   4   8   8
#     4   9  19  35  63  93 124 166 213 261 319 378
#     4  11  24  43  64  93 128 171 214 264 322 383
#     4  12  21  42  66  94 129 172 206 264 322 390
#     4   9  19  37  61  93 123 163 218 263 310 378
#     4  11  27  43  63  98 132 165 215 264 326 384
#
# _framework density 19.380213000000001
#
# number of rings (size 3 to 8) (size 9 to 14) (size 15 to 20)
#    0.000    1.778    3.333    1.667    6.222    1.333 
#    0.000    0.000    0.000    2.667    0.000    0.000 
#    0.000    0.000    0.000    0.000    0.000    0.000 
#
# Total GULP energy -200419.931157 kJ/mol
# GULP energy per Si atom -5567.220310 kJ/mol
# Density = 1.933610 g / cm^3
# Si number density = 19.380213 Si / 1000 Ang^3
#
#
#
# Elastic Constant Matrix: (Units=GPa)
#
#
# Indices 1 2 3 4 5 6 
#
# 1 77.7552 47.5808 44.2884 0.0000 0.0000 0.0000
# 2 47.5808 123.1129 51.4773 0.0000 0.0000 0.0000
# 3 44.2884 51.4773 133.2832 0.0000 0.0000 0.0000
# 4 0.0000 0.0000 0.0000 27.9276 0.0000 0.0000
# 5 0.0000 0.0000 0.0000 0.0000 32.3798 0.0000
# 6 0.0000 0.0000 0.0000 0.0000 0.0000 3.5249
#
#
#
# Elastic Compliance Matrix: (Units=1/GPa)
#
#
# Indices 1 2 3 4 5 6 
#
# 1 0.018504 -0.005463 -0.004039 0.000000 0.000000 0.000000
# 2 -0.005463 0.011300 -0.002549 0.000000 0.000000 0.000000
# 3 -0.004039 -0.002549 0.009829 0.000000 0.000000 0.000000
# 4 0.000000 0.000000 0.000000 0.035807 0.000000 0.000000
# 5 0.000000 0.000000 0.000000 0.000000 0.030883 0.000000
# 6 0.000000 0.000000 0.000000 0.000000 0.000000 0.283699
#
#
# Mechanical properties :
#
#
# Convention : Reuss Voigt Hill
#
# Bulk Modulus (GPa) = 64.38321 68.98270 66.68296
# Shear Modulus (GPa) = 11.92461 25.48677 18.70569
#
# Velocity S-wave (km/s) = 2.48321 3.63035 3.11013
# Velocity P-wave (km/s) = 6.44321 7.29687 6.88329
#
# Compressibility (1/GPa) = 0.01553200
#
# Stress axis : x y z
#
# Youngs Moduli (GPa) = 54.04188 88.49796 101.73583
#
# Poissons Ratio (x) = 0.48344 0.41090
# Poissons Ratio (y) = 0.29522 0.25933
# Poissons Ratio (z) = 0.21827 0.22558
#
# Static dielectric constant tensor:
#      x y z
#    x 1.642260 0.000000 0.000000 
#    y 0.000000 -18.857280 0.000000 
#    z 0.000000 0.000000 1.721810 
# 
# From -- ./inp_files/9158.got.cif
#   From: 2010.05.17/outbox.cif.g08.bks.cpg/sg48_5_cif.got.tgz:9158.got - 2010.06.03 20:39:00.
