data_PCOD9391024
_publ_section_title
;
Structure prediction by ZEFSAII (Michael W. Deem and Ramdas Pophale) SiO2 
 PCOD9391024
Probable space group: P N N N
;
_chemical_formula_sum "Si O2"
_cell_formula_units_Z 36
_cell_length_a 22.598358
_cell_length_b 5.400862
_cell_length_c 13.644199
_cell_angle_alpha 90.000000
_cell_angle_beta 90.000000
_cell_angle_gamma 90.000000
_cell_volume 1665.282852
_symmetry_space_group_name_H-M "P N N N"
_symmetry_group_IT_number 48
_space_group.IT_coordinate_system_code '2'
_symmetry_cell_setting 'orthorhombic'
loop_
_space_group_symop_operation_xyz
x,y,z
1/2-x,1/2-y,z
x,1/2-y,1/2-z
1/2-x,y,1/2-z
-x,-y,-z
1/2+x,1/2+y,-z
-x,1/2+y,1/2+z
1/2+x,-y,1/2+z
loop_
_atom_site_type_symbol
_atom_site_label
_atom_site_fract_x
_atom_site_fract_y
_atom_site_fract_z
Si Si1 0.818316 0.772474 0.949805
Si Si2 0.932326 0.250000 0.250000
Si Si3 0.626692 0.275188 0.636636
Si Si4 0.627064 0.628293 0.356884
Si Si5 0.005977 0.376152 0.605685
O O1 0.750000 0.750000 0.920856
O O2 0.852974 0.543130 0.900744
O O3 0.844779 0.040482 0.920966
O O4 0.825626 0.716219 0.065489
O O5 0.886513 0.343847 0.166822
O O6 0.975218 0.441107 0.305454
O O7 0.643865 0.250000 0.750000
O O8 0.555910 0.252820 0.627741
O O9 0.635704 0.750000 0.250000
O O10 0.563075 0.703575 0.399417
O O11 0.000000 0.500000 0.500000
#
# Coordination Sequence:
#
# PCOD9391024 Si02
#       5
#     8   4   8   8   8
#     4  12  28  48  71  98 138 187 241 288 342 406
#     4  10  22  38  66 105 143 176 226 282 360 434
#     4  12  27  45  73 103 137 184 231 287 350 415
#     4  10  23  42  69 102 139 178 229 287 354 419
#     4  11  22  39  68 103 139 178 220 283 355 422
#
# _framework density 21.617951000000001
#
# number of rings (size 3 to 8) (size 9 to 14) (size 15 to 20)
#    0.000    0.889    2.222    4.667    9.333    4.889 
#    0.000    0.000    0.000    0.000    0.000    0.000 
#    0.000    0.000    0.000    0.000    0.000    0.000 
#
# Total GULP energy -201124.143835 kJ/mol
# GULP energy per Si atom -5586.781773 kJ/mol
# Density = 2.156875 g / cm^3
# Si number density = 21.617951 Si / 1000 Ang^3
#
#
#
# Elastic Constant Matrix: (Units=GPa)
#
#
# Indices 1 2 3 4 5 6 
#
# 1 63.0037 12.8358 -9.5620 0.0000 0.0000 0.0000
# 2 12.8358 62.8851 1.7950 0.0000 0.0000 0.0000
# 3 -9.5620 1.7950 101.8271 0.0000 0.0000 0.0000
# 4 0.0000 0.0000 0.0000 34.7531 0.0000 0.0000
# 5 0.0000 0.0000 0.0000 0.0000 -13.0630 0.0000
# 6 0.0000 0.0000 0.0000 0.0000 0.0000 13.7646
#
#
#
# Elastic Compliance Matrix: (Units=1/GPa)
#
#
# Indices 1 2 3 4 5 6 
#
# 1 0.016831 -0.003482 0.001642 0.000000 0.000000 0.000000
# 2 -0.003482 0.016631 -0.000620 0.000000 0.000000 0.000000
# 3 0.001642 -0.000620 0.009986 0.000000 0.000000 0.000000
# 4 0.000000 0.000000 0.000000 0.028774 0.000000 0.000000
# 5 0.000000 0.000000 0.000000 0.000000 -0.076552 0.000000
# 6 0.000000 0.000000 0.000000 0.000000 0.000000 0.072650
#
#
# Mechanical properties :
#
#
# Convention : Reuss Voigt Hill
#
# Bulk Modulus (GPa) = 25.95666 26.42817 26.19242
# Shear Modulus (GPa) = 58.08375 21.93407 40.00891
#
# Velocity S-wave (km/s) = 5.18909 3.18877 4.30667
# Velocity P-wave (km/s) = 6.92353 5.08029 6.07225
#
# Compressibility (1/GPa) = 0.03852575
#
# Stress axis : x y z
#
# Youngs Moduli (GPa) = 59.41521 60.13043 100.14344
#
# Poissons Ratio (x) = 0.20939 -0.16442
# Poissons Ratio (y) = 0.20690 0.06211
# Poissons Ratio (z) = -0.09755 0.03729
#
# Static dielectric constant tensor:
#      x y z
#    x 1.723040 0.000000 0.000000 
#    y 0.000000 1.810890 0.000000 
#    z 0.000000 0.000000 2.094380 
# 
# From -- ./inp_files/4968.got.cif
#   From: 2010.05.17/outbox.cif.g08.bks.cpg/sg48_3_cif.got.tgz:4968.got - 2010.06.03 20:39:00.
