data_PCOD9391865
_publ_section_title
;
Structure prediction by ZEFSAII (Michael W. Deem and Ramdas Pophale) SiO2 
 PCOD9391865
Probable space group: P N N N
;
_chemical_formula_sum "Si O2"
_cell_formula_units_Z 32
_cell_length_a 32.298600
_cell_length_b 4.885947
_cell_length_c 7.643473
_cell_angle_alpha 90.000000
_cell_angle_beta 90.000000
_cell_angle_gamma 90.000000
_cell_volume 1206.210725
_symmetry_space_group_name_H-M "P N N N"
_symmetry_group_IT_number 48
_space_group.IT_coordinate_system_code '2'
_symmetry_cell_setting 'orthorhombic'
loop_
_space_group_symop_operation_xyz
x,y,z
1/2-x,1/2-y,z
x,1/2-y,1/2-z
1/2-x,y,1/2-z
-x,-y,-z
1/2+x,1/2+y,-z
-x,1/2+y,1/2+z
1/2+x,-y,1/2+z
loop_
_atom_site_type_symbol
_atom_site_label
_atom_site_fract_x
_atom_site_fract_y
_atom_site_fract_z
Si Si1 0.594127 0.407015 0.538183
Si Si2 0.043105 0.365373 0.550355
Si Si3 0.159935 0.250000 0.250000
Si Si4 0.642766 0.250000 0.250000
Si Si5 0.793394 0.128353 0.947073
O O1 0.554535 0.597063 0.561180
O O2 0.628266 0.517694 0.676851
O O3 0.614137 0.469908 0.347798
O O4 0.672327 0.182726 0.409633
O O5 0.040364 0.250000 0.750000
O O6 0.077958 0.596301 0.494184
O O7 0.000000 0.500000 0.500000
O O8 0.193096 0.317405 0.403605
O O9 0.750000 0.250000 0.010478
O O10 0.797111 0.250000 0.750000
#
# Coordination Sequence:
#
# PCOD9391865 Si02
#       5
#     8   8   4   4   8
#     4  12  27  47  82 114 164 215 279 351 414 517
#     4  12  27  48  75 115 162 215 277 349 431 511
#     4  12  28  49  83 120 162 216 286 346 431 516
#     4  12  23  52  81 116 154 216 270 336 417 492
#     4  11  26  49  78 115 163 209 270 343 421 499
#
# _framework density 26.52936
#
# number of rings (size 3 to 8) (size 9 to 14) (size 15 to 20)
#    0.000    0.250    5.000    2.625    3.500    2.000 
#    0.000    0.000   11.000    0.000    0.000    0.000 
#    0.000    0.000    0.000    0.000    0.000    0.000 
#
# Total GULP energy -178276.356507 kJ/mol
# GULP energy per Si atom -5571.136141 kJ/mol
# Density = 2.646898 g / cm^3
# Si number density = 26.529360 Si / 1000 Ang^3
#
#
#
# Elastic Constant Matrix: (Units=GPa)
#
#
# Indices 1 2 3 4 5 6 
#
# 1 172.9586 44.4956 46.7007 0.0000 0.0000 0.0000
# 2 44.4956 131.7763 44.0486 0.0000 0.0000 0.0000
# 3 46.7007 44.0486 109.5931 0.0000 0.0000 0.0000
# 4 0.0000 0.0000 0.0000 40.5047 0.0000 0.0000
# 5 0.0000 0.0000 0.0000 0.0000 41.6735 0.0000
# 6 0.0000 0.0000 0.0000 0.0000 0.0000 40.1153
#
#
#
# Elastic Compliance Matrix: (Units=1/GPa)
#
#
# Indices 1 2 3 4 5 6 
#
# 1 0.006791 -0.001531 -0.002278 0.000000 0.000000 0.000000
# 2 -0.001531 0.009112 -0.003010 0.000000 0.000000 0.000000
# 3 -0.002278 -0.003010 0.011305 0.000000 0.000000 0.000000
# 4 0.000000 0.000000 0.000000 0.024689 0.000000 0.000000
# 5 0.000000 0.000000 0.000000 0.000000 0.023996 0.000000
# 6 0.000000 0.000000 0.000000 0.000000 0.000000 0.024928
#
#
# Mechanical properties :
#
#
# Convention : Reuss Voigt Hill
#
# Bulk Modulus (GPa) = 73.69722 76.09084 74.89403
# Shear Modulus (GPa) = 42.02306 43.06424 42.54365
#
# Velocity S-wave (km/s) = 3.98429 4.03335 4.00890
# Velocity P-wave (km/s) = 7.00042 7.10173 7.05126
#
# Compressibility (1/GPa) = 0.01356903
#
# Stress axis : x y z
#
# Youngs Moduli (GPa) = 147.25660 109.74810 88.45512
#
# Poissons Ratio (x) = 0.16807 0.20152
# Poissons Ratio (y) = 0.22552 0.26622
# Poissons Ratio (z) = 0.33549 0.33031
#
# Static dielectric constant tensor:
#      x y z
#    x 2.081910 0.000000 0.000000 
#    y 0.000000 2.258200 0.000000 
#    z 0.000000 0.000000 2.167740 
# 
# From -- ./inp_files/7630.got.cif
#   From: 2010.05.17/outbox.cif.g08.bks.cpg/sg48_4_cif.got.tgz:7630.got - 2010.06.03 20:39:00.
