data_PCOD9391398
_publ_section_title
;
Structure prediction by ZEFSAII (Michael W. Deem and Ramdas Pophale) SiO2 
 PCOD9391398
Probable space group: P N N N
;
_chemical_formula_sum "Si O2"
_cell_formula_units_Z 38
_cell_length_a 5.088335
_cell_length_b 15.965643
_cell_length_c 20.746819
_cell_angle_alpha 90.000000
_cell_angle_beta 90.000000
_cell_angle_gamma 90.000000
_cell_volume 1685.441287
_symmetry_space_group_name_H-M "P N N N"
_symmetry_group_IT_number 48
_space_group.IT_coordinate_system_code '2'
_symmetry_cell_setting 'orthorhombic'
loop_
_space_group_symop_operation_xyz
x,y,z
1/2-x,1/2-y,z
x,1/2-y,1/2-z
1/2-x,y,1/2-z
-x,-y,-z
1/2+x,1/2+y,-z
-x,1/2+y,1/2+z
1/2+x,-y,1/2+z
loop_
_atom_site_type_symbol
_atom_site_label
_atom_site_fract_x
_atom_site_fract_y
_atom_site_fract_z
Si Si1 0.440894 0.103589 0.689856
Si Si2 0.271012 0.412723 0.550795
Si Si3 0.250000 0.750000 0.865557
Si Si4 0.241788 0.888675 0.971739
Si Si5 0.250000 0.640805 0.750000
Si Si6 0.250000 0.465477 0.250000
Si Si7 0.250000 0.750000 0.250000
O O1 0.250000 0.086922 0.750000
O O2 0.298543 0.110578 0.622826
O O3 0.580649 0.189749 0.705834
O O4 0.646198 0.026630 0.693354
O O5 0.267398 0.514338 0.549301
O O6 0.552320 0.379315 0.529528
O O7 0.052051 0.379875 0.499940
O O8 0.321727 0.823622 0.915916
O O9 0.383905 0.692331 0.809424
O O10 0.499283 0.587522 0.726163
#
# Coordination Sequence:
#
# PCOD9391398 Si02
#       7
#     8   8   4   8   4   4   2
#     4  11  24  45  72 105 137 189 237 300 351 416
#     4  10  24  45  71  96 135 185 235 276 340 415
#     4  11  26  47  70 107 145 184 230 294 371 412
#     4  10  24  44  68 101 137 181 228 282 335 433
#     4  11  26  44  72 107 146 178 230 299 350 438
#     4  11  24  42  72 109 136 190 228 289 356 432
#     4  10  26  42  64 110 148 172 240 314 352 402
#
# _framework density 22.546022000000001
#
# number of rings (size 3 to 8) (size 9 to 14) (size 15 to 20)
#    0.000    1.474    1.053    1.579    5.895   10.105 
#    3.789    0.000    0.000    0.000    0.000    0.000 
#    0.000    0.000    0.000    0.000    0.000    0.000 
#
# Total GULP energy -211970.821367 kJ/mol
# GULP energy per Si atom -5578.179510 kJ/mol
# Density = 2.249471 g / cm^3
# Si number density = 22.546022 Si / 1000 Ang^3
#
#
#
# Elastic Constant Matrix: (Units=GPa)
#
#
# Indices 1 2 3 4 5 6 
#
# 1 83.5347 38.4774 13.4563 0.0000 0.0000 0.0000
# 2 38.4774 87.8550 51.3107 0.0000 0.0000 0.0000
# 3 13.4563 51.3107 136.7183 0.0000 0.0000 0.0000
# 4 0.0000 0.0000 0.0000 -262.4924 0.0000 0.0000
# 5 0.0000 0.0000 0.0000 0.0000 27.9495 0.0000
# 6 0.0000 0.0000 0.0000 0.0000 0.0000 -18.3979
#
#
#
# Elastic Compliance Matrix: (Units=1/GPa)
#
#
# Indices 1 2 3 4 5 6 
#
# 1 0.015170 -0.007392 0.001281 0.000000 0.000000 0.000000
# 2 -0.007392 0.018180 -0.006095 0.000000 0.000000 0.000000
# 3 0.001281 -0.006095 0.009476 0.000000 0.000000 0.000000
# 4 0.000000 0.000000 0.000000 -0.003810 0.000000 0.000000
# 5 0.000000 0.000000 0.000000 0.000000 0.035779 0.000000
# 6 0.000000 0.000000 0.000000 0.000000 0.000000 -0.054354
#
#
# Mechanical properties :
#
#
# Convention : Reuss Voigt Hill
#
# Bulk Modulus (GPa) = 54.31008 57.17745 55.74376
# Shear Modulus (GPa) = 98.05832 -36.93057 30.56387
#
# Velocity S-wave (km/s) = 6.60204 -4.05162 3.68587
# Velocity P-wave (km/s) = 9.06955 1.87826 6.54922
#
# Compressibility (1/GPa) = 0.01841279
#
# Stress axis : x y z
#
# Youngs Moduli (GPa) = 65.92146 55.00624 105.53182
#
# Poissons Ratio (x) = 0.40661 -0.13521
# Poissons Ratio (y) = 0.48729 0.64325
# Poissons Ratio (z) = -0.08446 0.33528
#
# Static dielectric constant tensor:
#      x y z
#    x 1.836270 0.000000 0.000000 
#    y 0.000000 1.936170 0.000000 
#    z 0.000000 0.000000 1.785890 
# 
# From -- ./inp_files/29338.got.cif
#   From: 2010.05.17/outbox.cif.g08.bks.cpg/sg48_15_cif.got.tgz:29338.got - 2010.06.03 20:39:00.
