data_PCOD9391883
_publ_section_title
;
Structure prediction by ZEFSAII (Michael W. Deem and Ramdas Pophale) SiO2 
 PCOD9391883
Probable space group: P N N N
;
_chemical_formula_sum "Si O2"
_cell_formula_units_Z 48
_cell_length_a 25.746926
_cell_length_b 14.386223
_cell_length_c 5.866950
_cell_angle_alpha 90.000000
_cell_angle_beta 90.000000
_cell_angle_gamma 90.000000
_cell_volume 2173.124258
_symmetry_space_group_name_H-M "P N N N"
_symmetry_group_IT_number 48
_space_group.IT_coordinate_system_code '2'
_symmetry_cell_setting 'orthorhombic'
loop_
_space_group_symop_operation_xyz
x,y,z
1/2-x,1/2-y,z
x,1/2-y,1/2-z
1/2-x,y,1/2-z
-x,-y,-z
1/2+x,1/2+y,-z
-x,1/2+y,1/2+z
1/2+x,-y,1/2+z
loop_
_atom_site_type_symbol
_atom_site_label
_atom_site_fract_x
_atom_site_fract_y
_atom_site_fract_z
Si Si1 0.277250 0.013753 0.499721
Si Si2 0.537379 0.919245 0.599591
Si Si3 0.341645 0.854525 0.317361
Si Si4 0.608941 0.494535 0.508630
Si Si5 0.362590 0.355636 0.824486
Si Si6 0.568126 0.346449 0.153655
O O1 0.250000 0.019564 0.750000
O O2 0.320366 0.095909 0.512609
O O3 0.304546 0.911393 0.486946
O O4 0.250000 0.023615 0.250000
O O5 0.567429 0.964344 0.813000
O O6 0.581321 0.875503 0.438492
O O7 0.493653 0.842314 0.641319
O O8 0.500000 0.000000 0.500000
O O9 0.326680 0.750000 0.250000
O O10 0.400010 0.855836 0.420964
O O11 0.348472 0.923925 0.106984
O O12 0.637269 0.581962 0.401129
O O13 0.581284 0.433070 0.315175
O O14 0.354303 0.250000 0.750000
O O15 0.589116 0.250000 0.250000
#
# Coordination Sequence:
#
# PCOD9391883 Si02
#       6
#     8   8   8   8   8   8
#     4  12  28  56  85 111 150 195 259 335 403 469
#     4  12  24  42  69 106 155 205 257 305 367 446
#     4  12  25  47  77 113 150 194 242 308 390 469
#     4  12  22  45  68 100 157 200 244 312 365 441
#     4  12  29  48  73 109 150 203 258 320 385 451
#     4  12  25  39  70 110 153 204 245 294 374 458
#
# _framework density 22.088016
#
# number of rings (size 3 to 8) (size 9 to 14) (size 15 to 20)
#    0.000    0.000    8.333    1.500    2.333    1.333 
#    0.000    5.000    0.000    0.000    0.000    0.000 
#    0.000    0.000    0.000    0.000    0.000    0.000 
#
# Total GULP energy -267979.295580 kJ/mol
# GULP energy per Si atom -5582.901991 kJ/mol
# Density = 2.203774 g / cm^3
# Si number density = 22.088016 Si / 1000 Ang^3
#
#
#
# Elastic Constant Matrix: (Units=GPa)
#
#
# Indices 1 2 3 4 5 6 
#
# 1 95.9283 52.5599 43.2138 0.0000 0.0000 0.0000
# 2 52.5599 187.3856 61.3794 0.0000 0.0000 0.0000
# 3 43.2138 61.3794 88.5916 0.0000 0.0000 0.0000
# 4 0.0000 0.0000 0.0000 41.5660 0.0000 0.0000
# 5 0.0000 0.0000 0.0000 0.0000 54.2338 0.0000
# 6 0.0000 0.0000 0.0000 0.0000 0.0000 7.0986
#
#
#
# Elastic Compliance Matrix: (Units=1/GPa)
#
#
# Indices 1 2 3 4 5 6 
#
# 1 0.014022 -0.002190 -0.005323 0.000000 0.000000 0.000000
# 2 -0.002190 0.007245 -0.003952 0.000000 0.000000 0.000000
# 3 -0.005323 -0.003952 0.016622 0.000000 0.000000 0.000000
# 4 0.000000 0.000000 0.000000 0.024058 0.000000 0.000000
# 5 0.000000 0.000000 0.000000 0.000000 0.018439 0.000000
# 6 0.000000 0.000000 0.000000 0.000000 0.000000 0.140872
#
#
# Mechanical properties :
#
#
# Convention : Reuss Voigt Hill
#
# Bulk Modulus (GPa) = 66.83967 76.24575 71.54271
# Shear Modulus (GPa) = 20.06641 34.89651 27.48146
#
# Velocity S-wave (km/s) = 3.01736 3.97909 3.53112
# Velocity P-wave (km/s) = 6.51656 7.46357 7.00608
#
# Compressibility (1/GPa) = 0.01496117
#
# Stress axis : x y z
#
# Youngs Moduli (GPa) = 71.31707 138.02394 60.16142
#
# Poissons Ratio (x) = 0.30221 0.32022
# Poissons Ratio (y) = 0.15615 0.23774
# Poissons Ratio (z) = 0.37960 0.54542
#
# Static dielectric constant tensor:
#      x y z
#    x 1.905360 0.000000 0.000000 
#    y 0.000000 1.859090 0.000000 
#    z 0.000000 0.000000 1.981330 
# 
# From -- ./inp_files/6478.got.cif
#   From: 2010.05.17/outbox.cif.g08.bks.cpg/sg48_4_cif.got.tgz:6478.got - 2010.06.03 20:39:00.
