data_PCOD9391986
_publ_section_title
;
Structure prediction by ZEFSAII (Michael W. Deem and Ramdas Pophale) SiO2 
 PCOD9391986
Probable space group: P C C M
;
_chemical_formula_sum "Si O2"
_cell_formula_units_Z 40
_cell_length_a 27.883677
_cell_length_b 7.971356
_cell_length_c 8.598719
_cell_angle_alpha 90.000000
_cell_angle_beta 90.000000
_cell_angle_gamma 90.000000
_cell_volume 1911.243428
_symmetry_space_group_name_H-M "P C C M"
_symmetry_group_IT_number 49
_symmetry_cell_setting 'orthorhombic'
loop_
_space_group_symop_operation_xyz
x,y,z
-x,-y,z
x,-y,1/2-z
-x,y,1/2-z
-x,-y,-z
x,y,-z
-x,y,1/2+z
x,-y,1/2+z
loop_
_atom_site_type_symbol
_atom_site_label
_atom_site_fract_x
_atom_site_fract_y
_atom_site_fract_z
Si Si1 0.549477 0.307685 0.814173
Si Si2 0.951566 0.812443 0.184721
Si Si3 0.850872 0.687168 0.686480
Si Si4 0.746857 0.692095 0.686813
Si Si5 0.351659 0.692236 0.314460
O O1 0.549727 0.500000 0.750000
O O2 0.500000 0.230967 0.750000
O O3 0.599315 0.230921 0.753056
O O4 0.548910 0.311613 0.000000
O O5 0.900026 0.749955 0.240262
O O6 0.000000 0.725666 0.250000
O O7 0.952906 0.000000 0.250000
O O8 0.954121 0.810387 0.000000
O O9 0.846762 0.500000 0.750000
O O10 0.855311 0.690551 0.500000
O O11 0.799095 0.769146 0.726823
O O12 0.747949 0.500000 0.750000
O O13 0.742577 0.686799 0.500000
O O14 0.698662 0.770027 0.758144
O O15 0.350827 0.500000 0.250000
O O16 0.353704 0.687699 0.500000
#
# Coordination Sequence:
#
# PCOD9391986 Si02
#       5
#     8   8   8   8   8
#     4  10  16  22  29  39  57  83 121 167 215 261
#     4  11  22  38  58  78 102 131 164 199 239 287
#     4  10  20  34  52  76 103 130 163 202 245 288
#     4   9  16  26  40  58  82 110 141 180 224 271
#     4  10  16  22  32  46  66  94 130 170 215 265
#
# _framework density 20.928782000000002
#
# number of rings (size 3 to 8) (size 9 to 14) (size 15 to 20)
#    0.000    2.000    0.000   10.200    0.000    2.800 
#    0.000    2.000    0.000    0.000    0.000    0.000 
#    0.000    0.000    0.000    0.000    0.000    1.000 
#
# Total GULP energy -223012.635588 kJ/mol
# GULP energy per Si atom -5575.315890 kJ/mol
# Density = 2.088115 g / cm^3
# Si number density = 20.928782 Si / 1000 Ang^3
#
#
#
# Elastic Constant Matrix: (Units=GPa)
#
#
# Indices 1 2 3 4 5 6 
#
# 1 291.5995 23.3633 109.1600 0.0000 0.0000 0.0000
# 2 23.3633 10.7841 3.5236 0.0000 0.0000 0.0000
# 3 109.1600 3.5236 191.5753 0.0000 0.0000 0.0000
# 4 0.0000 0.0000 0.0000 7.7231 0.0000 0.0000
# 5 0.0000 0.0000 0.0000 0.0000 42.9575 0.0000
# 6 0.0000 0.0000 0.0000 0.0000 0.0000 912.9275
#
#
#
# Elastic Compliance Matrix: (Units=1/GPa)
#
#
# Indices 1 2 3 4 5 6 
#
# 1 0.005352 -0.010662 -0.002853 0.000000 0.000000 0.000000
# 2 -0.010662 0.114531 0.003969 0.000000 0.000000 0.000000
# 3 -0.002853 0.003969 0.006773 0.000000 0.000000 0.000000
# 4 0.000000 0.000000 0.000000 0.129482 0.000000 0.000000
# 5 0.000000 0.000000 0.000000 0.000000 0.023279 0.000000
# 6 0.000000 0.000000 0.000000 0.000000 0.000000 0.001095
#
#
# Mechanical properties :
#
#
# Convention : Reuss Voigt Hill
#
# Bulk Modulus (GPa) = 9.29695 85.11698 47.20697
# Shear Modulus (GPa) = 14.90493 216.58240 115.74367
#
# Velocity S-wave (km/s) = 2.67155 10.18381 7.44471
# Velocity P-wave (km/s) = 3.73739 13.38052 9.82360
#
# Compressibility (1/GPa) = 0.10756217
#
# Stress axis : x y z
#
# Youngs Moduli (GPa) = 186.85431 8.73126 147.65108
#
# Poissons Ratio (x) = 0.09309 0.42130
# Poissons Ratio (y) = 1.99225 -0.58598
# Poissons Ratio (z) = 0.53316 -0.03465
#
# Static dielectric constant tensor:
#      x y z
#    x 1.924930 0.000000 0.000000 
#    y 0.000000 1.780540 0.000000 
#    z 0.000000 0.000000 1.684100 
# 
# From -- ./inp_files/6675.got.cif
#   From: 2010.05.17/outbox.cif.g08.bks.cpg/sg49_4_cif.got.tgz:6675.got - 2010.06.03 21:02:19.
