data_PCOD9391022
_publ_section_title
;
Structure prediction by ZEFSAII (Michael W. Deem and Ramdas Pophale) SiO2 
 PCOD9391022
Probable space group: P N N N
;
_chemical_formula_sum "Si O2"
_cell_formula_units_Z 42
_cell_length_a 19.916346
_cell_length_b 5.513934
_cell_length_c 16.134315
_cell_angle_alpha 90.000000
_cell_angle_beta 90.000000
_cell_angle_gamma 90.000000
_cell_volume 1771.828804
_symmetry_space_group_name_H-M "P N N N"
_symmetry_group_IT_number 48
_space_group.IT_coordinate_system_code '2'
_symmetry_cell_setting 'orthorhombic'
loop_
_space_group_symop_operation_xyz
x,y,z
1/2-x,1/2-y,z
x,1/2-y,1/2-z
1/2-x,y,1/2-z
-x,-y,-z
1/2+x,1/2+y,-z
-x,1/2+y,1/2+z
1/2+x,-y,1/2+z
loop_
_atom_site_type_symbol
_atom_site_label
_atom_site_fract_x
_atom_site_fract_y
_atom_site_fract_z
Si Si1 0.750000 0.750000 0.250000
Si Si2 0.603506 0.735900 0.565626
Si Si3 0.944042 0.750000 0.750000
Si Si4 0.887029 0.260070 0.503504
Si Si5 0.250000 0.750000 0.110387
Si Si6 0.027324 0.250000 0.750000
Si Si7 0.134097 0.560089 0.824688
Si Si8 0.250000 0.250000 0.393765
O O1 0.796455 0.577349 0.193613
O O2 0.596130 0.729483 0.664646
O O3 0.575127 0.482808 0.533147
O O4 0.683764 0.738734 0.549323
O O5 0.578298 0.985919 0.526091
O O6 0.984190 0.494684 0.736658
O O7 0.817204 0.259173 0.555118
O O8 0.870947 0.213653 0.407953
O O9 0.250428 0.497082 0.156498
O O10 0.078175 0.346142 0.821346
O O11 0.122461 0.750000 0.750000
#
# Coordination Sequence:
#
# PCOD9391022 Si02
#       8
#     2   8   4   8   4   4   8   4
#     4  10  26  38  72 112 132 190 220 256 334 428
#     4  10  22  40  66 100 129 176 219 279 338 407
#     4  12  24  47  72  89 128 176 242 284 344 404
#     4  10  22  38  64  97 136 171 217 265 333 403
#     4   8  16  30  53  85 132 160 184 248 320 383
#     4  11  26  47  68  91 132 187 216 300 348 369
#     4  11  25  45  68 100 143 178 224 271 333 412
#     4   8  16  34  54  91 127 156 194 258 336 376
#
# _framework density 23.704322000000001
#
# number of rings (size 3 to 8) (size 9 to 14) (size 15 to 20)
#    0.000    1.905    0.952    1.429    8.000    3.429 
#    0.000    5.714    0.000    8.000    0.000    0.000 
#    0.000    0.000    0.000    0.000    0.000    0.000 
#
# Total GULP energy -234276.160428 kJ/mol
# GULP energy per Si atom -5578.003820 kJ/mol
# Density = 2.365037 g / cm^3
# Si number density = 23.704322 Si / 1000 Ang^3
#
#
#
# Elastic Constant Matrix: (Units=GPa)
#
#
# Indices 1 2 3 4 5 6 
#
# 1 75.1273 21.0324 8.9901 0.0000 0.0000 0.0000
# 2 21.0324 272.6897 58.6288 0.0000 0.0000 0.0000
# 3 8.9901 58.6288 145.0116 0.0000 0.0000 0.0000
# 4 0.0000 0.0000 0.0000 44.2019 0.0000 0.0000
# 5 0.0000 0.0000 0.0000 0.0000 -58.6299 0.0000
# 6 0.0000 0.0000 0.0000 0.0000 0.0000 19.5430
#
#
#
# Elastic Compliance Matrix: (Units=1/GPa)
#
#
# Indices 1 2 3 4 5 6 
#
# 1 0.013632 -0.000953 -0.000460 0.000000 0.000000 0.000000
# 2 -0.000953 0.004083 -0.001592 0.000000 0.000000 0.000000
# 3 -0.000460 -0.001592 0.007568 0.000000 0.000000 0.000000
# 4 0.000000 0.000000 0.000000 0.022623 0.000000 0.000000
# 5 0.000000 0.000000 0.000000 0.000000 -0.017056 0.000000
# 6 0.000000 0.000000 0.000000 0.000000 0.000000 0.051169
#
#
# Mechanical properties :
#
#
# Convention : Reuss Voigt Hill
#
# Bulk Modulus (GPa) = 51.88105 74.45901 63.17003
# Shear Modulus (GPa) = 52.93615 27.96814 40.45215
#
# Velocity S-wave (km/s) = 4.73079 3.43866 4.13550
# Velocity P-wave (km/s) = 7.19546 6.87354 7.03634
#
# Compressibility (1/GPa) = 0.01927486
#
# Stress axis : x y z
#
# Youngs Moduli (GPa) = 73.35430 244.92685 132.13473
#
# Poissons Ratio (x) = 0.23331 0.06079
# Poissons Ratio (y) = 0.06987 0.21031
# Poissons Ratio (z) = 0.03375 0.38984
#
# Static dielectric constant tensor:
#      x y z
#    x 1.954700 0.000000 0.000000 
#    y 0.000000 2.008350 0.000000 
#    z 0.000000 0.000000 1.824460 
# 
# From -- ./inp_files/32303.got.cif
#   From: 2010.05.17/outbox.cif.g08.bks.cpg/sg48_17_cif.got.tgz:32303.got - 2010.06.03 20:39:00.
