data_PCOD9391191
_publ_section_title
;
Structure prediction by ZEFSAII (Michael W. Deem and Ramdas Pophale) SiO2 
 PCOD9391191
Probable space group: P N N N
;
_chemical_formula_sum "Si O2"
_cell_formula_units_Z 46
_cell_length_a 22.210332
_cell_length_b 17.341034
_cell_length_c 5.048400
_cell_angle_alpha 90.000000
_cell_angle_beta 90.000000
_cell_angle_gamma 90.000000
_cell_volume 1944.391878
_symmetry_space_group_name_H-M "P N N N"
_symmetry_group_IT_number 48
_space_group.IT_coordinate_system_code '2'
_symmetry_cell_setting 'orthorhombic'
loop_
_space_group_symop_operation_xyz
x,y,z
1/2-x,1/2-y,z
x,1/2-y,1/2-z
1/2-x,y,1/2-z
-x,-y,-z
1/2+x,1/2+y,-z
-x,1/2+y,1/2+z
1/2+x,-y,1/2+z
loop_
_atom_site_type_symbol
_atom_site_label
_atom_site_fract_x
_atom_site_fract_y
_atom_site_fract_z
Si Si1 0.250000 0.439361 0.250000
Si Si2 0.618380 0.096050 0.161523
Si Si3 0.250000 0.250000 0.750000
Si Si4 0.250000 0.543085 0.750000
Si Si5 0.453775 0.550459 0.181434
Si Si6 0.844567 0.830812 0.872277
Si Si7 0.460228 0.328271 0.873007
Si Si8 0.058080 0.750000 0.750000
O O1 0.232906 0.489735 0.501350
O O2 0.307962 0.386660 0.318650
O O3 0.690203 0.088425 0.164896
O O4 0.593071 0.077527 0.454838
O O5 0.598313 0.184864 0.108358
O O6 0.587608 0.039228 0.942726
O O7 0.206258 0.303518 0.577922
O O8 0.502590 0.612467 0.301965
O O9 0.500000 0.500000 0.000000
O O10 0.865510 0.750000 0.750000
O O11 0.903893 0.868969 0.989509
O O12 0.434312 0.250000 0.750000
O O13 0.512174 0.296263 0.063230
#
# Coordination Sequence:
#
# PCOD9391191 Si02
#       8
#     4   8   2   4   8   8   8   4
#     4  12  27  48  66  97 148 194 238 286 350 421
#     4  11  25  47  73 101 142 180 242 293 362 428
#     4  12  20  40  56  90 134 178 240 282 324 404
#     4  12  29  47  71 104 139 190 238 294 354 445
#     4  11  25  45  70 102 142 186 232 293 365 434
#     4  12  24  39  64  93 137 185 238 287 344 418
#     4  11  22  39  67 101 135 181 231 297 358 431
#     4  10  22  45  70 101 134 174 230 308 358 424
#
# _framework density 23.657781
#
# number of rings (size 3 to 8) (size 9 to 14) (size 15 to 20)
#    0.000    0.696    5.217    2.087    4.870    0.348 
#    0.000    0.000    0.000    3.130    0.000    0.000 
#    0.000    0.000    0.000    0.000    0.000    0.000 
#
# Total GULP energy -256732.725969 kJ/mol
# GULP energy per Si atom -5581.146217 kJ/mol
# Density = 2.360394 g / cm^3
# Si number density = 23.657781 Si / 1000 Ang^3
#
#
#
# Elastic Constant Matrix: (Units=GPa)
#
#
# Indices 1 2 3 4 5 6 
#
# 1 182.2748 44.3696 23.7117 0.0000 0.0000 0.0000
# 2 44.3696 42.8766 3.9111 0.0000 0.0000 0.0000
# 3 23.7117 3.9111 88.1680 0.0000 0.0000 0.0000
# 4 0.0000 0.0000 0.0000 7.3480 0.0000 0.0000
# 5 0.0000 0.0000 0.0000 0.0000 35.3314 0.0000
# 6 0.0000 0.0000 0.0000 0.0000 0.0000 25.0680
#
#
#
# Elastic Compliance Matrix: (Units=1/GPa)
#
#
# Indices 1 2 3 4 5 6 
#
# 1 0.007578 -0.007687 -0.001697 0.000000 0.000000 0.000000
# 2 -0.007687 0.031215 0.000683 0.000000 0.000000 0.000000
# 3 -0.001697 0.000683 0.011768 0.000000 0.000000 0.000000
# 4 0.000000 0.000000 0.000000 0.136092 0.000000 0.000000
# 5 0.000000 0.000000 0.000000 0.000000 0.028303 0.000000
# 6 0.000000 0.000000 0.000000 0.000000 0.000000 0.039891
#
#
# Mechanical properties :
#
#
# Convention : Reuss Voigt Hill
#
# Bulk Modulus (GPa) = 30.15821 50.81155 40.48488
# Shear Modulus (GPa) = 17.64882 29.63794 23.64338
#
# Velocity S-wave (km/s) = 2.73427 3.54330 3.16474
# Velocity P-wave (km/s) = 4.76903 6.18582 5.52304
#
# Compressibility (1/GPa) = 0.03315846
#
# Stress axis : x y z
#
# Youngs Moduli (GPa) = 131.95660 32.03538 84.97550
#
# Poissons Ratio (x) = 0.24627 0.14421
# Poissons Ratio (y) = 1.01439 -0.05801
# Poissons Ratio (z) = 0.22394 -0.02187
#
# Static dielectric constant tensor:
#      x y z
#    x 2.119720 0.000000 0.000000 
#    y 0.000000 2.046560 0.000000 
#    z 0.000000 0.000000 1.953000 
# 
# From -- ./inp_files/5910.got.cif
#   From: 2010.05.17/outbox.cif.g08.bks.cpg/sg48_3_cif.got.tgz:5910.got - 2010.06.03 20:39:00.
