data_PCOD9391232
_publ_section_title
;
Structure prediction by ZEFSAII (Michael W. Deem and Ramdas Pophale) SiO2 
 PCOD9391232
Probable space group: P N N N
;
_chemical_formula_sum "Si O2"
_cell_formula_units_Z 58
_cell_length_a 29.738847
_cell_length_b 9.109553
_cell_length_c 11.711472
_cell_angle_alpha 90.000000
_cell_angle_beta 90.000000
_cell_angle_gamma 90.000000
_cell_volume 3172.726806
_symmetry_space_group_name_H-M "P N N N"
_symmetry_group_IT_number 48
_space_group.IT_coordinate_system_code '2'
_symmetry_cell_setting 'orthorhombic'
loop_
_space_group_symop_operation_xyz
x,y,z
1/2-x,1/2-y,z
x,1/2-y,1/2-z
1/2-x,y,1/2-z
-x,-y,-z
1/2+x,1/2+y,-z
-x,1/2+y,1/2+z
1/2+x,-y,1/2+z
loop_
_atom_site_type_symbol
_atom_site_label
_atom_site_fract_x
_atom_site_fract_y
_atom_site_fract_z
Si Si1 0.947828 0.507789 0.539510
Si Si2 0.464306 0.901005 0.812810
Si Si3 0.750000 0.750000 0.250000
Si Si4 0.591290 0.612013 0.167394
Si Si5 0.311078 0.509308 0.778896
Si Si6 0.601321 0.195823 0.988815
Si Si7 0.543754 0.415038 0.709438
Si Si8 0.202316 0.792957 0.565617
O O1 0.921786 0.631605 0.465462
O O2 0.920491 0.358126 0.512377
O O3 0.946547 0.509105 0.676786
O O4 0.000000 0.500000 0.500000
O O5 0.476622 0.750000 0.750000
O O6 0.424101 0.877505 0.903029
O O7 0.446466 0.003280 0.712409
O O8 0.506434 0.992684 0.859096
O O9 0.717195 0.635049 0.188101
O O10 0.590060 0.750000 0.250000
O O11 0.638115 0.532893 0.193585
O O12 0.299865 0.562926 0.649085
O O13 0.300894 0.652457 0.851645
O O14 0.655127 0.200754 0.998785
O O15 0.585293 0.116243 0.873584
O O16 0.528362 0.250000 0.750000
O O17 0.250000 0.750000 0.505380
#
# Coordination Sequence:
#
# PCOD9391232 Si02
#       8
#     8   8   2   8   8   8   8   8
#     4  11  21  38  57  79 117 158 192 237 300 355
#     4  12  20  37  56  82 119 152 198 243 296 355
#     4  12  20  34  52  88 120 152 188 232 292 370
#     4  12  23  34  57  86 119 154 192 242 299 364
#     4  11  20  34  54  85 121 149 185 241 302 369
#     4  11  22  36  60  85 116 153 202 249 293 360
#     4  10  23  39  56  80 113 159 198 243 294 351
#     4  11  20  36  58  83 116 156 189 243 315 358
#
# _framework density 18.280805000000001
#
# number of rings (size 3 to 8) (size 9 to 14) (size 15 to 20)
#    0.000    0.828    7.586    1.241    1.931    0.000 
#    2.483    0.000    0.000    3.724    0.000    0.000 
#    0.000    1.103    0.000    0.000    0.000    0.000 
#
# Total GULP energy -322984.308015 kJ/mol
# GULP energy per Si atom -5568.694966 kJ/mol
# Density = 1.823920 g / cm^3
# Si number density = 18.280805 Si / 1000 Ang^3
#
#
#
# Elastic Constant Matrix: (Units=GPa)
#
#
# Indices 1 2 3 4 5 6 
#
# 1 136.4235 12.4959 34.7118 0.0000 0.0000 0.0000
# 2 12.4959 54.8802 7.8475 0.0000 0.0000 0.0000
# 3 34.7118 7.8475 82.1759 0.0000 0.0000 0.0000
# 4 0.0000 0.0000 0.0000 22.3062 0.0000 0.0000
# 5 0.0000 0.0000 0.0000 0.0000 17.7223 0.0000
# 6 0.0000 0.0000 0.0000 0.0000 0.0000 17.5460
#
#
#
# Elastic Compliance Matrix: (Units=1/GPa)
#
#
# Indices 1 2 3 4 5 6 
#
# 1 0.008319 -0.001411 -0.003379 0.000000 0.000000 0.000000
# 2 -0.001411 0.018713 -0.001191 0.000000 0.000000 0.000000
# 3 -0.003379 -0.001191 0.013710 0.000000 0.000000 0.000000
# 4 0.000000 0.000000 0.000000 0.044831 0.000000 0.000000
# 5 0.000000 0.000000 0.000000 0.000000 0.056426 0.000000
# 6 0.000000 0.000000 0.000000 0.000000 0.000000 0.056993
#
#
# Mechanical properties :
#
#
# Convention : Reuss Voigt Hill
#
# Bulk Modulus (GPa) = 34.74660 42.62109 38.68384
# Shear Modulus (GPa) = 22.67079 26.07654 24.37366
#
# Velocity S-wave (km/s) = 3.52539 3.78093 3.65539
# Velocity P-wave (km/s) = 5.96821 6.51351 6.24681
#
# Compressibility (1/GPa) = 0.02877979
#
# Stress axis : x y z
#
# Youngs Moduli (GPa) = 120.20377 53.43848 72.93824
#
# Poissons Ratio (x) = 0.07540 0.24648
# Poissons Ratio (y) = 0.16961 0.08687
# Poissons Ratio (z) = 0.40621 0.06365
#
# Static dielectric constant tensor:
#      x y z
#    x 1.700480 0.000000 0.000000 
#    y 0.000000 1.678090 0.000000 
#    z 0.000000 0.000000 1.707460 
# 
# From -- ./inp_files/11538.got.cif
#   From: 2010.05.17/outbox.cif.g08.bks.cpg/sg48_6_cif.got.tgz:11538.got - 2010.06.03 20:39:00.
