data_PCOD9391942
_publ_section_title
;
Structure prediction by ZEFSAII (Michael W. Deem and Ramdas Pophale) SiO2 
 PCOD9391942
Probable space group: P N N N
;
_chemical_formula_sum "Si O2"
_cell_formula_units_Z 64
_cell_length_a 15.000000
_cell_length_b 18.000000
_cell_length_c 12.000000
_cell_angle_alpha 90.000000
_cell_angle_beta 90.000000
_cell_angle_gamma 90.000000
_cell_volume 3240.000000
_symmetry_space_group_name_H-M "P N N N"
_symmetry_group_IT_number 48
_space_group.IT_coordinate_system_code '2'
_symmetry_cell_setting 'orthorhombic'
loop_
_space_group_symop_operation_xyz
x,y,z
1/2-x,1/2-y,z
x,1/2-y,1/2-z
1/2-x,y,1/2-z
-x,-y,-z
1/2+x,1/2+y,-z
-x,1/2+y,1/2+z
1/2+x,-y,1/2+z
loop_
_atom_site_type_symbol
_atom_site_label
_atom_site_fract_x
_atom_site_fract_y
_atom_site_fract_z
Si Si1 0.088770 0.671334 0.285588
Si Si2 0.794058 0.402690 0.539244
Si Si3 0.455135 0.302538 0.993182
Si Si4 0.148603 0.481955 0.788520
Si Si5 0.408554 0.035987 0.544203
Si Si6 0.049574 0.139682 0.583472
Si Si7 0.887979 0.388939 0.046362
Si Si8 0.120326 0.722771 0.623396
O O1 0.130339 0.750000 0.250000
O O2 0.162392 0.619732 0.343235
O O3 0.023187 0.684188 0.390675
O O4 0.023089 0.649824 0.184000
O O5 0.832814 0.481050 0.499660
O O6 0.687993 0.409462 0.542040
O O7 0.822404 0.341031 0.441756
O O8 0.397805 0.377929 0.991609
O O9 0.418446 0.220240 0.963009
O O10 0.517104 0.301029 0.103815
O O11 0.250000 0.478033 0.750000
O O12 0.090925 0.470035 0.677676
O O13 0.124756 0.415448 0.872695
O O14 0.131099 0.561488 0.845349
O O15 0.500000 0.000000 0.500000
O O16 0.989464 0.100688 0.489662
O O17 0.874680 0.300752 0.059111
O O18 0.140880 0.750000 0.750000
#
# Coordination Sequence:
#
# PCOD9391942 Si02
#       8
#     8   8   8   8   8   8   8   8
#     4   9  17  33  58  81 114 156 201 242 291 364
#     4  11  21  36  54  89 125 161 205 250 305 374
#     4   9  19  35  57  86 117 156 207 253 299 371
#     4  12  24  40  63  91 120 159 205 262 314 367
#     4  12  20  36  63  87 122 159 203 252 300 362
#     4  10  21  41  59  83 121 160 202 250 320 367
#     4  11  24  36  55  88 128 159 196 251 312 385
#     4  10  20  33  54  84 123 164 195 245 307 373
#
# _framework density 19.753086
#
# number of rings (size 3 to 8) (size 9 to 14) (size 15 to 20)
#    0.000    1.500    5.000    2.250    0.000    1.000 
#    0.000    4.375    0.000    0.000    0.000    0.000 
#    0.000    1.250    0.000    0.000    0.000    0.000 
#
# Total GULP energy -356838.175885 kJ/mol
# GULP energy per Si atom -5575.596498 kJ/mol
# Density = 1.970813 g / cm^3
# Si number density = 19.753086 Si / 1000 Ang^3
#
#
#
# Elastic Constant Matrix: (Units=GPa)
#
#
# Indices 1 2 3 4 5 6 
#
# 1 47.8850 47.6505 21.6799 0.0000 0.0000 0.0000
# 2 47.6505 140.8416 17.3377 0.0000 0.0000 0.0000
# 3 21.6799 17.3377 46.1129 0.0000 0.0000 0.0000
# 4 0.0000 0.0000 0.0000 36.2354 0.0000 0.0000
# 5 0.0000 0.0000 0.0000 0.0000 24.8817 0.0000
# 6 0.0000 0.0000 0.0000 0.0000 0.0000 11.3042
#
#
#
# Elastic Compliance Matrix: (Units=1/GPa)
#
#
# Indices 1 2 3 4 5 6 
#
# 1 0.038348 -0.011277 -0.013789 0.000000 0.000000 0.000000
# 2 -0.011277 0.010761 0.001256 0.000000 0.000000 0.000000
# 3 -0.013789 0.001256 0.027697 0.000000 0.000000 0.000000
# 4 0.000000 0.000000 0.000000 0.027597 0.000000 0.000000
# 5 0.000000 0.000000 0.000000 0.000000 0.040190 0.000000
# 6 0.000000 0.000000 0.000000 0.000000 0.000000 0.088463
#
#
# Mechanical properties :
#
#
# Convention : Reuss Voigt Hill
#
# Bulk Modulus (GPa) = 34.26406 45.35285 39.80845
# Shear Modulus (GPa) = 17.21737 24.36236 20.78987
#
# Velocity S-wave (km/s) = 2.95554 3.51571 3.24773
# Velocity P-wave (km/s) = 5.38802 6.28411 5.85324
#
# Compressibility (1/GPa) = 0.02918510
#
# Stress axis : x y z
#
# Youngs Moduli (GPa) = 26.07706 92.93008 36.10526
#
# Poissons Ratio (x) = 1.04794 0.49787
# Poissons Ratio (y) = 0.29406 -0.04534
# Poissons Ratio (z) = 0.35959 -0.11670
#
# Static dielectric constant tensor:
#      x y z
#    x 1.737150 0.000000 0.000000 
#    y 0.000000 1.724910 0.000000 
#    z 0.000000 0.000000 1.736380 
# 
# From -- ./inp_files/21563.got.cif
#   From: 2010.05.17/outbox.ucp.g08.bks.cvg/sg48_11_cif.got.tgz:21563.got - 2010.06.11 16:38:40.
