data_PCOD9391435
_publ_section_title
;
Structure prediction by ZEFSAII (Michael W. Deem and Ramdas Pophale) SiO2 
 PCOD9391435
Probable space group: P N N N
;
_chemical_formula_sum "Si O2"
_cell_formula_units_Z 30
_cell_length_a 18.251293
_cell_length_b 5.878321
_cell_length_c 11.838969
_cell_angle_alpha 90.000000
_cell_angle_beta 90.000000
_cell_angle_gamma 90.000000
_cell_volume 1270.166981
_symmetry_space_group_name_H-M "P N N N"
_symmetry_group_IT_number 48
_space_group.IT_coordinate_system_code '2'
_symmetry_cell_setting 'orthorhombic'
loop_
_space_group_symop_operation_xyz
x,y,z
1/2-x,1/2-y,z
x,1/2-y,1/2-z
1/2-x,y,1/2-z
-x,-y,-z
1/2+x,1/2+y,-z
-x,1/2+y,1/2+z
1/2+x,-y,1/2+z
loop_
_atom_site_type_symbol
_atom_site_label
_atom_site_fract_x
_atom_site_fract_y
_atom_site_fract_z
Si Si1 0.429755 0.849107 0.963446
Si Si2 0.368426 0.564416 0.170823
Si Si3 0.989495 0.750000 0.750000
Si Si4 0.250000 0.250000 0.250000
Si Si5 0.776695 0.500839 0.117994
O O1 0.460400 0.712537 0.857355
O O2 0.362800 0.995481 0.913020
O O3 0.400125 0.678911 0.059063
O O4 0.500000 0.000000 0.000000
O O5 0.332458 0.750000 0.250000
O O6 0.434692 0.462902 0.246480
O O7 0.306056 0.376384 0.165300
O O8 0.750000 0.250000 0.072501
O O9 0.750000 0.494614 0.250000
O O10 0.750000 0.750000 0.078604
#
# Coordination Sequence:
#
# PCOD9391435 Si02
#       5
#     8   8   4   2   8
#     4  12  26  48  81 117 156 207 271 340 409 496
#     4  11  24  48  74 114 152 208 264 329 406 484
#     4  11  24  47  79 112 157 196 258 336 409 480
#     4  10  26  48  76 106 164 208 272 332 396 502
#     4  10  24  48  76 114 160 213 265 337 413 494
#
# _framework density 23.618941
#
# number of rings (size 3 to 8) (size 9 to 14) (size 15 to 20)
#    0.000    1.067    2.667    2.800    0.000   10.667 
#    4.800    0.000    2.933    0.000    0.000    0.000 
#    0.000    0.000    0.000    0.000    0.000    0.000 
#
# Total GULP energy -167326.886790 kJ/mol
# GULP energy per Si atom -5577.562893 kJ/mol
# Density = 2.356518 g / cm^3
# Si number density = 23.618941 Si / 1000 Ang^3
#
#
#
# Elastic Constant Matrix: (Units=GPa)
#
#
# Indices 1 2 3 4 5 6 
#
# 1 195.7550 71.5552 63.6545 0.0000 0.0000 0.0000
# 2 71.5552 124.9857 39.0456 0.0000 0.0000 0.0000
# 3 63.6545 39.0456 137.0197 0.0000 0.0000 0.0000
# 4 0.0000 0.0000 0.0000 12.5809 0.0000 0.0000
# 5 0.0000 0.0000 0.0000 0.0000 28.1047 0.0000
# 6 0.0000 0.0000 0.0000 0.0000 0.0000 27.1917
#
#
#
# Elastic Compliance Matrix: (Units=1/GPa)
#
#
# Indices 1 2 3 4 5 6 
#
# 1 0.007086 -0.003324 -0.002345 0.000000 0.000000 0.000000
# 2 -0.003324 0.010342 -0.001403 0.000000 0.000000 0.000000
# 3 -0.002345 -0.001403 0.008787 0.000000 0.000000 0.000000
# 4 0.000000 0.000000 0.000000 0.079486 0.000000 0.000000
# 5 0.000000 0.000000 0.000000 0.000000 0.035581 0.000000
# 6 0.000000 0.000000 0.000000 0.000000 0.000000 0.036776
#
#
# Mechanical properties :
#
#
# Convention : Reuss Voigt Hill
#
# Bulk Modulus (GPa) = 82.83598 89.58565 86.21082
# Shear Modulus (GPa) = 25.48082 32.47580 28.97831
#
# Velocity S-wave (km/s) = 3.28812 3.71211 3.50653
# Velocity P-wave (km/s) = 7.04014 7.50899 7.27834
#
# Compressibility (1/GPa) = 0.01207205
#
# Stress axis : x y z
#
# Youngs Moduli (GPa) = 141.12375 96.68975 113.80213
#
# Poissons Ratio (x) = 0.32143 0.26682
# Poissons Ratio (y) = 0.46914 0.15964
# Poissons Ratio (z) = 0.33088 0.13564
#
# Static dielectric constant tensor:
#      x y z
#    x 2.083710 0.000000 0.000000 
#    y 0.000000 1.889710 0.000000 
#    z 0.000000 0.000000 1.954490 
# 
# From -- ./inp_files/27589.got.cif
#   From: 2010.05.17/outbox.cif.g08.bks.cpg/sg48_14_cif.got.tgz:27589.got - 2010.06.03 20:39:00.
