data_PCOD9391477
_publ_section_title
;
Structure prediction by ZEFSAII (Michael W. Deem and Ramdas Pophale) SiO2 
 PCOD9391477
Probable space group: P N N N
;
_chemical_formula_sum "Si O2"
_cell_formula_units_Z 24
_cell_length_a 5.409803
_cell_length_b 17.971034
_cell_length_c 10.010757
_cell_angle_alpha 90.000000
_cell_angle_beta 90.000000
_cell_angle_gamma 90.000000
_cell_volume 973.243329
_symmetry_space_group_name_H-M "P N N N"
_symmetry_group_IT_number 48
_space_group.IT_coordinate_system_code '2'
_symmetry_cell_setting 'orthorhombic'
loop_
_space_group_symop_operation_xyz
x,y,z
1/2-x,1/2-y,z
x,1/2-y,1/2-z
1/2-x,y,1/2-z
-x,-y,-z
1/2+x,1/2+y,-z
-x,1/2+y,1/2+z
1/2+x,-y,1/2+z
loop_
_atom_site_type_symbol
_atom_site_label
_atom_site_fract_x
_atom_site_fract_y
_atom_site_fract_z
Si Si1 0.250000 0.750000 0.250000
Si Si2 0.072155 0.375801 0.125237
Si Si3 0.916528 0.634522 0.368196
Si Si4 0.250000 0.750000 0.750000
Si Si5 0.250000 0.993187 0.750000
O O1 0.355201 0.810975 0.357911
O O2 0.250000 0.389928 0.250000
O O3 0.922626 0.301392 0.158981
O O4 0.871432 0.442092 0.135695
O O5 0.247955 0.368491 0.998473
O O6 0.750000 0.668439 0.250000
O O7 0.947349 0.549534 0.317576
#
# Coordination Sequence:
#
# PCOD9391477 Si02
#       5
#     2   8   8   2   4
#     4  12  26  46  72 108 152 196 242 310 372 436
#     4  11  24  45  74 106 144 191 248 304 369 434
#     4  10  26  45  70 104 146 193 243 298 367 437
#     4  10  26  46  72 106 148 196 246 316 368 440
#     4   9  24  46  74 103 146 192 246 301 364 436
#
# _framework density 24.659813
#
# number of rings (size 3 to 8) (size 9 to 14) (size 15 to 20)
#    1.000    0.667    0.000    2.000    2.333   14.667 
#    0.000    0.000    0.000    0.000    0.000    0.000 
#    0.000    0.000    0.000    0.000    0.000    0.000 
#
# Total GULP energy -134002.033928 kJ/mol
# GULP energy per Si atom -5583.418080 kJ/mol
# Density = 2.460369 g / cm^3
# Si number density = 24.659813 Si / 1000 Ang^3
#
#
#
# Elastic Constant Matrix: (Units=GPa)
#
#
# Indices 1 2 3 4 5 6 
#
# 1 55.6724 67.6572 32.8500 0.0000 0.0000 0.0000
# 2 67.6572 224.8120 57.3866 0.0000 0.0000 0.0000
# 3 32.8500 57.3866 164.9825 0.0000 0.0000 0.0000
# 4 0.0000 0.0000 0.0000 26.1768 0.0000 0.0000
# 5 0.0000 0.0000 0.0000 0.0000 49.6965 0.0000
# 6 0.0000 0.0000 0.0000 0.0000 0.0000 62.6052
#
#
#
# Elastic Compliance Matrix: (Units=1/GPa)
#
#
# Indices 1 2 3 4 5 6 
#
# 1 0.029677 -0.008146 -0.003075 0.000000 0.000000 0.000000
# 2 -0.008146 0.007118 -0.000854 0.000000 0.000000 0.000000
# 3 -0.003075 -0.000854 0.006971 0.000000 0.000000 0.000000
# 4 0.000000 0.000000 0.000000 0.038202 0.000000 0.000000
# 5 0.000000 0.000000 0.000000 0.000000 0.020122 0.000000
# 6 0.000000 0.000000 0.000000 0.000000 0.000000 0.015973
#
#
# Mechanical properties :
#
#
# Convention : Reuss Voigt Hill
#
# Bulk Modulus (GPa) = 50.98356 84.58383 67.78370
# Shear Modulus (GPa) = 33.61325 46.86723 40.24024
#
# Velocity S-wave (km/s) = 3.69599 4.36426 4.04395
# Velocity P-wave (km/s) = 6.23967 7.73113 7.02509
#
# Compressibility (1/GPa) = 0.01961416
#
# Stress axis : x y z
#
# Youngs Moduli (GPa) = 33.69647 140.49518 143.45983
#
# Poissons Ratio (x) = 1.14449 0.44121
# Poissons Ratio (y) = 0.27450 0.12248
# Poissons Ratio (z) = 0.10363 0.11995
#
# Static dielectric constant tensor:
#      x y z
#    x 1.893050 0.000000 0.000000 
#    y 0.000000 1.968750 0.000000 
#    z 0.000000 0.000000 1.913590 
# 
# From -- ./inp_files/1651.got.cif
#   From: 2010.05.17/outbox.cif.g08.bks.cpg/sg48_1_cif.got.tgz:1651.got - 2010.06.03 20:39:00.
