data_PCOD9391213
_publ_section_title
;
Structure prediction by ZEFSAII (Michael W. Deem and Ramdas Pophale) SiO2 
 PCOD9391213
Probable space group: P N N N
;
_chemical_formula_sum "Si O2"
_cell_formula_units_Z 36
_cell_length_a 14.511921
_cell_length_b 8.618287
_cell_length_c 15.806037
_cell_angle_alpha 90.000000
_cell_angle_beta 90.000000
_cell_angle_gamma 90.000000
_cell_volume 1976.827856
_symmetry_space_group_name_H-M "P N N N"
_symmetry_group_IT_number 48
_space_group.IT_coordinate_system_code '2'
_symmetry_cell_setting 'orthorhombic'
loop_
_space_group_symop_operation_xyz
x,y,z
1/2-x,1/2-y,z
x,1/2-y,1/2-z
1/2-x,y,1/2-z
-x,-y,-z
1/2+x,1/2+y,-z
-x,1/2+y,1/2+z
1/2+x,-y,1/2+z
loop_
_atom_site_type_symbol
_atom_site_label
_atom_site_fract_x
_atom_site_fract_y
_atom_site_fract_z
Si Si1 0.992536 0.378134 0.421904
Si Si2 0.145701 0.809198 0.483527
Si Si3 0.166715 0.150853 0.423437
Si Si4 0.250000 0.485647 0.250000
Si Si5 0.433969 0.858566 0.321341
O O1 0.078950 0.261919 0.419809
O O2 0.004138 0.492653 0.342662
O O3 0.000000 0.500000 0.500000
O O4 0.903281 0.272104 0.436667
O O5 0.250000 0.750000 0.476203
O O6 0.087980 0.744365 0.403593
O O7 0.146151 0.994483 0.475145
O O8 0.250000 0.250000 0.462590
O O9 0.202561 0.102892 0.329195
O O10 0.166185 0.582579 0.289789
O O11 0.475607 0.750000 0.250000
#
# Coordination Sequence:
#
# PCOD9391213 Si02
#       5
#     8   8   8   4   8
#     4  10  23  36  49  80 122 157 201 233 290 369
#     4  11  20  37  56  80 122 161 197 241 289 362
#     4  12  21  32  55  86 122 154 188 242 308 369
#     4  12  20  30  58  92 122 144 180 242 320 362
#     4  11  19  34  56  84 125 153 186 243 315 367
#
# _framework density 18.210993999999999
#
# number of rings (size 3 to 8) (size 9 to 14) (size 15 to 20)
#    0.000    0.889    6.667    2.667    0.000    0.000 
#    0.000    0.000    0.000    0.000    0.000    3.111 
#   26.667    0.000    0.000    0.000    0.000    0.000 
#
# Total GULP energy -200827.530701 kJ/mol
# GULP energy per Si atom -5578.542519 kJ/mol
# Density = 1.816954 g / cm^3
# Si number density = 18.210994 Si / 1000 Ang^3
#
#
#
# Elastic Constant Matrix: (Units=GPa)
#
#
# Indices 1 2 3 4 5 6 
#
# 1 46.6212 50.6560 27.2212 0.0000 0.0000 0.0000
# 2 50.6560 167.0169 45.7787 0.0000 0.0000 0.0000
# 3 27.2212 45.7787 48.2272 0.0000 0.0000 0.0000
# 4 0.0000 0.0000 0.0000 29.5501 0.0000 0.0000
# 5 0.0000 0.0000 0.0000 0.0000 23.0971 0.0000
# 6 0.0000 0.0000 0.0000 0.0000 0.0000 38.7034
#
#
#
# Elastic Compliance Matrix: (Units=1/GPa)
#
#
# Indices 1 2 3 4 5 6 
#
# 1 0.038063 -0.007645 -0.014228 0.000000 0.000000 0.000000
# 2 -0.007645 0.009628 -0.004825 0.000000 0.000000 0.000000
# 3 -0.014228 -0.004825 0.033345 0.000000 0.000000 0.000000
# 4 0.000000 0.000000 0.000000 0.033841 0.000000 0.000000
# 5 0.000000 0.000000 0.000000 0.000000 0.043296 0.000000
# 6 0.000000 0.000000 0.000000 0.000000 0.000000 0.025838
#
#
# Mechanical properties :
#
#
# Convention : Reuss Voigt Hill
#
# Bulk Modulus (GPa) = 36.17550 56.57523 46.37536
# Shear Modulus (GPa) = 20.27416 27.48406 23.87911
#
# Velocity S-wave (km/s) = 3.34022 3.88906 3.62504
# Velocity P-wave (km/s) = 5.89779 7.16243 6.56065
#
# Compressibility (1/GPa) = 0.02764302
#
# Stress axis : x y z
#
# Youngs Moduli (GPa) = 26.27217 103.85864 29.98908
#
# Poissons Ratio (x) = 0.79397 0.42667
# Poissons Ratio (y) = 0.20084 0.14469
# Poissons Ratio (z) = 0.37379 0.50108
#
# Static dielectric constant tensor:
#      x y z
#    x 1.615730 0.000000 0.000000 
#    y 0.000000 1.672030 0.000000 
#    z 0.000000 0.000000 1.671360 
# 
# From -- ./inp_files/12229.got.cif
#   From: 2010.05.17/outbox.cif.g08.bks.cpg/sg48_7_cif.got.tgz:12229.got - 2010.06.03 20:39:00.
