data_PCOD9391205
_publ_section_title
;
Structure prediction by ZEFSAII (Michael W. Deem and Ramdas Pophale) SiO2 
 PCOD9391205
Probable space group: P N N N
;
_chemical_formula_sum "Si O2"
_cell_formula_units_Z 18
_cell_length_a 10.726747
_cell_length_b 6.148615
_cell_length_c 11.055163
_cell_angle_alpha 90.000000
_cell_angle_beta 90.000000
_cell_angle_gamma 90.000000
_cell_volume 729.139268
_symmetry_space_group_name_H-M "P N N N"
_symmetry_group_IT_number 48
_space_group.IT_coordinate_system_code '2'
_symmetry_cell_setting 'orthorhombic'
loop_
_space_group_symop_operation_xyz
x,y,z
1/2-x,1/2-y,z
x,1/2-y,1/2-z
1/2-x,y,1/2-z
-x,-y,-z
1/2+x,1/2+y,-z
-x,1/2+y,1/2+z
1/2+x,-y,1/2+z
loop_
_atom_site_type_symbol
_atom_site_label
_atom_site_fract_x
_atom_site_fract_y
_atom_site_fract_z
Si Si1 0.750000 0.250000 0.250000
Si Si2 0.436206 0.800622 0.934892
Si Si3 0.377857 0.948205 0.328458
O O1 0.662439 0.114690 0.162355
O O2 0.537063 0.653583 0.863094
O O3 0.368714 0.655132 0.037143
O O4 0.500000 0.000000 0.000000
O O5 0.437139 0.750000 0.250000
O O6 0.250000 0.993316 0.250000
#
# Coordination Sequence:
#
# PCOD9391205 Si02
#       3
#     2   8   8
#     4  12  24  44  70 100 144 186 240 296 358 444
#     4  11  25  45  71 107 146 191 245 306 377 451
#     4  10  22  46  74 103 142 190 247 309 375 450
#
# _framework density 24.686643
#
# number of rings (size 3 to 8) (size 9 to 14) (size 15 to 20)
#    0.000    1.333    0.000    5.333    0.000    1.778 
#    0.000   60.000    0.000    0.000    0.000    0.000 
#    0.000    0.000    0.000    0.000    0.000    0.000 
#
# Total GULP energy -100428.514257 kJ/mol
# GULP energy per Si atom -5579.361903 kJ/mol
# Density = 2.463045 g / cm^3
# Si number density = 24.686643 Si / 1000 Ang^3
#
#
#
# Elastic Constant Matrix: (Units=GPa)
#
#
# Indices 1 2 3 4 5 6 
#
# 1 168.7270 91.3802 122.0960 0.0000 0.0000 0.0000
# 2 91.3802 142.9093 78.6810 0.0000 0.0000 0.0000
# 3 122.0960 78.6810 224.1917 0.0000 0.0000 0.0000
# 4 0.0000 0.0000 0.0000 59.3871 0.0000 0.0000
# 5 0.0000 0.0000 0.0000 0.0000 90.5626 0.0000
# 6 0.0000 0.0000 0.0000 0.0000 0.0000 20.3192
#
#
#
# Elastic Compliance Matrix: (Units=1/GPa)
#
#
# Indices 1 2 3 4 5 6 
#
# 1 0.012224 -0.005145 -0.004852 0.000000 0.000000 0.000000
# 2 -0.005145 0.010839 -0.001002 0.000000 0.000000 0.000000
# 3 -0.004852 -0.001002 0.007454 0.000000 0.000000 0.000000
# 4 0.000000 0.000000 0.000000 0.016839 0.000000 0.000000
# 5 0.000000 0.000000 0.000000 0.000000 0.011042 0.000000
# 6 0.000000 0.000000 0.000000 0.000000 0.000000 0.049214
#
#
# Mechanical properties :
#
#
# Convention : Reuss Voigt Hill
#
# Bulk Modulus (GPa) = 117.37085 124.46026 120.91555
# Shear Modulus (GPa) = 37.75008 50.29851 44.02429
#
# Velocity S-wave (km/s) = 3.91470 4.51874 4.22752
# Velocity P-wave (km/s) = 8.25110 8.81764 8.53907
#
# Compressibility (1/GPa) = 0.00852000
#
# Stress axis : x y z
#
# Youngs Moduli (GPa) = 81.80571 92.25852 134.15191
#
# Poissons Ratio (x) = 0.47470 0.65084
# Poissons Ratio (y) = 0.42092 0.13440
# Poissons Ratio (z) = 0.39688 0.09243
#
# Static dielectric constant tensor:
#      x y z
#    x 2.078850 0.000000 0.000000 
#    y 0.000000 1.959230 0.000000 
#    z 0.000000 0.000000 2.008400 
# 
# From -- ./inp_files/19100.got.cif
#   From: 2010.05.17/outbox.cif.g08.bks.cpg/sg48_10_cif.got.tgz:19100.got - 2010.06.03 20:39:00.
