data_PCOD9391531
_publ_section_title
;
Structure prediction by ZEFSAII (Michael W. Deem and Ramdas Pophale) SiO2 
 PCOD9391531
Probable space group: P N N N
;
_chemical_formula_sum "Si O2"
_cell_formula_units_Z 48
_cell_length_a 9.388250
_cell_length_b 13.152764
_cell_length_c 17.874269
_cell_angle_alpha 90.000000
_cell_angle_beta 90.000000
_cell_angle_gamma 90.000000
_cell_volume 2207.140415
_symmetry_space_group_name_H-M "P N N N"
_symmetry_group_IT_number 48
_space_group.IT_coordinate_system_code '2'
_symmetry_cell_setting 'orthorhombic'
loop_
_space_group_symop_operation_xyz
x,y,z
1/2-x,1/2-y,z
x,1/2-y,1/2-z
1/2-x,y,1/2-z
-x,-y,-z
1/2+x,1/2+y,-z
-x,1/2+y,1/2+z
1/2+x,-y,1/2+z
loop_
_atom_site_type_symbol
_atom_site_label
_atom_site_fract_x
_atom_site_fract_y
_atom_site_fract_z
Si Si1 0.055303 0.152854 0.038295
Si Si2 0.017891 0.918695 0.191530
Si Si3 0.733363 0.895317 0.665361
Si Si4 0.412991 0.732759 0.410772
Si Si5 0.307965 0.996255 0.571103
Si Si6 0.498138 0.485448 0.636807
O O1 0.135692 0.176316 0.114575
O O2 0.156332 0.066915 0.000100
O O3 0.901858 0.103831 0.056984
O O4 0.023695 0.233753 0.974727
O O5 0.884083 0.948318 0.140731
O O6 0.980246 0.946031 0.276982
O O7 0.060545 0.805545 0.162574
O O8 0.145798 0.996543 0.170388
O O9 0.750000 0.860765 0.750000
O O10 0.888506 0.924071 0.635581
O O11 0.250000 0.750000 0.433060
O O12 0.435588 0.614599 0.399390
O O13 0.145440 0.984408 0.593977
#
# Coordination Sequence:
#
# PCOD9391531 Si02
#       6
#     8   8   8   8   8   8
#     4   9  20  38  52  72 121 150 185 236 295 332
#     4   9  18  33  50  79 123 153 177 221 286 344
#     4   9  18  34  56  81 110 147 188 237 285 338
#     4  11  21  34  53  82 120 164 181 225 291 352
#     4   9  19  34  54  75 113 158 185 232 276 336
#     4  11  20  30  56  87 110 147 206 221 273 355
#
# _framework density 21.747598
#
# number of rings (size 3 to 8) (size 9 to 14) (size 15 to 20)
#    0.000    2.333    1.667    2.000    0.000    4.000 
#    0.000    3.333    0.000    0.000    0.000    2.333 
#   25.000    0.000    0.000    0.000    0.000    0.000 
#
# Total GULP energy -268072.652882 kJ/mol
# GULP energy per Si atom -5584.846935 kJ/mol
# Density = 2.169810 g / cm^3
# Si number density = 21.747598 Si / 1000 Ang^3
#
#
#
# Elastic Constant Matrix: (Units=GPa)
#
#
# Indices 1 2 3 4 5 6 
#
# 1 127.9497 21.4279 37.9581 0.0000 0.0000 0.0000
# 2 21.4279 67.2516 16.6763 0.0000 0.0000 0.0000
# 3 37.9581 16.6763 115.4490 0.0000 0.0000 0.0000
# 4 0.0000 0.0000 0.0000 3.7358 0.0000 0.0000
# 5 0.0000 0.0000 0.0000 0.0000 42.2711 0.0000
# 6 0.0000 0.0000 0.0000 0.0000 0.0000 19.6384
#
#
#
# Elastic Compliance Matrix: (Units=1/GPa)
#
#
# Indices 1 2 3 4 5 6 
#
# 1 0.008965 -0.002204 -0.002629 0.000000 0.000000 0.000000
# 2 -0.002204 0.015964 -0.001581 0.000000 0.000000 0.000000
# 3 -0.002629 -0.001581 0.009755 0.000000 0.000000 0.000000
# 4 0.000000 0.000000 0.000000 0.267682 0.000000 0.000000
# 5 0.000000 0.000000 0.000000 0.000000 0.023657 0.000000
# 6 0.000000 0.000000 0.000000 0.000000 0.000000 0.050921
#
#
# Mechanical properties :
#
#
# Convention : Reuss Voigt Hill
#
# Bulk Modulus (GPa) = 45.75820 51.41946 48.58883
# Shear Modulus (GPa) = 12.59264 28.76823 20.68044
#
# Velocity S-wave (km/s) = 2.40893 3.64101 3.08706
# Velocity P-wave (km/s) = 5.36875 6.43203 5.92429
#
# Compressibility (1/GPa) = 0.02185401
#
# Stress axis : x y z
#
# Youngs Moduli (GPa) = 111.54870 62.64093 102.51539
#
# Poissons Ratio (x) = 0.13809 0.26952
# Poissons Ratio (y) = 0.24590 0.16209
# Poissons Ratio (z) = 0.29327 0.09905
#
# Static dielectric constant tensor:
#      x y z
#    x 1.752410 0.000000 0.000000 
#    y 0.000000 1.789300 0.000000 
#    z 0.000000 0.000000 1.842840 
# 
# From -- ./inp_files/12739.got.cif
#   From: 2010.05.17/outbox.cif.g08.bks.cpg/sg48_7_cif.got.tgz:12739.got - 2010.06.03 20:39:00.
