data_PCOD9391381
_publ_section_title
;
Structure prediction by ZEFSAII (Michael W. Deem and Ramdas Pophale) SiO2 
 PCOD9391381
Probable space group: P N N N
;
_chemical_formula_sum "Si O2"
_cell_formula_units_Z 40
_cell_length_a 15.784435
_cell_length_b 12.247465
_cell_length_c 9.074650
_cell_angle_alpha 90.000000
_cell_angle_beta 90.000000
_cell_angle_gamma 90.000000
_cell_volume 1754.305124
_symmetry_space_group_name_H-M "P N N N"
_symmetry_group_IT_number 48
_space_group.IT_coordinate_system_code '2'
_symmetry_cell_setting 'orthorhombic'
loop_
_space_group_symop_operation_xyz
x,y,z
1/2-x,1/2-y,z
x,1/2-y,1/2-z
1/2-x,y,1/2-z
-x,-y,-z
1/2+x,1/2+y,-z
-x,1/2+y,1/2+z
1/2+x,-y,1/2+z
loop_
_atom_site_type_symbol
_atom_site_label
_atom_site_fract_x
_atom_site_fract_y
_atom_site_fract_z
Si Si1 0.982440 0.441410 0.349016
Si Si2 0.750000 0.394475 0.750000
Si Si3 0.250000 0.250000 0.250000
Si Si4 0.250000 0.750000 0.750000
Si Si5 0.872106 0.915808 0.645129
Si Si6 0.636190 0.232209 0.498765
Si Si7 0.472581 0.347524 0.642864
O O1 0.908810 0.357514 0.392833
O O2 0.973035 0.542526 0.238297
O O3 0.000000 0.500000 0.500000
O O4 0.066954 0.387539 0.283545
O O5 0.679115 0.471310 0.672032
O O6 0.806208 0.328956 0.625079
O O7 0.199622 0.172732 0.356165
O O8 0.311265 0.697243 0.623633
O O9 0.924592 0.891722 0.500053
O O10 0.561629 0.298072 0.580821
O O11 0.439144 0.250000 0.750000
#
# Coordination Sequence:
#
# PCOD9391381 Si02
#       7
#     8   4   2   2   8   8   8
#     4  12  24  45  74 104 140 193 253 301 363 465
#     4  11  26  46  77 102 156 194 239 321 391 437
#     4  10  24  42  72 100 138 194 228 312 372 424
#     4  12  32  40  76 104 154 176 236 312 376 440
#     4  11  24  45  71 102 142 191 250 295 374 449
#     4  12  28  49  69 114 146 195 245 314 384 456
#     4  12  26  45  77 103 143 199 251 305 368 470
#
# _framework density 22.80105
#
# number of rings (size 3 to 8) (size 9 to 14) (size 15 to 20)
#    0.000    0.400    4.000    3.000    8.400    0.000 
#    0.000    2.500    0.000    0.000    0.000    0.000 
#    0.000    0.000    0.000    0.000    0.000    0.000 
#
# Total GULP energy -222879.395502 kJ/mol
# GULP energy per Si atom -5571.984888 kJ/mol
# Density = 2.274915 g / cm^3
# Si number density = 22.801050 Si / 1000 Ang^3
#
#
#
# Elastic Constant Matrix: (Units=GPa)
#
#
# Indices 1 2 3 4 5 6 
#
# 1 124.4974 75.0835 101.9819 0.0000 0.0000 0.0000
# 2 75.0835 116.8205 57.3581 0.0000 0.0000 0.0000
# 3 101.9819 57.3581 198.2776 0.0000 0.0000 0.0000
# 4 0.0000 0.0000 0.0000 -16.5407 0.0000 0.0000
# 5 0.0000 0.0000 0.0000 0.0000 46.2296 0.0000
# 6 0.0000 0.0000 0.0000 0.0000 0.0000 -668.7366
#
#
#
# Elastic Compliance Matrix: (Units=1/GPa)
#
#
# Indices 1 2 3 4 5 6 
#
# 1 0.019488 -0.008863 -0.007460 0.000000 0.000000 0.000000
# 2 -0.008863 0.014008 0.000506 0.000000 0.000000 0.000000
# 3 -0.007460 0.000506 0.008734 0.000000 0.000000 0.000000
# 4 0.000000 0.000000 0.000000 -0.060457 0.000000 0.000000
# 5 0.000000 0.000000 0.000000 0.000000 0.021631 0.000000
# 6 0.000000 0.000000 0.000000 0.000000 0.000000 -0.001495
#
#
# Mechanical properties :
#
#
# Convention : Reuss Voigt Hill
#
# Bulk Modulus (GPa) = 94.36313 100.93807 97.65060
# Shear Modulus (GPa) = 134.86974 -114.13140 10.36917
#
# Velocity S-wave (km/s) = 7.69929 -7.08265 2.13484
# Velocity P-wave (km/s) = 10.97789 4.74554 6.99978
#
# Compressibility (1/GPa) = 0.01059736
#
# Stress axis : x y z
#
# Youngs Moduli (GPa) = 51.31412 71.38833 114.49880
#
# Poissons Ratio (x) = 0.63270 0.85411
# Poissons Ratio (y) = 0.45478 -0.05796
# Poissons Ratio (z) = 0.38278 -0.03614
#
# Static dielectric constant tensor:
#      x y z
#    x 2.085770 0.000000 0.000000 
#    y 0.000000 1.849570 0.000000 
#    z 0.000000 0.000000 1.718860 
# 
# From -- ./inp_files/12395.got.cif
#   From: 2010.05.17/outbox.cif.g08.bks.cpg/sg48_7_cif.got.tgz:12395.got - 2010.06.03 20:39:00.
