data_PCOD9391246
_publ_section_title
;
Structure prediction by ZEFSAII (Michael W. Deem and Ramdas Pophale) SiO2 
 PCOD9391246
Probable space group: P N N N
;
_chemical_formula_sum "Si O2"
_cell_formula_units_Z 32
_cell_length_a 14.830964
_cell_length_b 8.838099
_cell_length_c 10.525386
_cell_angle_alpha 90.000000
_cell_angle_beta 90.000000
_cell_angle_gamma 90.000000
_cell_volume 1379.641579
_symmetry_space_group_name_H-M "P N N N"
_symmetry_group_IT_number 48
_space_group.IT_coordinate_system_code '2'
_symmetry_cell_setting 'orthorhombic'
loop_
_space_group_symop_operation_xyz
x,y,z
1/2-x,1/2-y,z
x,1/2-y,1/2-z
1/2-x,y,1/2-z
-x,-y,-z
1/2+x,1/2+y,-z
-x,1/2+y,1/2+z
1/2+x,-y,1/2+z
loop_
_atom_site_type_symbol
_atom_site_label
_atom_site_fract_x
_atom_site_fract_y
_atom_site_fract_z
Si Si1 0.937971 0.410625 0.400981
Si Si2 0.595707 0.083469 0.980022
Si Si3 0.380163 0.422358 0.222675
Si Si4 0.226976 0.426562 0.540804
O O1 0.914025 0.253666 0.469887
O O2 0.849656 0.506402 0.367621
O O3 0.000000 0.500000 0.500000
O O4 0.011667 0.402688 0.291431
O O5 0.625939 0.046402 0.834161
O O6 0.678997 0.010630 0.054326
O O7 0.500000 0.000000 0.000000
O O8 0.349851 0.250000 0.250000
O O9 0.321852 0.458975 0.096695
O O10 0.250000 0.250000 0.551884
#
# Coordination Sequence:
#
# PCOD9391246 Si02
#       4
#     8   8   8   8
#     4  10  23  41  60  98 135 168 224 285 341 408
#     4  12  22  38  68  96 130 177 221 277 345 401
#     4  11  21  41  70  98 129 175 227 282 344 408
#     4  11  22  39  65  95 132 170 225 285 340 406
#
# _framework density 23.194431000000002
#
# number of rings (size 3 to 8) (size 9 to 14) (size 15 to 20)
#    0.000    1.000    5.000    3.000    0.000    4.000 
#    0.000    6.250    0.000    4.500    0.000    0.000 
#    0.000    0.000    0.000    0.000    0.000    0.000 
#
# Total GULP energy -178522.359898 kJ/mol
# GULP energy per Si atom -5578.823747 kJ/mol
# Density = 2.314164 g / cm^3
# Si number density = 23.194431 Si / 1000 Ang^3
#
#
#
# Elastic Constant Matrix: (Units=GPa)
#
#
# Indices 1 2 3 4 5 6 
#
# 1 237.6723 86.4337 10.3076 0.0000 0.0000 0.0000
# 2 86.4337 161.5896 22.2346 0.0000 0.0000 0.0000
# 3 10.3076 22.2346 64.2998 0.0000 0.0000 0.0000
# 4 0.0000 0.0000 0.0000 23.9599 0.0000 0.0000
# 5 0.0000 0.0000 0.0000 0.0000 24.8426 0.0000
# 6 0.0000 0.0000 0.0000 0.0000 0.0000 46.7688
#
#
#
# Elastic Compliance Matrix: (Units=1/GPa)
#
#
# Indices 1 2 3 4 5 6 
#
# 1 0.005225 -0.002813 0.000135 0.000000 0.000000 0.000000
# 2 -0.002813 0.008013 -0.002320 0.000000 0.000000 0.000000
# 3 0.000135 -0.002320 0.016333 0.000000 0.000000 0.000000
# 4 0.000000 0.000000 0.000000 0.041736 0.000000 0.000000
# 5 0.000000 0.000000 0.000000 0.000000 0.040253 0.000000
# 6 0.000000 0.000000 0.000000 0.000000 0.000000 0.021382
#
#
# Mechanical properties :
#
#
# Convention : Reuss Voigt Hill
#
# Bulk Modulus (GPa) = 51.08717 77.94594 64.51655
# Shear Modulus (GPa) = 33.45340 42.08666 37.77003
#
# Velocity S-wave (km/s) = 3.80189 4.26433 4.03973
# Velocity P-wave (km/s) = 6.43008 7.61081 7.04522
#
# Compressibility (1/GPa) = 0.01957438
#
# Stress axis : x y z
#
# Youngs Moduli (GPa) = 191.39815 124.80460 61.22725
#
# Poissons Ratio (x) = 0.35111 -0.00828
# Poissons Ratio (y) = 0.53846 0.14203
# Poissons Ratio (z) = -0.02589 0.28951
#
# Static dielectric constant tensor:
#      x y z
#    x 1.919990 0.000000 0.000000 
#    y 0.000000 1.858540 0.000000 
#    z 0.000000 0.000000 2.046180 
# 
# From -- ./inp_files/10093.got.cif
#   From: 2010.05.17/outbox.cif.g08.bks.cpg/sg48_6_cif.got.tgz:10093.got - 2010.06.03 20:39:00.
