data_PCOD9391831
_publ_section_title
;
Structure prediction by ZEFSAII (Michael W. Deem and Ramdas Pophale) SiO2 
 PCOD9391831
Probable space group: P N N N
;
_chemical_formula_sum "Si O2"
_cell_formula_units_Z 32
_cell_length_a 18.126739
_cell_length_b 9.391115
_cell_length_c 7.914562
_cell_angle_alpha 90.000000
_cell_angle_beta 90.000000
_cell_angle_gamma 90.000000
_cell_volume 1347.298189
_symmetry_space_group_name_H-M "P N N N"
_symmetry_group_IT_number 48
_space_group.IT_coordinate_system_code '2'
_symmetry_cell_setting 'orthorhombic'
loop_
_space_group_symop_operation_xyz
x,y,z
1/2-x,1/2-y,z
x,1/2-y,1/2-z
1/2-x,y,1/2-z
-x,-y,-z
1/2+x,1/2+y,-z
-x,1/2+y,1/2+z
1/2+x,-y,1/2+z
loop_
_atom_site_type_symbol
_atom_site_label
_atom_site_fract_x
_atom_site_fract_y
_atom_site_fract_z
Si Si1 0.495745 0.596351 0.745364
Si Si2 0.354136 0.354875 0.088379
Si Si3 0.258600 0.915289 0.953751
Si Si4 0.603054 0.592676 0.427508
O O1 0.455893 0.750000 0.750000
O O2 0.563306 0.586044 0.875481
O O3 0.539914 0.607622 0.568610
O O4 0.438483 0.468476 0.735365
O O5 0.336503 0.250000 0.250000
O O6 0.298509 0.481893 0.050273
O O7 0.355367 0.242193 0.935101
O O8 0.250000 0.750000 0.998210
O O9 0.250000 0.930555 0.750000
O O10 0.340181 0.973098 0.989621
#
# Coordination Sequence:
#
# PCOD9391831 Si02
#       4
#     8   8   8   8
#     4   8  17  34  65  92 127 168 217 279 330 394
#     4   9  20  41  68  99 127 176 232 276 335 406
#     4  11  25  41  64  96 137 177 219 281 344 403
#     4   9  18  36  64  92 126 172 217 277 331 393
#
# _framework density 23.751239000000002
#
# number of rings (size 3 to 8) (size 9 to 14) (size 15 to 20)
#    0.000    3.250    0.000    0.750    3.500   10.000 
#    0.000   11.250   11.000    0.000    6.500    0.000 
#    0.000    0.000    0.000    0.000    0.000    0.000 
#
# Total GULP energy -178659.685440 kJ/mol
# GULP energy per Si atom -5583.115170 kJ/mol
# Density = 2.369718 g / cm^3
# Si number density = 23.751239 Si / 1000 Ang^3
#
#
#
# Elastic Constant Matrix: (Units=GPa)
#
#
# Indices 1 2 3 4 5 6 
#
# 1 87.1346 87.8558 19.0781 0.0000 0.0000 0.0000
# 2 87.8558 198.2496 60.9220 0.0000 0.0000 0.0000
# 3 19.0781 60.9220 92.7382 0.0000 0.0000 0.0000
# 4 0.0000 0.0000 0.0000 36.1548 0.0000 0.0000
# 5 0.0000 0.0000 0.0000 0.0000 25.4408 0.0000
# 6 0.0000 0.0000 0.0000 0.0000 0.0000 40.4182
#
#
#
# Elastic Compliance Matrix: (Units=1/GPa)
#
#
# Indices 1 2 3 4 5 6 
#
# 1 0.021118 -0.010053 0.002260 0.000000 0.000000 0.000000
# 2 -0.010053 0.011106 -0.005227 0.000000 0.000000 0.000000
# 3 0.002260 -0.005227 0.013752 0.000000 0.000000 0.000000
# 4 0.000000 0.000000 0.000000 0.027659 0.000000 0.000000
# 5 0.000000 0.000000 0.000000 0.000000 0.039307 0.000000
# 6 0.000000 0.000000 0.000000 0.000000 0.000000 0.024741
#
#
# Mechanical properties :
#
#
# Convention : Reuss Voigt Hill
#
# Bulk Modulus (GPa) = 50.16493 79.31492 64.73993
# Shear Modulus (GPa) = 29.34805 34.42052 31.88428
#
# Velocity S-wave (km/s) = 3.51898 3.81098 3.66789
# Velocity P-wave (km/s) = 6.13823 7.26851 6.72715
#
# Compressibility (1/GPa) = 0.01993425
#
# Stress axis : x y z
#
# Youngs Moduli (GPa) = 47.35315 90.04484 72.71554
#
# Poissons Ratio (x) = 0.90522 -0.16431
# Poissons Ratio (y) = 0.47604 0.38012
# Poissons Ratio (z) = -0.10700 0.47070
#
# Static dielectric constant tensor:
#      x y z
#    x 1.895550 0.000000 0.000000 
#    y 0.000000 1.911900 0.000000 
#    z 0.000000 0.000000 2.050280 
# 
# From -- ./inp_files/8629.got.cif
#   From: 2010.05.17/outbox.cif.g08.bks.cpg/sg48_5_cif.got.tgz:8629.got - 2010.06.03 20:39:00.
