data_PCOD9391995
_publ_section_title
;
Structure prediction by ZEFSAII (Michael W. Deem and Ramdas Pophale) SiO2 
 PCOD9391995
Probable space group: P C C M
;
_chemical_formula_sum "Si O2"
_cell_formula_units_Z 64
_cell_length_a 14.720337
_cell_length_b 32.395032
_cell_length_c 8.688751
_cell_angle_alpha 90.000000
_cell_angle_beta 90.000000
_cell_angle_gamma 90.000000
_cell_volume 4143.368094
_symmetry_space_group_name_H-M "P C C M"
_symmetry_group_IT_number 49
_symmetry_cell_setting 'orthorhombic'
loop_
_space_group_symop_operation_xyz
x,y,z
-x,-y,z
x,-y,1/2-z
-x,y,1/2-z
-x,-y,-z
x,y,-z
-x,y,1/2+z
x,-y,1/2+z
loop_
_atom_site_type_symbol
_atom_site_label
_atom_site_fract_x
_atom_site_fract_y
_atom_site_fract_z
Si Si1 0.097122 0.827955 0.683663
Si Si2 0.601175 0.876688 0.685678
Si Si3 0.602632 0.626580 0.315373
Si Si4 0.603341 0.542358 0.183858
Si Si5 0.097415 0.074858 0.184263
Si Si6 0.716016 0.956745 0.315619
Si Si7 0.398008 0.718017 0.185366
Si Si8 0.717795 0.796736 0.686079
O O1 0.095464 0.825557 0.500000
O O2 0.108892 0.876524 0.726292
O O3 0.181696 0.802796 0.749176
O O4 0.000000 0.814605 0.750000
O O5 0.500000 0.875590 0.750000
O O6 0.597423 0.876473 0.500000
O O7 0.654374 0.918007 0.734096
O O8 0.657845 0.836341 0.734253
O O9 0.500000 0.628259 0.250000
O O10 0.600176 0.621819 0.500000
O O11 0.645517 0.585507 0.241837
O O12 0.639321 0.672169 0.276207
O O13 0.644892 0.500000 0.250000
O O14 0.500000 0.542986 0.250000
O O15 0.599933 0.541042 0.000000
O O16 0.182341 0.050960 0.254322
O O17 0.000000 0.061351 0.250000
O O18 0.097404 0.071235 0.000000
O O19 0.717540 0.958055 0.500000
O O20 0.681465 0.000000 0.250000
O O21 0.500000 0.722849 0.250000
O O22 0.333104 0.755074 0.236568
O O23 0.405087 0.719764 0.000000
O O24 0.722312 0.796697 0.500000
#
# Coordination Sequence:
#
# PCOD9391995 Si02
#       8
#     8   8   8   8   8   8   8   8
#     4  10  20  33  53  78 100 124 149 180 220 265
#     4  10  22  37  55  74  96 123 154 190 227 263
#     4   9  15  24  35  51  75 106 143 184 228 272
#     4  10  16  22  32  47  67  97 137 185 233 275
#     4  10  20  35  56  80 103 126 150 180 218 266
#     4  11  23  39  56  76  99 126 154 187 224 266
#     4   9  18  29  44  64  90 122 155 192 233 272
#     4  10  19  34  52  73  98 123 152 188 226 269
#
# _framework density 15.44637
#
# number of rings (size 3 to 8) (size 9 to 14) (size 15 to 20)
#    0.000    2.125    1.250    4.125    0.000    4.000 
#    0.000    2.500    0.000    0.000    0.000    0.000 
#    0.000    0.000    0.000    0.000    0.000    0.625 
#
# Total GULP energy -356942.175060 kJ/mol
# GULP energy per Si atom -5577.221485 kJ/mol
# Density = 1.541121 g / cm^3
# Si number density = 15.446370 Si / 1000 Ang^3
#
#
#
# Elastic Constant Matrix: (Units=GPa)
#
#
# Indices 1 2 3 4 5 6 
#
# 1 79.1560 53.7379 19.8972 0.0000 0.0000 0.0000
# 2 53.7379 147.7803 40.3531 0.0000 0.0000 0.0000
# 3 19.8972 40.3531 46.7170 0.0000 0.0000 0.0000
# 4 0.0000 0.0000 0.0000 23.2379 0.0000 0.0000
# 5 0.0000 0.0000 0.0000 0.0000 22.7095 0.0000
# 6 0.0000 0.0000 0.0000 0.0000 0.0000 3.5589
#
#
#
# Elastic Compliance Matrix: (Units=1/GPa)
#
#
# Indices 1 2 3 4 5 6 
#
# 1 0.016992 -0.005500 -0.002486 0.000000 0.000000 0.000000
# 2 -0.005500 0.010636 -0.006844 0.000000 0.000000 0.000000
# 3 -0.002486 -0.006844 0.028376 0.000000 0.000000 0.000000
# 4 0.000000 0.000000 0.000000 0.043033 0.000000 0.000000
# 5 0.000000 0.000000 0.000000 0.000000 0.044034 0.000000
# 6 0.000000 0.000000 0.000000 0.000000 0.000000 0.280989
#
#
# Mechanical properties :
#
#
# Convention : Reuss Voigt Hill
#
# Bulk Modulus (GPa) = 37.96092 55.73662 46.84877
# Shear Modulus (GPa) = 10.81072 20.54558 15.67815
#
# Velocity S-wave (km/s) = 2.64841 3.65104 3.18937
# Velocity P-wave (km/s) = 5.82936 7.34410 6.63013
#
# Compressibility (1/GPa) = 0.02634288
#
# Stress axis : x y z
#
# Youngs Moduli (GPa) = 58.85084 94.02276 35.24044
#
# Poissons Ratio (x) = 0.51712 0.08762
# Poissons Ratio (y) = 0.32368 0.24120
# Poissons Ratio (z) = 0.14632 0.64353
#
# Static dielectric constant tensor:
#      x y z
#    x 1.473520 0.000000 0.000000 
#    y 0.000000 1.570220 0.000000 
#    z 0.000000 0.000000 1.513650 
# 
# From -- ./inp_files/4523.got.cif
#   From: 2010.05.17/outbox.cif.g08.bks.cpg/sg49_3_cif.got.tgz:4523.got - 2010.06.03 21:02:19.
