data_PCOD9391956
_publ_section_title
;
Structure prediction by ZEFSAII (Michael W. Deem and Ramdas Pophale) SiO2 
 PCOD9391956
Probable space group: P N N N
;
_chemical_formula_sum "Si O2"
_cell_formula_units_Z 58
_cell_length_a 18.000000
_cell_length_b 9.000000
_cell_length_c 18.000000
_cell_angle_alpha 90.000000
_cell_angle_beta 90.000000
_cell_angle_gamma 90.000000
_cell_volume 2916.000000
_symmetry_space_group_name_H-M "P N N N"
_symmetry_group_IT_number 48
_space_group.IT_coordinate_system_code '2'
_symmetry_cell_setting 'orthorhombic'
loop_
_space_group_symop_operation_xyz
x,y,z
1/2-x,1/2-y,z
x,1/2-y,1/2-z
1/2-x,y,1/2-z
-x,-y,-z
1/2+x,1/2+y,-z
-x,1/2+y,1/2+z
1/2+x,-y,1/2+z
loop_
_atom_site_type_symbol
_atom_site_label
_atom_site_fract_x
_atom_site_fract_y
_atom_site_fract_z
Si Si1 0.570866 0.837412 0.931110
Si Si2 0.166626 0.600509 0.880497
Si Si3 0.361755 0.475217 0.090810
Si Si4 0.250000 0.750000 0.750000
Si Si5 0.992301 0.414544 0.665181
Si Si6 0.567100 0.144568 0.450410
Si Si7 0.022136 0.428882 0.837730
Si Si8 0.277111 0.081712 0.003580
O O1 0.614250 0.695994 0.896674
O O2 0.501335 0.755773 0.971301
O O3 0.535679 0.959102 0.876907
O O4 0.635622 0.914733 0.977706
O O5 0.200583 0.649927 0.803219
O O6 0.129049 0.744719 0.918187
O O7 0.102371 0.482027 0.864342
O O8 0.228016 0.526555 0.933512
O O9 0.403351 0.563069 0.155629
O O10 0.401212 0.546184 0.017448
O O11 0.274923 0.475421 0.070878
O O12 0.034592 0.531379 0.611534
O O13 0.015219 0.445803 0.749258
O O14 0.010224 0.244512 0.645966
O O15 0.250000 0.250000 0.986988
#
# Coordination Sequence:
#
# PCOD9391956 Si02
#       8
#     8   8   8   2   8   8   8   8
#     4   9  20  38  59  87 116 152 205 252 302 365
#     4  11  24  40  65  84 124 164 199 254 297 383
#     4  10  21  37  60  88 122 161 195 256 307 373
#     4  12  24  44  54  92 124 160 210 228 312 384
#     4  10  21  39  59  89 125 151 210 255 304 362
#     4  10  21  37  64  88 115 159 206 253 309 354
#     4  10  23  38  62  91 115 163 203 261 302 358
#     4  10  23  40  59  91 124 155 202 253 315 369
#
# _framework density 19.890260999999999
#
# number of rings (size 3 to 8) (size 9 to 14) (size 15 to 20)
#    0.000    1.931    0.000    3.310    7.724    5.517 
#    2.483    0.690    0.000    5.793    0.000    0.000 
#    0.000    0.000    0.000    0.000    0.000    0.000 
#
# Total GULP energy -323664.463723 kJ/mol
# GULP energy per Si atom -5580.421788 kJ/mol
# Density = 1.984499 g / cm^3
# Si number density = 19.890261 Si / 1000 Ang^3
#
#
#
# Elastic Constant Matrix: (Units=GPa)
#
#
# Indices 1 2 3 4 5 6 
#
# 1 86.6823 28.3683 19.7470 0.0000 0.0000 0.0000
# 2 28.3683 88.8446 21.8707 0.0000 0.0000 0.0000
# 3 19.7470 21.8707 45.3555 0.0000 0.0000 0.0000
# 4 0.0000 0.0000 0.0000 29.7056 0.0000 0.0000
# 5 0.0000 0.0000 0.0000 0.0000 -87.2448 0.0000
# 6 0.0000 0.0000 0.0000 0.0000 0.0000 22.7864
#
#
#
# Elastic Compliance Matrix: (Units=1/GPa)
#
#
# Indices 1 2 3 4 5 6 
#
# 1 0.013596 -0.003273 -0.004342 0.000000 0.000000 0.000000
# 2 -0.003273 0.013559 -0.005114 0.000000 0.000000 0.000000
# 3 -0.004342 -0.005114 0.026404 0.000000 0.000000 0.000000
# 4 0.000000 0.000000 0.000000 0.033664 0.000000 0.000000
# 5 0.000000 0.000000 0.000000 0.000000 -0.011462 0.000000
# 6 0.000000 0.000000 0.000000 0.000000 0.000000 0.043886
#
#
# Mechanical properties :
#
#
# Convention : Reuss Voigt Hill
#
# Bulk Modulus (GPa) = 35.58169 40.09494 37.83831
# Shear Modulus (GPa) = 32.36854 3.10922 17.73888
#
# Velocity S-wave (km/s) = 4.03843 1.25163 2.98960
# Velocity P-wave (km/s) = 6.29865 4.72129 5.56613
#
# Compressibility (1/GPa) = 0.02810434
#
# Stress axis : x y z
#
# Youngs Moduli (GPa) = 73.54856 73.74976 37.87295
#
# Poissons Ratio (x) = 0.24136 0.16443
# Poissons Ratio (y) = 0.24070 0.19367
# Poissons Ratio (z) = 0.31932 0.37712
#
# Static dielectric constant tensor:
#      x y z
#    x 1.739370 0.000000 0.000000 
#    y 0.000000 1.720840 0.000000 
#    z 0.000000 0.000000 1.705240 
# 
# From -- ./inp_files/14438.got.cif
#   From: 2010.05.17/outbox.ucp.g08.bks.cvg/sg48_8_cif.got.tgz:14438.got - 2010.06.11 16:38:40.
