data_PCOD9391988
_publ_section_title
;
Structure prediction by ZEFSAII (Michael W. Deem and Ramdas Pophale) SiO2 
 PCOD9391988
Probable space group: P C C M
;
_chemical_formula_sum "Si O2"
_cell_formula_units_Z 40
_cell_length_a 7.864265
_cell_length_b 27.775689
_cell_length_c 8.553334
_cell_angle_alpha 90.000000
_cell_angle_beta 90.000000
_cell_angle_gamma 90.000000
_cell_volume 1868.350753
_symmetry_space_group_name_H-M "P C C M"
_symmetry_group_IT_number 49
_symmetry_cell_setting 'orthorhombic'
loop_
_space_group_symop_operation_xyz
x,y,z
-x,-y,z
x,-y,1/2-z
-x,y,1/2-z
-x,-y,-z
x,y,-z
-x,y,1/2+z
x,-y,1/2+z
loop_
_atom_site_type_symbol
_atom_site_label
_atom_site_fract_x
_atom_site_fract_y
_atom_site_fract_z
Si Si1 0.308914 0.049134 0.186628
Si Si2 0.804315 0.749405 0.813203
Si Si3 0.195420 0.350339 0.313110
Si Si4 0.809494 0.848205 0.686637
Si Si5 0.804562 0.450111 0.686897
O O1 0.500000 0.047138 0.250000
O O2 0.247896 0.100273 0.250069
O O3 0.222490 0.000000 0.250000
O O4 0.303230 0.048547 0.000000
O O5 0.726909 0.699526 0.750070
O O6 0.723997 0.799312 0.751673
O O7 0.000000 0.748792 0.750000
O O8 0.807856 0.749431 0.000000
O O9 0.192647 0.350238 0.500000
O O10 0.272811 0.400239 0.250142
O O11 0.000000 0.350491 0.250000
O O12 0.802490 0.847653 0.500000
O O13 0.000000 0.844911 0.750000
O O14 0.727231 0.500000 0.750000
O O15 0.000000 0.450142 0.750000
O O16 0.192695 0.450075 0.000000
#
# Coordination Sequence:
#
# PCOD9391988 Si02
#       5
#     8   8   8   8   8
#     4  11  22  39  59  81 105 135 168 203 243 292
#     4  10  17  27  41  60  84 113 146 186 232 282
#     4  10  16  23  33  47  67  96 132 174 221 272
#     4  11  21  35  53  77 104 133 166 207 250 294
#     4  10  16  22  29  40  58  85 123 170 218 266
#
# _framework density 21.409255999999999
#
# number of rings (size 3 to 8) (size 9 to 14) (size 15 to 20)
#    0.000    1.600    0.000   13.800    0.000    0.400 
#    0.000    2.000    0.000    0.000    0.000    0.000 
#    0.000    0.000    0.000    0.000    0.000    1.000 
#
# Total GULP energy -223236.066575 kJ/mol
# GULP energy per Si atom -5580.901664 kJ/mol
# Density = 2.136053 g / cm^3
# Si number density = 21.409256 Si / 1000 Ang^3
#
#
#
# Elastic Constant Matrix: (Units=GPa)
#
#
# Indices 1 2 3 4 5 6 
#
# 1 17.4482 23.3199 5.5937 0.0000 0.0000 0.0000
# 2 23.3199 302.2197 120.3299 0.0000 0.0000 0.0000
# 3 5.5937 120.3299 275.1325 0.0000 0.0000 0.0000
# 4 0.0000 0.0000 0.0000 48.7186 0.0000 0.0000
# 5 0.0000 0.0000 0.0000 0.0000 7.9748 0.0000
# 6 0.0000 0.0000 0.0000 0.0000 0.0000 294.0367
#
#
#
# Elastic Compliance Matrix: (Units=1/GPa)
#
#
# Indices 1 2 3 4 5 6 
#
# 1 0.064148 -0.005365 0.001042 0.000000 0.000000 0.000000
# 2 -0.005365 0.004455 -0.001839 0.000000 0.000000 0.000000
# 3 0.001042 -0.001839 0.004418 0.000000 0.000000 0.000000
# 4 0.000000 0.000000 0.000000 0.020526 0.000000 0.000000
# 5 0.000000 0.000000 0.000000 0.000000 0.125395 0.000000
# 6 0.000000 0.000000 0.000000 0.000000 0.000000 0.003401
#
#
# Mechanical properties :
#
#
# Convention : Reuss Voigt Hill
#
# Bulk Modulus (GPa) = 16.47517 99.25415 57.86466
# Shear Modulus (GPa) = 19.61555 99.84982 59.73269
#
# Velocity S-wave (km/s) = 3.03019 6.83666 5.28781
# Velocity P-wave (km/s) = 4.46708 10.42981 8.02296
#
# Compressibility (1/GPa) = 0.06069738
#
# Stress axis : x y z
#
# Youngs Moduli (GPa) = 15.58884 224.45820 226.35204
#
# Poissons Ratio (x) = 1.20416 -0.23587
# Poissons Ratio (y) = 0.08363 0.41635
# Poissons Ratio (z) = -0.01624 0.41287
#
# Static dielectric constant tensor:
#      x y z
#    x 1.766370 0.000000 0.000000 
#    y 0.000000 1.979170 0.000000 
#    z 0.000000 0.000000 1.695950 
# 
# From -- ./inp_files/1892.got.cif
#   From: 2010.05.17/outbox.cif.g08.bks.cpg/sg49_1_cif.got.tgz:1892.got - 2010.06.03 21:02:19.
