data_PCOD9391541
_publ_section_title
;
Structure prediction by ZEFSAII (Michael W. Deem and Ramdas Pophale) SiO2 
 PCOD9391541
Probable space group: P N N N
;
_chemical_formula_sum "Si O2"
_cell_formula_units_Z 48
_cell_length_a 8.464579
_cell_length_b 21.130883
_cell_length_c 10.485502
_cell_angle_alpha 90.000000
_cell_angle_beta 90.000000
_cell_angle_gamma 90.000000
_cell_volume 1875.479128
_symmetry_space_group_name_H-M "P N N N"
_symmetry_group_IT_number 48
_space_group.IT_coordinate_system_code '2'
_symmetry_cell_setting 'orthorhombic'
loop_
_space_group_symop_operation_xyz
x,y,z
1/2-x,1/2-y,z
x,1/2-y,1/2-z
1/2-x,y,1/2-z
-x,-y,-z
1/2+x,1/2+y,-z
-x,1/2+y,1/2+z
1/2+x,-y,1/2+z
loop_
_atom_site_type_symbol
_atom_site_label
_atom_site_fract_x
_atom_site_fract_y
_atom_site_fract_z
Si Si1 0.001166 0.384155 0.710497
Si Si2 0.630492 0.190756 0.099551
Si Si3 0.420131 0.272143 0.933908
Si Si4 0.583901 0.866841 0.676241
Si Si5 0.697117 0.546902 0.375750
Si Si6 0.824934 0.068795 0.016161
O O1 0.988695 0.311204 0.675642
O O2 0.167149 0.400605 0.635548
O O3 0.036821 0.416606 0.845517
O O4 0.873582 0.420048 0.628910
O O5 0.750000 0.250000 0.118027
O O6 0.524563 0.168778 0.218850
O O7 0.727599 0.129162 0.061452
O O8 0.519228 0.213438 0.985220
O O9 0.250000 0.250000 0.890075
O O10 0.395812 0.315729 0.061783
O O11 0.750000 0.882272 0.750000
O O12 0.483320 0.924111 0.607891
O O13 0.750000 0.506306 0.250000
O O14 0.726265 0.495964 0.480970
#
# Coordination Sequence:
#
# PCOD9391541 Si02
#       6
#     8   8   8   8   8   8
#     4   8  19  34  55  84 118 149 207 259 312 377
#     4  12  22  30  52  86 120 157 196 253 322 391
#     4  11  21  34  52  79 123 157 191 253 316 390
#     4  11  22  31  46  78 122 157 186 237 326 385
#     4   8  18  35  57  83 111 157 211 257 310 371
#     4  11  20  34  59  85 117 158 208 263 310 390
#
# _framework density 25.59346
#
# number of rings (size 3 to 8) (size 9 to 14) (size 15 to 20)
#    1.000    0.667    5.000    2.500    2.333    0.000 
#    0.000    1.667    0.000   11.000    0.000    1.167 
#    0.000    0.000    0.000    0.000    0.000    0.000 
#
# Total GULP energy -267861.204989 kJ/mol
# GULP energy per Si atom -5580.441771 kJ/mol
# Density = 2.553521 g / cm^3
# Si number density = 25.593460 Si / 1000 Ang^3
#
#
#
# Elastic Constant Matrix: (Units=GPa)
#
#
# Indices 1 2 3 4 5 6 
#
# 1 93.3099 21.2419 54.5616 0.0000 0.0000 0.0000
# 2 21.2419 95.5140 49.3035 0.0000 0.0000 0.0000
# 3 54.5616 49.3035 82.1157 0.0000 0.0000 0.0000
# 4 0.0000 0.0000 0.0000 23.0105 0.0000 0.0000
# 5 0.0000 0.0000 0.0000 0.0000 20.6865 0.0000
# 6 0.0000 0.0000 0.0000 0.0000 0.0000 24.1924
#
#
#
# Elastic Compliance Matrix: (Units=1/GPa)
#
#
# Indices 1 2 3 4 5 6 
#
# 1 0.018167 0.003175 -0.013977 0.000000 0.000000 0.000000
# 2 0.003175 0.015727 -0.011552 0.000000 0.000000 0.000000
# 3 -0.013977 -0.011552 0.028401 0.000000 0.000000 0.000000
# 4 0.000000 0.000000 0.000000 0.043458 0.000000 0.000000
# 5 0.000000 0.000000 0.000000 0.000000 0.048341 0.000000
# 6 0.000000 0.000000 0.000000 0.000000 0.000000 0.041335
#
#
# Mechanical properties :
#
#
# Convention : Reuss Voigt Hill
#
# Bulk Modulus (GPa) = 56.86386 57.90594 57.38490
# Shear Modulus (GPa) = 20.32516 23.30006 21.81261
#
# Velocity S-wave (km/s) = 2.82113 3.02054 2.92254
# Velocity P-wave (km/s) = 5.73394 5.90248 5.81882
#
# Compressibility (1/GPa) = 0.01758586
#
# Stress axis : x y z
#
# Youngs Moduli (GPa) = 55.04386 63.58641 35.20989
#
# Poissons Ratio (x) = -0.20186 0.49214
# Poissons Ratio (y) = -0.17475 0.40674
# Poissons Ratio (z) = 0.76937 0.73454
#
# Static dielectric constant tensor:
#      x y z
#    x 2.086520 0.000000 0.000000 
#    y 0.000000 2.009890 0.000000 
#    z 0.000000 0.000000 2.147040 
# 
# From -- ./inp_files/18810.got.cif
#   From: 2010.05.17/outbox.cif.g08.bks.cpg/sg48_10_cif.got.tgz:18810.got - 2010.06.03 20:39:00.
