data_PCOD9391473
_publ_section_title
;
Structure prediction by ZEFSAII (Michael W. Deem and Ramdas Pophale) SiO2 
 PCOD9391473
Probable space group: P N N N
;
_chemical_formula_sum "Si O2"
_cell_formula_units_Z 52
_cell_length_a 5.285591
_cell_length_b 21.549345
_cell_length_c 22.980172
_cell_angle_alpha 90.000000
_cell_angle_beta 90.000000
_cell_angle_gamma 90.000000
_cell_volume 2617.465122
_symmetry_space_group_name_H-M "P N N N"
_symmetry_group_IT_number 48
_space_group.IT_coordinate_system_code '2'
_symmetry_cell_setting 'orthorhombic'
loop_
_space_group_symop_operation_xyz
x,y,z
1/2-x,1/2-y,z
x,1/2-y,1/2-z
1/2-x,y,1/2-z
-x,-y,-z
1/2+x,1/2+y,-z
-x,1/2+y,1/2+z
1/2+x,-y,1/2+z
loop_
_atom_site_type_symbol
_atom_site_label
_atom_site_fract_x
_atom_site_fract_y
_atom_site_fract_z
Si Si1 0.250000 0.250000 0.472983
Si Si2 0.457618 0.634312 0.005952
Si Si3 0.854917 0.553950 0.185839
Si Si4 0.838682 0.423335 0.618036
Si Si5 0.210249 0.034695 0.462425
Si Si6 0.936771 0.152970 0.408817
Si Si7 0.490262 0.589569 0.711261
O O1 0.363074 0.193908 0.510827
O O2 0.454952 0.282215 0.431259
O O3 0.301529 0.626403 0.065583
O O4 0.575988 0.565347 0.002292
O O5 0.326374 0.643943 0.943101
O O6 0.750000 0.568714 0.250000
O O7 0.623163 0.572913 0.143354
O O8 0.117969 0.585011 0.165809
O O9 0.922019 0.479866 0.187398
O O10 0.789504 0.490944 0.589937
O O11 0.095737 0.097387 0.436948
O O12 0.000000 0.000000 0.500000
O O13 0.976430 0.138917 0.341275
O O14 0.750000 0.588075 0.750000
O O15 0.250000 0.605908 0.750000
#
# Coordination Sequence:
#
# PCOD9391473 Si02
#       7
#     4   8   8   8   8   8   8
#     4  10  26  44  65  86 131 168 228 274 350 368
#     4  11  24  39  65  93 131 170 217 277 337 403
#     4  11  23  38  59  93 141 176 206 253 319 398
#     4  12  22  37  62  98 133 167 212 258 328 403
#     4  11  21  35  57  98 133 164 202 261 334 404
#     4  11  23  41  66  87 129 171 219 274 332 382
#     4  11  24  40  63  92 128 179 224 261 319 384
#
# _framework density 19.866547000000001
#
# number of rings (size 3 to 8) (size 9 to 14) (size 15 to 20)
#    0.000    0.923    3.077    5.077    6.462    0.000 
#    0.000    0.385    0.000    0.000    0.000    0.538 
#    0.000    0.000    0.000    0.000    0.000    0.000 
#
# Total GULP energy -289839.653262 kJ/mol
# GULP energy per Si atom -5573.839486 kJ/mol
# Density = 1.982133 g / cm^3
# Si number density = 19.866547 Si / 1000 Ang^3
#
#
#
# Elastic Constant Matrix: (Units=GPa)
#
#
# Indices 1 2 3 4 5 6 
#
# 1 107.7081 24.7299 35.9268 0.0000 0.0000 0.0000
# 2 24.7299 72.4086 33.1066 0.0000 0.0000 0.0000
# 3 35.9268 33.1066 90.4154 0.0000 0.0000 0.0000
# 4 0.0000 0.0000 0.0000 18.4242 0.0000 0.0000
# 5 0.0000 0.0000 0.0000 0.0000 41.7813 0.0000
# 6 0.0000 0.0000 0.0000 0.0000 0.0000 31.6071
#
#
#
# Elastic Compliance Matrix: (Units=1/GPa)
#
#
# Indices 1 2 3 4 5 6 
#
# 1 0.010964 -0.002105 -0.003586 0.000000 0.000000 0.000000
# 2 -0.002105 0.016992 -0.005385 0.000000 0.000000 0.000000
# 3 -0.003586 -0.005385 0.014457 0.000000 0.000000 0.000000
# 4 0.000000 0.000000 0.000000 0.054276 0.000000 0.000000
# 5 0.000000 0.000000 0.000000 0.000000 0.023934 0.000000
# 6 0.000000 0.000000 0.000000 0.000000 0.000000 0.031638
#
#
# Mechanical properties :
#
#
# Convention : Reuss Voigt Hill
#
# Bulk Modulus (GPa) = 49.35789 50.89542 50.12666
# Shear Modulus (GPa) = 27.59892 30.14709 28.87301
#
# Velocity S-wave (km/s) = 3.73126 3.89971 3.81642
# Velocity P-wave (km/s) = 6.59255 6.77874 6.68629
#
# Compressibility (1/GPa) = 0.02026018
#
# Stress axis : x y z
#
# Youngs Moduli (GPa) = 91.21007 58.85226 69.17193
#
# Poissons Ratio (x) = 0.12389 0.24803
# Poissons Ratio (y) = 0.19200 0.37251
# Poissons Ratio (z) = 0.32705 0.31694
#
# Static dielectric constant tensor:
#      x y z
#    x 1.756200 0.000000 0.000000 
#    y 0.000000 1.665880 0.000000 
#    z 0.000000 0.000000 1.873310 
# 
# From -- ./inp_files/32929.got.cif
#   From: 2010.05.17/outbox.cif.g08.bks.cpg/sg48_17_cif.got.tgz:32929.got - 2010.06.03 20:39:00.
