data_PCOD9391670
_publ_section_title
;
Structure prediction by ZEFSAII (Michael W. Deem and Ramdas Pophale) SiO2 
 PCOD9391670
Probable space group: P N N N
;
_chemical_formula_sum "Si O2"
_cell_formula_units_Z 64
_cell_length_a 8.004597
_cell_length_b 30.049198
_cell_length_c 12.132893
_cell_angle_alpha 90.000000
_cell_angle_beta 90.000000
_cell_angle_gamma 90.000000
_cell_volume 2918.345624
_symmetry_space_group_name_H-M "P N N N"
_symmetry_group_IT_number 48
_space_group.IT_coordinate_system_code '2'
_symmetry_cell_setting 'orthorhombic'
loop_
_space_group_symop_operation_xyz
x,y,z
1/2-x,1/2-y,z
x,1/2-y,1/2-z
1/2-x,y,1/2-z
-x,-y,-z
1/2+x,1/2+y,-z
-x,1/2+y,1/2+z
1/2+x,-y,1/2+z
loop_
_atom_site_type_symbol
_atom_site_label
_atom_site_fract_x
_atom_site_fract_y
_atom_site_fract_z
Si Si1 0.555830 0.390362 0.224984
Si Si2 0.905862 0.403974 0.834421
Si Si3 0.120336 0.539344 0.537928
Si Si4 0.529157 0.642411 0.552826
Si Si5 0.094267 0.175232 0.046110
Si Si6 0.954243 0.897126 0.114408
Si Si7 0.328029 0.032057 0.870959
Si Si8 0.943816 0.261048 0.126556
O O1 0.750000 0.381678 0.250000
O O2 0.554619 0.433271 0.144393
O O3 0.471132 0.392481 0.345193
O O4 0.476479 0.350073 0.154611
O O5 0.750000 0.399850 0.750000
O O6 0.047713 0.390091 0.744111
O O7 0.980567 0.452949 0.862147
O O8 0.932637 0.375825 0.945745
O O9 0.290049 0.513784 0.566508
O O10 0.000000 0.500000 0.500000
O O11 0.107454 0.573243 0.436226
O O12 0.714637 0.660664 0.533415
O O13 0.447505 0.687287 0.598959
O O14 0.050768 0.226935 0.052542
O O15 0.016394 0.149741 0.943085
O O16 0.789084 0.926868 0.082824
O O17 0.250000 0.024002 0.750000
O O18 0.750000 0.250000 0.118929
O O19 0.003727 0.250000 0.250000
#
# Coordination Sequence:
#
# PCOD9391670 Si02
#       8
#     8   8   8   8   8   8   8   8
#     4  11  23  38  67 101 134 178 223 281 352 420
#     4  11  25  41  68  99 136 183 237 287 347 421
#     4   9  19  37  69  94 125 174 230 282 347 426
#     4  12  25  42  69 104 139 179 230 293 350 422
#     4  11  22  41  70 103 138 176 229 285 349 426
#     4   9  20  40  67  92 129 182 226 274 345 416
#     4   9  17  39  66  92 123 173 228 277 344 414
#     4  11  24  42  67 103 143 179 219 278 356 426
#
# _framework density 21.930233999999999
#
# number of rings (size 3 to 8) (size 9 to 14) (size 15 to 20)
#    0.000    1.625    2.500    1.875    5.250    0.500 
#    0.000    1.250    5.500    1.500    0.000    0.000 
#    0.000    0.000    0.000    0.000    0.000    0.000 
#
# Total GULP energy -356778.262187 kJ/mol
# GULP energy per Si atom -5574.660347 kJ/mol
# Density = 2.188032 g / cm^3
# Si number density = 21.930234 Si / 1000 Ang^3
#
#
#
# Elastic Constant Matrix: (Units=GPa)
#
#
# Indices 1 2 3 4 5 6 
#
# 1 61.7324 19.7553 11.0644 0.0000 0.0000 0.0000
# 2 19.7553 98.8873 60.4053 0.0000 0.0000 0.0000
# 3 11.0644 60.4053 152.2186 0.0000 0.0000 0.0000
# 4 0.0000 0.0000 0.0000 29.7727 0.0000 0.0000
# 5 0.0000 0.0000 0.0000 0.0000 28.3075 0.0000
# 6 0.0000 0.0000 0.0000 0.0000 0.0000 27.2927
#
#
#
# Elastic Compliance Matrix: (Units=1/GPa)
#
#
# Indices 1 2 3 4 5 6 
#
# 1 0.017308 -0.003550 0.000151 0.000000 0.000000 0.000000
# 2 -0.003550 0.014076 -0.005328 0.000000 0.000000 0.000000
# 3 0.000151 -0.005328 0.008673 0.000000 0.000000 0.000000
# 4 0.000000 0.000000 0.000000 0.033588 0.000000 0.000000
# 5 0.000000 0.000000 0.000000 0.000000 0.035326 0.000000
# 6 0.000000 0.000000 0.000000 0.000000 0.000000 0.036640
#
#
# Mechanical properties :
#
#
# Convention : Reuss Voigt Hill
#
# Bulk Modulus (GPa) = 44.24201 55.03203 49.63702
# Shear Modulus (GPa) = 29.30845 31.84878 30.57861
#
# Velocity S-wave (km/s) = 3.65970 3.81501 3.73816
# Velocity P-wave (km/s) = 6.17055 6.67490 6.42768
#
# Compressibility (1/GPa) = 0.02260295
#
# Stress axis : x y z
#
# Youngs Moduli (GPa) = 57.77708 71.04193 115.30259
#
# Poissons Ratio (x) = 0.25217 -0.01736
# Poissons Ratio (y) = 0.20509 0.61432
# Poissons Ratio (z) = -0.00870 0.37850
#
# Static dielectric constant tensor:
#      x y z
#    x 2.104580 0.000000 0.000000 
#    y 0.000000 1.851190 0.000000 
#    z 0.000000 0.000000 1.884380 
# 
# From -- ./inp_files/19054.got.cif
#   From: 2010.05.17/outbox.cif.g08.bks.cpg/sg48_10_cif.got.tgz:19054.got - 2010.06.03 20:39:00.
