data_PCOD9391179
_publ_section_title
;
Structure prediction by ZEFSAII (Michael W. Deem and Ramdas Pophale) SiO2 
 PCOD9391179
Probable space group: P N N N
;
_chemical_formula_sum "Si O2"
_cell_formula_units_Z 36
_cell_length_a 5.675354
_cell_length_b 20.790928
_cell_length_c 13.477274
_cell_angle_alpha 90.000000
_cell_angle_beta 90.000000
_cell_angle_gamma 90.000000
_cell_volume 1590.262757
_symmetry_space_group_name_H-M "P N N N"
_symmetry_group_IT_number 48
_space_group.IT_coordinate_system_code '2'
_symmetry_cell_setting 'orthorhombic'
loop_
_space_group_symop_operation_xyz
x,y,z
1/2-x,1/2-y,z
x,1/2-y,1/2-z
1/2-x,y,1/2-z
-x,-y,-z
1/2+x,1/2+y,-z
-x,1/2+y,1/2+z
1/2+x,-y,1/2+z
loop_
_atom_site_type_symbol
_atom_site_label
_atom_site_fract_x
_atom_site_fract_y
_atom_site_fract_z
Si Si1 0.987802 0.988389 0.140773
Si Si2 0.507801 0.437941 0.633791
Si Si3 0.250000 0.750000 0.614484
Si Si4 0.079640 0.363021 0.344831
Si Si5 0.623966 0.685931 0.471011
O O1 0.239542 0.964914 0.096401
O O2 0.998774 0.956461 0.250314
O O3 0.739858 0.966824 0.094093
O O4 0.978146 0.065237 0.151385
O O5 0.479906 0.362925 0.609022
O O6 0.405368 0.803253 0.669091
O O7 0.419157 0.709771 0.543000
O O8 0.250000 0.362130 0.250000
O O9 0.201746 0.349301 0.451008
O O10 0.750000 0.750000 0.429767
#
# Coordination Sequence:
#
# PCOD9391179 Si02
#       5
#     8   8   4   8   8
#     4  10  23  43  70 104 137 176 226 296 344 416
#     4  10  22  44  70 100 139 175 229 285 349 410
#     4  10  26  45  68  93 140 188 226 291 336 428
#     4  11  24  45  66 100 135 182 237 286 354 417
#     4  10  25  43  67  98 137 185 230 283 347 426
#
# _framework density 22.637771000000001
#
# number of rings (size 3 to 8) (size 9 to 14) (size 15 to 20)
#    0.000    1.778    2.222    0.000    9.333    7.556 
#    0.000    2.222    0.000    0.000    0.000    0.000 
#    0.000    0.000    0.000    0.000    0.000    0.000 
#
# Total GULP energy -201069.290803 kJ/mol
# GULP energy per Si atom -5585.258078 kJ/mol
# Density = 2.258625 g / cm^3
# Si number density = 22.637771 Si / 1000 Ang^3
#
#
#
# Elastic Constant Matrix: (Units=GPa)
#
#
# Indices 1 2 3 4 5 6 
#
# 1 157.4130 52.9436 -2.3055 0.0000 0.0000 0.0000
# 2 52.9436 189.2481 40.9496 0.0000 0.0000 0.0000
# 3 -2.3055 40.9496 65.0973 0.0000 0.0000 0.0000
# 4 0.0000 0.0000 0.0000 59.6128 0.0000 0.0000
# 5 0.0000 0.0000 0.0000 0.0000 10.3764 0.0000
# 6 0.0000 0.0000 0.0000 0.0000 0.0000 4.8558
#
#
#
# Elastic Compliance Matrix: (Units=1/GPa)
#
#
# Indices 1 2 3 4 5 6 
#
# 1 0.007182 -0.002390 0.001758 0.000000 0.000000 0.000000
# 2 -0.002390 0.006912 -0.004432 0.000000 0.000000 0.000000
# 3 0.001758 -0.004432 0.018212 0.000000 0.000000 0.000000
# 4 0.000000 0.000000 0.000000 0.016775 0.000000 0.000000
# 5 0.000000 0.000000 0.000000 0.000000 0.096373 0.000000
# 6 0.000000 0.000000 0.000000 0.000000 0.000000 0.205941
#
#
# Mechanical properties :
#
#
# Convention : Reuss Voigt Hill
#
# Bulk Modulus (GPa) = 45.09179 66.10374 55.59776
# Shear Modulus (GPa) = 13.55322 36.31372 24.93347
#
# Velocity S-wave (km/s) = 2.44949 4.00949 3.32235
# Velocity P-wave (km/s) = 5.28792 7.12030 6.27140
#
# Compressibility (1/GPa) = 0.02217699
#
# Stress axis : x y z
#
# Youngs Moduli (GPa) = 139.23416 144.68322 54.90858
#
# Poissons Ratio (x) = 0.34573 -0.09650
# Poissons Ratio (y) = 0.33271 0.24338
# Poissons Ratio (z) = -0.24471 0.64130
#
# Static dielectric constant tensor:
#      x y z
#    x 1.787990 0.000000 0.000000 
#    y 0.000000 1.883570 0.000000 
#    z 0.000000 0.000000 1.780610 
# 
# From -- ./inp_files/24215.got.cif
#   From: 2010.05.17/outbox.cif.g08.bks.cpg/sg48_13_cif.got.tgz:24215.got - 2010.06.03 20:39:00.
