data_PCOD9391062
_publ_section_title
;
Structure prediction by ZEFSAII (Michael W. Deem and Ramdas Pophale) SiO2 
 PCOD9391062
Probable space group: P N N N
;
_chemical_formula_sum "Si O2"
_cell_formula_units_Z 48
_cell_length_a 13.124533
_cell_length_b 8.867504
_cell_length_c 19.428085
_cell_angle_alpha 90.000000
_cell_angle_beta 90.000000
_cell_angle_gamma 90.000000
_cell_volume 2261.076452
_symmetry_space_group_name_H-M "P N N N"
_symmetry_group_IT_number 48
_space_group.IT_coordinate_system_code '2'
_symmetry_cell_setting 'orthorhombic'
loop_
_space_group_symop_operation_xyz
x,y,z
1/2-x,1/2-y,z
x,1/2-y,1/2-z
1/2-x,y,1/2-z
-x,-y,-z
1/2+x,1/2+y,-z
-x,1/2+y,1/2+z
1/2+x,-y,1/2+z
loop_
_atom_site_type_symbol
_atom_site_label
_atom_site_fract_x
_atom_site_fract_y
_atom_site_fract_z
Si Si1 0.496833 0.181894 0.889920
Si Si2 0.110693 0.553718 0.418895
Si Si3 0.750000 0.250000 0.480380
Si Si4 0.250000 0.750000 0.750000
Si Si5 0.682135 0.968269 0.861033
Si Si6 0.870337 0.084102 0.368024
Si Si7 0.250000 0.250000 0.250000
Si Si8 0.055146 0.282188 0.046913
O O1 0.517481 0.358854 0.883093
O O2 0.599716 0.101092 0.862557
O O3 0.403647 0.088926 0.858591
O O4 0.479246 0.162660 0.972121
O O5 0.163897 0.668619 0.473497
O O6 0.202413 0.523257 0.366337
O O7 0.075144 0.396148 0.451067
O O8 0.793896 0.120384 0.430731
O O9 0.178651 0.848230 0.700033
O O10 0.679761 0.855071 0.797446
O O11 0.655459 0.871343 0.929017
O O12 0.971801 0.171089 0.395448
#
# Coordination Sequence:
#
# PCOD9391062 Si02
#       8
#     8   8   4   2   8   8   2   8
#     4  11  22  37  64  98 133 152 204 276 334 364
#     4  12  20  36  62  99 133 159 199 264 340 389
#     4  11  20  35  66  89 130 165 206 260 334 387
#     4  10  24  46  72  82 122 186 240 248 298 398
#     4  11  22  40  61  88 125 175 213 253 305 387
#     4  10  22  40  63  93 120 174 220 260 308 380
#     4  12  24  42  62  80 120 178 234 230 294 400
#     4  11  21  37  64 100 128 156 210 270 331 378
#
# _framework density 21.228828
#
# number of rings (size 3 to 8) (size 9 to 14) (size 15 to 20)
#    0.000    1.000    5.000    3.500    0.000    2.667 
#    0.000    1.667    0.000    1.000    0.000    0.000 
#    0.000    0.000    0.000    0.000    0.000    0.000 
#
# Total GULP energy -267936.655071 kJ/mol
# GULP energy per Si atom -5582.013647 kJ/mol
# Density = 2.118051 g / cm^3
# Si number density = 21.228828 Si / 1000 Ang^3
#
#
#
# Elastic Constant Matrix: (Units=GPa)
#
#
# Indices 1 2 3 4 5 6 
#
# 1 54.5955 9.9836 18.0939 0.0000 0.0000 0.0000
# 2 9.9836 75.4302 11.2722 0.0000 0.0000 0.0000
# 3 18.0939 11.2722 75.7708 0.0000 0.0000 0.0000
# 4 0.0000 0.0000 0.0000 19.2672 0.0000 0.0000
# 5 0.0000 0.0000 0.0000 0.0000 22.4666 0.0000
# 6 0.0000 0.0000 0.0000 0.0000 0.0000 43.4363
#
#
#
# Elastic Compliance Matrix: (Units=1/GPa)
#
#
# Indices 1 2 3 4 5 6 
#
# 1 0.020180 -0.001995 -0.004522 0.000000 0.000000 0.000000
# 2 -0.001995 0.013756 -0.001570 0.000000 0.000000 0.000000
# 3 -0.004522 -0.001570 0.014511 0.000000 0.000000 0.000000
# 4 0.000000 0.000000 0.000000 0.051902 0.000000 0.000000
# 5 0.000000 0.000000 0.000000 0.000000 0.044511 0.000000
# 6 0.000000 0.000000 0.000000 0.000000 0.000000 0.023022
#
#
# Mechanical properties :
#
#
# Convention : Reuss Voigt Hill
#
# Bulk Modulus (GPa) = 30.98605 31.61066 31.29835
# Shear Modulus (GPa) = 25.66552 28.13047 26.89799
#
# Velocity S-wave (km/s) = 3.48083 3.64415 3.56343
# Velocity P-wave (km/s) = 5.54823 5.71220 5.63081
#
# Compressibility (1/GPa) = 0.03227259
#
# Stress axis : x y z
#
# Youngs Moduli (GPa) = 49.55374 72.69569 68.91252
#
# Poissons Ratio (x) = 0.14504 0.31163
# Poissons Ratio (y) = 0.09887 0.10819
# Poissons Ratio (z) = 0.22409 0.11413
#
# Static dielectric constant tensor:
#      x y z
#    x 1.833970 0.000000 0.000000 
#    y 0.000000 1.814170 0.000000 
#    z 0.000000 0.000000 1.746190 
# 
# From -- ./inp_files/31601.got.cif
#   From: 2010.05.17/outbox.cif.g08.bks.cpg/sg48_16_cif.got.tgz:31601.got - 2010.06.03 20:39:00.
