data_PCOD9391182
_publ_section_title
;
Structure prediction by ZEFSAII (Michael W. Deem and Ramdas Pophale) SiO2 
 PCOD9391182
Probable space group: P N N N
;
_chemical_formula_sum "Si O2"
_cell_formula_units_Z 38
_cell_length_a 10.327132
_cell_length_b 14.747356
_cell_length_c 10.199730
_cell_angle_alpha 90.000000
_cell_angle_beta 90.000000
_cell_angle_gamma 90.000000
_cell_volume 1553.397379
_symmetry_space_group_name_H-M "P N N N"
_symmetry_group_IT_number 48
_space_group.IT_coordinate_system_code '2'
_symmetry_cell_setting 'orthorhombic'
loop_
_space_group_symop_operation_xyz
x,y,z
1/2-x,1/2-y,z
x,1/2-y,1/2-z
1/2-x,y,1/2-z
-x,-y,-z
1/2+x,1/2+y,-z
-x,1/2+y,1/2+z
1/2+x,-y,1/2+z
loop_
_atom_site_type_symbol
_atom_site_label
_atom_site_fract_x
_atom_site_fract_y
_atom_site_fract_z
Si Si1 0.426417 0.588659 0.559106
Si Si2 0.750000 0.499565 0.250000
Si Si3 0.110185 0.129320 0.204240
Si Si4 0.519880 0.053328 0.636307
Si Si5 0.750000 0.750000 0.250000
Si Si6 0.016345 0.259877 0.556347
O O1 0.500000 0.500000 0.500000
O O2 0.292295 0.557428 0.623045
O O3 0.503866 0.634021 0.681435
O O4 0.427014 0.672651 0.462264
O O5 0.878360 0.552989 0.292516
O O6 0.250000 0.158419 0.250000
O O7 0.067953 0.186111 0.075516
O O8 0.115519 0.019342 0.196556
O O9 0.556672 0.156876 0.625492
O O10 0.500000 0.000000 0.500000
O O11 0.859444 0.774894 0.361564
#
# Coordination Sequence:
#
# PCOD9391182 Si02
#       6
#     8   4   8   8   2   8
#     4  11  26  42  72 106 142 190 249 298 369 447
#     4  10  23  46  68  99 148 196 231 298 378 433
#     4  10  22  44  70  97 140 182 240 306 368 434
#     4   9  21  40  66  93 134 180 230 290 358 428
#     4  12  26  36  74 106 146 174 246 314 372 416
#     4  11  24  41  64 105 139 185 243 301 361 446
#
# _framework density 24.462512
#
# number of rings (size 3 to 8) (size 9 to 14) (size 15 to 20)
#    0.000    1.684    0.000    2.526   14.737    0.842 
#    0.000   18.947    0.000    1.263    0.000    0.000 
#    0.000    0.000    0.000    0.000    0.000    0.000 
#
# Total GULP energy -211630.234176 kJ/mol
# GULP energy per Si atom -5569.216689 kJ/mol
# Density = 2.440683 g / cm^3
# Si number density = 24.462512 Si / 1000 Ang^3
#
#
#
# Elastic Constant Matrix: (Units=GPa)
#
#
# Indices 1 2 3 4 5 6 
#
# 1 60.8099 47.2180 24.3928 0.0000 0.0000 0.0000
# 2 47.2180 249.3838 35.0817 0.0000 0.0000 0.0000
# 3 24.3928 35.0817 87.2944 0.0000 0.0000 0.0000
# 4 0.0000 0.0000 0.0000 61.1763 0.0000 0.0000
# 5 0.0000 0.0000 0.0000 0.0000 48.1285 0.0000
# 6 0.0000 0.0000 0.0000 0.0000 0.0000 -63.8627
#
#
#
# Elastic Compliance Matrix: (Units=1/GPa)
#
#
# Indices 1 2 3 4 5 6 
#
# 1 0.020814 -0.003310 -0.004486 0.000000 0.000000 0.000000
# 2 -0.003310 0.004776 -0.000995 0.000000 0.000000 0.000000
# 3 -0.004486 -0.000995 0.013109 0.000000 0.000000 0.000000
# 4 0.000000 0.000000 0.000000 0.016346 0.000000 0.000000
# 5 0.000000 0.000000 0.000000 0.000000 0.020778 0.000000
# 6 0.000000 0.000000 0.000000 0.000000 0.000000 -0.015659
#
#
# Mechanical properties :
#
#
# Convention : Reuss Voigt Hill
#
# Bulk Modulus (GPa) = 47.35210 67.87480 57.61345
# Shear Modulus (GPa) = 58.97240 28.47480 43.72360
#
# Velocity S-wave (km/s) = 4.91524 3.41547 4.23232
# Velocity P-wave (km/s) = 7.18414 6.58488 6.89102
#
# Compressibility (1/GPa) = 0.02111839
#
# Stress axis : x y z
#
# Youngs Moduli (GPa) = 48.04400 209.35845 76.28484
#
# Poissons Ratio (x) = 0.69295 0.34221
# Poissons Ratio (y) = 0.15902 0.07588
# Poissons Ratio (z) = 0.21553 0.20825
#
# Static dielectric constant tensor:
#      x y z
#    x 1.902530 0.000000 0.000000 
#    y 0.000000 2.419410 0.000000 
#    z 0.000000 0.000000 2.144840 
# 
# From -- ./inp_files/19822.got.cif
#   From: 2010.05.17/outbox.cif.g08.bks.cpg/sg48_10_cif.got.tgz:19822.got - 2010.06.03 20:39:00.
