data_PCOD9391686
_publ_section_title
;
Structure prediction by ZEFSAII (Michael W. Deem and Ramdas Pophale) SiO2 
 PCOD9391686
Probable space group: P N N N
;
_chemical_formula_sum "Si O2"
_cell_formula_units_Z 44
_cell_length_a 13.412900
_cell_length_b 17.519958
_cell_length_c 9.349718
_cell_angle_alpha 90.000000
_cell_angle_beta 90.000000
_cell_angle_gamma 90.000000
_cell_volume 2197.122439
_symmetry_space_group_name_H-M "P N N N"
_symmetry_group_IT_number 48
_space_group.IT_coordinate_system_code '2'
_symmetry_cell_setting 'orthorhombic'
loop_
_space_group_symop_operation_xyz
x,y,z
1/2-x,1/2-y,z
x,1/2-y,1/2-z
1/2-x,y,1/2-z
-x,-y,-z
1/2+x,1/2+y,-z
-x,1/2+y,1/2+z
1/2+x,-y,1/2+z
loop_
_atom_site_type_symbol
_atom_site_label
_atom_site_fract_x
_atom_site_fract_y
_atom_site_fract_z
Si Si1 0.882318 0.869309 0.585591
Si Si2 0.157433 0.537299 0.154928
Si Si3 0.889533 0.112210 0.349064
Si Si4 0.250000 0.750000 0.750000
Si Si5 0.250000 0.250000 0.250000
Si Si6 0.868207 0.834982 0.260079
Si Si7 0.958966 0.978089 0.154808
O O1 0.818346 0.801127 0.648387
O O2 0.893396 0.865803 0.416119
O O3 0.993448 0.867523 0.648039
O O4 0.827709 0.948036 0.622232
O O5 0.250000 0.566301 0.250000
O O6 0.054605 0.537894 0.244033
O O7 0.142070 0.578137 0.002864
O O8 0.824135 0.188142 0.324377
O O9 0.889608 0.043942 0.228668
O O10 0.911859 0.750000 0.250000
O O11 0.750000 0.829374 0.250000
O O12 0.902947 0.897312 0.146541
O O13 0.000000 0.000000 0.000000
#
# Coordination Sequence:
#
# PCOD9391686 Si02
#       7
#     8   8   8   2   2   8   8
#     4  11  22  44  65  97 137 180 218 291 349 404
#     4  11  23  45  73  99 130 186 233 279 355 417
#     4  11  25  49  69  94 147 183 235 291 352 423
#     4  12  30  44  74 106 134 204 240 288 360 422
#     4  12  22  32  74 106 132 170 242 286 340 446
#     4  11  24  40  65  98 139 173 219 281 352 403
#     4  11  25  42  73 104 132 184 232 288 348 425
#
# _framework density 20.026195000000001
#
# number of rings (size 3 to 8) (size 9 to 14) (size 15 to 20)
#    0.000    0.909    4.545    2.727    6.364    4.364 
#    0.000    0.455    0.000    0.000    0.000    0.000 
#    0.000    0.000    0.000    0.000    0.000    0.000 
#
# Total GULP energy -245686.643300 kJ/mol
# GULP energy per Si atom -5583.787348 kJ/mol
# Density = 1.998061 g / cm^3
# Si number density = 20.026195 Si / 1000 Ang^3
#
#
#
# Elastic Constant Matrix: (Units=GPa)
#
#
# Indices 1 2 3 4 5 6 
#
# 1 69.8180 62.1673 33.0118 0.0000 0.0000 0.0000
# 2 62.1673 152.6089 60.8462 0.0000 0.0000 0.0000
# 3 33.0118 60.8462 115.0231 0.0000 0.0000 0.0000
# 4 0.0000 0.0000 0.0000 68.0965 0.0000 0.0000
# 5 0.0000 0.0000 0.0000 0.0000 27.0917 0.0000
# 6 0.0000 0.0000 0.0000 0.0000 0.0000 27.8627
#
#
#
# Elastic Compliance Matrix: (Units=1/GPa)
#
#
# Indices 1 2 3 4 5 6 
#
# 1 0.022858 -0.008486 -0.002071 0.000000 0.000000 0.000000
# 2 -0.008486 0.011454 -0.003624 0.000000 0.000000 0.000000
# 3 -0.002071 -0.003624 0.011205 0.000000 0.000000 0.000000
# 4 0.000000 0.000000 0.000000 0.014685 0.000000 0.000000
# 5 0.000000 0.000000 0.000000 0.000000 0.036912 0.000000
# 6 0.000000 0.000000 0.000000 0.000000 0.000000 0.035890
#
#
# Mechanical properties :
#
#
# Convention : Reuss Voigt Hill
#
# Bulk Modulus (GPa) = 58.28890 72.16674 65.22782
# Shear Modulus (GPa) = 29.92478 36.70517 33.31497
#
# Velocity S-wave (km/s) = 3.86979 4.28583 4.08311
# Velocity P-wave (km/s) = 7.00975 7.78496 7.40750
#
# Compressibility (1/GPa) = 0.01715592
#
# Stress axis : x y z
#
# Youngs Moduli (GPa) = 43.74785 87.30341 89.24279
#
# Poissons Ratio (x) = 0.74083 0.18487
# Poissons Ratio (y) = 0.37123 0.32340
# Poissons Ratio (z) = 0.09062 0.31637
#
# Static dielectric constant tensor:
#      x y z
#    x 1.681090 0.000000 0.000000 
#    y 0.000000 1.735290 0.000000 
#    z 0.000000 0.000000 1.844510 
# 
# From -- ./inp_files/12681.got.cif
#   From: 2010.05.17/outbox.cif.g08.bks.cpg/sg48_7_cif.got.tgz:12681.got - 2010.06.03 20:39:00.
