data_PCOD9391932
_publ_section_title
;
Structure prediction by ZEFSAII (Michael W. Deem and Ramdas Pophale) SiO2 
 PCOD9391932
Probable space group: P N N N
;
_chemical_formula_sum "Si O2"
_cell_formula_units_Z 48
_cell_length_a 12.660543
_cell_length_b 12.113968
_cell_length_c 16.834898
_cell_angle_alpha 90.000000
_cell_angle_beta 90.000000
_cell_angle_gamma 90.000000
_cell_volume 2581.958420
_symmetry_space_group_name_H-M "P N N N"
_symmetry_group_IT_number 48
_space_group.IT_coordinate_system_code '2'
_symmetry_cell_setting 'orthorhombic'
loop_
_space_group_symop_operation_xyz
x,y,z
1/2-x,1/2-y,z
x,1/2-y,1/2-z
1/2-x,y,1/2-z
-x,-y,-z
1/2+x,1/2+y,-z
-x,1/2+y,1/2+z
1/2+x,-y,1/2+z
loop_
_atom_site_type_symbol
_atom_site_label
_atom_site_fract_x
_atom_site_fract_y
_atom_site_fract_z
Si Si1 0.549014 0.179284 0.168989
Si Si2 0.639527 0.501681 0.924903
Si Si3 0.133144 0.024332 0.756245
Si Si4 0.588663 0.125028 0.736154
Si Si5 0.412528 0.610633 0.916979
Si Si6 0.180569 0.083016 0.325437
O O1 0.555298 0.250000 0.250000
O O2 0.611308 0.066819 0.187387
O O3 0.594246 0.259536 0.101709
O O4 0.425277 0.151202 0.158474
O O5 0.618184 0.419181 0.851187
O O6 0.536571 0.580179 0.928911
O O7 0.742142 0.570439 0.899725
O O8 0.646942 0.434025 0.005997
O O9 0.250000 0.071004 0.750000
O O10 0.122646 0.957182 0.839078
O O11 0.037181 0.109577 0.754240
O O12 0.620545 0.250000 0.750000
O O13 0.641243 0.038245 0.796844
O O14 0.250000 0.124177 0.250000
#
# Coordination Sequence:
#
# PCOD9391932 Si02
#       6
#     8   8   8   8   8   8
#     4   9  17  29  48  74  99 124 159 201 241 284
#     4   9  18  32  49  71  99 127 156 193 239 289
#     4   9  18  33  51  70  94 125 163 202 236 281
#     4   9  18  33  51  70  94 125 163 202 236 281
#     4   9  18  32  49  71  99 127 156 193 239 289
#     4   9  17  29  48  74  99 124 159 201 241 284
#
# _framework density 18.590541000000002
#
# number of rings (size 3 to 8) (size 9 to 14) (size 15 to 20)
#    0.000    3.000    0.000    3.000    0.000    8.667 
#    0.000    5.000    0.000   10.000    0.000    0.000 
#    0.000    0.000    0.000    0.000    0.000    0.000 
#
# Total GULP energy -267651.595819 kJ/mol
# GULP energy per Si atom -5576.074913 kJ/mol
# Density = 1.854823 g / cm^3
# Si number density = 18.590541 Si / 1000 Ang^3
#
#
#
# Elastic Constant Matrix: (Units=GPa)
#
#
# Indices 1 2 3 4 5 6 
#
# 1 81.0609 -17.1729 3.7507 0.0000 0.0000 0.0000
# 2 -17.1729 47.7105 3.6363 0.0000 0.0000 0.0000
# 3 3.7507 3.6363 60.8882 0.0000 0.0000 0.0000
# 4 0.0000 0.0000 0.0000 -14.4274 0.0000 0.0000
# 5 0.0000 0.0000 0.0000 0.0000 19.6700 0.0000
# 6 0.0000 0.0000 0.0000 0.0000 0.0000 1.8071
#
#
#
# Elastic Compliance Matrix: (Units=1/GPa)
#
#
# Indices 1 2 3 4 5 6 
#
# 1 0.013431 0.004920 -0.001121 0.000000 0.000000 0.000000
# 2 0.004920 0.022858 -0.001668 0.000000 0.000000 0.000000
# 3 -0.001121 -0.001668 0.016592 0.000000 0.000000 0.000000
# 4 0.000000 0.000000 0.000000 -0.069312 0.000000 0.000000
# 5 0.000000 0.000000 0.000000 0.000000 0.050839 0.000000
# 6 0.000000 0.000000 0.000000 0.000000 0.000000 0.553378
#
#
# Mechanical properties :
#
#
# Convention : Reuss Voigt Hill
#
# Bulk Modulus (GPa) = 17.50053 18.89865 18.19959
# Shear Modulus (GPa) = 8.29778 14.70629 11.50204
#
# Velocity S-wave (km/s) = 2.11498 2.81564 2.49007
# Velocity P-wave (km/s) = 3.92406 4.55612 4.25185
#
# Compressibility (1/GPa) = 0.05714112
#
# Stress axis : x y z
#
# Youngs Moduli (GPa) = 74.45735 43.74898 60.26920
#
# Poissons Ratio (x) = -0.21523 0.06757
# Poissons Ratio (y) = -0.36630 0.10054
# Poissons Ratio (z) = 0.08348 0.07298
#
# Static dielectric constant tensor:
#      x y z
#    x 1.675330 0.000000 0.000000 
#    y 0.000000 1.635990 0.000000 
#    z 0.000000 0.000000 1.625280 
# 
# From -- ./inp_files/20078.got.cif
#   From: 2010.05.17/outbox.cif.g08.bks.cpg/sg48_11_cif.got.tgz:20078.got - 2010.06.03 20:39:00.
