data_PCOD9391375
_publ_section_title
;
Structure prediction by ZEFSAII (Michael W. Deem and Ramdas Pophale) SiO2 
 PCOD9391375
Probable space group: P N N N
;
_chemical_formula_sum "Si O2"
_cell_formula_units_Z 28
_cell_length_a 11.445115
_cell_length_b 4.838041
_cell_length_c 21.979035
_cell_angle_alpha 90.000000
_cell_angle_beta 90.000000
_cell_angle_gamma 90.000000
_cell_volume 1217.021711
_symmetry_space_group_name_H-M "P N N N"
_symmetry_group_IT_number 48
_space_group.IT_coordinate_system_code '2'
_symmetry_cell_setting 'orthorhombic'
loop_
_space_group_symop_operation_xyz
x,y,z
1/2-x,1/2-y,z
x,1/2-y,1/2-z
1/2-x,y,1/2-z
-x,-y,-z
1/2+x,1/2+y,-z
-x,1/2+y,1/2+z
1/2+x,-y,1/2+z
loop_
_atom_site_type_symbol
_atom_site_label
_atom_site_fract_x
_atom_site_fract_y
_atom_site_fract_z
Si Si1 0.367234 0.934907 0.868992
Si Si2 0.522188 0.250000 0.250000
Si Si3 0.013364 0.056713 0.928899
Si Si4 0.167919 0.985858 0.163455
O O1 0.250000 0.750000 0.875988
O O2 0.400324 0.929301 0.797338
O O3 0.461746 0.743686 0.901676
O O4 0.388538 0.229112 0.902459
O O5 0.436087 0.437418 0.209624
O O6 0.891938 0.136568 0.897268
O O7 0.000000 0.000000 0.000000
O O8 0.250000 0.750000 0.187979
O O9 0.250000 0.250000 0.152608
#
# Coordination Sequence:
#
# PCOD9391375 Si02
#       4
#     8   4   8   8
#     4  11  24  43  68  96 131 177 222 276 344 410
#     4  10  24  42  66 100 138 170 220 282 342 422
#     4  11  25  44  64  95 132 173 228 283 332 405
#     4  11  24  41  65  96 130 174 220 278 349 416
#
# _framework density 23.006986999999999
#
# number of rings (size 3 to 8) (size 9 to 14) (size 15 to 20)
#    0.000    1.143    0.000    6.000    0.000   17.143 
#    0.000    5.714    0.000    0.000    0.000    0.000 
#    0.000    0.000    0.000    0.000    0.000    0.000 
#
# Total GULP energy -156283.170252 kJ/mol
# GULP energy per Si atom -5581.541795 kJ/mol
# Density = 2.295462 g / cm^3
# Si number density = 23.006987 Si / 1000 Ang^3
#
#
#
# Elastic Constant Matrix: (Units=GPa)
#
#
# Indices 1 2 3 4 5 6 
#
# 1 84.5439 29.9647 40.6845 0.0000 0.0000 0.0000
# 2 29.9647 132.4090 40.4426 0.0000 0.0000 0.0000
# 3 40.6845 40.4426 195.5125 0.0000 0.0000 0.0000
# 4 0.0000 0.0000 0.0000 17.0983 0.0000 0.0000
# 5 0.0000 0.0000 0.0000 0.0000 -9.1519 0.0000
# 6 0.0000 0.0000 0.0000 0.0000 0.0000 38.5616
#
#
#
# Elastic Compliance Matrix: (Units=1/GPa)
#
#
# Indices 1 2 3 4 5 6 
#
# 1 0.013825 -0.002402 -0.002380 0.000000 0.000000 0.000000
# 2 -0.002402 0.008479 -0.001254 0.000000 0.000000 0.000000
# 3 -0.002380 -0.001254 0.005869 0.000000 0.000000 0.000000
# 4 0.000000 0.000000 0.000000 0.058485 0.000000 0.000000
# 5 0.000000 0.000000 0.000000 0.000000 -0.109267 0.000000
# 6 0.000000 0.000000 0.000000 0.000000 0.000000 0.025933
#
#
# Mechanical properties :
#
#
# Convention : Reuss Voigt Hill
#
# Bulk Modulus (GPa) = 62.10609 70.51654 66.31131
# Shear Modulus (GPa) = 240.81743 29.39319 135.10531
#
# Velocity S-wave (km/s) = 10.24200 3.57820 7.67145
# Velocity P-wave (km/s) = 12.91967 6.91288 10.36113
#
# Compressibility (1/GPa) = 0.01610148
#
# Stress axis : x y z
#
# Youngs Moduli (GPa) = 72.33427 117.93960 170.37388
#
# Poissons Ratio (x) = 0.28325 0.40549
# Poissons Ratio (y) = 0.17372 0.21367
# Poissons Ratio (z) = 0.17216 0.14791
#
# Static dielectric constant tensor:
#      x y z
#    x 1.870400 0.000000 0.000000 
#    y 0.000000 1.842530 0.000000 
#    z 0.000000 0.000000 1.961900 
# 
# From -- ./inp_files/22476.got.cif
#   From: 2010.05.17/outbox.cif.g08.bks.cpg/sg48_12_cif.got.tgz:22476.got - 2010.06.03 20:39:00.
