data_PCOD9391908
_publ_section_title
;
Structure prediction by ZEFSAII (Michael W. Deem and Ramdas Pophale) SiO2 
 PCOD9391908
Probable space group: P N N N
;
_chemical_formula_sum "Si O2"
_cell_formula_units_Z 40
_cell_length_a 13.597416
_cell_length_b 9.291672
_cell_length_c 13.529055
_cell_angle_alpha 90.000000
_cell_angle_beta 90.000000
_cell_angle_gamma 90.000000
_cell_volume 1709.297737
_symmetry_space_group_name_H-M "P N N N"
_symmetry_group_IT_number 48
_space_group.IT_coordinate_system_code '2'
_symmetry_cell_setting 'orthorhombic'
loop_
_space_group_symop_operation_xyz
x,y,z
1/2-x,1/2-y,z
x,1/2-y,1/2-z
1/2-x,y,1/2-z
-x,-y,-z
1/2+x,1/2+y,-z
-x,1/2+y,1/2+z
1/2+x,-y,1/2+z
loop_
_atom_site_type_symbol
_atom_site_label
_atom_site_fract_x
_atom_site_fract_y
_atom_site_fract_z
Si Si1 0.250000 0.750000 0.250000
Si Si2 0.726152 0.905960 0.000124
Si Si3 0.380675 0.450109 0.691732
Si Si4 0.916838 0.109621 0.036429
Si Si5 0.103835 0.750000 0.750000
Si Si6 0.750000 0.750000 0.250000
Si Si7 0.908473 0.115825 0.609502
O O1 0.178039 0.842586 0.316590
O O2 0.750000 0.750000 0.954184
O O3 0.679108 0.872267 0.105719
O O4 0.813950 0.023455 0.013230
O O5 0.633652 0.978946 0.946764
O O6 0.349560 0.616080 0.693097
O O7 0.335378 0.368572 0.783823
O O8 0.494164 0.426037 0.669790
O O9 0.935386 0.160152 0.151697
O O10 0.921899 0.252527 0.967388
O O11 0.000000 0.000000 0.000000
#
# Coordination Sequence:
#
# PCOD9391908 Si02
#       7
#     2   8   8   8   4   2   8
#     4  12  26  52  78 108 152 212 264 320 408 504
#     4  12  25  48  76 112 156 206 263 328 395 483
#     4  12  27  47  77 117 154 203 263 331 404 472
#     4  12  28  50  77 116 158 210 266 336 410 491
#     4  12  30  47  80 113 158 204 266 333 410 479
#     4  12  26  46  76 118 152 204 266 332 396 500
#     4  12  27  52  77 110 158 212 262 330 408 490
#
# _framework density 23.401423000000001
#
# number of rings (size 3 to 8) (size 9 to 14) (size 15 to 20)
#    0.000    0.000    5.000    3.600    8.400    2.800 
#    0.000    0.000    0.000    0.000    0.000    0.000 
#    0.000    0.000    0.000    0.000    0.000    0.000 
#
# Total GULP energy -222908.010591 kJ/mol
# GULP energy per Si atom -5572.700265 kJ/mol
# Density = 2.334816 g / cm^3
# Si number density = 23.401423 Si / 1000 Ang^3
#
#
#
# Elastic Constant Matrix: (Units=GPa)
#
#
# Indices 1 2 3 4 5 6 
#
# 1 177.1436 60.2813 45.0395 0.0000 0.0000 0.0000
# 2 60.2813 198.6161 35.8003 0.0000 0.0000 0.0000
# 3 45.0395 35.8003 105.0980 0.0000 0.0000 0.0000
# 4 0.0000 0.0000 0.0000 34.1782 0.0000 0.0000
# 5 0.0000 0.0000 0.0000 0.0000 47.5412 0.0000
# 6 0.0000 0.0000 0.0000 0.0000 0.0000 56.4651
#
#
#
# Elastic Compliance Matrix: (Units=1/GPa)
#
#
# Indices 1 2 3 4 5 6 
#
# 1 0.006802 -0.001640 -0.002357 0.000000 0.000000 0.000000
# 2 -0.001640 0.005759 -0.001259 0.000000 0.000000 0.000000
# 3 -0.002357 -0.001259 0.010954 0.000000 0.000000 0.000000
# 4 0.000000 0.000000 0.000000 0.029258 0.000000 0.000000
# 5 0.000000 0.000000 0.000000 0.000000 0.021034 0.000000
# 6 0.000000 0.000000 0.000000 0.000000 0.000000 0.017710
#
#
# Mechanical properties :
#
#
# Convention : Reuss Voigt Hill
#
# Bulk Modulus (GPa) = 76.89618 84.78886 80.84252
# Shear Modulus (GPa) = 47.00830 50.28602 48.64716
#
# Velocity S-wave (km/s) = 4.48680 4.64059 4.56435
# Velocity P-wave (km/s) = 7.73129 8.06378 7.89928
#
# Compressibility (1/GPa) = 0.01300455
#
# Stress axis : x y z
#
# Youngs Moduli (GPa) = 147.00890 173.62663 91.29305
#
# Poissons Ratio (x) = 0.28471 0.21514
# Poissons Ratio (y) = 0.24106 0.11495
# Poissons Ratio (z) = 0.34643 0.21863
#
# Static dielectric constant tensor:
#      x y z
#    x 1.902300 0.000000 0.000000 
#    y 0.000000 1.520140 0.000000 
#    z 0.000000 0.000000 1.703490 
# 
# From -- ./inp_files/27095.got.cif
#   From: 2010.05.17/outbox.cif.g08.bks.cpg/sg48_14_cif.got.tgz:27095.got - 2010.06.03 20:39:00.
