data_PCOD9391973
_publ_section_title
;
Structure prediction by ZEFSAII (Michael W. Deem and Ramdas Pophale) SiO2 
 PCOD9391973
Probable space group: P N N N
;
_chemical_formula_sum "Si O2"
_cell_formula_units_Z 56
_cell_length_a 21.000000
_cell_length_b 15.000000
_cell_length_c 9.000000
_cell_angle_alpha 90.000000
_cell_angle_beta 90.000000
_cell_angle_gamma 90.000000
_cell_volume 2835.000000
_symmetry_space_group_name_H-M "P N N N"
_symmetry_group_IT_number 48
_space_group.IT_coordinate_system_code '2'
_symmetry_cell_setting 'orthorhombic'
loop_
_space_group_symop_operation_xyz
x,y,z
1/2-x,1/2-y,z
x,1/2-y,1/2-z
1/2-x,y,1/2-z
-x,-y,-z
1/2+x,1/2+y,-z
-x,1/2+y,1/2+z
1/2+x,-y,1/2+z
loop_
_atom_site_type_symbol
_atom_site_label
_atom_site_fract_x
_atom_site_fract_y
_atom_site_fract_z
Si Si1 0.850713 0.250000 0.750000
Si Si2 0.250000 0.910154 0.250000
Si Si3 0.435660 0.658932 0.456143
Si Si4 0.919469 0.859344 0.505492
Si Si5 0.445708 0.493167 0.232795
Si Si6 0.180916 0.280828 0.576549
Si Si7 0.592767 0.026110 0.219078
Si Si8 0.167242 0.489291 0.498913
O O1 0.807722 0.161251 0.731262
O O2 0.895896 0.242422 0.605151
O O3 0.275860 0.969657 0.392119
O O4 0.509689 0.678824 0.481458
O O5 0.437757 0.584286 0.326106
O O6 0.408444 0.607519 0.600652
O O7 0.922229 0.915149 0.656860
O O8 0.871626 0.777725 0.505926
O O9 0.902775 0.933699 0.377775
O O10 0.521396 0.478483 0.209507
O O11 0.397629 0.494920 0.096778
O O12 0.250000 0.250000 0.526187
O O13 0.174548 0.250000 0.750000
O O14 0.177334 0.385947 0.544634
O O15 0.647855 0.034370 0.342847
#
# Coordination Sequence:
#
# PCOD9391973 Si02
#       8
#     4   4   8   8   8   8   8   8
#     4  11  22  46  70  90 129 162 238 280 337 416
#     4  11  28  44  63 100 122 180 227 280 342 405
#     4   9  19  38  71  96 129 174 215 288 346 398
#     4   9  19  39  62  99 136 171 227 266 336 412
#     4   9  19  37  64 101 132 168 219 277 342 404
#     4  11  25  41  60  93 132 181 227 270 325 407
#     4   9  19  38  67 100 133 168 218 280 342 411
#     4  12  23  42  67  91 137 177 225 278 339 418
#
# _framework density 19.753086
#
# number of rings (size 3 to 8) (size 9 to 14) (size 15 to 20)
#    0.000    2.000    2.857    2.143    3.000    0.571 
#    2.571    0.714    0.000    1.714    0.000    0.000 
#    0.000    0.000    0.000    0.000    0.000    0.000 
#
# Total GULP energy -312284.837727 kJ/mol
# GULP energy per Si atom -5576.514959 kJ/mol
# Density = 1.970813 g / cm^3
# Si number density = 19.753086 Si / 1000 Ang^3
#
#
#
# Elastic Constant Matrix: (Units=GPa)
#
#
# Indices 1 2 3 4 5 6 
#
# 1 83.3063 50.0790 44.0475 0.0000 0.0000 0.0000
# 2 50.0790 86.7855 30.8659 0.0000 0.0000 0.0000
# 3 44.0475 30.8659 89.3862 0.0000 0.0000 0.0000
# 4 0.0000 0.0000 0.0000 24.2054 0.0000 0.0000
# 5 0.0000 0.0000 0.0000 0.0000 24.7703 0.0000
# 6 0.0000 0.0000 0.0000 0.0000 0.0000 42.4175
#
#
#
# Elastic Compliance Matrix: (Units=1/GPa)
#
#
# Indices 1 2 3 4 5 6 
#
# 1 0.021916 -0.010038 -0.007333 0.000000 0.000000 0.000000
# 2 -0.010038 0.017734 -0.001177 0.000000 0.000000 0.000000
# 3 -0.007333 -0.001177 0.015208 0.000000 0.000000 0.000000
# 4 0.000000 0.000000 0.000000 0.041313 0.000000 0.000000
# 5 0.000000 0.000000 0.000000 0.000000 0.040371 0.000000
# 6 0.000000 0.000000 0.000000 0.000000 0.000000 0.023575
#
#
# Mechanical properties :
#
#
# Convention : Reuss Voigt Hill
#
# Bulk Modulus (GPa) = 56.30640 56.60698 56.45669
# Shear Modulus (GPa) = 24.61440 27.24435 25.92938
#
# Velocity S-wave (km/s) = 3.53385 3.71785 3.62702
# Velocity P-wave (km/s) = 6.72442 6.86654 6.79585
#
# Compressibility (1/GPa) = 0.01775997
#
# Stress axis : x y z
#
# Youngs Moduli (GPa) = 45.62940 56.38966 65.75691
#
# Poissons Ratio (x) = 0.56605 0.48221
# Poissons Ratio (y) = 0.45804 0.07740
# Poissons Ratio (z) = 0.33461 0.06637
#
# Static dielectric constant tensor:
#      x y z
#    x 1.726160 0.000000 0.000000 
#    y 0.000000 1.702350 0.000000 
#    z 0.000000 0.000000 1.717690 
# 
# From -- ./inp_files/15334.got.cif
#   From: 2010.05.17/outbox.ucp.g08.bks.cvg/sg48_8_cif.got.tgz:15334.got - 2010.06.11 16:38:40.
