data_PCOD9391380
_publ_section_title
;
Structure prediction by ZEFSAII (Michael W. Deem and Ramdas Pophale) SiO2 
 PCOD9391380
Probable space group: P N N N
;
_chemical_formula_sum "Si O2"
_cell_formula_units_Z 48
_cell_length_a 14.865794
_cell_length_b 17.303049
_cell_length_c 8.704844
_cell_angle_alpha 90.000000
_cell_angle_beta 90.000000
_cell_angle_gamma 90.000000
_cell_volume 2239.090980
_symmetry_space_group_name_H-M "P N N N"
_symmetry_group_IT_number 48
_space_group.IT_coordinate_system_code '2'
_symmetry_cell_setting 'orthorhombic'
loop_
_space_group_symop_operation_xyz
x,y,z
1/2-x,1/2-y,z
x,1/2-y,1/2-z
1/2-x,y,1/2-z
-x,-y,-z
1/2+x,1/2+y,-z
-x,1/2+y,1/2+z
1/2+x,-y,1/2+z
loop_
_atom_site_type_symbol
_atom_site_label
_atom_site_fract_x
_atom_site_fract_y
_atom_site_fract_z
Si Si1 0.889991 0.742981 0.933402
Si Si2 0.969980 0.126698 0.507105
Si Si3 0.764086 0.864769 0.068028
Si Si4 0.003953 0.498188 0.249929
Si Si5 0.849037 0.482388 0.501091
Si Si6 0.763647 0.338065 0.934392
O O1 0.892410 0.750000 0.750000
O O2 0.983244 0.709905 0.996587
O O3 0.855047 0.821388 0.012446
O O4 0.815843 0.678907 0.980736
O O5 0.004733 0.075504 0.649098
O O6 0.863566 0.135090 0.522865
O O7 0.997634 0.076365 0.358874
O O8 0.750000 0.855615 0.250000
O O9 0.772137 0.953806 0.023055
O O10 0.097859 0.502590 0.340663
O O11 0.922594 0.494030 0.369117
O O12 0.807538 0.397654 0.496407
O O13 0.750000 0.250000 0.984799
O O14 0.750000 0.341023 0.750000
#
# Coordination Sequence:
#
# PCOD9391380 Si02
#       6
#     8   8   8   8   8   8
#     4  11  24  42  65 103 141 179 227 280 347 417
#     4  11  24  45  69 100 141 182 233 284 343 412
#     4  11  24  41  68 104 139 181 224 283 357 408
#     4  10  24  42  69 105 130 183 236 278 349 395
#     4  11  24  45  69  99 138 179 229 289 332 423
#     4  11  26  47  69 101 135 185 230 282 344 410
#
# _framework density 21.437270000000002
#
# number of rings (size 3 to 8) (size 9 to 14) (size 15 to 20)
#    0.000    1.167    1.667    4.000    7.000    5.333 
#    6.000    0.833    0.000    0.000    0.000    0.000 
#    0.000    0.000    0.000    0.000    0.000    0.000 
#
# Total GULP energy -268752.607862 kJ/mol
# GULP energy per Si atom -5599.012664 kJ/mol
# Density = 2.138848 g / cm^3
# Si number density = 21.437270 Si / 1000 Ang^3
#
#
#
# Elastic Constant Matrix: (Units=GPa)
#
#
# Indices 1 2 3 4 5 6 
#
# 1 90.6105 29.8663 29.6289 0.0000 0.0000 0.0000
# 2 29.8663 121.0268 35.6565 0.0000 0.0000 0.0000
# 3 29.6289 35.6565 104.6358 0.0000 0.0000 0.0000
# 4 0.0000 0.0000 0.0000 -0.8837 0.0000 0.0000
# 5 0.0000 0.0000 0.0000 0.0000 -37.4530 0.0000
# 6 0.0000 0.0000 0.0000 0.0000 0.0000 38.4273
#
#
#
# Elastic Compliance Matrix: (Units=1/GPa)
#
#
# Indices 1 2 3 4 5 6 
#
# 1 0.012718 -0.002309 -0.002814 0.000000 0.000000 0.000000
# 2 -0.002309 0.009604 -0.002619 0.000000 0.000000 0.000000
# 3 -0.002814 -0.002619 0.011246 0.000000 0.000000 0.000000
# 4 0.000000 0.000000 0.000000 -1.131625 0.000000 0.000000
# 5 0.000000 0.000000 0.000000 0.000000 -0.026700 0.000000
# 6 0.000000 0.000000 0.000000 0.000000 0.000000 0.026023
#
#
# Mechanical properties :
#
#
# Convention : Reuss Voigt Hill
#
# Bulk Modulus (GPa) = 55.29981 56.28631 55.79306
# Shear Modulus (GPa) = -4.64157 14.75953 5.05898
#
# Velocity S-wave (km/s) = -1.47305 2.62677 1.53786
# Velocity P-wave (km/s) = 4.79155 5.95929 5.40704
#
# Compressibility (1/GPa) = 0.01808325
#
# Stress axis : x y z
#
# Youngs Moduli (GPa) = 78.63095 104.12265 88.91840
#
# Poissons Ratio (x) = 0.24045 0.25024
# Poissons Ratio (y) = 0.18158 0.23286
# Poissons Ratio (z) = 0.22129 0.27268
#
# Static dielectric constant tensor:
#      x y z
#    x 1.764370 0.000000 0.000000 
#    y 0.000000 1.770880 0.000000 
#    z 0.000000 0.000000 1.754900 
# 
# From -- ./inp_files/12757.got.cif
#   From: 2010.05.17/outbox.cif.g08.bks.cpg/sg48_7_cif.got.tgz:12757.got - 2010.06.03 20:39:00.
