data_PCOD9391239
_publ_section_title
;
Structure prediction by ZEFSAII (Michael W. Deem and Ramdas Pophale) SiO2 
 PCOD9391239
Probable space group: P N N N
;
_chemical_formula_sum "Si O2"
_cell_formula_units_Z 32
_cell_length_a 9.008978
_cell_length_b 16.006480
_cell_length_c 11.140337
_cell_angle_alpha 90.000000
_cell_angle_beta 90.000000
_cell_angle_gamma 90.000000
_cell_volume 1606.459168
_symmetry_space_group_name_H-M "P N N N"
_symmetry_group_IT_number 48
_space_group.IT_coordinate_system_code '2'
_symmetry_cell_setting 'orthorhombic'
loop_
_space_group_symop_operation_xyz
x,y,z
1/2-x,1/2-y,z
x,1/2-y,1/2-z
1/2-x,y,1/2-z
-x,-y,-z
1/2+x,1/2+y,-z
-x,1/2+y,1/2+z
1/2+x,-y,1/2+z
loop_
_atom_site_type_symbol
_atom_site_label
_atom_site_fract_x
_atom_site_fract_y
_atom_site_fract_z
Si Si1 0.250000 0.595489 0.750000
Si Si2 0.577351 0.724634 0.119514
Si Si3 0.526486 0.811888 0.862706
Si Si4 0.976648 0.971551 0.131862
Si Si5 0.750000 0.560758 0.750000
O O1 0.365526 0.648217 0.669076
O O2 0.348159 0.531969 0.824368
O O3 0.750000 0.750000 0.121384
O O4 0.510243 0.750000 0.250000
O O5 0.561386 0.625298 0.125511
O O6 0.522526 0.766406 0.993077
O O7 0.553369 0.750000 0.750000
O O8 0.661397 0.879531 0.846146
O O9 0.123150 0.999709 0.201854
O O10 0.000000 0.000000 0.000000
#
# Coordination Sequence:
#
# PCOD9391239 Si02
#       5
#     4   8   8   8   4
#     4  10  23  40  65  94 122 162 216 266 311 372
#     4  11  23  40  63  94 130 168 207 257 319 379
#     4  11  21  40  68  95 123 166 217 264 312 375
#     4  11  23  42  64  91 127 167 210 259 314 375
#     4  10  23  40  65  94 122 166 218 260 307 374
#
# _framework density 19.919585000000001
#
# number of rings (size 3 to 8) (size 9 to 14) (size 15 to 20)
#    0.000    1.250    0.000    8.250    0.000    2.000 
#    0.000    9.375    0.000    6.000    0.000    0.000 
#    0.000    0.000    0.000    0.000    0.000    0.000 
#
# Total GULP energy -178320.237563 kJ/mol
# GULP energy per Si atom -5572.507424 kJ/mol
# Density = 1.987425 g / cm^3
# Si number density = 19.919585 Si / 1000 Ang^3
#
#
#
# Elastic Constant Matrix: (Units=GPa)
#
#
# Indices 1 2 3 4 5 6 
#
# 1 113.7664 56.1851 34.2610 0.0000 0.0000 0.0000
# 2 56.1851 163.9333 64.5385 0.0000 0.0000 0.0000
# 3 34.2610 64.5385 152.2503 0.0000 0.0000 0.0000
# 4 0.0000 0.0000 0.0000 52.1136 0.0000 0.0000
# 5 0.0000 0.0000 0.0000 0.0000 -2.9478 0.0000
# 6 0.0000 0.0000 0.0000 0.0000 0.0000 30.7135
#
#
#
# Elastic Compliance Matrix: (Units=1/GPa)
#
#
# Indices 1 2 3 4 5 6 
#
# 1 0.010713 -0.003268 -0.001025 0.000000 0.000000 0.000000
# 2 -0.003268 0.008319 -0.002791 0.000000 0.000000 0.000000
# 3 -0.001025 -0.002791 0.007982 0.000000 0.000000 0.000000
# 4 0.000000 0.000000 0.000000 0.019189 0.000000 0.000000
# 5 0.000000 0.000000 0.000000 0.000000 -0.339241 0.000000
# 6 0.000000 0.000000 0.000000 0.000000 0.000000 0.032559
#
#
# Mechanical properties :
#
#
# Convention : Reuss Voigt Hill
#
# Bulk Modulus (GPa) = 77.85185 82.21325 80.03255
# Shear Modulus (GPa) = -20.65864 34.30690 6.82413
#
# Velocity S-wave (km/s) = -3.22390 4.15453 1.85291
# Velocity P-wave (km/s) = 5.03089 8.02344 6.69647
#
# Compressibility (1/GPa) = 0.01284491
#
# Stress axis : x y z
#
# Youngs Moduli (GPa) = 93.34779 120.20963 125.28248
#
# Poissons Ratio (x) = 0.39283 0.12847
# Poissons Ratio (y) = 0.30505 0.34966
# Poissons Ratio (z) = 0.09572 0.33550
#
# Static dielectric constant tensor:
#      x y z
#    x 1.720760 0.000000 0.000000 
#    y 0.000000 1.670440 0.000000 
#    z 0.000000 0.000000 1.766250 
# 
# From -- ./inp_files/10308.got.cif
#   From: 2010.05.17/outbox.cif.g08.bks.cpg/sg48_6_cif.got.tgz:10308.got - 2010.06.03 20:39:00.
