data_PCOD9391928
_publ_section_title
;
Structure prediction by ZEFSAII (Michael W. Deem and Ramdas Pophale) SiO2 
 PCOD9391928
Probable space group: P N N N
;
_chemical_formula_sum "Si O2"
_cell_formula_units_Z 48
_cell_length_a 22.928714
_cell_length_b 7.176558
_cell_length_c 11.060158
_cell_angle_alpha 90.000000
_cell_angle_beta 90.000000
_cell_angle_gamma 90.000000
_cell_volume 1819.940658
_symmetry_space_group_name_H-M "P N N N"
_symmetry_group_IT_number 48
_space_group.IT_coordinate_system_code '2'
_symmetry_cell_setting 'orthorhombic'
loop_
_space_group_symop_operation_xyz
x,y,z
1/2-x,1/2-y,z
x,1/2-y,1/2-z
1/2-x,y,1/2-z
-x,-y,-z
1/2+x,1/2+y,-z
-x,1/2+y,1/2+z
1/2+x,-y,1/2+z
loop_
_atom_site_type_symbol
_atom_site_label
_atom_site_fract_x
_atom_site_fract_y
_atom_site_fract_z
Si Si1 0.574174 0.840271 0.631068
Si Si2 0.930463 0.070975 0.543404
Si Si3 0.339776 0.459818 0.753375
Si Si4 0.192580 0.006325 0.485103
Si Si5 0.681536 0.962032 0.518075
Si Si6 0.527278 0.501512 0.290531
O O1 0.604027 0.750000 0.750000
O O2 0.565423 0.659481 0.546994
O O3 0.618056 0.989517 0.576436
O O4 0.514107 0.919505 0.685667
O O5 0.862782 0.095018 0.574881
O O6 0.979606 0.130181 0.638892
O O7 0.947461 0.118560 0.406240
O O8 0.317085 0.250000 0.750000
O O9 0.316915 0.540936 0.627653
O O10 0.320124 0.535964 0.881297
O O11 0.410319 0.444500 0.761615
O O12 0.256546 0.968106 0.433542
O O13 0.185452 0.233298 0.479970
#
# Coordination Sequence:
#
# PCOD9391928 Si02
#       6
#     8   8   8   8   8   8
#     4   9  17  28  41  61  86 113 145 177 211 260
#     4   8  15  28  43  58  81 112 144 174 207 257
#     4   9  16  25  40  61  85 111 140 172 206 252
#     4   8  14  25  40  58  82 113 137 159 204 259
#     4   9  15  24  38  59  86 111 134 165 206 254
#     4   9  16  27  41  57  84 114 140 174 214 248
#
# _framework density 26.374486999999998
#
# number of rings (size 3 to 8) (size 9 to 14) (size 15 to 20)
#    0.000    3.333    0.000    1.500    0.000    2.667 
#    0.000   14.167    0.000    0.000    0.000    0.000 
#    0.000  153.333    0.000    0.000    0.000    0.000 
#
# Total GULP energy -267247.248496 kJ/mol
# GULP energy per Si atom -5567.651010 kJ/mol
# Density = 2.631446 g / cm^3
# Si number density = 26.374487 Si / 1000 Ang^3
#
#
#
# Elastic Constant Matrix: (Units=GPa)
#
#
# Indices 1 2 3 4 5 6 
#
# 1 226.7555 6.9263 36.5550 0.0000 0.0000 0.0000
# 2 6.9263 99.0750 15.4596 0.0000 0.0000 0.0000
# 3 36.5550 15.4596 34.5677 0.0000 0.0000 0.0000
# 4 0.0000 0.0000 0.0000 6.4463 0.0000 0.0000
# 5 0.0000 0.0000 0.0000 0.0000 30.7422 0.0000
# 6 0.0000 0.0000 0.0000 0.0000 0.0000 13.1537
#
#
#
# Elastic Compliance Matrix: (Units=1/GPa)
#
#
# Indices 1 2 3 4 5 6 
#
# 1 0.005344 0.000546 -0.005895 0.000000 0.000000 0.000000
# 2 0.000546 0.010906 -0.005455 0.000000 0.000000 0.000000
# 3 -0.005895 -0.005455 0.037603 0.000000 0.000000 0.000000
# 4 0.000000 0.000000 0.000000 0.155129 0.000000 0.000000
# 5 0.000000 0.000000 0.000000 0.000000 0.032529 0.000000
# 6 0.000000 0.000000 0.000000 0.000000 0.000000 0.076024
#
#
# Mechanical properties :
#
#
# Convention : Reuss Voigt Hill
#
# Bulk Modulus (GPa) = 31.01327 53.14221 42.07774
# Shear Modulus (GPa) = 14.29015 30.16558 22.22787
#
# Velocity S-wave (km/s) = 2.33022 3.38559 2.90622
# Velocity P-wave (km/s) = 4.36168 5.95616 5.22016
#
# Compressibility (1/GPa) = 0.03224426
#
# Stress axis : x y z
#
# Youngs Moduli (GPa) = 187.13550 91.68910 26.59380
#
# Poissons Ratio (x) = -0.05009 0.15678
# Poissons Ratio (y) = -0.10224 0.14508
# Poissons Ratio (z) = 1.10321 0.50020
#
# Static dielectric constant tensor:
#      x y z
#    x 2.167880 0.000000 0.000000 
#    y 0.000000 2.209640 0.000000 
#    z 0.000000 0.000000 2.063310 
# 
# From -- ./inp_files/22953.got.cif
#   From: 2010.05.17/outbox.cif.g08.bks.cpg/sg48_12_cif.got.tgz:22953.got - 2010.06.03 20:39:00.
