data_PCOD9391519
_publ_section_title
;
Structure prediction by ZEFSAII (Michael W. Deem and Ramdas Pophale) SiO2 
 PCOD9391519
Probable space group: P N N N
;
_chemical_formula_sum "Si O2"
_cell_formula_units_Z 40
_cell_length_a 27.057038
_cell_length_b 7.478111
_cell_length_c 10.274366
_cell_angle_alpha 90.000000
_cell_angle_beta 90.000000
_cell_angle_gamma 90.000000
_cell_volume 2078.869326
_symmetry_space_group_name_H-M "P N N N"
_symmetry_group_IT_number 48
_space_group.IT_coordinate_system_code '2'
_symmetry_cell_setting 'orthorhombic'
loop_
_space_group_symop_operation_xyz
x,y,z
1/2-x,1/2-y,z
x,1/2-y,1/2-z
1/2-x,y,1/2-z
-x,-y,-z
1/2+x,1/2+y,-z
-x,1/2+y,1/2+z
1/2+x,-y,1/2+z
loop_
_atom_site_type_symbol
_atom_site_label
_atom_site_fract_x
_atom_site_fract_y
_atom_site_fract_z
Si Si1 0.615868 0.020703 0.513154
Si Si2 0.551392 0.965133 0.266514
Si Si3 0.938815 0.034293 0.729077
Si Si4 0.119188 0.931678 0.528148
Si Si5 0.692580 0.736349 0.406585
O O1 0.595462 0.966794 0.654107
O O2 0.631565 0.227909 0.507084
O O3 0.570973 0.005294 0.410285
O O4 0.659746 0.894264 0.466520
O O5 0.554242 0.750000 0.250000
O O6 0.495344 0.025702 0.242556
O O7 0.587560 0.052892 0.160516
O O8 0.940211 0.250000 0.750000
O O9 0.915261 0.996711 0.589129
O O10 0.167147 0.053275 0.547194
O O11 0.750000 0.750000 0.441907
O O12 0.688520 0.750000 0.250000
#
# Coordination Sequence:
#
# PCOD9391519 Si02
#       5
#     8   8   8   8   8
#     4  11  21  40  60  87 123 156 199 249 293 355
#     4  11  19  37  59  87 125 163 199 242 287 352
#     4   9  22  36  58  89 125 163 195 236 300 357
#     4  11  21  40  60  87 123 156 199 249 293 355
#     4  11  24  43  65  89 117 155 203 259 306 346
#
# _framework density 19.241226999999999
#
# number of rings (size 3 to 8) (size 9 to 14) (size 15 to 20)
#    0.000    1.400    4.000    1.800    0.000    1.600 
#    7.200    4.000    0.000    3.600    0.000    0.000 
#    0.000    0.000    0.000    0.000    0.000    0.000 
#
# Total GULP energy -223650.693060 kJ/mol
# GULP energy per Si atom -5591.267327 kJ/mol
# Density = 1.919743 g / cm^3
# Si number density = 19.241227 Si / 1000 Ang^3
#
#
#
# Elastic Constant Matrix: (Units=GPa)
#
#
# Indices 1 2 3 4 5 6 
#
# 1 113.4760 20.7012 3.4446 0.0000 0.0000 0.0000
# 2 20.7012 79.6166 -14.9148 0.0000 0.0000 0.0000
# 3 3.4446 -14.9148 64.2749 0.0000 0.0000 0.0000
# 4 0.0000 0.0000 0.0000 11.9301 0.0000 0.0000
# 5 0.0000 0.0000 0.0000 0.0000 62.0791 0.0000
# 6 0.0000 0.0000 0.0000 0.0000 0.0000 -10.5528
#
#
#
# Elastic Compliance Matrix: (Units=1/GPa)
#
#
# Indices 1 2 3 4 5 6 
#
# 1 0.009327 -0.002633 -0.001111 0.000000 0.000000 0.000000
# 2 -0.002633 0.013874 0.003361 0.000000 0.000000 0.000000
# 3 -0.001111 0.003361 0.016398 0.000000 0.000000 0.000000
# 4 0.000000 0.000000 0.000000 0.083822 0.000000 0.000000
# 5 0.000000 0.000000 0.000000 0.000000 0.016108 0.000000
# 6 0.000000 0.000000 0.000000 0.000000 0.000000 -0.094761
#
#
# Mechanical properties :
#
#
# Convention : Reuss Voigt Hill
#
# Bulk Modulus (GPa) = 25.75208 30.64773 28.19990
# Shear Modulus (GPa) = 85.50237 29.23370 57.36804
#
# Velocity S-wave (km/s) = 6.67335 3.90208 5.46625
# Velocity P-wave (km/s) = 8.53176 6.02199 7.38428
#
# Compressibility (1/GPa) = 0.03883182
#
# Stress axis : x y z
#
# Youngs Moduli (GPa) = 107.22133 72.07527 60.98480
#
# Poissons Ratio (x) = 0.18978 0.06774
# Poissons Ratio (y) = 0.28232 -0.20495
# Poissons Ratio (z) = 0.11910 -0.24222
#
# Static dielectric constant tensor:
#      x y z
#    x 1.627630 0.000000 0.000000 
#    y 0.000000 1.715000 0.000000 
#    z 0.000000 0.000000 1.650250 
# 
# From -- ./inp_files/9221.got.cif
#   From: 2010.05.17/outbox.cif.g08.bks.cpg/sg48_5_cif.got.tgz:9221.got - 2010.06.03 20:39:00.
