data_PCOD9391060
_publ_section_title
;
Structure prediction by ZEFSAII (Michael W. Deem and Ramdas Pophale) SiO2 
 PCOD9391060
Probable space group: P N N N
;
_chemical_formula_sum "Si O2"
_cell_formula_units_Z 32
_cell_length_a 7.860299
_cell_length_b 12.256208
_cell_length_c 15.953583
_cell_angle_alpha 90.000000
_cell_angle_beta 90.000000
_cell_angle_gamma 90.000000
_cell_volume 1536.927656
_symmetry_space_group_name_H-M "P N N N"
_symmetry_group_IT_number 48
_space_group.IT_coordinate_system_code '2'
_symmetry_cell_setting 'orthorhombic'
loop_
_space_group_symop_operation_xyz
x,y,z
1/2-x,1/2-y,z
x,1/2-y,1/2-z
1/2-x,y,1/2-z
-x,-y,-z
1/2+x,1/2+y,-z
-x,1/2+y,1/2+z
1/2+x,-y,1/2+z
loop_
_atom_site_type_symbol
_atom_site_label
_atom_site_fract_x
_atom_site_fract_y
_atom_site_fract_z
Si Si1 0.995495 0.026659 0.098045
Si Si2 0.370520 0.529112 0.616693
Si Si3 0.955069 0.375573 0.742870
Si Si4 0.683388 0.867404 0.957467
O O1 0.170624 0.091807 0.107034
O O2 0.818066 0.078234 0.127923
O O3 0.003440 0.916457 0.150402
O O4 0.000000 0.000000 0.000000
O O5 0.449771 0.455371 0.691248
O O6 0.504658 0.621359 0.590163
O O7 0.342672 0.446186 0.537850
O O8 0.007204 0.250000 0.750000
O O9 0.750000 0.382294 0.750000
O O10 0.750000 0.750000 0.985612
#
# Coordination Sequence:
#
# PCOD9391060 Si02
#       4
#     8   8   8   8
#     4  10  22  40  62  93 130 167 213 263 321 400
#     4  10  22  40  63  95 131 164 220 265 320 399
#     4  11  23  40  66  99 132 168 214 278 333 386
#     4  10  22  41  64  93 129 173 214 268 327 385
#
# _framework density 20.820758000000001
#
# number of rings (size 3 to 8) (size 9 to 14) (size 15 to 20)
#    0.000    1.750    2.500    0.750    7.000    2.000 
#    0.000    2.500    0.000    3.000    0.000    0.000 
#    0.000    0.000    0.000    0.000    0.000    0.000 
#
# Total GULP energy -178339.525649 kJ/mol
# GULP energy per Si atom -5573.110177 kJ/mol
# Density = 2.077337 g / cm^3
# Si number density = 20.820758 Si / 1000 Ang^3
#
#
#
# Elastic Constant Matrix: (Units=GPa)
#
#
# Indices 1 2 3 4 5 6 
#
# 1 162.1340 27.6016 29.4145 0.0000 0.0000 0.0000
# 2 27.6016 50.7437 17.2540 0.0000 0.0000 0.0000
# 3 29.4145 17.2540 87.9331 0.0000 0.0000 0.0000
# 4 0.0000 0.0000 0.0000 27.1309 0.0000 0.0000
# 5 0.0000 0.0000 0.0000 0.0000 30.4144 0.0000
# 6 0.0000 0.0000 0.0000 0.0000 0.0000 19.1403
#
#
#
# Elastic Compliance Matrix: (Units=1/GPa)
#
#
# Indices 1 2 3 4 5 6 
#
# 1 0.007031 -0.003241 -0.001716 0.000000 0.000000 0.000000
# 2 -0.003241 0.022610 -0.003352 0.000000 0.000000 0.000000
# 3 -0.001716 -0.003352 0.012604 0.000000 0.000000 0.000000
# 4 0.000000 0.000000 0.000000 0.036858 0.000000 0.000000
# 5 0.000000 0.000000 0.000000 0.000000 0.032879 0.000000
# 6 0.000000 0.000000 0.000000 0.000000 0.000000 0.052246
#
#
# Mechanical properties :
#
#
# Convention : Reuss Voigt Hill
#
# Bulk Modulus (GPa) = 39.02254 49.92787 44.47521
# Shear Modulus (GPa) = 26.40081 30.43981 28.42031
#
# Velocity S-wave (km/s) = 3.56477 3.82775 3.69860
# Velocity P-wave (km/s) = 5.97714 6.60057 6.29658
#
# Compressibility (1/GPa) = 0.02562622
#
# Stress axis : x y z
#
# Youngs Moduli (GPa) = 142.23191 44.22901 79.33945
#
# Poissons Ratio (x) = 0.14334 0.13614
# Poissons Ratio (y) = 0.46095 0.26597
# Poissons Ratio (z) = 0.24406 0.14827
#
# Static dielectric constant tensor:
#      x y z
#    x 1.888830 0.000000 0.000000 
#    y 0.000000 1.746210 0.000000 
#    z 0.000000 0.000000 1.739430 
# 
# From -- ./inp_files/10257.got.cif
#   From: 2010.05.17/outbox.cif.g08.bks.cpg/sg48_6_cif.got.tgz:10257.got - 2010.06.03 20:39:00.
