data_PCOD9391051
_publ_section_title
;
Structure prediction by ZEFSAII (Michael W. Deem and Ramdas Pophale) SiO2 
 PCOD9391051
Probable space group: P N N N
;
_chemical_formula_sum "Si O2"
_cell_formula_units_Z 54
_cell_length_a 15.722005
_cell_length_b 15.416276
_cell_length_c 10.573239
_cell_angle_alpha 90.000000
_cell_angle_beta 90.000000
_cell_angle_gamma 90.000000
_cell_volume 2562.686353
_symmetry_space_group_name_H-M "P N N N"
_symmetry_group_IT_number 48
_space_group.IT_coordinate_system_code '2'
_symmetry_cell_setting 'orthorhombic'
loop_
_space_group_symop_operation_xyz
x,y,z
1/2-x,1/2-y,z
x,1/2-y,1/2-z
1/2-x,y,1/2-z
-x,-y,-z
1/2+x,1/2+y,-z
-x,1/2+y,1/2+z
1/2+x,-y,1/2+z
loop_
_atom_site_type_symbol
_atom_site_label
_atom_site_fract_x
_atom_site_fract_y
_atom_site_fract_z
Si Si1 0.549281 0.250000 0.750000
Si Si2 0.849264 0.661065 0.822010
Si Si3 0.501328 0.427424 0.184541
Si Si4 0.913084 0.028646 0.429074
Si Si5 0.750000 0.750000 0.250000
Si Si6 0.417016 0.594434 0.075673
Si Si7 0.101545 0.163348 0.598298
Si Si8 0.259465 0.986782 0.106560
O O1 0.596564 0.320549 0.837792
O O2 0.484988 0.303484 0.659952
O O3 0.829573 0.750000 0.750000
O O4 0.779779 0.590524 0.874824
O O5 0.910878 0.608974 0.728781
O O6 0.900147 0.682329 0.949682
O O7 0.562190 0.416144 0.306658
O O8 0.480303 0.527849 0.149217
O O9 0.538741 0.385182 0.058224
O O10 0.840084 0.052657 0.530184
O O11 0.883388 0.937178 0.374846
O O12 0.000000 0.000000 0.500000
O O13 0.815474 0.795190 0.343198
O O14 0.329989 0.541519 0.046758
O O15 0.250000 0.953754 0.250000
#
# Coordination Sequence:
#
# PCOD9391051 Si02
#       8
#     4   8   8   8   2   8   8   8
#     4  11  22  43  69  93 138 186 234 269 357 413
#     4  11  23  40  67  98 135 177 217 284 351 419
#     4  11  22  43  68 100 135 179 230 278 348 420
#     4  11  20  40  70  90 133 183 219 275 344 426
#     4  10  24  40  50  98 144 154 218 288 328 404
#     4  11  24  42  67  99 141 173 236 292 330 421
#     4  10  22  39  65  94 131 183 222 271 346 424
#     4  11  23  40  64  99 136 171 233 279 339 418
#
# _framework density 21.071639000000001
#
# number of rings (size 3 to 8) (size 9 to 14) (size 15 to 20)
#    0.000    1.185    5.926    0.889    0.000    5.630 
#    5.333    0.370    0.000    0.000    0.000    1.037 
#    0.000    0.000    0.000    0.000    0.000    0.000 
#
# Total GULP energy -301057.064244 kJ/mol
# GULP energy per Si atom -5575.130819 kJ/mol
# Density = 2.102368 g / cm^3
# Si number density = 21.071639 Si / 1000 Ang^3
#
#
#
# Elastic Constant Matrix: (Units=GPa)
#
#
# Indices 1 2 3 4 5 6 
#
# 1 104.8133 26.7434 48.5540 0.0000 0.0000 0.0000
# 2 26.7434 72.1207 34.7352 0.0000 0.0000 0.0000
# 3 48.5540 34.7352 130.9572 0.0000 0.0000 0.0000
# 4 0.0000 0.0000 0.0000 28.8693 0.0000 0.0000
# 5 0.0000 0.0000 0.0000 0.0000 18.9604 0.0000
# 6 0.0000 0.0000 0.0000 0.0000 0.0000 28.3414
#
#
#
# Elastic Compliance Matrix: (Units=1/GPa)
#
#
# Indices 1 2 3 4 5 6 
#
# 1 0.011940 -0.002631 -0.003729 0.000000 0.000000 0.000000
# 2 -0.002631 0.016476 -0.003395 0.000000 0.000000 0.000000
# 3 -0.003729 -0.003395 0.009919 0.000000 0.000000 0.000000
# 4 0.000000 0.000000 0.000000 0.034639 0.000000 0.000000
# 5 0.000000 0.000000 0.000000 0.000000 0.052741 0.000000
# 6 0.000000 0.000000 0.000000 0.000000 0.000000 0.035284
#
#
# Mechanical properties :
#
#
# Convention : Reuss Voigt Hill
#
# Bulk Modulus (GPa) = 53.12016 58.66181 55.89099
# Shear Modulus (GPa) = 26.76892 28.42481 27.59686
#
# Velocity S-wave (km/s) = 3.56810 3.67680 3.62286
# Velocity P-wave (km/s) = 6.49917 6.77679 6.63943
#
# Compressibility (1/GPa) = 0.01882524
#
# Stress axis : x y z
#
# Youngs Moduli (GPa) = 83.75548 60.69315 100.81733
#
# Poissons Ratio (x) = 0.15971 0.37592
# Poissons Ratio (y) = 0.22040 0.34223
# Poissons Ratio (z) = 0.31230 0.20603
#
# Static dielectric constant tensor:
#      x y z
#    x 1.779650 0.000000 0.000000 
#    y 0.000000 1.680010 0.000000 
#    z 0.000000 0.000000 1.791790 
# 
# From -- ./inp_files/21386.got.cif
#   From: 2010.05.17/outbox.cif.g08.bks.cpg/sg48_11_cif.got.tgz:21386.got - 2010.06.03 20:39:00.
