data_PCOD9391838
_publ_section_title
;
Structure prediction by ZEFSAII (Michael W. Deem and Ramdas Pophale) SiO2 
 PCOD9391838
Probable space group: P N N N
;
_chemical_formula_sum "Si O2"
_cell_formula_units_Z 34
_cell_length_a 21.408887
_cell_length_b 11.680904
_cell_length_c 5.393205
_cell_angle_alpha 90.000000
_cell_angle_beta 90.000000
_cell_angle_gamma 90.000000
_cell_volume 1348.706570
_symmetry_space_group_name_H-M "P N N N"
_symmetry_group_IT_number 48
_space_group.IT_coordinate_system_code '2'
_symmetry_cell_setting 'orthorhombic'
loop_
_space_group_symop_operation_xyz
x,y,z
1/2-x,1/2-y,z
x,1/2-y,1/2-z
1/2-x,y,1/2-z
-x,-y,-z
1/2+x,1/2+y,-z
-x,1/2+y,1/2+z
1/2+x,-y,1/2+z
loop_
_atom_site_type_symbol
_atom_site_label
_atom_site_fract_x
_atom_site_fract_y
_atom_site_fract_z
Si Si1 0.049434 0.043598 0.799679
Si Si2 0.192819 0.566327 0.419778
Si Si3 0.834136 0.679455 0.491724
Si Si4 0.426471 0.873292 0.111666
Si Si5 0.750000 0.250000 0.250000
O O1 0.097199 0.130633 0.923434
O O2 0.001773 0.109630 0.619339
O O3 0.082725 0.936973 0.657951
O O4 0.000000 0.000000 0.000000
O O5 0.250000 0.603733 0.250000
O O6 0.205723 0.436392 0.495193
O O7 0.127365 0.563279 0.272611
O O8 0.200799 0.662683 0.624987
O O9 0.816463 0.750000 0.250000
O O10 0.832245 0.750000 0.750000
O O11 0.419010 0.750000 0.250000
#
# Coordination Sequence:
#
# PCOD9391838 Si02
#       5
#     8   8   8   8   2
#     4  11  25  45  74 116 158 212 266 339 421 506
#     4  12  29  52  79 117 159 216 277 342 424 490
#     4  12  29  53  83 118 167 214 276 345 416 514
#     4  11  25  44  76 112 159 207 271 336 420 497
#     4  12  30  52  86 118 168 208 290 358 416 524
#
# _framework density 25.209337000000001
#
# number of rings (size 3 to 8) (size 9 to 14) (size 15 to 20)
#    0.000    0.471    2.353    3.882   16.471    0.471 
#    0.000    0.000    0.000    0.000    0.000    0.000 
#    0.000    0.000    0.000    0.000    0.000    0.000 
#
# Total GULP energy -189465.483865 kJ/mol
# GULP energy per Si atom -5572.514231 kJ/mol
# Density = 2.515196 g / cm^3
# Si number density = 25.209337 Si / 1000 Ang^3
#
#
#
# Elastic Constant Matrix: (Units=GPa)
#
#
# Indices 1 2 3 4 5 6 
#
# 1 126.2390 29.8360 40.0096 0.0000 0.0000 0.0000
# 2 29.8360 194.2186 110.9763 0.0000 0.0000 0.0000
# 3 40.0096 110.9763 169.4799 0.0000 0.0000 0.0000
# 4 0.0000 0.0000 0.0000 32.8318 0.0000 0.0000
# 5 0.0000 0.0000 0.0000 0.0000 224.1943 0.0000
# 6 0.0000 0.0000 0.0000 0.0000 0.0000 194.6177
#
#
#
# Elastic Compliance Matrix: (Units=1/GPa)
#
#
# Indices 1 2 3 4 5 6 
#
# 1 0.008570 -0.000256 -0.001855 0.000000 0.000000 0.000000
# 2 -0.000256 0.008235 -0.005332 0.000000 0.000000 0.000000
# 3 -0.001855 -0.005332 0.009830 0.000000 0.000000 0.000000
# 4 0.000000 0.000000 0.000000 0.030458 0.000000 0.000000
# 5 0.000000 0.000000 0.000000 0.000000 0.004460 0.000000
# 6 0.000000 0.000000 0.000000 0.000000 0.000000 0.005138
#
#
# Mechanical properties :
#
#
# Convention : Reuss Voigt Hill
#
# Bulk Modulus (GPa) = 85.12264 94.62013 89.87139
# Shear Modulus (GPa) = 58.48383 110.93646 84.71014
#
# Velocity S-wave (km/s) = 4.82179 6.64091 5.80307
# Velocity P-wave (km/s) = 8.05228 9.81924 8.97932
#
# Compressibility (1/GPa) = 0.01174776
#
# Stress axis : x y z
#
# Youngs Moduli (GPa) = 116.68500 121.43749 101.73442
#
# Poissons Ratio (x) = 0.03114 0.18874
# Poissons Ratio (y) = 0.02993 0.54240
# Poissons Ratio (z) = 0.21648 0.64745
#
# Static dielectric constant tensor:
#      x y z
#    x -16.888420 0.000000 0.000000 
#    y 0.000000 2.007670 0.000000 
#    z 0.000000 0.000000 1.886380 
# 
# From -- ./inp_files/5678.got.cif
#   From: 2010.05.17/outbox.cif.g08.bks.cpg/sg48_3_cif.got.tgz:5678.got - 2010.06.03 20:39:00.
