data_PCOD9391268
_publ_section_title
;
Structure prediction by ZEFSAII (Michael W. Deem and Ramdas Pophale) SiO2 
 PCOD9391268
Probable space group: P N N N
;
_chemical_formula_sum "Si O2"
_cell_formula_units_Z 38
_cell_length_a 9.840409
_cell_length_b 25.652800
_cell_length_c 7.040671
_cell_angle_alpha 90.000000
_cell_angle_beta 90.000000
_cell_angle_gamma 90.000000
_cell_volume 1777.305053
_symmetry_space_group_name_H-M "P N N N"
_symmetry_group_IT_number 48
_space_group.IT_coordinate_system_code '2'
_symmetry_cell_setting 'orthorhombic'
loop_
_space_group_symop_operation_xyz
x,y,z
1/2-x,1/2-y,z
x,1/2-y,1/2-z
1/2-x,y,1/2-z
-x,-y,-z
1/2+x,1/2+y,-z
-x,1/2+y,1/2+z
1/2+x,-y,1/2+z
loop_
_atom_site_type_symbol
_atom_site_label
_atom_site_fract_x
_atom_site_fract_y
_atom_site_fract_z
Si Si1 0.617562 0.564653 0.977512
Si Si2 0.851724 0.678655 0.419399
Si Si3 0.413407 0.618441 0.220164
Si Si4 0.250000 0.978443 0.750000
Si Si5 0.996791 0.941122 0.575204
Si Si6 0.750000 0.750000 0.750000
O O1 0.603945 0.560195 0.752161
O O2 0.689059 0.619372 0.024850
O O3 0.466584 0.574752 0.069073
O O4 0.688072 0.518044 0.091774
O O5 0.750000 0.694283 0.250000
O O6 0.836153 0.714209 0.604878
O O7 0.008272 0.670669 0.350396
O O8 0.250000 0.620127 0.250000
O O9 0.497037 0.600323 0.407718
O O10 0.143554 0.939106 0.664850
O O11 0.000000 0.000000 0.500000
#
# Coordination Sequence:
#
# PCOD9391268 Si02
#       6
#     8   8   8   4   8   2
#     4  10  23  42  59  98 137 182 228 282 339 383
#     4  10  24  46  72 106 130 167 223 280 359 417
#     4  10  23  43  65  97 137 187 220 278 338 404
#     4  12  22  40  60  95 144 189 246 278 316 386
#     4  12  24  34  60  90 140 188 236 276 313 380
#     4  12  26  44  84 104 128 160 214 298 352 446
#
# _framework density 21.380685
#
# number of rings (size 3 to 8) (size 9 to 14) (size 15 to 20)
#    1.263    0.000    3.158    2.211    5.895    0.000 
#    0.000    0.000    0.000    3.789    0.000    0.000 
#    0.000    0.000    0.000    0.000    0.000    0.000 
#
# Total GULP energy -211745.082639 kJ/mol
# GULP energy per Si atom -5572.239017 kJ/mol
# Density = 2.133202 g / cm^3
# Si number density = 21.380685 Si / 1000 Ang^3
#
#
#
# Elastic Constant Matrix: (Units=GPa)
#
#
# Indices 1 2 3 4 5 6 
#
# 1 149.9503 22.7791 56.9316 0.0000 0.0000 0.0000
# 2 22.7791 78.3882 56.6713 0.0000 0.0000 0.0000
# 3 56.9316 56.6713 172.9658 0.0000 0.0000 0.0000
# 4 0.0000 0.0000 0.0000 44.5263 0.0000 0.0000
# 5 0.0000 0.0000 0.0000 0.0000 10.1526 0.0000
# 6 0.0000 0.0000 0.0000 0.0000 0.0000 -0.1869
#
#
#
# Elastic Compliance Matrix: (Units=1/GPa)
#
#
# Indices 1 2 3 4 5 6 
#
# 1 0.007638 -0.000527 -0.002341 0.000000 0.000000 0.000000
# 2 -0.000527 0.016753 -0.005316 0.000000 0.000000 0.000000
# 3 -0.002341 -0.005316 0.008294 0.000000 0.000000 0.000000
# 4 0.000000 0.000000 0.000000 0.022459 0.000000 0.000000
# 5 0.000000 0.000000 0.000000 0.000000 0.098497 0.000000
# 6 0.000000 0.000000 0.000000 0.000000 0.000000 -5.349758
#
#
# Mechanical properties :
#
#
# Convention : Reuss Voigt Hill
#
# Bulk Modulus (GPa) = 61.28552 74.89648 68.09100
# Shear Modulus (GPa) = -0.96631 28.55988 13.79679
#
# Velocity S-wave (km/s) = -0.67301 3.65880 2.54302
# Velocity P-wave (km/s) = 5.30304 7.27702 6.36700
#
# Compressibility (1/GPa) = 0.01631707
#
# Stress axis : x y z
#
# Youngs Moduli (GPa) = 130.92682 59.69042 120.57184
#
# Poissons Ratio (x) = 0.03144 0.28231
# Poissons Ratio (y) = 0.06897 0.64092
# Poissons Ratio (z) = 0.30655 0.31729
#
# Static dielectric constant tensor:
#      x y z
#    x 1.759410 0.000000 0.000000 
#    y 0.000000 1.755250 0.000000 
#    z 0.000000 0.000000 1.639590 
# 
# From -- ./inp_files/2588.got.cif
#   From: 2010.05.17/outbox.cif.g08.bks.cpg/sg48_2_cif.got.tgz:2588.got - 2010.06.03 20:39:00.
