data_PCOD9391345
_publ_section_title
;
Structure prediction by ZEFSAII (Michael W. Deem and Ramdas Pophale) SiO2 
 PCOD9391345
Probable space group: P N N N
;
_chemical_formula_sum "Si O2"
_cell_formula_units_Z 54
_cell_length_a 24.255283
_cell_length_b 5.228420
_cell_length_c 22.354530
_cell_angle_alpha 90.000000
_cell_angle_beta 90.000000
_cell_angle_gamma 90.000000
_cell_volume 2834.930111
_symmetry_space_group_name_H-M "P N N N"
_symmetry_group_IT_number 48
_space_group.IT_coordinate_system_code '2'
_symmetry_cell_setting 'orthorhombic'
loop_
_space_group_symop_operation_xyz
x,y,z
1/2-x,1/2-y,z
x,1/2-y,1/2-z
1/2-x,y,1/2-z
-x,-y,-z
1/2+x,1/2+y,-z
-x,1/2+y,1/2+z
1/2+x,-y,1/2+z
loop_
_atom_site_type_symbol
_atom_site_label
_atom_site_fract_x
_atom_site_fract_y
_atom_site_fract_z
Si Si1 0.120239 0.711395 0.485554
Si Si2 0.911520 0.047219 0.297498
Si Si3 0.960219 0.317600 0.616725
Si Si4 0.985840 0.250000 0.750000
Si Si5 0.467700 0.687368 0.586605
Si Si6 0.686773 0.700888 0.477919
Si Si7 0.193116 0.112005 0.664007
Si Si8 0.250000 0.750000 0.750000
O O1 0.096931 0.679302 0.418898
O O2 0.066377 0.778673 0.525812
O O3 0.150086 0.454147 0.509684
O O4 0.160426 0.953885 0.490924
O O5 0.892967 0.250000 0.250000
O O6 0.921766 0.176023 0.361530
O O7 0.970760 0.959929 0.273250
O O8 0.867550 0.822000 0.311189
O O9 0.954333 0.318944 0.688982
O O10 0.993892 0.569383 0.597800
O O11 0.996251 0.070883 0.595004
O O12 0.750000 0.750000 0.496369
O O13 0.688917 0.631515 0.407096
O O14 0.250000 0.250000 0.681687
O O15 0.206890 0.854869 0.699535
#
# Coordination Sequence:
#
# PCOD9391345 Si02
#       8
#     8   8   8   4   8   8   8   2
#     4  12  23  42  65  94 118 171 205 267 320 372
#     4  11  21  38  58  77 121 167 213 249 314 364
#     4  11  23  40  63  92 131 156 212 253 320 385
#     4  10  24  36  59  90 123 162 190 256 306 392
#     4  11  22  38  60  91 121 166 207 264 303 376
#     4  11  26  43  66  89 126 161 215 266 316 367
#     4  11  26  39  57  81 118 169 224 275 303 358
#     4  12  26  40  56  82 112 172 218 282 306 356
#
# _framework density 19.048089999999998
#
# number of rings (size 3 to 8) (size 9 to 14) (size 15 to 20)
#    0.000    0.889    3.704    3.333    8.296    0.000 
#    0.000    0.000    0.000    0.000    0.000    3.111 
#    0.000    0.000    0.000    0.000    0.000    0.000 
#
# Total GULP energy -300951.666000 kJ/mol
# GULP energy per Si atom -5573.179000 kJ/mol
# Density = 1.900474 g / cm^3
# Si number density = 19.048090 Si / 1000 Ang^3
#
#
#
# Elastic Constant Matrix: (Units=GPa)
#
#
# Indices 1 2 3 4 5 6 
#
# 1 84.8933 36.9760 64.6774 0.0000 0.0000 0.0000
# 2 36.9760 94.0932 19.8261 0.0000 0.0000 0.0000
# 3 64.6774 19.8261 127.6473 0.0000 0.0000 0.0000
# 4 0.0000 0.0000 0.0000 15.7806 0.0000 0.0000
# 5 0.0000 0.0000 0.0000 0.0000 69.0000 0.0000
# 6 0.0000 0.0000 0.0000 0.0000 0.0000 659.6137
#
#
#
# Elastic Compliance Matrix: (Units=1/GPa)
#
#
# Indices 1 2 3 4 5 6 
#
# 1 0.022648 -0.006701 -0.010435 0.000000 0.000000 0.000000
# 2 -0.006701 0.012970 0.001381 0.000000 0.000000 0.000000
# 3 -0.010435 0.001381 0.012907 0.000000 0.000000 0.000000
# 4 0.000000 0.000000 0.000000 0.063369 0.000000 0.000000
# 5 0.000000 0.000000 0.000000 0.000000 0.014493 0.000000
# 6 0.000000 0.000000 0.000000 0.000000 0.000000 0.001516
#
#
# Mechanical properties :
#
#
# Convention : Reuss Voigt Hill
#
# Bulk Modulus (GPa) = 58.77201 61.06585 59.91893
# Shear Modulus (GPa) = 30.28741 161.22247 95.75494
#
# Velocity S-wave (km/s) = 3.99187 9.20996 7.09783
# Velocity P-wave (km/s) = 7.22276 12.05099 9.93465
#
# Compressibility (1/GPa) = 0.01701490
#
# Stress axis : x y z
#
# Youngs Moduli (GPa) = 44.15346 77.09943 77.47879
#
# Poissons Ratio (x) = 0.51668 0.80847
# Poissons Ratio (y) = 0.29589 -0.10700
# Poissons Ratio (z) = 0.46073 -0.10648
#
# Static dielectric constant tensor:
#      x y z
#    x 1.727580 0.000000 0.000000 
#    y 0.000000 1.803910 0.000000 
#    z 0.000000 0.000000 1.679750 
# 
# From -- ./inp_files/34969.got.cif
#   From: 2010.05.17/outbox.cif.g08.bks.cpg/sg48_18_cif.got.tgz:34969.got - 2010.06.03 20:39:00.
