data_PCOD9391826
_publ_section_title
;
Structure prediction by ZEFSAII (Michael W. Deem and Ramdas Pophale) SiO2 
 PCOD9391826
Probable space group: P N N N
;
_chemical_formula_sum "Si O2"
_cell_formula_units_Z 26
_cell_length_a 7.559599
_cell_length_b 11.145004
_cell_length_c 11.409271
_cell_angle_alpha 90.000000
_cell_angle_beta 90.000000
_cell_angle_gamma 90.000000
_cell_volume 961.251175
_symmetry_space_group_name_H-M "P N N N"
_symmetry_group_IT_number 48
_space_group.IT_coordinate_system_code '2'
_symmetry_cell_setting 'orthorhombic'
loop_
_space_group_symop_operation_xyz
x,y,z
1/2-x,1/2-y,z
x,1/2-y,1/2-z
1/2-x,y,1/2-z
-x,-y,-z
1/2+x,1/2+y,-z
-x,1/2+y,1/2+z
1/2+x,-y,1/2+z
loop_
_atom_site_type_symbol
_atom_site_label
_atom_site_fract_x
_atom_site_fract_y
_atom_site_fract_z
Si Si1 0.479546 0.924980 0.157055
Si Si2 0.410658 0.610072 0.065752
Si Si3 0.453404 0.706779 0.627893
Si Si4 0.250000 0.250000 0.750000
O O1 0.305333 0.891005 0.079946
O O2 0.444443 0.902041 0.295852
O O3 0.652297 0.841792 0.159789
O O4 0.481405 0.936138 0.869730
O O5 0.500000 0.500000 0.000000
O O6 0.496842 0.715517 0.986855
O O7 0.250000 0.750000 0.638215
O O8 0.541215 0.750000 0.750000
#
# Coordination Sequence:
#
# PCOD9391826 Si02
#       4
#     8   8   8   2
#     4  11  28  51  84 130 178 239 318 382 476 575
#     4  11  26  51  83 128 181 239 308 397 468 564
#     4  11  24  48  82 123 175 233 303 383 465 560
#     4  12  28  54  82 128 178 238 312 394 474 562
#
# _framework density 27.048082000000001
#
# number of rings (size 3 to 8) (size 9 to 14) (size 15 to 20)
#    0.000    0.923    3.077    1.846    4.308    6.154 
#    0.000    1.538    0.000    0.000    0.000    0.000 
#    0.000    0.000    0.000    0.000    0.000    0.000 
#
# Total GULP energy -144870.333118 kJ/mol
# GULP energy per Si atom -5571.935889 kJ/mol
# Density = 2.698652 g / cm^3
# Si number density = 27.048082 Si / 1000 Ang^3
#
#
#
# Elastic Constant Matrix: (Units=GPa)
#
#
# Indices 1 2 3 4 5 6 
#
# 1 108.5234 83.0008 58.1005 0.0000 0.0000 0.0000
# 2 83.0008 290.4214 99.0620 0.0000 0.0000 0.0000
# 3 58.1005 99.0620 219.4626 0.0000 0.0000 0.0000
# 4 0.0000 0.0000 0.0000 60.2582 0.0000 0.0000
# 5 0.0000 0.0000 0.0000 0.0000 51.1046 0.0000
# 6 0.0000 0.0000 0.0000 0.0000 0.0000 37.6375
#
#
#
# Elastic Compliance Matrix: (Units=1/GPa)
#
#
# Indices 1 2 3 4 5 6 
#
# 1 0.012496 -0.002888 -0.002005 0.000000 0.000000 0.000000
# 2 -0.002888 0.004737 -0.001374 0.000000 0.000000 0.000000
# 3 -0.002005 -0.001374 0.005707 0.000000 0.000000 0.000000
# 4 0.000000 0.000000 0.000000 0.016595 0.000000 0.000000
# 5 0.000000 0.000000 0.000000 0.000000 0.019568 0.000000
# 6 0.000000 0.000000 0.000000 0.000000 0.000000 0.026569
#
#
# Mechanical properties :
#
#
# Convention : Reuss Voigt Hill
#
# Bulk Modulus (GPa) = 96.07535 122.08156 109.07845
# Shear Modulus (GPa) = 49.17616 55.01633 52.09624
#
# Velocity S-wave (km/s) = 4.26855 4.51490 4.39345
# Velocity P-wave (km/s) = 7.73895 8.50953 8.13337
#
# Compressibility (1/GPa) = 0.01040850
#
# Stress axis : x y z
#
# Youngs Moduli (GPa) = 80.02289 211.09872 175.20851
#
# Poissons Ratio (x) = 0.60956 0.35128
# Poissons Ratio (y) = 0.23107 0.24070
# Poissons Ratio (z) = 0.16044 0.29001
#
# Static dielectric constant tensor:
#      x y z
#    x 1.877080 0.000000 0.000000 
#    y 0.000000 2.118900 0.000000 
#    z 0.000000 0.000000 2.337790 
# 
# From -- ./inp_files/8403.got.cif
#   From: 2010.05.17/outbox.cif.g08.bks.cpg/sg48_5_cif.got.tgz:8403.got - 2010.06.03 20:39:00.
