data_PCOD9391355
_publ_section_title
;
Structure prediction by ZEFSAII (Michael W. Deem and Ramdas Pophale) SiO2 
 PCOD9391355
Probable space group: P N N N
;
_chemical_formula_sum "Si O2"
_cell_formula_units_Z 38
_cell_length_a 16.452261
_cell_length_b 11.354560
_cell_length_c 10.273306
_cell_angle_alpha 90.000000
_cell_angle_beta 90.000000
_cell_angle_gamma 90.000000
_cell_volume 1919.137644
_symmetry_space_group_name_H-M "P N N N"
_symmetry_group_IT_number 48
_space_group.IT_coordinate_system_code '2'
_symmetry_cell_setting 'orthorhombic'
loop_
_space_group_symop_operation_xyz
x,y,z
1/2-x,1/2-y,z
x,1/2-y,1/2-z
1/2-x,y,1/2-z
-x,-y,-z
1/2+x,1/2+y,-z
-x,1/2+y,1/2+z
1/2+x,-y,1/2+z
loop_
_atom_site_type_symbol
_atom_site_label
_atom_site_fract_x
_atom_site_fract_y
_atom_site_fract_z
Si Si1 0.750000 0.250000 0.250000
Si Si2 0.250000 0.067171 0.250000
Si Si3 0.433164 0.387640 0.714900
Si Si4 0.150223 0.564361 0.584978
Si Si5 0.611825 0.122367 0.699285
Si Si6 0.711881 0.628139 0.473331
O O1 0.808832 0.329231 0.337892
O O2 0.214551 0.138201 0.371478
O O3 0.323586 0.979454 0.280876
O O4 0.420764 0.250000 0.750000
O O5 0.403490 0.481046 0.822576
O O6 0.530374 0.401123 0.717429
O O7 0.375258 0.401541 0.589158
O O8 0.102522 0.614651 0.458411
O O9 0.226284 0.478613 0.552816
O O10 0.641406 0.250000 0.750000
O O11 0.750000 0.750000 0.418656
#
# Coordination Sequence:
#
# PCOD9391355 Si02
#       6
#     2   4   8   8   8   8
#     4  12  24  36  64 100 124 174 212 272 332 396
#     4  10  24  40  60  94 134 173 215 276 334 398
#     4  11  21  40  67  97 123 174 223 275 329 393
#     4  11  23  39  64  96 131 166 220 273 324 402
#     4  10  24  40  64  90 134 179 216 269 333 404
#     4  11  21  39  68  93 127 167 221 269 331 397
#
# _framework density 19.800561999999999
#
# number of rings (size 3 to 8) (size 9 to 14) (size 15 to 20)
#    0.000    1.263    4.211    1.263    5.895    0.842 
#    0.000    2.105    0.000    0.000    0.000    0.000 
#    0.000    0.000    0.000    0.000    0.000    0.000 
#
# Total GULP energy -211712.744273 kJ/mol
# GULP energy per Si atom -5571.388007 kJ/mol
# Density = 1.975549 g / cm^3
# Si number density = 19.800562 Si / 1000 Ang^3
#
#
#
# Elastic Constant Matrix: (Units=GPa)
#
#
# Indices 1 2 3 4 5 6 
#
# 1 98.0468 15.4717 40.8058 0.0000 0.0000 0.0000
# 2 15.4717 95.9970 35.0032 0.0000 0.0000 0.0000
# 3 40.8058 35.0032 101.3804 0.0000 0.0000 0.0000
# 4 0.0000 0.0000 0.0000 13.0017 0.0000 0.0000
# 5 0.0000 0.0000 0.0000 0.0000 23.8673 0.0000
# 6 0.0000 0.0000 0.0000 0.0000 0.0000 20.3337
#
#
#
# Elastic Compliance Matrix: (Units=1/GPa)
#
#
# Indices 1 2 3 4 5 6 
#
# 1 0.012255 -0.000202 -0.004863 0.000000 0.000000 0.000000
# 2 -0.000202 0.011921 -0.004035 0.000000 0.000000 0.000000
# 3 -0.004863 -0.004035 0.013214 0.000000 0.000000 0.000000
# 4 0.000000 0.000000 0.000000 0.076913 0.000000 0.000000
# 5 0.000000 0.000000 0.000000 0.000000 0.041898 0.000000
# 6 0.000000 0.000000 0.000000 0.000000 0.000000 0.049179
#
#
# Mechanical properties :
#
#
# Convention : Reuss Voigt Hill
#
# Bulk Modulus (GPa) = 52.10778 53.10951 52.60864
# Shear Modulus (GPa) = 21.74134 25.05009 23.39572
#
# Velocity S-wave (km/s) = 3.31723 3.56071 3.44112
# Velocity P-wave (km/s) = 6.40667 6.61705 6.51271
#
# Compressibility (1/GPa) = 0.01919099
#
# Stress axis : x y z
#
# Youngs Moduli (GPa) = 81.59965 83.88813 75.67646
#
# Poissons Ratio (x) = 0.01694 0.36801
# Poissons Ratio (y) = 0.01648 0.30532
# Poissons Ratio (z) = 0.39681 0.33845
#
# Static dielectric constant tensor:
#      x y z
#    x 1.677770 0.000000 0.000000 
#    y 0.000000 1.697440 0.000000 
#    z 0.000000 0.000000 1.788890 
# 
# From -- ./inp_files/13838.got.cif
#   From: 2010.05.17/outbox.cif.g08.bks.cpg/sg48_7_cif.got.tgz:13838.got - 2010.06.03 20:39:00.
