data_PCOD9391231
_publ_section_title
;
Structure prediction by ZEFSAII (Michael W. Deem and Ramdas Pophale) SiO2 
 PCOD9391231
Probable space group: P N N N
;
_chemical_formula_sum "Si O2"
_cell_formula_units_Z 54
_cell_length_a 10.587365
_cell_length_b 14.723106
_cell_length_c 17.560793
_cell_angle_alpha 90.000000
_cell_angle_beta 90.000000
_cell_angle_gamma 90.000000
_cell_volume 2737.357046
_symmetry_space_group_name_H-M "P N N N"
_symmetry_group_IT_number 48
_space_group.IT_coordinate_system_code '2'
_symmetry_cell_setting 'orthorhombic'
loop_
_space_group_symop_operation_xyz
x,y,z
1/2-x,1/2-y,z
x,1/2-y,1/2-z
1/2-x,y,1/2-z
-x,-y,-z
1/2+x,1/2+y,-z
-x,1/2+y,1/2+z
1/2+x,-y,1/2+z
loop_
_atom_site_type_symbol
_atom_site_label
_atom_site_fract_x
_atom_site_fract_y
_atom_site_fract_z
Si Si1 0.250000 0.750000 0.937207
Si Si2 0.440494 0.484849 0.209615
Si Si3 0.139446 0.843517 0.797501
Si Si4 0.750000 0.750000 0.250000
Si Si5 0.944140 0.189018 0.562506
Si Si6 0.581398 0.645976 0.128544
Si Si7 0.829525 0.492853 0.868474
Si Si8 0.716078 0.648232 0.504884
O O1 0.196063 0.825404 0.880252
O O2 0.136029 0.714911 0.988455
O O3 0.505055 0.389074 0.194203
O O4 0.528325 0.556428 0.166905
O O5 0.304708 0.502502 0.173456
O O6 0.430281 0.490091 0.301048
O O7 0.122828 0.750000 0.750000
O O8 0.250000 0.895239 0.750000
O O9 0.665936 0.691484 0.193283
O O10 0.867577 0.106237 0.600231
O O11 0.969560 0.282102 0.608964
O O12 0.086198 0.157746 0.542524
O O13 0.668103 0.628091 0.053581
O O14 0.814642 0.570345 0.933333
O O15 0.750000 0.750000 0.536414
#
# Coordination Sequence:
#
# PCOD9391231 Si02
#       8
#     4   8   8   2   8   8   8   8
#     4  10  23  38  70  93 124 176 218 268 346 387
#     4  11  26  41  68  96 134 176 225 271 337 408
#     4   9  23  43  63  96 131 176 225 273 334 403
#     4  12  20  44  64  98 122 166 228 256 350 388
#     4  11  22  44  64  95 134 169 219 281 336 401
#     4  11  24  42  69  98 130 178 222 287 334 408
#     4  11  26  42  62 102 133 181 218 274 348 400
#     4  10  24  42  67  99 133 178 227 278 340 397
#
# _framework density 19.727058
#
# number of rings (size 3 to 8) (size 9 to 14) (size 15 to 20)
#    0.000    1.630    2.222    2.222   11.407    0.593 
#    0.000    2.963    0.000    0.000    0.000    0.000 
#    0.000    0.000    0.000    0.000    0.000    0.000 
#
# Total GULP energy -301082.952681 kJ/mol
# GULP energy per Si atom -5575.610235 kJ/mol
# Density = 1.968216 g / cm^3
# Si number density = 19.727058 Si / 1000 Ang^3
#
#
#
# Elastic Constant Matrix: (Units=GPa)
#
#
# Indices 1 2 3 4 5 6 
#
# 1 84.7530 39.3533 29.5362 0.0000 0.0000 0.0000
# 2 39.3533 84.2723 46.8004 0.0000 0.0000 0.0000
# 3 29.5362 46.8004 107.9023 0.0000 0.0000 0.0000
# 4 0.0000 0.0000 0.0000 -94.9602 0.0000 0.0000
# 5 0.0000 0.0000 0.0000 0.0000 49.0159 0.0000
# 6 0.0000 0.0000 0.0000 0.0000 0.0000-1138.3915
#
#
#
# Elastic Compliance Matrix: (Units=1/GPa)
#
#
# Indices 1 2 3 4 5 6 
#
# 1 0.015231 -0.006319 -0.001428 0.000000 0.000000 0.000000
# 2 -0.006319 0.018253 -0.006187 0.000000 0.000000 0.000000
# 3 -0.001428 -0.006187 0.012342 0.000000 0.000000 0.000000
# 4 0.000000 0.000000 0.000000 -0.010531 0.000000 0.000000
# 5 0.000000 0.000000 0.000000 0.000000 0.020402 0.000000
# 6 0.000000 0.000000 0.000000 0.000000 0.000000 -0.000878
#
#
# Mechanical properties :
#
#
# Convention : Reuss Voigt Hill
#
# Bulk Modulus (GPa) = 55.68917 56.47861 56.08389
# Shear Modulus (GPa) = 56.38609 -226.11801 -84.86596
#
# Velocity S-wave (km/s) = 5.35212 -10.71784 -6.56608
# Velocity P-wave (km/s) = 8.15381 11.15664 5.38451
#
# Compressibility (1/GPa) = 0.01795681
#
# Stress axis : x y z
#
# Youngs Moduli (GPa) = 65.65546 54.78446 81.02282
#
# Poissons Ratio (x) = 0.34620 0.11573
# Poissons Ratio (y) = 0.41490 0.50131
# Poissons Ratio (z) = 0.09378 0.33896
#
# Static dielectric constant tensor:
#      x y z
#    x 1.740770 0.000000 0.000000 
#    y 0.000000 1.643480 0.000000 
#    z 0.000000 0.000000 1.696090 
# 
# From -- ./inp_files/26573.got.cif
#   From: 2010.05.17/outbox.cif.g08.bks.cpg/sg48_14_cif.got.tgz:26573.got - 2010.06.03 20:39:00.
