data_PCOD9391348
_publ_section_title
;
Structure prediction by ZEFSAII (Michael W. Deem and Ramdas Pophale) SiO2 
 PCOD9391348
Probable space group: P N N N
;
_chemical_formula_sum "Si O2"
_cell_formula_units_Z 40
_cell_length_a 20.424353
_cell_length_b 8.917237
_cell_length_c 10.540373
_cell_angle_alpha 90.000000
_cell_angle_beta 90.000000
_cell_angle_gamma 90.000000
_cell_volume 1919.705447
_symmetry_space_group_name_H-M "P N N N"
_symmetry_group_IT_number 48
_space_group.IT_coordinate_system_code '2'
_symmetry_cell_setting 'orthorhombic'
loop_
_space_group_symop_operation_xyz
x,y,z
1/2-x,1/2-y,z
x,1/2-y,1/2-z
1/2-x,y,1/2-z
-x,-y,-z
1/2+x,1/2+y,-z
-x,1/2+y,1/2+z
1/2+x,-y,1/2+z
loop_
_atom_site_type_symbol
_atom_site_label
_atom_site_fract_x
_atom_site_fract_y
_atom_site_fract_z
Si Si1 0.116336 0.690880 0.386404
Si Si2 0.750000 0.490582 0.250000
Si Si3 0.026566 0.867464 0.587849
Si Si4 0.750000 0.250000 0.476302
Si Si5 0.438459 0.403228 0.050874
Si Si6 0.895381 0.586869 0.274353
O O1 0.097552 0.750000 0.250000
O O2 0.075426 0.768503 0.501087
O O3 0.188648 0.730880 0.431404
O O4 0.102123 0.514995 0.363435
O O5 0.752842 0.388277 0.376731
O O6 0.819432 0.574866 0.234867
O O7 0.966175 0.751171 0.606272
O O8 0.063781 0.950424 0.706594
O O9 0.000000 0.000000 0.500000
O O10 0.500000 0.500000 0.000000
O O11 0.394607 0.403713 0.925389
O O12 0.926985 0.750000 0.250000
#
# Coordination Sequence:
#
# PCOD9391348 Si02
#       6
#     8   4   8   4   8   8
#     4  11  24  43  63  92 131 181 222 272 331 400
#     4  11  23  40  66 100 131 169 228 292 337 395
#     4  11  24  41  65  98 134 170 220 277 337 405
#     4  11  21  40  68  94 125 171 232 282 328 401
#     4  10  24  39  62  97 131 169 217 274 331 406
#     4  12  23  43  69  97 133 177 222 284 347 405
#
# _framework density 20.836531000000001
#
# number of rings (size 3 to 8) (size 9 to 14) (size 15 to 20)
#    0.000    1.000    6.000    0.600    5.600    3.200 
#    0.000    0.000    0.000    0.000    0.000    5.600 
#    0.000    0.000    0.000    0.000    0.000    0.000 
#
# Total GULP energy -222716.275130 kJ/mol
# GULP energy per Si atom -5567.906878 kJ/mol
# Density = 2.078911 g / cm^3
# Si number density = 20.836531 Si / 1000 Ang^3
#
#
#
# Elastic Constant Matrix: (Units=GPa)
#
#
# Indices 1 2 3 4 5 6 
#
# 1 74.4148 28.5160 0.8460 0.0000 0.0000 0.0000
# 2 28.5160 143.8429 38.3243 0.0000 0.0000 0.0000
# 3 0.8460 38.3243 86.5062 0.0000 0.0000 0.0000
# 4 0.0000 0.0000 0.0000 22.1889 0.0000 0.0000
# 5 0.0000 0.0000 0.0000 0.0000 25.5663 0.0000
# 6 0.0000 0.0000 0.0000 0.0000 0.0000 31.5594
#
#
#
# Elastic Compliance Matrix: (Units=1/GPa)
#
#
# Indices 1 2 3 4 5 6 
#
# 1 0.014670 -0.003254 0.001298 0.000000 0.000000 0.000000
# 2 -0.003254 0.008604 -0.003780 0.000000 0.000000 0.000000
# 3 0.001298 -0.003780 0.013222 0.000000 0.000000 0.000000
# 4 0.000000 0.000000 0.000000 0.045068 0.000000 0.000000
# 5 0.000000 0.000000 0.000000 0.000000 0.039114 0.000000
# 6 0.000000 0.000000 0.000000 0.000000 0.000000 0.031686
#
#
# Mechanical properties :
#
#
# Convention : Reuss Voigt Hill
#
# Bulk Modulus (GPa) = 39.96094 48.90404 44.43249
# Shear Modulus (GPa) = 29.03971 31.66810 30.35391
#
# Velocity S-wave (km/s) = 3.73727 3.90274 3.82090
# Velocity P-wave (km/s) = 6.15165 6.62040 6.39033
#
# Compressibility (1/GPa) = 0.02502443
#
# Stress axis : x y z
#
# Youngs Moduli (GPa) = 68.16426 116.22112 75.63246
#
# Poissons Ratio (x) = 0.37821 -0.09819
# Poissons Ratio (y) = 0.22182 0.28590
# Poissons Ratio (z) = -0.08849 0.43932
#
# Static dielectric constant tensor:
#      x y z
#    x 1.787050 0.000000 0.000000 
#    y 0.000000 1.635140 0.000000 
#    z 0.000000 0.000000 0.899520 
# 
# From -- ./inp_files/22738.got.cif
#   From: 2010.05.17/outbox.cif.g08.bks.cpg/sg48_12_cif.got.tgz:22738.got - 2010.06.03 20:39:00.
