data_PCOD9391919
_publ_section_title
;
Structure prediction by ZEFSAII (Michael W. Deem and Ramdas Pophale) SiO2 
 PCOD9391919
Probable space group: P N N N
;
_chemical_formula_sum "Si O2"
_cell_formula_units_Z 18
_cell_length_a 22.821413
_cell_length_b 5.536323
_cell_length_c 4.677638
_cell_angle_alpha 90.000000
_cell_angle_beta 90.000000
_cell_angle_gamma 90.000000
_cell_volume 591.004189
_symmetry_space_group_name_H-M "P N N N"
_symmetry_group_IT_number 48
_space_group.IT_coordinate_system_code '2'
_symmetry_cell_setting 'orthorhombic'
loop_
_space_group_symop_operation_xyz
x,y,z
1/2-x,1/2-y,z
x,1/2-y,1/2-z
1/2-x,y,1/2-z
-x,-y,-z
1/2+x,1/2+y,-z
-x,1/2+y,1/2+z
1/2+x,-y,1/2+z
loop_
_atom_site_type_symbol
_atom_site_label
_atom_site_fract_x
_atom_site_fract_y
_atom_site_fract_z
Si Si1 0.329853 0.501050 0.629196
Si Si2 0.250000 0.250000 0.250000
Si Si3 0.068561 0.499815 0.425871
O O1 0.304544 0.250000 0.750000
O O2 0.301984 0.457101 0.319403
O O3 0.307920 0.750000 0.750000
O O4 0.394248 0.497363 0.782702
O O5 0.082045 0.750000 0.250000
O O6 0.000000 0.500000 0.500000
O O7 0.079582 0.250000 0.250000
#
# Coordination Sequence:
#
# PCOD9391919 Si02
#       3
#     8   2   8
#     4  12  30  57  89 132 178 245 311 388 460 560
#     4  12  34  62  94 122 196 252 328 384 480 556
#     4  12  26  52  92 137 186 235 304 385 475 567
#
# _framework density 30.456638999999999
#
# number of rings (size 3 to 8) (size 9 to 14) (size 15 to 20)
#    0.000    0.000    0.000    7.333    9.333    5.333 
#    8.000    0.000    0.000    0.000    0.000    0.000 
#    0.000    0.000    0.000    0.000    0.000    0.000 
#
# Total GULP energy -100219.706929 kJ/mol
# GULP energy per Si atom -5567.761496 kJ/mol
# Density = 3.038732 g / cm^3
# Si number density = 30.456639 Si / 1000 Ang^3
#
#
#
# Elastic Constant Matrix: (Units=GPa)
#
#
# Indices 1 2 3 4 5 6 
#
# 1 360.5655 43.4467 81.5130 0.0000 0.0000 0.0000
# 2 43.4467 341.5583 96.7391 0.0000 0.0000 0.0000
# 3 81.5130 96.7391 163.6747 0.0000 0.0000 0.0000
# 4 0.0000 0.0000 0.0000 101.4090 0.0000 0.0000
# 5 0.0000 0.0000 0.0000 0.0000 102.8056 0.0000
# 6 0.0000 0.0000 0.0000 0.0000 0.0000 -39.2637
#
#
#
# Elastic Compliance Matrix: (Units=1/GPa)
#
#
# Indices 1 2 3 4 5 6 
#
# 1 0.003126 0.000052 -0.001588 0.000000 0.000000 0.000000
# 2 0.000052 0.003517 -0.002105 0.000000 0.000000 0.000000
# 3 -0.001588 -0.002105 0.008144 0.000000 0.000000 0.000000
# 4 0.000000 0.000000 0.000000 0.009861 0.000000 0.000000
# 5 0.000000 0.000000 0.000000 0.000000 0.009727 0.000000
# 6 0.000000 0.000000 0.000000 0.000000 0.000000 -0.025469
#
#
# Mechanical properties :
#
#
# Convention : Reuss Voigt Hill
#
# Bulk Modulus (GPa) = 133.20902 145.46620 139.33761
# Shear Modulus (GPa) = 267.52245 75.93015 171.72630
#
# Velocity S-wave (km/s) = 9.38232 4.99847 7.51707
# Velocity P-wave (km/s) = 12.69656 9.00990 11.00866
#
# Compressibility (1/GPa) = 0.00750700
#
# Stress axis : x y z
#
# Youngs Moduli (GPa) = 319.89185 284.31118 122.78481
#
# Poissons Ratio (x) = -0.01479 0.19493
# Poissons Ratio (y) = -0.01664 0.25843
# Poissons Ratio (z) = 0.50785 0.59841
#
# Static dielectric constant tensor:
#      x y z
#    x 2.479230 0.000000 0.000000 
#    y 0.000000 2.326020 0.000000 
#    z 0.000000 0.000000 -2.676990 
# 
# From -- ./inp_files/6100.got.cif
#   From: 2010.05.17/outbox.cif.g08.bks.cpg/sg48_4_cif.got.tgz:6100.got - 2010.06.03 20:39:00.
