data_PCOD9391533
_publ_section_title
;
Structure prediction by ZEFSAII (Michael W. Deem and Ramdas Pophale) SiO2 
 PCOD9391533
Probable space group: P N N N
;
_chemical_formula_sum "Si O2"
_cell_formula_units_Z 40
_cell_length_a 38.895538
_cell_length_b 11.773135
_cell_length_c 5.043321
_cell_angle_alpha 90.000000
_cell_angle_beta 90.000000
_cell_angle_gamma 90.000000
_cell_volume 2309.449756
_symmetry_space_group_name_H-M "P N N N"
_symmetry_group_IT_number 48
_space_group.IT_coordinate_system_code '2'
_symmetry_cell_setting 'orthorhombic'
loop_
_space_group_symop_operation_xyz
x,y,z
1/2-x,1/2-y,z
x,1/2-y,1/2-z
1/2-x,y,1/2-z
-x,-y,-z
1/2+x,1/2+y,-z
-x,1/2+y,1/2+z
1/2+x,-y,1/2+z
loop_
_atom_site_type_symbol
_atom_site_label
_atom_site_fract_x
_atom_site_fract_y
_atom_site_fract_z
Si Si1 0.833261 0.387967 0.746959
Si Si2 0.014099 0.321380 0.495943
Si Si3 0.088319 0.886791 0.248871
Si Si4 0.549423 0.463945 0.239689
Si Si5 0.210485 0.888482 0.741968
O O1 0.834226 0.250000 0.750000
O O2 0.872428 0.422263 0.802105
O O3 0.815314 0.423624 0.475005
O O4 0.807398 0.425047 0.973481
O O5 0.030073 0.250000 0.250000
O O6 0.038993 0.410540 0.643754
O O7 0.983376 0.387482 0.344827
O O8 0.000539 0.250000 0.750000
O O9 0.085536 0.750000 0.250000
O O10 0.061709 0.942292 0.459890
O O11 0.079607 0.923220 0.951683
O O12 0.211541 0.750000 0.750000
O O13 0.250000 0.926641 0.750000
#
# Coordination Sequence:
#
# PCOD9391533 Si02
#       5
#     8   8   8   8   8
#     4   9  17  26  38  58  83 115 152 191 228 260
#     4  11  22  37  53  71  94 117 153 200 240 287
#     4  11  20  32  48  68  96 124 158 199 236 279
#     4  11  22  34  52  72  90 122 157 190 244 291
#     4   9  15  24  37  54  79 113 155 194 222 254
#
# _framework density 17.320143999999999
#
# number of rings (size 3 to 8) (size 9 to 14) (size 15 to 20)
#    0.000    1.800    0.000    6.600    0.000    8.800 
#    0.000    0.000    0.000    0.000    0.000    0.000 
#    0.000    0.000    0.000    0.000    0.000  210.000 
#
# Total GULP energy -222979.041500 kJ/mol
# GULP energy per Si atom -5574.476037 kJ/mol
# Density = 1.728072 g / cm^3
# Si number density = 17.320144 Si / 1000 Ang^3
#
#
#
# Elastic Constant Matrix: (Units=GPa)
#
#
# Indices 1 2 3 4 5 6 
#
# 1 71.7864 10.7533 -5.6425 0.0000 0.0000 0.0000
# 2 10.7533 35.2545 8.7965 0.0000 0.0000 0.0000
# 3 -5.6425 8.7965 71.6648 0.0000 0.0000 0.0000
# 4 0.0000 0.0000 0.0000 16.9768 0.0000 0.0000
# 5 0.0000 0.0000 0.0000 0.0000 42.4128 0.0000
# 6 0.0000 0.0000 0.0000 0.0000 0.0000 6.5225
#
#
#
# Elastic Compliance Matrix: (Units=1/GPa)
#
#
# Indices 1 2 3 4 5 6 
#
# 1 0.014813 -0.004961 0.001775 0.000000 0.000000 0.000000
# 2 -0.004961 0.030923 -0.004186 0.000000 0.000000 0.000000
# 3 0.001775 -0.004186 0.014607 0.000000 0.000000 0.000000
# 4 0.000000 0.000000 0.000000 0.058904 0.000000 0.000000
# 5 0.000000 0.000000 0.000000 0.000000 0.023578 0.000000
# 6 0.000000 0.000000 0.000000 0.000000 0.000000 0.153316
#
#
# Mechanical properties :
#
#
# Convention : Reuss Voigt Hill
#
# Bulk Modulus (GPa) = 21.93033 22.94670 22.43851
# Shear Modulus (GPa) = 15.33343 24.16898 19.75121
#
# Velocity S-wave (km/s) = 2.97862 3.73959 3.38059
# Velocity P-wave (km/s) = 4.95165 5.65008 5.31235
#
# Compressibility (1/GPa) = 0.04559895
#
# Stress axis : x y z
#
# Youngs Moduli (GPa) = 67.50859 32.33844 68.45807
#
# Poissons Ratio (x) = 0.16044 -0.12153
# Poissons Ratio (y) = 0.33492 0.28658
# Poissons Ratio (z) = -0.11985 0.13538
#
# Static dielectric constant tensor:
#      x y z
#    x 1.592790 0.000000 0.000000 
#    y 0.000000 9.074150 0.000000 
#    z 0.000000 0.000000 1.629590 
# 
# From -- ./inp_files/6932.got.cif
#   From: 2010.05.17/outbox.cif.g08.bks.cpg/sg48_4_cif.got.tgz:6932.got - 2010.06.03 20:39:00.
