data_PCOD9391734
_publ_section_title
;
Structure prediction by ZEFSAII (Michael W. Deem and Ramdas Pophale) SiO2 
 PCOD9391734
Probable space group: P N N N
;
_chemical_formula_sum "Si O2"
_cell_formula_units_Z 44
_cell_length_a 9.309290
_cell_length_b 17.051331
_cell_length_c 13.793398
_cell_angle_alpha 90.000000
_cell_angle_beta 90.000000
_cell_angle_gamma 90.000000
_cell_volume 2189.505862
_symmetry_space_group_name_H-M "P N N N"
_symmetry_group_IT_number 48
_space_group.IT_coordinate_system_code '2'
_symmetry_cell_setting 'orthorhombic'
loop_
_space_group_symop_operation_xyz
x,y,z
1/2-x,1/2-y,z
x,1/2-y,1/2-z
1/2-x,y,1/2-z
-x,-y,-z
1/2+x,1/2+y,-z
-x,1/2+y,1/2+z
1/2+x,-y,1/2+z
loop_
_atom_site_type_symbol
_atom_site_label
_atom_site_fract_x
_atom_site_fract_y
_atom_site_fract_z
Si Si1 0.596637 0.630349 0.389951
Si Si2 0.750000 0.750000 0.250000
Si Si3 0.233365 0.839279 0.366076
Si Si4 0.912335 0.010199 0.900512
Si Si5 0.895599 0.028072 0.286927
Si Si6 0.250000 0.250000 0.250000
Si Si7 0.151025 0.384517 0.109937
O O1 0.651335 0.697128 0.318332
O O2 0.424658 0.629740 0.389591
O O3 0.651481 0.548159 0.347636
O O4 0.647293 0.641869 0.498938
O O5 0.250000 0.750000 0.402135
O O6 0.250000 0.837753 0.250000
O O7 0.347192 0.902423 0.402948
O O8 0.782012 0.947619 0.884570
O O9 0.013782 0.998935 0.807002
O O10 0.000000 0.000000 0.000000
O O11 0.750000 0.069259 0.250000
O O12 0.003312 0.075025 0.356187
O O13 0.168354 0.309997 0.179565
#
# Coordination Sequence:
#
# PCOD9391734 Si02
#       7
#     8   2   8   8   8   2   8
#     4  12  25  42  74 103 144 185 238 296 364 426
#     4  12  26  44  66 118 148 178 228 312 368 434
#     4  11  23  42  69 103 145 180 228 295 363 423
#     4  12  25  43  75 105 141 194 245 289 365 444
#     4  12  24  45  71 105 141 183 247 302 350 430
#     4  12  26  52  74  98 150 200 244 300 352 454
#     4  12  26  49  74 102 139 200 244 292 368 438
#
# _framework density 20.095858
#
# number of rings (size 3 to 8) (size 9 to 14) (size 15 to 20)
#    0.000    0.182    6.364    3.273    2.545    1.455 
#    0.000    0.455    0.000    0.000    0.000    0.000 
#    0.000    0.000    0.000    0.000    0.000    0.000 
#
# Total GULP energy -246111.749270 kJ/mol
# GULP energy per Si atom -5593.448847 kJ/mol
# Density = 2.005012 g / cm^3
# Si number density = 20.095858 Si / 1000 Ang^3
#
#
#
# Elastic Constant Matrix: (Units=GPa)
#
#
# Indices 1 2 3 4 5 6 
#
# 1 99.5185 34.5887 32.4241 0.0000 0.0000 0.0000
# 2 34.5887 122.3449 50.5768 0.0000 0.0000 0.0000
# 3 32.4241 50.5768 145.5295 0.0000 0.0000 0.0000
# 4 0.0000 0.0000 0.0000 -1.0782 0.0000 0.0000
# 5 0.0000 0.0000 0.0000 0.0000 -16.3623 0.0000
# 6 0.0000 0.0000 0.0000 0.0000 0.0000 229.4074
#
#
#
# Elastic Compliance Matrix: (Units=1/GPa)
#
#
# Indices 1 2 3 4 5 6 
#
# 1 0.011481 -0.002555 -0.001670 0.000000 0.000000 0.000000
# 2 -0.002555 0.010114 -0.002946 0.000000 0.000000 0.000000
# 3 -0.001670 -0.002946 0.008267 0.000000 0.000000 0.000000
# 4 0.000000 0.000000 0.000000 -0.927498 0.000000 0.000000
# 5 0.000000 0.000000 0.000000 0.000000 -0.061116 0.000000
# 6 0.000000 0.000000 0.000000 0.000000 0.000000 0.004359
#
#
# Mechanical properties :
#
#
# Convention : Reuss Voigt Hill
#
# Bulk Modulus (GPa) = 64.43311 66.95246 65.69279
# Shear Modulus (GPa) = -5.34829 59.04692 26.84932
#
# Velocity S-wave (km/s) = -1.63315 5.42646 3.65918
# Velocity P-wave (km/s) = 5.34568 8.52354 7.11432
#
# Compressibility (1/GPa) = 0.01551997
#
# Stress axis : x y z
#
# Youngs Moduli (GPa) = 87.10358 98.87527 120.96037
#
# Poissons Ratio (x) = 0.25267 0.20198
# Poissons Ratio (y) = 0.22259 0.35629
# Poissons Ratio (z) = 0.14544 0.29124
#
# Static dielectric constant tensor:
#      x y z
#    x 1.750400 0.000000 0.000000 
#    y 0.000000 1.714010 0.000000 
#    z 0.000000 0.000000 1.705070 
# 
# From -- ./inp_files/25350.got.cif
#   From: 2010.05.17/outbox.cif.g08.bks.cpg/sg48_13_cif.got.tgz:25350.got - 2010.06.03 20:39:00.
