data_PCOD9391321
_publ_section_title
;
Structure prediction by ZEFSAII (Michael W. Deem and Ramdas Pophale) SiO2 
 PCOD9391321
Probable space group: P N N N
;
_chemical_formula_sum "Si O2"
_cell_formula_units_Z 64
_cell_length_a 11.220832
_cell_length_b 9.093545
_cell_length_c 29.330495
_cell_angle_alpha 90.000000
_cell_angle_beta 90.000000
_cell_angle_gamma 90.000000
_cell_volume 2992.799846
_symmetry_space_group_name_H-M "P N N N"
_symmetry_group_IT_number 48
_space_group.IT_coordinate_system_code '2'
_symmetry_cell_setting 'orthorhombic'
loop_
_space_group_symop_operation_xyz
x,y,z
1/2-x,1/2-y,z
x,1/2-y,1/2-z
1/2-x,y,1/2-z
-x,-y,-z
1/2+x,1/2+y,-z
-x,1/2+y,1/2+z
1/2+x,-y,1/2+z
loop_
_atom_site_type_symbol
_atom_site_label
_atom_site_fract_x
_atom_site_fract_y
_atom_site_fract_z
Si Si1 0.340009 0.625656 0.127965
Si Si2 0.091078 0.366086 0.505234
Si Si3 0.768373 0.090601 0.530163
Si Si4 0.367989 0.297782 0.156254
Si Si5 0.616960 0.284525 0.303258
Si Si6 0.959150 0.883619 0.568964
Si Si7 0.106171 0.161576 0.888127
Si Si8 0.331437 0.493245 0.628602
O O1 0.250000 0.750000 0.146173
O O2 0.314632 0.617104 0.074059
O O3 0.328408 0.461151 0.144329
O O4 0.477826 0.654456 0.134620
O O5 0.217122 0.444862 0.493977
O O6 0.049447 0.236538 0.471409
O O7 0.095626 0.323371 0.557535
O O8 0.000000 0.500000 0.500000
O O9 0.750000 0.250000 0.505414
O O10 0.894502 0.033025 0.550776
O O11 0.250000 0.250000 0.183655
O O12 0.497043 0.292491 0.179402
O O13 0.388177 0.195419 0.110938
O O14 0.750000 0.250000 0.322451
O O15 0.621973 0.250000 0.250000
O O16 0.613865 0.448500 0.323807
O O17 0.089934 0.925287 0.589249
O O18 0.187627 0.016890 0.878161
O O19 0.148102 0.320793 0.873016
#
# Coordination Sequence:
#
# PCOD9391321 Si02
#       8
#     8   8   8   8   8   8   8   8
#     4  11  21  38  64  90 126 177 227 270 336 404
#     4  12  24  39  56  87 134 178 239 293 335 390
#     4  11  22  37  59  84 120 177 234 281 332 392
#     4  11  20  38  67 103 131 173 225 273 340 409
#     4  10  23  44  74 104 134 172 216 277 352 445
#     4  11  22  40  62  89 129 184 229 281 340 399
#     4  11  24  42  59  97 131 179 234 290 333 400
#     4  10  24  42  67  94 132 174 228 284 349 407
#
# _framework density 21.384656
#
# number of rings (size 3 to 8) (size 9 to 14) (size 15 to 20)
#    0.000    1.125    3.750    2.625    5.250    2.750 
#    0.000    0.000    0.000   12.750    0.000    0.000 
#    0.000    0.000    0.000    0.000    0.000    0.000 
#
# Total GULP energy -356427.414403 kJ/mol
# GULP energy per Si atom -5569.178350 kJ/mol
# Density = 2.133598 g / cm^3
# Si number density = 21.384656 Si / 1000 Ang^3
#
#
#
# Elastic Constant Matrix: (Units=GPa)
#
#
# Indices 1 2 3 4 5 6 
#
# 1 152.2018 55.9654 25.9616 0.0000 0.0000 0.0000
# 2 55.9654 134.7521 40.8133 0.0000 0.0000 0.0000
# 3 25.9616 40.8133 63.5593 0.0000 0.0000 0.0000
# 4 0.0000 0.0000 0.0000 5.9878 0.0000 0.0000
# 5 0.0000 0.0000 0.0000 0.0000 17.4901 0.0000
# 6 0.0000 0.0000 0.0000 0.0000 0.0000 41.5091
#
#
#
# Elastic Compliance Matrix: (Units=1/GPa)
#
#
# Indices 1 2 3 4 5 6 
#
# 1 0.007851 -0.002842 -0.001382 0.000000 0.000000 0.000000
# 2 -0.002842 0.010242 -0.005416 0.000000 0.000000 0.000000
# 3 -0.001382 -0.005416 0.019775 0.000000 0.000000 0.000000
# 4 0.000000 0.000000 0.000000 0.167007 0.000000 0.000000
# 5 0.000000 0.000000 0.000000 0.000000 0.057175 0.000000
# 6 0.000000 0.000000 0.000000 0.000000 0.000000 0.024091
#
#
# Mechanical properties :
#
#
# Convention : Reuss Voigt Hill
#
# Bulk Modulus (GPa) = 53.79565 66.22155 60.00860
# Shear Modulus (GPa) = 16.04538 28.18226 22.11382
#
# Velocity S-wave (km/s) = 2.74217 3.63419 3.21923
# Velocity P-wave (km/s) = 5.93606 6.97452 6.47614
#
# Compressibility (1/GPa) = 0.01858886
#
# Stress axis : x y z
#
# Youngs Moduli (GPa) = 127.37222 97.63991 50.56820
#
# Poissons Ratio (x) = 0.27751 0.06987
# Poissons Ratio (y) = 0.36201 0.27386
# Poissons Ratio (z) = 0.17600 0.52878
#
# Static dielectric constant tensor:
#      x y z
#    x 2.090630 0.000000 0.000000 
#    y 0.000000 1.745250 0.000000 
#    z 0.000000 0.000000 1.767090 
# 
# From -- ./inp_files/38987.got.cif
#   From: 2010.05.17/outbox.cif.g08.bks.cpg/sg48_20_cif.got.tgz:38987.got - 2010.06.03 20:39:00.
