data_PCOD9391394
_publ_section_title
;
Structure prediction by ZEFSAII (Michael W. Deem and Ramdas Pophale) SiO2 
 PCOD9391394
Probable space group: P N N N
;
_chemical_formula_sum "Si O2"
_cell_formula_units_Z 30
_cell_length_a 5.539345
_cell_length_b 29.674421
_cell_length_c 8.453225
_cell_angle_alpha 90.000000
_cell_angle_beta 90.000000
_cell_angle_gamma 90.000000
_cell_volume 1389.514545
_symmetry_space_group_name_H-M "P N N N"
_symmetry_group_IT_number 48
_space_group.IT_coordinate_system_code '2'
_symmetry_cell_setting 'orthorhombic'
loop_
_space_group_symop_operation_xyz
x,y,z
1/2-x,1/2-y,z
x,1/2-y,1/2-z
1/2-x,y,1/2-z
-x,-y,-z
1/2+x,1/2+y,-z
-x,1/2+y,1/2+z
1/2+x,-y,1/2+z
loop_
_atom_site_type_symbol
_atom_site_label
_atom_site_fract_x
_atom_site_fract_y
_atom_site_fract_z
Si Si1 0.411546 0.293540 0.492044
Si Si2 0.248870 0.021747 0.937167
Si Si3 0.356141 0.380908 0.071582
Si Si4 0.250000 0.839187 0.750000
Si Si5 0.250000 0.750000 0.250000
O O1 0.250000 0.250000 0.464070
O O2 0.246580 0.337373 0.518343
O O3 0.561004 0.307018 0.336535
O O4 0.585627 0.280773 0.636488
O O5 0.250000 0.016595 0.750000
O O6 0.221098 0.073933 0.985643
O O7 0.500000 0.000000 0.000000
O O8 0.000000 0.000000 0.000000
O O9 0.250000 0.383529 0.250000
O O10 0.634964 0.370400 0.112864
#
# Coordination Sequence:
#
# PCOD9391394 Si02
#       5
#     8   8   8   4   2
#     4  11  25  43  66 100 140 186 240 294 362 437
#     4  12  28  50  79 113 152 197 251 312 381 453
#     4  10  24  44  71 103 142 184 243 298 373 444
#     4  10  24  43  72 100 140 184 236 300 369 450
#     4  12  26  42  64  90 148 186 246 296 364 428
#
# _framework density 21.590277
#
# number of rings (size 3 to 8) (size 9 to 14) (size 15 to 20)
#    0.000    1.067    0.000    4.400    9.333   17.067 
#    0.000    0.000    0.000    0.000    0.000    0.000 
#    0.000    0.000    0.000    0.000    0.000    0.000 
#
# Total GULP energy -167786.399238 kJ/mol
# GULP energy per Si atom -5592.879975 kJ/mol
# Density = 2.154114 g / cm^3
# Si number density = 21.590277 Si / 1000 Ang^3
#
#
#
# Elastic Constant Matrix: (Units=GPa)
#
#
# Indices 1 2 3 4 5 6 
#
# 1 155.3057 98.9424 66.8892 0.0000 0.0000 0.0000
# 2 98.9424 195.8453 62.3342 0.0000 0.0000 0.0000
# 3 66.8892 62.3342 138.4936 0.0000 0.0000 0.0000
# 4 0.0000 0.0000 0.0000 33.3714 0.0000 0.0000
# 5 0.0000 0.0000 0.0000 0.0000 31.8209 0.0000
# 6 0.0000 0.0000 0.0000 0.0000 0.0000 22.2585
#
#
#
# Elastic Compliance Matrix: (Units=1/GPa)
#
#
# Indices 1 2 3 4 5 6 
#
# 1 0.010553 -0.004329 -0.003148 0.000000 0.000000 0.000000
# 2 -0.004329 0.007736 -0.001391 0.000000 0.000000 0.000000
# 3 -0.003148 -0.001391 0.009367 0.000000 0.000000 0.000000
# 4 0.000000 0.000000 0.000000 0.029966 0.000000 0.000000
# 5 0.000000 0.000000 0.000000 0.000000 0.031426 0.000000
# 6 0.000000 0.000000 0.000000 0.000000 0.000000 0.044927
#
#
# Mechanical properties :
#
#
# Convention : Reuss Voigt Hill
#
# Bulk Modulus (GPa) = 100.81610 105.10846 102.96228
# Shear Modulus (GPa) = 32.25433 34.92209 33.58821
#
# Velocity S-wave (km/s) = 3.86933 4.02617 3.94853
# Velocity P-wave (km/s) = 8.17061 8.39061 8.28134
#
# Compressibility (1/GPa) = 0.00991905
#
# Stress axis : x y z
#
# Youngs Moduli (GPa) = 94.75932 129.26539 106.75672
#
# Poissons Ratio (x) = 0.55965 0.33610
# Poissons Ratio (y) = 0.41025 0.14848
# Poissons Ratio (z) = 0.29833 0.17979
#
# Static dielectric constant tensor:
#      x y z
#    x 1.927190 0.000000 0.000000 
#    y 0.000000 1.636940 0.000000 
#    z 0.000000 0.000000 1.753820 
# 
# From -- ./inp_files/1060.got.cif
#   From: 2010.05.17/outbox.cif.g08.bks.cpg/sg48_1_cif.got.tgz:1060.got - 2010.06.03 20:39:00.
