data_PCOD9391990
_publ_section_title
;
Structure prediction by ZEFSAII (Michael W. Deem and Ramdas Pophale) SiO2 
 PCOD9391990
Probable space group: P C C M
;
_chemical_formula_sum "Si O2"
_cell_formula_units_Z 32
_cell_length_a 29.871851
_cell_length_b 9.041609
_cell_length_c 5.590126
_cell_angle_alpha 90.000000
_cell_angle_beta 90.000000
_cell_angle_gamma 90.000000
_cell_volume 1509.834878
_symmetry_space_group_name_H-M "P C C M"
_symmetry_group_IT_number 49
_symmetry_cell_setting 'orthorhombic'
loop_
_space_group_symop_operation_xyz
x,y,z
-x,-y,z
x,-y,1/2-z
-x,y,1/2-z
-x,-y,-z
x,y,-z
-x,y,1/2+z
x,-y,1/2+z
loop_
_atom_site_type_symbol
_atom_site_label
_atom_site_fract_x
_atom_site_fract_y
_atom_site_fract_z
Si Si1 0.689501 0.014200 0.500000
Si Si2 0.616626 0.739181 0.000000
Si Si3 0.643860 0.292098 0.000000
Si Si4 0.124940 0.663623 0.500000
Si Si5 0.159928 0.680331 0.000000
Si Si6 0.744303 0.587957 0.500000
Si Si7 0.482469 0.831794 0.500000
Si Si8 0.982077 0.331309 0.500000
O O1 0.650750 0.887164 0.500000
O O2 0.714721 0.000000 0.750000
O O3 0.662825 0.167251 0.500000
O O4 0.619393 0.662482 0.257210
O O5 0.571111 0.831424 0.000000
O O6 0.694654 0.347702 0.000000
O O7 0.140687 0.736344 0.251577
O O8 0.146066 0.496403 0.500000
O O9 0.071419 0.657562 0.500000
O O10 0.213342 0.695793 0.000000
O O11 0.748721 0.500000 0.250000
O O12 0.500000 0.763565 0.750000
O O13 0.500000 0.000000 0.500000
O O14 0.000000 0.500000 0.500000
O O15 0.000000 0.263851 0.750000
#
# Coordination Sequence:
#
# PCOD9391990 Si02
#       8
#     4   4   4   4   4   4   4   4
#     4   8  16  27  47  62  89 124 141 164 202 261
#     4  10  19  34  48  70 106 126 143 165 211 268
#     4  10  21  31  50  67  89 131 150 179 224 275
#     4  10  16  25  38  53  69 107 138 166 246 281
#     4  10  16  27  39  54  70 103 134 188 227 284
#     4  12  21  35  48  66  90 110 158 207 247 255
#     4  10  21  27  46  75 102 136 139 157 194 254
#     4  10  16  22  31  49  73  95 127 176 215 271
#
# _framework density 21.194369999999999
#
# number of rings (size 3 to 8) (size 9 to 14) (size 15 to 20)
#    0.000    2.000    2.500    5.250   10.500    0.000 
#    0.000    0.000    0.000    0.000    0.000    0.000 
#    0.000   35.000    0.000    0.000    0.000    0.000 
#
# Total GULP energy -178297.098290 kJ/mol
# GULP energy per Si atom -5571.784322 kJ/mol
# Density = 2.114613 g / cm^3
# Si number density = 21.194370 Si / 1000 Ang^3
#
#
#
# Elastic Constant Matrix: (Units=GPa)
#
#
# Indices 1 2 3 4 5 6 
#
# 1 135.8827 -7.3629 56.6893 0.0000 0.0000 0.0000
# 2 -7.3629 20.6567 7.5509 0.0000 0.0000 0.0000
# 3 56.6893 7.5509 282.3559 0.0000 0.0000 0.0000
# 4 0.0000 0.0000 0.0000 -13.0792 0.0000 0.0000
# 5 0.0000 0.0000 0.0000 0.0000 66.2330 0.0000
# 6 0.0000 0.0000 0.0000 0.0000 0.0000 -29.5030
#
#
#
# Elastic Compliance Matrix: (Units=1/GPa)
#
#
# Indices 1 2 3 4 5 6 
#
# 1 0.008289 0.003598 -0.001760 0.000000 0.000000 0.000000
# 2 0.003598 0.050450 -0.002072 0.000000 0.000000 0.000000
# 3 -0.001760 -0.002072 0.003950 0.000000 0.000000 0.000000
# 4 0.000000 0.000000 0.000000 -0.076457 0.000000 0.000000
# 5 0.000000 0.000000 0.000000 0.000000 0.015098 0.000000
# 6 0.000000 0.000000 0.000000 0.000000 0.000000 -0.033895
#
#
# Mechanical properties :
#
#
# Convention : Reuss Voigt Hill
#
# Bulk Modulus (GPa) = 16.07165 61.40552 38.73858
# Shear Modulus (GPa) = -440.27631 30.19804 -205.03913
#
# Velocity S-wave (km/s) = -14.42857 3.77877 -9.84644
# Velocity P-wave (km/s) = 16.43103 6.93356 10.53339
#
# Compressibility (1/GPa) = 0.06222138
#
# Stress axis : x y z
#
# Youngs Moduli (GPa) = 120.64685 19.82154 253.13530
#
# Poissons Ratio (x) = -0.07132 0.44561
# Poissons Ratio (y) = -0.43408 0.52438
# Poissons Ratio (z) = 0.21238 0.04106
#
# Static dielectric constant tensor:
#      x y z
#    x 1.700720 0.000000 0.000000 
#    y 0.000000 1.766330 0.000000 
#    z 0.000000 0.000000 1.943890 
# 
# From -- ./inp_files/655.got.cif
#   From: 2010.05.17/outbox.cif.g08.bks.cpg/sg49_1_cif.got.tgz:655.got - 2010.06.03 21:02:19.
