data_PCOD9391334
_publ_section_title
;
Structure prediction by ZEFSAII (Michael W. Deem and Ramdas Pophale) SiO2 
 PCOD9391334
Probable space group: P N N N
;
_chemical_formula_sum "Si O2"
_cell_formula_units_Z 18
_cell_length_a 7.797370
_cell_length_b 11.220818
_cell_length_c 8.553323
_cell_angle_alpha 90.000000
_cell_angle_beta 90.000000
_cell_angle_gamma 90.000000
_cell_volume 748.354774
_symmetry_space_group_name_H-M "P N N N"
_symmetry_group_IT_number 48
_space_group.IT_coordinate_system_code '2'
_symmetry_cell_setting 'orthorhombic'
loop_
_space_group_symop_operation_xyz
x,y,z
1/2-x,1/2-y,z
x,1/2-y,1/2-z
1/2-x,y,1/2-z
-x,-y,-z
1/2+x,1/2+y,-z
-x,1/2+y,1/2+z
1/2+x,-y,1/2+z
loop_
_atom_site_type_symbol
_atom_site_label
_atom_site_fract_x
_atom_site_fract_y
_atom_site_fract_z
Si Si1 0.250000 0.250000 0.750000
Si Si2 0.250000 0.750000 0.490437
Si Si3 0.250000 0.554004 0.250000
Si Si4 0.396420 0.155693 0.448046
O O1 0.362152 0.164710 0.636113
O O2 0.324704 0.644606 0.379379
O O3 0.411569 0.801225 0.580734
O O4 0.136695 0.465657 0.356201
O O5 0.250000 0.250000 0.401069
#
# Coordination Sequence:
#
# PCOD9391334 Si02
#       4
#     2   4   4   8
#     4   8  20  40  72  90 142 182 212 290 350 382
#     4  11  24  44  71 105 142 185 230 281 358 407
#     4  11  23  44  76 102 143 181 236 290 334 425
#     4  10  23  46  68 102 142 183 229 291 346 407
#
# _framework density 24.052762000000001
#
# number of rings (size 3 to 8) (size 9 to 14) (size 15 to 20)
#    1.333    0.444    0.000    4.667    0.000    1.778 
#    0.000    4.444    0.000    4.000    0.000    0.000 
#    0.000    0.000    0.000    0.000    0.000    0.000 
#
# Total GULP energy -100355.634711 kJ/mol
# GULP energy per Si atom -5575.313040 kJ/mol
# Density = 2.399802 g / cm^3
# Si number density = 24.052762 Si / 1000 Ang^3
#
#
#
# Elastic Constant Matrix: (Units=GPa)
#
#
# Indices 1 2 3 4 5 6 
#
# 1 147.8510 70.6095 51.8067 0.0000 0.0000 0.0000
# 2 70.6095 180.3958 61.3179 0.0000 0.0000 0.0000
# 3 51.8067 61.3179 138.2781 0.0000 0.0000 0.0000
# 4 0.0000 0.0000 0.0000 -34.3940 0.0000 0.0000
# 5 0.0000 0.0000 0.0000 0.0000 157.3435 0.0000
# 6 0.0000 0.0000 0.0000 0.0000 0.0000 37.3088
#
#
#
# Elastic Compliance Matrix: (Units=1/GPa)
#
#
# Indices 1 2 3 4 5 6 
#
# 1 0.008801 -0.002736 -0.002084 0.000000 0.000000 0.000000
# 2 -0.002736 0.007378 -0.002247 0.000000 0.000000 0.000000
# 3 -0.002084 -0.002247 0.009009 0.000000 0.000000 0.000000
# 4 0.000000 0.000000 0.000000 -0.029075 0.000000 0.000000
# 5 0.000000 0.000000 0.000000 0.000000 0.006356 0.000000
# 6 0.000000 0.000000 0.000000 0.000000 0.000000 0.026803
#
#
# Mechanical properties :
#
#
# Convention : Reuss Voigt Hill
#
# Bulk Modulus (GPa) = 90.46524 92.66590 91.56557
# Shear Modulus (GPa) = 106.18154 50.90438 78.54296
#
# Velocity S-wave (km/s) = 6.65140 4.60539 5.72061
# Velocity P-wave (km/s) = 9.83265 8.17858 9.04351
#
# Compressibility (1/GPa) = 0.01105397
#
# Stress axis : x y z
#
# Youngs Moduli (GPa) = 113.62965 135.53759 111.00405
#
# Poissons Ratio (x) = 0.37088 0.23130
# Poissons Ratio (y) = 0.31093 0.24937
# Poissons Ratio (z) = 0.23678 0.30449
#
# Static dielectric constant tensor:
#      x y z
#    x 1.993380 0.000000 0.000000 
#    y 0.000000 1.834040 0.000000 
#    z 0.000000 0.000000 2.025310 
# 
# From -- ./inp_files/7860.got.cif
#   From: 2010.05.17/outbox.cif.g08.bks.cpg/sg48_4_cif.got.tgz:7860.got - 2010.06.03 20:39:00.
