data_PCOD9391044
_publ_section_title
;
Structure prediction by ZEFSAII (Michael W. Deem and Ramdas Pophale) SiO2 
 PCOD9391044
Probable space group: P N N N
;
_chemical_formula_sum "Si O2"
_cell_formula_units_Z 28
_cell_length_a 5.206884
_cell_length_b 15.131044
_cell_length_c 15.859473
_cell_angle_alpha 90.000000
_cell_angle_beta 90.000000
_cell_angle_gamma 90.000000
_cell_volume 1249.497952
_symmetry_space_group_name_H-M "P N N N"
_symmetry_group_IT_number 48
_space_group.IT_coordinate_system_code '2'
_symmetry_cell_setting 'orthorhombic'
loop_
_space_group_symop_operation_xyz
x,y,z
1/2-x,1/2-y,z
x,1/2-y,1/2-z
1/2-x,y,1/2-z
-x,-y,-z
1/2+x,1/2+y,-z
-x,1/2+y,1/2+z
1/2+x,-y,1/2+z
loop_
_atom_site_type_symbol
_atom_site_label
_atom_site_fract_x
_atom_site_fract_y
_atom_site_fract_z
Si Si1 0.292798 0.644435 0.984640
Si Si2 0.214432 0.355865 0.925650
Si Si3 0.250000 0.437171 0.750000
Si Si4 0.505753 0.111133 0.297787
O O1 0.250000 0.750000 0.990682
O O2 0.504602 0.609356 0.049729
O O3 0.008894 0.611167 0.010710
O O4 0.428855 0.627758 0.895005
O O5 0.250000 0.250000 0.931991
O O6 0.155666 0.381713 0.829759
O O7 0.034090 0.506060 0.718607
O O8 0.750000 0.150949 0.250000
O O9 0.250000 0.141713 0.250000
#
# Coordination Sequence:
#
# PCOD9391044 Si02
#       4
#     8   8   4   8
#     4  10  22  41  62  87 118 157 204 249 302 355
#     4  10  22  39  63  88 117 158 203 255 297 351
#     4  10  25  38  61  88 126 156 204 240 309 360
#     4  10  23  40  58  92 121 158 197 242 306 357
#
# _framework density 22.408999000000001
#
# number of rings (size 3 to 8) (size 9 to 14) (size 15 to 20)
#    0.857    1.143    0.000    2.143    4.000    2.857 
#    0.000    5.714    0.000    0.000    0.000    0.000 
#    0.000    0.000    0.000    0.000    0.000    0.000 
#
# Total GULP energy -155950.179958 kJ/mol
# GULP energy per Si atom -5569.649284 kJ/mol
# Density = 2.235799 g / cm^3
# Si number density = 22.408999 Si / 1000 Ang^3
#
#
#
# Elastic Constant Matrix: (Units=GPa)
#
#
# Indices 1 2 3 4 5 6 
#
# 1 182.7721 34.1951 62.2837 0.0000 0.0000 0.0000
# 2 34.1951 39.3864 13.1633 0.0000 0.0000 0.0000
# 3 62.2837 13.1633 133.9156 0.0000 0.0000 0.0000
# 4 0.0000 0.0000 0.0000 29.3882 0.0000 0.0000
# 5 0.0000 0.0000 0.0000 0.0000 27.6424 0.0000
# 6 0.0000 0.0000 0.0000 0.0000 0.0000 2.0020
#
#
#
# Elastic Compliance Matrix: (Units=1/GPa)
#
#
# Indices 1 2 3 4 5 6 
#
# 1 0.007512 -0.005536 -0.002950 0.000000 0.000000 0.000000
# 2 -0.005536 0.030332 -0.000407 0.000000 0.000000 0.000000
# 3 -0.002950 -0.000407 0.008879 0.000000 0.000000 0.000000
# 4 0.000000 0.000000 0.000000 0.034027 0.000000 0.000000
# 5 0.000000 0.000000 0.000000 0.000000 0.036176 0.000000
# 6 0.000000 0.000000 0.000000 0.000000 0.000000 0.499508
#
#
# Mechanical properties :
#
#
# Convention : Reuss Voigt Hill
#
# Bulk Modulus (GPa) = 34.55633 63.92869 49.24251
# Shear Modulus (GPa) = 7.76559 28.23533 18.00046
#
# Velocity S-wave (km/s) = 1.86358 3.55350 2.83728
# Velocity P-wave (km/s) = 4.48160 6.73992 5.72326
#
# Compressibility (1/GPa) = 0.02893825
#
# Stress axis : x y z
#
# Youngs Moduli (GPa) = 133.11541 32.96857 112.62185
#
# Poissons Ratio (x) = 0.18252 0.33221
# Poissons Ratio (y) = 0.73697 0.04579
# Poissons Ratio (z) = 0.39266 0.01340
#
# Static dielectric constant tensor:
#      x y z
#    x 1.822410 0.000000 0.000000 
#    y 0.000000 1.845050 0.000000 
#    z 0.000000 0.000000 1.670760 
# 
# From -- ./inp_files/2903.got.cif
#   From: 2010.05.17/outbox.cif.g08.bks.cpg/sg48_2_cif.got.tgz:2903.got - 2010.06.03 20:39:00.
