data_PCOD9391649
_publ_section_title
;
Structure prediction by ZEFSAII (Michael W. Deem and Ramdas Pophale) SiO2 
 PCOD9391649
Probable space group: P N N N
;
_chemical_formula_sum "Si O2"
_cell_formula_units_Z 48
_cell_length_a 11.662184
_cell_length_b 7.630630
_cell_length_c 28.676818
_cell_angle_alpha 90.000000
_cell_angle_beta 90.000000
_cell_angle_gamma 90.000000
_cell_volume 2551.944617
_symmetry_space_group_name_H-M "P N N N"
_symmetry_group_IT_number 48
_space_group.IT_coordinate_system_code '2'
_symmetry_cell_setting 'orthorhombic'
loop_
_space_group_symop_operation_xyz
x,y,z
1/2-x,1/2-y,z
x,1/2-y,1/2-z
1/2-x,y,1/2-z
-x,-y,-z
1/2+x,1/2+y,-z
-x,1/2+y,1/2+z
1/2+x,-y,1/2+z
loop_
_atom_site_type_symbol
_atom_site_label
_atom_site_fract_x
_atom_site_fract_y
_atom_site_fract_z
Si Si1 0.195105 0.934595 0.001468
Si Si2 0.390188 0.537076 0.154269
Si Si3 0.000237 0.476372 0.437163
Si Si4 0.373225 0.540321 0.356887
Si Si5 0.388991 0.547419 0.254901
Si Si6 0.923588 0.915635 0.540972
O O1 0.250000 0.750000 0.987532
O O2 0.123626 0.014067 0.958549
O O3 0.098123 0.899206 0.040806
O O4 0.293944 0.051953 0.023667
O O5 0.484258 0.480508 0.117401
O O6 0.380002 0.749190 0.150645
O O7 0.260475 0.480283 0.140752
O O8 0.423167 0.467897 0.205371
O O9 0.038980 0.285102 0.454605
O O10 0.417731 0.474340 0.306056
O O11 0.430987 0.491268 0.405999
O O12 0.427517 0.750000 0.250000
O O13 0.250000 0.549928 0.250000
O O14 0.000000 0.000000 0.500000
#
# Coordination Sequence:
#
# PCOD9391649 Si02
#       6
#     8   8   8   8   8   8
#     4  11  22  39  52  71 105 144 180 218 258 314
#     4   9  16  30  51  74 101 137 174 210 257 315
#     4  11  23  34  55  76 103 144 181 215 268 310
#     4   9  17  29  49  73 107 138 168 211 258 310
#     4   7  12  25  46  72  98 133 170 204 254 314
#     4  12  23  35  52  76 110 142 174 218 258 310
#
# _framework density 18.809186
#
# number of rings (size 3 to 8) (size 9 to 14) (size 15 to 20)
#    0.000    2.167    3.333    3.500    2.333    0.000 
#    0.000    0.833    0.000    3.000    0.000    1.167 
#    0.000    4.000    0.000    0.000    0.000    0.000 
#
# Total GULP energy -267362.036747 kJ/mol
# GULP energy per Si atom -5570.042432 kJ/mol
# Density = 1.876638 g / cm^3
# Si number density = 18.809186 Si / 1000 Ang^3
#
#
#
# Elastic Constant Matrix: (Units=GPa)
#
#
# Indices 1 2 3 4 5 6 
#
# 1 52.4931 10.0610 46.0363 0.0000 0.0000 0.0000
# 2 10.0610 36.1062 15.2720 0.0000 0.0000 0.0000
# 3 46.0363 15.2720 207.5874 0.0000 0.0000 0.0000
# 4 0.0000 0.0000 0.0000 18.1337 0.0000 0.0000
# 5 0.0000 0.0000 0.0000 0.0000 29.1757 0.0000
# 6 0.0000 0.0000 0.0000 0.0000 0.0000 15.5849
#
#
#
# Elastic Compliance Matrix: (Units=1/GPa)
#
#
# Indices 1 2 3 4 5 6 
#
# 1 0.024384 -0.004652 -0.005065 0.000000 0.000000 0.000000
# 2 -0.004652 0.029473 -0.001137 0.000000 0.000000 0.000000
# 3 -0.005065 -0.001137 0.006024 0.000000 0.000000 0.000000
# 4 0.000000 0.000000 0.000000 0.055146 0.000000 0.000000
# 5 0.000000 0.000000 0.000000 0.000000 0.034275 0.000000
# 6 0.000000 0.000000 0.000000 0.000000 0.000000 0.064165
#
#
# Mechanical properties :
#
#
# Convention : Reuss Voigt Hill
#
# Bulk Modulus (GPa) = 26.19637 48.76950 37.48293
# Shear Modulus (GPa) = 20.16945 27.56669 23.86807
#
# Velocity S-wave (km/s) = 3.27818 3.83246 3.56611
# Velocity P-wave (km/s) = 5.31849 6.75045 6.07679
#
# Compressibility (1/GPa) = 0.03817322
#
# Stress axis : x y z
#
# Youngs Moduli (GPa) = 41.01039 33.92917 165.99696
#
# Poissons Ratio (x) = 0.15784 0.84084
# Poissons Ratio (y) = 0.19079 0.18867
# Poissons Ratio (z) = 0.20773 0.03856
#
# Static dielectric constant tensor:
#      x y z
#    x 1.632300 0.000000 0.000000 
#    y 0.000000 1.734410 0.000000 
#    z 0.000000 0.000000 1.737570 
# 
# From -- ./inp_files/11360.got.cif
#   From: 2010.05.17/outbox.cif.g08.bks.cpg/sg48_6_cif.got.tgz:11360.got - 2010.06.03 20:39:00.
