data_PCOD9391420
_publ_section_title
;
Structure prediction by ZEFSAII (Michael W. Deem and Ramdas Pophale) SiO2 
 PCOD9391420
Probable space group: P N N N
;
_chemical_formula_sum "Si O2"
_cell_formula_units_Z 18
_cell_length_a 7.252381
_cell_length_b 11.637517
_cell_length_c 9.816066
_cell_angle_alpha 90.000000
_cell_angle_beta 90.000000
_cell_angle_gamma 90.000000
_cell_volume 828.473096
_symmetry_space_group_name_H-M "P N N N"
_symmetry_group_IT_number 48
_space_group.IT_coordinate_system_code '2'
_symmetry_cell_setting 'orthorhombic'
loop_
_space_group_symop_operation_xyz
x,y,z
1/2-x,1/2-y,z
x,1/2-y,1/2-z
1/2-x,y,1/2-z
-x,-y,-z
1/2+x,1/2+y,-z
-x,1/2+y,1/2+z
1/2+x,-y,1/2+z
loop_
_atom_site_type_symbol
_atom_site_label
_atom_site_fract_x
_atom_site_fract_y
_atom_site_fract_z
Si Si1 0.431036 0.864720 0.832286
Si Si2 0.250000 0.250000 0.750000
Si Si3 0.408764 0.609216 0.358220
O O1 0.495319 0.750000 0.750000
O O2 0.250000 0.901981 0.750000
O O3 0.568460 0.971535 0.844189
O O4 0.367802 0.851080 0.988598
O O5 0.393433 0.331892 0.671396
O O6 0.250000 0.637398 0.250000
#
# Coordination Sequence:
#
# PCOD9391420 Si02
#       3
#     8   2   8
#     4  10  24  46  70 108 143 182 248 298 358 437
#     4  12  26  44  64 110 140 192 240 298 352 446
#     4  11  26  46  74 102 146 195 236 303 365 431
#
# _framework density 21.726714999999999
#
# number of rings (size 3 to 8) (size 9 to 14) (size 15 to 20)
#    0.000    1.333    2.222    0.667   12.444    9.778 
#    0.000    0.000    0.000    0.000    0.000    0.000 
#    0.000    0.000    0.000    0.000    0.000    0.000 
#
# Total GULP energy -100324.821447 kJ/mol
# GULP energy per Si atom -5573.601191 kJ/mol
# Density = 2.167726 g / cm^3
# Si number density = 21.726715 Si / 1000 Ang^3
#
#
#
# Elastic Constant Matrix: (Units=GPa)
#
#
# Indices 1 2 3 4 5 6 
#
# 1 105.7754 30.2999 88.9056 0.0000 0.0000 0.0000
# 2 30.2999 193.3116 74.7906 0.0000 0.0000 0.0000
# 3 88.9056 74.7906 240.7071 0.0000 0.0000 0.0000
# 4 0.0000 0.0000 0.0000 31.9257 0.0000 0.0000
# 5 0.0000 0.0000 0.0000 0.0000 25.7924 0.0000
# 6 0.0000 0.0000 0.0000 0.0000 0.0000 50.1464
#
#
#
# Elastic Compliance Matrix: (Units=1/GPa)
#
#
# Indices 1 2 3 4 5 6 
#
# 1 0.013718 -0.000216 -0.005000 0.000000 0.000000 0.000000
# 2 -0.000216 0.005883 -0.001748 0.000000 0.000000 0.000000
# 3 -0.005000 -0.001748 0.006544 0.000000 0.000000 0.000000
# 4 0.000000 0.000000 0.000000 0.031323 0.000000 0.000000
# 5 0.000000 0.000000 0.000000 0.000000 0.038771 0.000000
# 6 0.000000 0.000000 0.000000 0.000000 0.000000 0.019942
#
#
# Mechanical properties :
#
#
# Convention : Reuss Voigt Hill
#
# Bulk Modulus (GPa) = 81.84670 103.08736 92.46703
# Shear Modulus (GPa) = 37.26291 44.62608 40.94450
#
# Velocity S-wave (km/s) = 4.14584 4.53699 4.34582
# Velocity P-wave (km/s) = 7.78910 8.66003 8.23608
#
# Compressibility (1/GPa) = 0.01221796
#
# Stress axis : x y z
#
# Youngs Moduli (GPa) = 72.89583 169.97507 152.80445
#
# Poissons Ratio (x) = 0.03669 0.76399
# Poissons Ratio (y) = 0.01573 0.26714
# Poissons Ratio (z) = 0.36446 0.29716
#
# Static dielectric constant tensor:
#      x y z
#    x 1.739060 0.000000 0.000000 
#    y 0.000000 1.897200 0.000000 
#    z 0.000000 0.000000 1.102700 
# 
# From -- ./inp_files/7752.got.cif
#   From: 2010.05.17/outbox.cif.g08.bks.cpg/sg48_4_cif.got.tgz:7752.got - 2010.06.03 20:39:00.
