data_PCOD9391716
_publ_section_title
;
Structure prediction by ZEFSAII (Michael W. Deem and Ramdas Pophale) SiO2 
 PCOD9391716
Probable space group: P N N N
;
_chemical_formula_sum "Si O2"
_cell_formula_units_Z 24
_cell_length_a 4.878178
_cell_length_b 25.933746
_cell_length_c 8.879723
_cell_angle_alpha 90.000000
_cell_angle_beta 90.000000
_cell_angle_gamma 90.000000
_cell_volume 1123.368688
_symmetry_space_group_name_H-M "P N N N"
_symmetry_group_IT_number 48
_space_group.IT_coordinate_system_code '2'
_symmetry_cell_setting 'orthorhombic'
loop_
_space_group_symop_operation_xyz
x,y,z
1/2-x,1/2-y,z
x,1/2-y,1/2-z
1/2-x,y,1/2-z
-x,-y,-z
1/2+x,1/2+y,-z
-x,1/2+y,1/2+z
1/2+x,-y,1/2+z
loop_
_atom_site_type_symbol
_atom_site_label
_atom_site_fract_x
_atom_site_fract_y
_atom_site_fract_z
Si Si1 0.164048 0.309944 0.915376
Si Si2 0.523051 0.465610 0.146852
Si Si3 0.156411 0.651123 0.586415
O O1 0.250000 0.250000 0.916673
O O2 0.250000 0.329865 0.750000
O O3 0.348207 0.335097 0.044285
O O4 0.854021 0.323599 0.960616
O O5 0.250000 0.458464 0.250000
O O6 0.652755 0.410773 0.095879
O O7 0.750000 0.492292 0.250000
O O8 0.500000 0.500000 0.000000
O O9 0.250000 0.670795 0.750000
#
# Coordination Sequence:
#
# PCOD9391716 Si02
#       3
#     8   8   8
#     4  11  24  41  62  91 125 162 208 259 313 377
#     4  11  24  43  65  94 129 167 214 264 316 380
#     4  11  23  41  63  91 125 162 207 260 313 373
#
# _framework density 21.364312000000002
#
# number of rings (size 3 to 8) (size 9 to 14) (size 15 to 20)
#    0.000    1.000    0.000    8.000    0.000   10.667 
#    0.000    0.000    0.000    0.000    0.000    0.000 
#    0.000    0.000    0.000    0.000    0.000    0.000 
#
# Total GULP energy -134044.280223 kJ/mol
# GULP energy per Si atom -5585.178343 kJ/mol
# Density = 2.131569 g / cm^3
# Si number density = 21.364312 Si / 1000 Ang^3
#
#
#
# Elastic Constant Matrix: (Units=GPa)
#
#
# Indices 1 2 3 4 5 6 
#
# 1 87.5749 1.0700 10.6301 0.0000 0.0000 0.0000
# 2 1.0700 56.5033 32.3797 0.0000 0.0000 0.0000
# 3 10.6301 32.3797 109.6252 0.0000 0.0000 0.0000
# 4 0.0000 0.0000 0.0000 5.6756 0.0000 0.0000
# 5 0.0000 0.0000 0.0000 0.0000 45.4039 0.0000
# 6 0.0000 0.0000 0.0000 0.0000 0.0000 4.7514
#
#
#
# Elastic Compliance Matrix: (Units=1/GPa)
#
#
# Indices 1 2 3 4 5 6 
#
# 1 0.011567 0.000510 -0.001272 0.000000 0.000000 0.000000
# 2 0.000510 0.021327 -0.006349 0.000000 0.000000 0.000000
# 3 -0.001272 -0.006349 0.011121 0.000000 0.000000 0.000000
# 4 0.000000 0.000000 0.000000 0.176192 0.000000 0.000000
# 5 0.000000 0.000000 0.000000 0.000000 0.022025 0.000000
# 6 0.000000 0.000000 0.000000 0.000000 0.000000 0.210465
#
#
# Mechanical properties :
#
#
# Convention : Reuss Voigt Hill
#
# Bulk Modulus (GPa) = 33.56565 37.98480 35.77523
# Shear Modulus (GPa) = 10.48553 25.14108 17.81331
#
# Velocity S-wave (km/s) = 2.21780 3.43414 2.89067
# Velocity P-wave (km/s) = 4.72264 5.79160 5.28422
#
# Compressibility (1/GPa) = 0.02979236
#
# Stress axis : x y z
#
# Youngs Moduli (GPa) = 86.45285 46.88987 89.92372
#
# Poissons Ratio (x) = -0.02392 0.11441
# Poissons Ratio (y) = -0.04409 0.57089
# Poissons Ratio (z) = 0.10999 0.29769
#
# Static dielectric constant tensor:
#      x y z
#    x 1.753670 0.000000 0.000000 
#    y 0.000000 1.813410 0.000000 
#    z 0.000000 0.000000 1.842690 
# 
# From -- ./inp_files/693.got.cif
#   From: 2010.05.17/outbox.cif.g08.bks.cpg/sg48_1_cif.got.tgz:693.got - 2010.06.03 20:39:00.
