data_PCOD9391498
_publ_section_title
;
Structure prediction by ZEFSAII (Michael W. Deem and Ramdas Pophale) SiO2 
 PCOD9391498
Probable space group: P N N N
;
_chemical_formula_sum "Si O2"
_cell_formula_units_Z 38
_cell_length_a 8.419346
_cell_length_b 9.578009
_cell_length_c 20.410539
_cell_angle_alpha 90.000000
_cell_angle_beta 90.000000
_cell_angle_gamma 90.000000
_cell_volume 1645.917535
_symmetry_space_group_name_H-M "P N N N"
_symmetry_group_IT_number 48
_space_group.IT_coordinate_system_code '2'
_symmetry_cell_setting 'orthorhombic'
loop_
_space_group_symop_operation_xyz
x,y,z
1/2-x,1/2-y,z
x,1/2-y,1/2-z
1/2-x,y,1/2-z
-x,-y,-z
1/2+x,1/2+y,-z
-x,1/2+y,1/2+z
1/2+x,-y,1/2+z
loop_
_atom_site_type_symbol
_atom_site_label
_atom_site_fract_x
_atom_site_fract_y
_atom_site_fract_z
Si Si1 0.750000 0.750000 0.750000
Si Si2 0.816718 0.032788 0.014869
Si Si3 0.459247 0.112800 0.148613
Si Si4 0.250000 0.750000 0.872259
Si Si5 0.935157 0.792714 0.327079
Si Si6 0.750000 0.750000 0.965553
Si Si7 0.250000 0.750000 0.405628
O O1 0.673956 0.861226 0.799294
O O2 0.738781 0.118105 0.954741
O O3 0.752011 0.879027 0.014602
O O4 0.786812 0.121135 0.079361
O O5 0.000000 0.000000 0.000000
O O6 0.601051 0.212949 0.169759
O O7 0.390605 0.190794 0.082679
O O8 0.527350 0.955811 0.154452
O O9 0.750000 0.750000 0.341994
O O10 0.953830 0.750000 0.250000
O O11 0.087166 0.725076 0.365287
#
# Coordination Sequence:
#
# PCOD9391498 Si02
#       7
#     2   8   8   4   8   4   4
#     4  10  28  46  78 100 136 202 248 316 386 458
#     4  11  24  43  71 108 143 197 242 298 369 444
#     4  11  25  47  72 107 142 191 247 308 376 439
#     4  11  26  43  71 107 147 184 241 306 364 438
#     4  11  27  45  73 109 145 195 255 309 373 446
#     4  11  22  45  74 102 150 189 246 295 366 446
#     4  11  25  46  73 101 156 199 241 314 368 446
#
# _framework density 23.087427000000002
#
# number of rings (size 3 to 8) (size 9 to 14) (size 15 to 20)
#    0.000    1.053    4.211    0.316    5.895    6.316 
#    0.000    0.000    0.000    0.000    0.000    0.000 
#    0.000    0.000    0.000    0.000    0.000    0.000 
#
# Total GULP energy -211558.680548 kJ/mol
# GULP energy per Si atom -5567.333699 kJ/mol
# Density = 2.303488 g / cm^3
# Si number density = 23.087427 Si / 1000 Ang^3
#
#
#
# Elastic Constant Matrix: (Units=GPa)
#
#
# Indices 1 2 3 4 5 6 
#
# 1 44.5868 8.5695 -0.3255 0.0000 0.0000 0.0000
# 2 8.5695 162.7549 24.0373 0.0000 0.0000 0.0000
# 3 -0.3255 24.0373 64.7757 0.0000 0.0000 0.0000
# 4 0.0000 0.0000 0.0000 7.2127 0.0000 0.0000
# 5 0.0000 0.0000 0.0000 0.0000 69.9336 0.0000
# 6 0.0000 0.0000 0.0000 0.0000 0.0000 44.8680
#
#
#
# Elastic Compliance Matrix: (Units=1/GPa)
#
#
# Indices 1 2 3 4 5 6 
#
# 1 0.022679 -0.001281 0.000589 0.000000 0.000000 0.000000
# 2 -0.001281 0.006573 -0.002446 0.000000 0.000000 0.000000
# 3 0.000589 -0.002446 0.016348 0.000000 0.000000 0.000000
# 4 0.000000 0.000000 0.000000 0.138644 0.000000 0.000000
# 5 0.000000 0.000000 0.000000 0.000000 0.014299 0.000000
# 6 0.000000 0.000000 0.000000 0.000000 0.000000 0.022288
#
#
# Mechanical properties :
#
#
# Convention : Reuss Voigt Hill
#
# Bulk Modulus (GPa) = 25.42893 37.40891 31.41892
# Shear Modulus (GPa) = 20.81475 40.39193 30.60334
#
# Velocity S-wave (km/s) = 3.00586 4.18726 3.64475
# Velocity P-wave (km/s) = 4.80469 6.29412 5.59915
#
# Compressibility (1/GPa) = 0.03932529
#
# Stress axis : x y z
#
# Youngs Moduli (GPa) = 44.09421 152.14109 61.16828
#
# Poissons Ratio (x) = 0.19491 -0.03605
# Poissons Ratio (y) = 0.05649 0.14959
# Poissons Ratio (z) = -0.02599 0.37206
#
# Static dielectric constant tensor:
#      x y z
#    x 1.754910 0.000000 0.000000 
#    y 0.000000 1.895090 0.000000 
#    z 0.000000 0.000000 1.813840 
# 
# From -- ./inp_files/35736.got.cif
#   From: 2010.05.17/outbox.cif.g08.bks.cpg/sg48_18_cif.got.tgz:35736.got - 2010.06.03 20:39:00.
