data_PCOD9391744
_publ_section_title
;
Structure prediction by ZEFSAII (Michael W. Deem and Ramdas Pophale) SiO2 
 PCOD9391744
Probable space group: P N N N
;
_chemical_formula_sum "Si O2"
_cell_formula_units_Z 40
_cell_length_a 11.359438
_cell_length_b 16.052912
_cell_length_c 9.649780
_cell_angle_alpha 90.000000
_cell_angle_beta 90.000000
_cell_angle_gamma 90.000000
_cell_volume 1759.657248
_symmetry_space_group_name_H-M "P N N N"
_symmetry_group_IT_number 48
_space_group.IT_coordinate_system_code '2'
_symmetry_cell_setting 'orthorhombic'
loop_
_space_group_symop_operation_xyz
x,y,z
1/2-x,1/2-y,z
x,1/2-y,1/2-z
1/2-x,y,1/2-z
-x,-y,-z
1/2+x,1/2+y,-z
-x,1/2+y,1/2+z
1/2+x,-y,1/2+z
loop_
_atom_site_type_symbol
_atom_site_label
_atom_site_fract_x
_atom_site_fract_y
_atom_site_fract_z
Si Si1 0.946293 0.040097 0.301523
Si Si2 0.482399 0.116341 0.480049
Si Si3 0.273595 0.102007 0.901690
Si Si4 0.003443 0.192516 0.484122
Si Si5 0.887515 0.396112 0.772991
O O1 0.957844 0.060331 0.138226
O O2 0.949233 0.128395 0.375275
O O3 0.839118 0.983942 0.357442
O O4 0.060102 0.982374 0.335485
O O5 0.346050 0.094128 0.511635
O O6 0.490690 0.212977 0.437302
O O7 0.548791 0.111866 0.625995
O O8 0.250000 0.141759 0.750000
O O9 0.366278 0.159023 0.981596
O O10 0.928536 0.176988 0.624254
O O11 0.750000 0.398867 0.750000
#
# Coordination Sequence:
#
# PCOD9391744 Si02
#       5
#     8   8   8   8   8
#     4  11  26  43  70 104 143 185 236 296 359 432
#     4  12  25  44  73 102 141 188 240 301 358 423
#     4  11  23  43  72 100 140 185 246 288 357 431
#     4  11  25  44  68 106 143 182 237 303 360 419
#     4  11  25  44  72  96 141 187 238 281 359 440
#
# _framework density 22.7317
#
# number of rings (size 3 to 8) (size 9 to 14) (size 15 to 20)
#    0.000    0.800    4.000    4.800    5.600    2.400 
#    0.000    2.000    0.000    3.600    0.000    0.000 
#    0.000    0.000    0.000    0.000    0.000    0.000 
#
# Total GULP energy -223912.415344 kJ/mol
# GULP energy per Si atom -5597.810384 kJ/mol
# Density = 2.267996 g / cm^3
# Si number density = 22.731700 Si / 1000 Ang^3
#
#
#
# Elastic Constant Matrix: (Units=GPa)
#
#
# Indices 1 2 3 4 5 6 
#
# 1 143.3009 42.2418 11.5287 0.0000 0.0000 0.0000
# 2 42.2418 144.3841 4.5619 0.0000 0.0000 0.0000
# 3 11.5287 4.5619 71.3273 0.0000 0.0000 0.0000
# 4 0.0000 0.0000 0.0000 36.7663 0.0000 0.0000
# 5 0.0000 0.0000 0.0000 0.0000 -4.1407 0.0000
# 6 0.0000 0.0000 0.0000 0.0000 0.0000 7.4191
#
#
#
# Elastic Compliance Matrix: (Units=1/GPa)
#
#
# Indices 1 2 3 4 5 6 
#
# 1 0.007723 -0.002225 -0.001106 0.000000 0.000000 0.000000
# 2 -0.002225 0.007581 -0.000125 0.000000 0.000000 0.000000
# 3 -0.001106 -0.000125 0.014207 0.000000 0.000000 0.000000
# 4 0.000000 0.000000 0.000000 0.027199 0.000000 0.000000
# 5 0.000000 0.000000 0.000000 0.000000 -0.241505 0.000000
# 6 0.000000 0.000000 0.000000 0.000000 0.000000 0.134787
#
#
# Mechanical properties :
#
#
# Convention : Reuss Voigt Hill
#
# Bulk Modulus (GPa) = 44.25019 52.85300 48.55160
# Shear Modulus (GPa) = -140.59049 28.05426 -56.26811
#
# Velocity S-wave (km/s) = -7.87287 3.51685 -4.98065
# Velocity P-wave (km/s) = 7.94570 6.30811 3.41628
#
# Compressibility (1/GPa) = 0.02259877
#
# Stress axis : x y z
#
# Youngs Moduli (GPa) = 129.48254 131.91295 70.38954
#
# Poissons Ratio (x) = 0.29345 0.07785
# Poissons Ratio (y) = 0.28804 0.00882
# Poissons Ratio (z) = 0.14321 0.01653
#
# Static dielectric constant tensor:
#      x y z
#    x 1.815830 0.000000 0.000000 
#    y 0.000000 1.867120 0.000000 
#    z 0.000000 0.000000 1.873740 
# 
# From -- ./inp_files/10684.got.cif
#   From: 2010.05.17/outbox.cif.g08.bks.cpg/sg48_6_cif.got.tgz:10684.got - 2010.06.03 20:39:00.
