data_PCOD9391347
_publ_section_title
;
Structure prediction by ZEFSAII (Michael W. Deem and Ramdas Pophale) SiO2 
 PCOD9391347
Probable space group: P N N N
;
_chemical_formula_sum "Si O2"
_cell_formula_units_Z 54
_cell_length_a 23.453270
_cell_length_b 5.120702
_cell_length_c 21.068343
_cell_angle_alpha 90.000000
_cell_angle_beta 90.000000
_cell_angle_gamma 90.000000
_cell_volume 2530.249142
_symmetry_space_group_name_H-M "P N N N"
_symmetry_group_IT_number 48
_space_group.IT_coordinate_system_code '2'
_symmetry_cell_setting 'orthorhombic'
loop_
_space_group_symop_operation_xyz
x,y,z
1/2-x,1/2-y,z
x,1/2-y,1/2-z
1/2-x,y,1/2-z
-x,-y,-z
1/2+x,1/2+y,-z
-x,1/2+y,1/2+z
1/2+x,-y,1/2+z
loop_
_atom_site_type_symbol
_atom_site_label
_atom_site_fract_x
_atom_site_fract_y
_atom_site_fract_z
Si Si1 0.526911 0.801667 0.952204
Si Si2 0.711595 0.501099 0.997175
Si Si3 0.590852 0.002838 0.438543
Si Si4 0.601498 0.446709 0.657785
Si Si5 0.326845 0.054164 0.351431
Si Si6 0.750000 0.250000 0.750000
Si Si7 0.472601 0.250000 0.250000
Si Si8 0.917757 0.007372 0.207507
O O1 0.469309 0.657997 0.930009
O O2 0.561923 0.954428 0.899328
O O3 0.571096 0.654075 0.997976
O O4 0.500000 0.000000 0.000000
O O5 0.750000 0.250000 0.002023
O O6 0.697382 0.539078 0.922447
O O7 0.750000 0.750000 0.018098
O O8 0.654395 0.432177 0.036672
O O9 0.601793 0.936885 0.363839
O O10 0.619584 0.148067 0.650221
O O11 0.566018 0.530733 0.718730
O O12 0.655232 0.645806 0.659248
O O13 0.286913 0.934582 0.296809
O O14 0.516290 0.398358 0.203911
O O15 0.914248 0.750000 0.250000
O O16 0.891655 0.250000 0.250000
#
# Coordination Sequence:
#
# PCOD9391347 Si02
#       8
#     8   8   8   8   8   2   4   8
#     4  11  24  38  70 105 143 185 225 296 358 432
#     4  12  27  49  74  99 138 182 241 298 346 416
#     4  11  25  44  69 105 138 182 236 291 366 422
#     4  12  25  43  65 102 142 179 232 287 339 418
#     4  12  27  45  66  99 135 190 243 288 339 392
#     4  12  28  46  72  90 144 198 250 294 330 382
#     4  10  24  38  64  93 145 178 224 258 354 404
#     4  10  24  41  66  98 135 183 215 274 342 444
#
# _framework density 21.341773
#
# number of rings (size 3 to 8) (size 9 to 14) (size 15 to 20)
#    0.444    0.296    3.704    2.667   10.370    0.593 
#    0.000    0.000    0.000    2.667    0.000    0.000 
#    0.000    0.000    0.000    0.000    0.000    0.000 
#
# Total GULP energy -300847.332647 kJ/mol
# GULP energy per Si atom -5571.246901 kJ/mol
# Density = 2.129320 g / cm^3
# Si number density = 21.341773 Si / 1000 Ang^3
#
#
#
# Elastic Constant Matrix: (Units=GPa)
#
#
# Indices 1 2 3 4 5 6 
#
# 1 60.2889 -18.1622 44.6856 0.0000 0.0000 0.0000
# 2 -18.1622 52.1123 13.4168 0.0000 0.0000 0.0000
# 3 44.6856 13.4168 129.0792 0.0000 0.0000 0.0000
# 4 0.0000 0.0000 0.0000 96.1899 0.0000 0.0000
# 5 0.0000 0.0000 0.0000 0.0000 75.0717 0.0000
# 6 0.0000 0.0000 0.0000 0.0000 0.0000 10.6445
#
#
#
# Elastic Compliance Matrix: (Units=1/GPa)
#
#
# Indices 1 2 3 4 5 6 
#
# 1 0.028932 0.013010 -0.011368 0.000000 0.000000 0.000000
# 2 0.013010 0.025568 -0.007162 0.000000 0.000000 0.000000
# 3 -0.011368 -0.007162 0.012427 0.000000 0.000000 0.000000
# 4 0.000000 0.000000 0.000000 0.010396 0.000000 0.000000
# 5 0.000000 0.000000 0.000000 0.000000 0.013321 0.000000
# 6 0.000000 0.000000 0.000000 0.000000 0.000000 0.093945
#
#
# Mechanical properties :
#
#
# Convention : Reuss Voigt Hill
#
# Bulk Modulus (GPa) = 17.89293 35.70676 26.79984
# Shear Modulus (GPa) = 23.33640 49.81723 36.57681
#
# Velocity S-wave (km/s) = 3.31034 4.83666 4.14437
# Velocity P-wave (km/s) = 4.79722 6.92519 5.95700
#
# Compressibility (1/GPa) = 0.05588800
#
# Stress axis : x y z
#
# Youngs Moduli (GPa) = 34.56336 39.11208 80.46891
#
# Poissons Ratio (x) = -0.50886 0.91480
# Poissons Ratio (y) = -0.44968 0.57629
# Poissons Ratio (z) = 0.39293 0.28011
#
# Static dielectric constant tensor:
#      x y z
#    x 1.648640 0.000000 0.000000 
#    y 0.000000 1.783020 0.000000 
#    z 0.000000 0.000000 1.771860 
# 
# From -- ./inp_files/34955.got.cif
#   From: 2010.05.17/outbox.cif.g08.bks.cpg/sg48_18_cif.got.tgz:34955.got - 2010.06.03 20:39:00.
