data_PCOD9391682
_publ_section_title
;
Structure prediction by ZEFSAII (Michael W. Deem and Ramdas Pophale) SiO2 
 PCOD9391682
Probable space group: P N N N
;
_chemical_formula_sum "Si O2"
_cell_formula_units_Z 60
_cell_length_a 20.491344
_cell_length_b 11.900551
_cell_length_c 11.954783
_cell_angle_alpha 90.000000
_cell_angle_beta 90.000000
_cell_angle_gamma 90.000000
_cell_volume 2915.272872
_symmetry_space_group_name_H-M "P N N N"
_symmetry_group_IT_number 48
_space_group.IT_coordinate_system_code '2'
_symmetry_cell_setting 'orthorhombic'
loop_
_space_group_symop_operation_xyz
x,y,z
1/2-x,1/2-y,z
x,1/2-y,1/2-z
1/2-x,y,1/2-z
-x,-y,-z
1/2+x,1/2+y,-z
-x,1/2+y,1/2+z
1/2+x,-y,1/2+z
loop_
_atom_site_type_symbol
_atom_site_label
_atom_site_fract_x
_atom_site_fract_y
_atom_site_fract_z
Si Si1 0.487247 0.047518 0.820046
Si Si2 0.596031 0.012044 0.970226
Si Si3 0.191998 0.331482 0.540088
Si Si4 0.520160 0.415090 0.097664
Si Si5 0.722223 0.048486 0.095203
Si Si6 0.658521 0.366563 0.188733
Si Si7 0.086906 0.254369 0.116597
Si Si8 0.393272 0.250000 0.750000
O O1 0.555437 0.079590 0.877735
O O2 0.441072 0.148248 0.781769
O O3 0.501992 0.968181 0.715620
O O4 0.446609 0.983354 0.916241
O O5 0.597048 0.880458 0.931256
O O6 0.668194 0.053659 0.999187
O O7 0.250000 0.250000 0.504332
O O8 0.230994 0.442388 0.574273
O O9 0.138758 0.329405 0.441995
O O10 0.152901 0.283602 0.646984
O O11 0.597524 0.403913 0.115281
O O12 0.483797 0.296245 0.084253
O O13 0.500000 0.500000 0.000000
O O14 0.776864 0.142486 0.114297
O O15 0.680264 0.048548 0.211068
O O16 0.642484 0.250000 0.250000
O O17 0.094041 0.250000 0.250000
#
# Coordination Sequence:
#
# PCOD9391682 Si02
#       8
#     8   8   8   8   8   8   8   4
#     4  11  23  41  65  95 134 182 226 278 347 411
#     4  11  23  42  68  96 131 181 227 285 344 414
#     4  12  25  39  68 103 135 177 213 291 350 408
#     4  12  25  43  65 101 147 183 226 287 344 417
#     4  11  22  43  65  99 134 169 234 286 349 406
#     4  11  25  43  71 101 137 185 233 290 344 403
#     4  12  24  44  65  98 140 182 234 274 348 428
#     4  12  23  40  66 104 136 169 228 284 354 401
#
# _framework density 20.581263
#
# number of rings (size 3 to 8) (size 9 to 14) (size 15 to 20)
#    0.000    0.533    5.333    3.800    5.600    0.267 
#    0.000    0.000    0.000    0.000    0.000    0.000 
#    4.000    0.000    0.000    0.000    0.000    0.000 
#
# Total GULP energy -335251.706216 kJ/mol
# GULP energy per Si atom -5587.528437 kJ/mol
# Density = 2.053442 g / cm^3
# Si number density = 20.581263 Si / 1000 Ang^3
#
#
#
# Elastic Constant Matrix: (Units=GPa)
#
#
# Indices 1 2 3 4 5 6 
#
# 1 168.1268 23.8301 45.3090 0.0000 0.0000 0.0000
# 2 23.8301 40.7794 14.7561 0.0000 0.0000 0.0000
# 3 45.3090 14.7561 92.3994 0.0000 0.0000 0.0000
# 4 0.0000 0.0000 0.0000 20.8577 0.0000 0.0000
# 5 0.0000 0.0000 0.0000 0.0000 47.1817 0.0000
# 6 0.0000 0.0000 0.0000 0.0000 0.0000 39.9443
#
#
#
# Elastic Compliance Matrix: (Units=1/GPa)
#
#
# Indices 1 2 3 4 5 6 
#
# 1 0.007208 -0.003113 -0.003037 0.000000 0.000000 0.000000
# 2 -0.003113 0.027371 -0.002845 0.000000 0.000000 0.000000
# 3 -0.003037 -0.002845 0.012766 0.000000 0.000000 0.000000
# 4 0.000000 0.000000 0.000000 0.047944 0.000000 0.000000
# 5 0.000000 0.000000 0.000000 0.000000 0.021195 0.000000
# 6 0.000000 0.000000 0.000000 0.000000 0.000000 0.025035
#
#
# Mechanical properties :
#
#
# Convention : Reuss Voigt Hill
#
# Bulk Modulus (GPa) = 34.06580 52.12178 43.09379
# Shear Modulus (GPa) = 29.53475 36.09077 32.81276
#
# Velocity S-wave (km/s) = 3.79229 4.19211 3.99720
# Velocity P-wave (km/s) = 5.98022 6.98653 6.50287
#
# Compressibility (1/GPa) = 0.02935496
#
# Stress axis : x y z
#
# Youngs Moduli (GPa) = 138.74228 36.53562 78.33197
#
# Poissons Ratio (x) = 0.11373 0.23791
# Poissons Ratio (y) = 0.43189 0.22283
# Poissons Ratio (z) = 0.42139 0.10393
#
# Static dielectric constant tensor:
#      x y z
#    x 1.747180 0.000000 0.000000 
#    y 0.000000 1.853250 0.000000 
#    z 0.000000 0.000000 1.731540 
# 
# From -- ./inp_files/22950.got.cif
#   From: 2010.05.17/outbox.cif.g08.bks.cpg/sg48_12_cif.got.tgz:22950.got - 2010.06.03 20:39:00.
