data_PCOD9391180
_publ_section_title
;
Structure prediction by ZEFSAII (Michael W. Deem and Ramdas Pophale) SiO2 
 PCOD9391180
Probable space group: P N N N
;
_chemical_formula_sum "Si O2"
_cell_formula_units_Z 26
_cell_length_a 18.117276
_cell_length_b 8.159633
_cell_length_c 6.850770
_cell_angle_alpha 90.000000
_cell_angle_beta 90.000000
_cell_angle_gamma 90.000000
_cell_volume 1012.751543
_symmetry_space_group_name_H-M "P N N N"
_symmetry_group_IT_number 48
_space_group.IT_coordinate_system_code '2'
_symmetry_cell_setting 'orthorhombic'
loop_
_space_group_symop_operation_xyz
x,y,z
1/2-x,1/2-y,z
x,1/2-y,1/2-z
1/2-x,y,1/2-z
-x,-y,-z
1/2+x,1/2+y,-z
-x,1/2+y,1/2+z
1/2+x,-y,1/2+z
loop_
_atom_site_type_symbol
_atom_site_label
_atom_site_fract_x
_atom_site_fract_y
_atom_site_fract_z
Si Si1 0.079136 0.924405 0.459703
Si Si2 0.335282 0.266403 0.485686
Si Si3 0.375689 0.581276 0.002859
Si Si4 0.250000 0.750000 0.750000
O O1 0.110129 0.919269 0.237623
O O2 0.075796 0.741145 0.543869
O O3 0.135436 0.056916 0.547771
O O4 0.000000 0.000000 0.500000
O O5 0.250000 0.250000 0.540549
O O6 0.336818 0.250000 0.250000
O O7 0.383762 0.109559 0.551255
O O8 0.299319 0.641679 0.901279
#
# Coordination Sequence:
#
# PCOD9391180 Si02
#       4
#     8   8   8   2
#     4  10  22  44  70 103 139 200 256 309 387 457
#     4   9  18  37  69 101 131 181 245 319 384 440
#     4  10  23  44  70 102 144 189 245 321 379 466
#     4  12  24  46  70 116 148 196 254 320 418 462
#
# _framework density 25.672633999999999
#
# number of rings (size 3 to 8) (size 9 to 14) (size 15 to 20)
#    0.000    2.154    0.000    1.846    0.000   11.077 
#   19.385    5.385    0.000    0.000    0.000    0.000 
#    0.000    0.000    0.000    0.000    0.000    0.000 
#
# Total GULP energy -144804.595323 kJ/mol
# GULP energy per Si atom -5569.407512 kJ/mol
# Density = 2.561420 g / cm^3
# Si number density = 25.672634 Si / 1000 Ang^3
#
#
#
# Elastic Constant Matrix: (Units=GPa)
#
#
# Indices 1 2 3 4 5 6 
#
# 1 116.2565 42.6634 12.9135 0.0000 0.0000 0.0000
# 2 42.6634 213.6076 -17.6430 0.0000 0.0000 0.0000
# 3 12.9135 -17.6430 225.8730 0.0000 0.0000 0.0000
# 4 0.0000 0.0000 0.0000 -21.1489 0.0000 0.0000
# 5 0.0000 0.0000 0.0000 0.0000 -142.9360 0.0000
# 6 0.0000 0.0000 0.0000 0.0000 0.0000 35.6342
#
#
#
# Elastic Compliance Matrix: (Units=1/GPa)
#
#
# Indices 1 2 3 4 5 6 
#
# 1 0.009387 -0.001932 -0.000688 0.000000 0.000000 0.000000
# 2 -0.001932 0.005109 0.000510 0.000000 0.000000 0.000000
# 3 -0.000688 0.000510 0.004506 0.000000 0.000000 0.000000
# 4 0.000000 0.000000 0.000000 -0.047284 0.000000 0.000000
# 5 0.000000 0.000000 0.000000 0.000000 -0.006996 0.000000
# 6 0.000000 0.000000 0.000000 0.000000 0.000000 0.028063
#
#
# Mechanical properties :
#
#
# Convention : Reuss Voigt Hill
#
# Bulk Modulus (GPa) = 67.64356 70.17835 68.91095
# Shear Modulus (GPa) = 2587.09988 8.83007 1297.96498
#
# Velocity S-wave (km/s) = 31.77915 1.85660 22.50957
# Velocity P-wave (km/s) = 37.05345 5.65607 26.50424
#
# Compressibility (1/GPa) = 0.01478337
#
# Stress axis : x y z
#
# Youngs Moduli (GPa) = 106.53152 195.71913 221.90798
#
# Poissons Ratio (x) = 0.37805 0.15257
# Poissons Ratio (y) = 0.20578 -0.11307
# Poissons Ratio (z) = 0.07324 -0.09972
#
# Static dielectric constant tensor:
#      x y z
#    x 2.125060 0.000000 0.000000 
#    y 0.000000 2.029370 0.000000 
#    z 0.000000 0.000000 2.095440 
# 
# From -- ./inp_files/13521.got.cif
#   From: 2010.05.17/outbox.cif.g08.bks.cpg/sg48_7_cif.got.tgz:13521.got - 2010.06.03 20:39:00.
