data_PCOD9391452
_publ_section_title
;
Structure prediction by ZEFSAII (Michael W. Deem and Ramdas Pophale) SiO2 
 PCOD9391452
Probable space group: P N N N
;
_chemical_formula_sum "Si O2"
_cell_formula_units_Z 40
_cell_length_a 17.547198
_cell_length_b 17.229396
_cell_length_c 5.758193
_cell_angle_alpha 90.000000
_cell_angle_beta 90.000000
_cell_angle_gamma 90.000000
_cell_volume 1740.860803
_symmetry_space_group_name_H-M "P N N N"
_symmetry_group_IT_number 48
_space_group.IT_coordinate_system_code '2'
_symmetry_cell_setting 'orthorhombic'
loop_
_space_group_symop_operation_xyz
x,y,z
1/2-x,1/2-y,z
x,1/2-y,1/2-z
1/2-x,y,1/2-z
-x,-y,-z
1/2+x,1/2+y,-z
-x,1/2+y,1/2+z
1/2+x,-y,1/2+z
loop_
_atom_site_type_symbol
_atom_site_label
_atom_site_fract_x
_atom_site_fract_y
_atom_site_fract_z
Si Si1 0.665089 0.612502 0.248532
Si Si2 0.935168 0.540303 0.857108
Si Si3 0.359983 0.711041 0.002575
Si Si4 0.463418 0.314694 0.061281
Si Si5 0.819179 0.460097 0.572278
O O1 0.750000 0.647476 0.250000
O O2 0.628070 0.585846 0.491005
O O3 0.602846 0.667371 0.124325
O O4 0.676690 0.531400 0.107016
O O5 0.971810 0.603406 0.690864
O O6 0.895025 0.471680 0.720629
O O7 0.000000 0.500000 0.000000
O O8 0.335471 0.750000 0.250000
O O9 0.321815 0.626437 0.978721
O O10 0.345547 0.750000 0.750000
O O11 0.452308 0.706290 0.023526
O O12 0.439642 0.250000 0.250000
O O13 0.750000 0.470286 0.750000
#
# Coordination Sequence:
#
# PCOD9391452 Si02
#       5
#     8   8   8   8   8
#     4  11  23  42  71 101 139 187 239 299 365 436
#     4  11  23  41  74 102 132 185 243 289 353 428
#     4  11  27  46  74 106 146 191 246 298 365 438
#     4  10  25  43  69 101 142 182 241 301 357 427
#     4  11  24  44  69 104 142 185 236 304 360 436
#
# _framework density 22.977136999999999
#
# number of rings (size 3 to 8) (size 9 to 14) (size 15 to 20)
#    0.000    1.200    2.000    2.400   14.000    3.600 
#    0.000    4.000    0.000    0.000    0.000    0.000 
#    0.000    0.000    0.000    0.000    0.000    0.000 
#
# Total GULP energy -223716.039457 kJ/mol
# GULP energy per Si atom -5592.900986 kJ/mol
# Density = 2.292484 g / cm^3
# Si number density = 22.977137 Si / 1000 Ang^3
#
#
#
# Elastic Constant Matrix: (Units=GPa)
#
#
# Indices 1 2 3 4 5 6 
#
# 1 91.7229 15.9006 28.0073 0.0000 0.0000 0.0000
# 2 15.9006 104.8344 39.6955 0.0000 0.0000 0.0000
# 3 28.0073 39.6955 96.6637 0.0000 0.0000 0.0000
# 4 0.0000 0.0000 0.0000 34.9097 0.0000 0.0000
# 5 0.0000 0.0000 0.0000 0.0000 -157.3256 0.0000
# 6 0.0000 0.0000 0.0000 0.0000 0.0000 28.5532
#
#
#
# Elastic Compliance Matrix: (Units=1/GPa)
#
#
# Indices 1 2 3 4 5 6 
#
# 1 0.011992 -0.000596 -0.003230 0.000000 0.000000 0.000000
# 2 -0.000596 0.011325 -0.004478 0.000000 0.000000 0.000000
# 3 -0.003230 -0.004478 0.013120 0.000000 0.000000 0.000000
# 4 0.000000 0.000000 0.000000 0.028645 0.000000 0.000000
# 5 0.000000 0.000000 0.000000 0.000000 -0.006356 0.000000
# 6 0.000000 0.000000 0.000000 0.000000 0.000000 0.035022
#
#
# Mechanical properties :
#
#
# Convention : Reuss Voigt Hill
#
# Bulk Modulus (GPa) = 50.43053 51.15865 50.79459
# Shear Modulus (GPa) = 42.74781 -4.79804 18.97489
#
# Velocity S-wave (km/s) = 4.31797 -1.44662 2.87682
# Velocity P-wave (km/s) = 6.84512 4.41849 5.76102
#
# Compressibility (1/GPa) = 0.01982926
#
# Stress axis : x y z
#
# Youngs Moduli (GPa) = 83.38950 88.30176 76.22038
#
# Poissons Ratio (x) = 0.05262 0.24618
# Poissons Ratio (y) = 0.04969 0.34131
# Poissons Ratio (z) = 0.26933 0.39541
#
# Static dielectric constant tensor:
#      x y z
#    x 1.837750 0.000000 0.000000 
#    y 0.000000 1.857830 0.000000 
#    z 0.000000 0.000000 1.874540 
# 
# From -- ./inp_files/4186.got.cif
#   From: 2010.05.17/outbox.cif.g08.bks.cpg/sg48_3_cif.got.tgz:4186.got - 2010.06.03 20:39:00.
