data_PCOD9391455
_publ_section_title
;
Structure prediction by ZEFSAII (Michael W. Deem and Ramdas Pophale) SiO2 
 PCOD9391455
Probable space group: P N N N
;
_chemical_formula_sum "Si O2"
_cell_formula_units_Z 42
_cell_length_a 14.796872
_cell_length_b 8.114991
_cell_length_c 15.680665
_cell_angle_alpha 90.000000
_cell_angle_beta 90.000000
_cell_angle_gamma 90.000000
_cell_volume 1882.879106
_symmetry_space_group_name_H-M "P N N N"
_symmetry_group_IT_number 48
_space_group.IT_coordinate_system_code '2'
_symmetry_cell_setting 'orthorhombic'
loop_
_space_group_symop_operation_xyz
x,y,z
1/2-x,1/2-y,z
x,1/2-y,1/2-z
1/2-x,y,1/2-z
-x,-y,-z
1/2+x,1/2+y,-z
-x,1/2+y,1/2+z
1/2+x,-y,1/2+z
loop_
_atom_site_type_symbol
_atom_site_label
_atom_site_fract_x
_atom_site_fract_y
_atom_site_fract_z
Si Si1 0.536646 0.063672 0.765677
Si Si2 0.547237 0.062901 0.413352
Si Si3 0.608708 0.418664 0.374735
Si Si4 0.737171 0.946239 0.482245
Si Si5 0.782713 0.940530 0.664381
Si Si6 0.250000 0.750000 0.750000
O O1 0.566555 0.250000 0.750000
O O2 0.503484 0.994025 0.673516
O O3 0.450555 0.055260 0.828155
O O4 0.610600 0.958196 0.818928
O O5 0.552563 0.260296 0.405291
O O6 0.500000 0.000000 0.500000
O O7 0.651458 0.001287 0.425848
O O8 0.667987 0.484822 0.450735
O O9 0.682792 0.356357 0.307001
O O10 0.750000 0.750000 0.480576
O O11 0.734383 0.007114 0.580051
O O12 0.750000 0.750000 0.665282
O O13 0.750000 0.026332 0.750000
#
# Coordination Sequence:
#
# PCOD9391455 Si02
#       6
#     8   8   8   8   8   2
#     4  12  27  46  71 111 143 188 247 310 365 439
#     4  12  26  43  72 102 144 195 248 295 366 446
#     4  12  24  44  75  99 146 188 245 305 368 441
#     4  11  24  45  71 109 142 188 242 305 368 437
#     4  10  25  45  74 100 147 194 233 283 373 446
#     4  12  20  44  66 100 124 196 242 288 364 436
#
# _framework density 22.306265
#
# number of rings (size 3 to 8) (size 9 to 14) (size 15 to 20)
#    0.000    0.571    3.810    2.286   13.333    1.143 
#    3.429    1.905    0.000    0.000    0.000    0.000 
#    0.000    0.000    0.000    0.000    0.000    0.000 
#
# Total GULP energy -234467.872165 kJ/mol
# GULP energy per Si atom -5582.568385 kJ/mol
# Density = 2.225550 g / cm^3
# Si number density = 22.306265 Si / 1000 Ang^3
#
#
#
# Elastic Constant Matrix: (Units=GPa)
#
#
# Indices 1 2 3 4 5 6 
#
# 1 92.6701 25.2097 2.8410 0.0000 0.0000 0.0000
# 2 25.2097 99.6743 18.9315 0.0000 0.0000 0.0000
# 3 2.8410 18.9315 54.8376 0.0000 0.0000 0.0000
# 4 0.0000 0.0000 0.0000 15.9856 0.0000 0.0000
# 5 0.0000 0.0000 0.0000 0.0000 41.9429 0.0000
# 6 0.0000 0.0000 0.0000 0.0000 0.0000 25.3841
#
#
#
# Elastic Compliance Matrix: (Units=1/GPa)
#
#
# Indices 1 2 3 4 5 6 
#
# 1 0.011598 -0.003017 0.000441 0.000000 0.000000 0.000000
# 2 -0.003017 0.011522 -0.003821 0.000000 0.000000 0.000000
# 3 0.000441 -0.003821 0.019532 0.000000 0.000000 0.000000
# 4 0.000000 0.000000 0.000000 0.062556 0.000000 0.000000
# 5 0.000000 0.000000 0.000000 0.000000 0.023842 0.000000
# 6 0.000000 0.000000 0.000000 0.000000 0.000000 0.039395
#
#
# Mechanical properties :
#
#
# Convention : Reuss Voigt Hill
#
# Bulk Modulus (GPa) = 33.49356 37.90515 35.69935
# Shear Modulus (GPa) = 26.15170 30.00919 28.08044
#
# Velocity S-wave (km/s) = 3.42774 3.67185 3.55189
# Velocity P-wave (km/s) = 5.54200 5.91663 5.73238
#
# Compressibility (1/GPa) = 0.02985649
#
# Stress axis : x y z
#
# Youngs Moduli (GPa) = 86.22001 86.79382 51.19794
#
# Poissons Ratio (x) = 0.26187 -0.02256
# Poissons Ratio (y) = 0.26014 0.19564
# Poissons Ratio (z) = -0.03800 0.33166
#
# Static dielectric constant tensor:
#      x y z
#    x 1.909640 0.000000 0.000000 
#    y 0.000000 2.059000 0.000000 
#    z 0.000000 0.000000 46.851820 
# 
# From -- ./inp_files/27072.got.cif
#   From: 2010.05.17/outbox.cif.g08.bks.cpg/sg48_14_cif.got.tgz:27072.got - 2010.06.03 20:39:00.
