data_PCOD9391437
_publ_section_title
;
Structure prediction by ZEFSAII (Michael W. Deem and Ramdas Pophale) SiO2 
 PCOD9391437
Probable space group: P N N N
;
_chemical_formula_sum "Si O2"
_cell_formula_units_Z 34
_cell_length_a 5.041214
_cell_length_b 15.884377
_cell_length_c 18.934455
_cell_angle_alpha 90.000000
_cell_angle_beta 90.000000
_cell_angle_gamma 90.000000
_cell_volume 1516.205714
_symmetry_space_group_name_H-M "P N N N"
_symmetry_group_IT_number 48
_space_group.IT_coordinate_system_code '2'
_symmetry_cell_setting 'orthorhombic'
loop_
_space_group_symop_operation_xyz
x,y,z
1/2-x,1/2-y,z
x,1/2-y,1/2-z
1/2-x,y,1/2-z
-x,-y,-z
1/2+x,1/2+y,-z
-x,1/2+y,1/2+z
1/2+x,-y,1/2+z
loop_
_atom_site_type_symbol
_atom_site_label
_atom_site_fract_x
_atom_site_fract_y
_atom_site_fract_z
Si Si1 0.250000 0.992748 0.750000
Si Si2 0.750000 0.880896 0.750000
Si Si3 0.573454 0.883410 0.363080
Si Si4 0.250000 0.750000 0.541835
Si Si5 0.250000 0.250000 0.132765
Si Si6 0.943662 0.411664 0.955405
Si Si7 0.250000 0.250000 0.750000
O O1 0.501948 0.937442 0.736272
O O2 0.252844 0.049590 0.681094
O O3 0.670391 0.824853 0.815960
O O4 0.287832 0.915022 0.393212
O O5 0.573721 0.806374 0.305589
O O6 0.774387 0.873986 0.428428
O O7 0.500547 0.775672 0.587952
O O8 0.169497 0.834302 0.500967
O O9 0.000000 0.500000 0.000000
#
# Coordination Sequence:
#
# PCOD9391437 Si02
#       7
#     4   4   8   4   4   8   2
#     4  11  24  40  74  99 138 176 226 301 356 418
#     4  11  24  44  66  99 134 176 224 299 348 428
#     4  11  25  45  71 108 140 190 243 304 377 439
#     4  12  26  45  70 101 136 196 234 294 358 438
#     4  11  26  43  70  95 134 179 234 284 358 425
#     4  12  27  45  71 104 151 196 245 301 368 463
#     4  10  24  48  80 106 148 192 256 338 384 450
#
# _framework density 22.424398
#
# number of rings (size 3 to 8) (size 9 to 14) (size 15 to 20)
#    0.000    0.706    0.000    6.353    9.882    5.647 
#    0.000    0.000    0.000    0.000    0.000    0.000 
#    0.000    0.000    0.000    0.000    0.000    0.000 
#
# Total GULP energy -189580.620976 kJ/mol
# GULP energy per Si atom -5575.900617 kJ/mol
# Density = 2.237336 g / cm^3
# Si number density = 22.424398 Si / 1000 Ang^3
#
#
#
# Elastic Constant Matrix: (Units=GPa)
#
#
# Indices 1 2 3 4 5 6 
#
# 1 114.7348 12.1815 33.9291 0.0000 0.0000 0.0000
# 2 12.1815 110.8689 47.7964 0.0000 0.0000 0.0000
# 3 33.9291 47.7964 91.7544 0.0000 0.0000 0.0000
# 4 0.0000 0.0000 0.0000 36.9190 0.0000 0.0000
# 5 0.0000 0.0000 0.0000 0.0000 47.5673 0.0000
# 6 0.0000 0.0000 0.0000 0.0000 0.0000 35.5348
#
#
#
# Elastic Compliance Matrix: (Units=1/GPa)
#
#
# Indices 1 2 3 4 5 6 
#
# 1 0.009820 0.000627 -0.003958 0.000000 0.000000 0.000000
# 2 0.000627 0.011672 -0.006312 0.000000 0.000000 0.000000
# 3 -0.003958 -0.006312 0.015650 0.000000 0.000000 0.000000
# 4 0.000000 0.000000 0.000000 0.027086 0.000000 0.000000
# 5 0.000000 0.000000 0.000000 0.000000 0.021023 0.000000
# 6 0.000000 0.000000 0.000000 0.000000 0.000000 0.028141
#
#
# Mechanical properties :
#
#
# Convention : Reuss Voigt Hill
#
# Bulk Modulus (GPa) = 56.00190 56.13024 56.06607
# Shear Modulus (GPa) = 36.06728 38.90097 37.48412
#
# Velocity S-wave (km/s) = 4.01483 4.16956 4.09293
# Velocity P-wave (km/s) = 6.82053 6.94734 6.88423
#
# Compressibility (1/GPa) = 0.01785654
#
# Stress axis : x y z
#
# Youngs Moduli (GPa) = 101.83754 85.67572 63.89653
#
# Poissons Ratio (x) = -0.05375 0.25290
# Poissons Ratio (y) = -0.06389 0.40332
# Poissons Ratio (z) = 0.40306 0.54079
#
# Static dielectric constant tensor:
#      x y z
#    x 1.827590 0.000000 0.000000 
#    y 0.000000 1.888070 0.000000 
#    z 0.000000 0.000000 2.176730 
# 
# From -- ./inp_files/28203.got.cif
#   From: 2010.05.17/outbox.cif.g08.bks.cpg/sg48_15_cif.got.tgz:28203.got - 2010.06.03 20:39:00.
