data_PCOD9391784
_publ_section_title
;
Structure prediction by ZEFSAII (Michael W. Deem and Ramdas Pophale) SiO2 
 PCOD9391784
Probable space group: P N N N
;
_chemical_formula_sum "Si O2"
_cell_formula_units_Z 40
_cell_length_a 12.473303
_cell_length_b 15.772362
_cell_length_c 8.640835
_cell_angle_alpha 90.000000
_cell_angle_beta 90.000000
_cell_angle_gamma 90.000000
_cell_volume 1699.941283
_symmetry_space_group_name_H-M "P N N N"
_symmetry_group_IT_number 48
_space_group.IT_coordinate_system_code '2'
_symmetry_cell_setting 'orthorhombic'
loop_
_space_group_symop_operation_xyz
x,y,z
1/2-x,1/2-y,z
x,1/2-y,1/2-z
1/2-x,y,1/2-z
-x,-y,-z
1/2+x,1/2+y,-z
-x,1/2+y,1/2+z
1/2+x,-y,1/2+z
loop_
_atom_site_type_symbol
_atom_site_label
_atom_site_fract_x
_atom_site_fract_y
_atom_site_fract_z
Si Si1 0.804820 0.562198 0.594941
Si Si2 0.628263 0.162971 0.302771
Si Si3 0.607793 0.000388 0.098715
Si Si4 0.361042 0.616355 0.158269
Si Si5 0.903596 0.658492 0.307441
O O1 0.750000 0.600483 0.750000
O O2 0.712419 0.504114 0.511528
O O3 0.881328 0.485360 0.649219
O O4 0.863595 0.627861 0.478901
O O5 0.571460 0.250000 0.250000
O O6 0.750000 0.168615 0.250000
O O7 0.635041 0.152050 0.485032
O O8 0.592378 0.079599 0.212586
O O9 0.631980 0.917233 0.197666
O O10 0.500000 0.000000 0.000000
O O11 0.250000 0.633798 0.250000
O O12 0.468576 0.656199 0.225159
O O13 0.865657 0.750000 0.250000
#
# Coordination Sequence:
#
# PCOD9391784 Si02
#       5
#     8   8   8   8   8
#     4  11  24  48  76 102 144 196 251 307 379 444
#     4  11  24  42  70 104 147 186 240 303 384 448
#     4  12  25  46  71 104 146 196 243 310 375 451
#     4  11  24  46  75 108 147 191 250 318 382 449
#     4  12  28  46  74 109 150 199 251 310 380 459
#
# _framework density 23.530225000000002
#
# number of rings (size 3 to 8) (size 9 to 14) (size 15 to 20)
#    0.000    0.600    4.000    3.600    5.600    3.600 
#    0.000    2.000    0.000    0.000    0.000    0.000 
#    0.000    0.000    0.000    0.000    0.000    0.000 
#
# Total GULP energy -223407.698447 kJ/mol
# GULP energy per Si atom -5585.192461 kJ/mol
# Density = 2.347667 g / cm^3
# Si number density = 23.530225 Si / 1000 Ang^3
#
#
#
# Elastic Constant Matrix: (Units=GPa)
#
#
# Indices 1 2 3 4 5 6 
#
# 1 120.7377 35.1063 25.2194 0.0000 0.0000 0.0000
# 2 35.1063 190.2253 72.7891 0.0000 0.0000 0.0000
# 3 25.2194 72.7891 125.7586 0.0000 0.0000 0.0000
# 4 0.0000 0.0000 0.0000 36.7393 0.0000 0.0000
# 5 0.0000 0.0000 0.0000 0.0000 57.3631 0.0000
# 6 0.0000 0.0000 0.0000 0.0000 0.0000 42.1884
#
#
#
# Elastic Compliance Matrix: (Units=1/GPa)
#
#
# Indices 1 2 3 4 5 6 
#
# 1 0.008862 -0.001227 -0.001067 0.000000 0.000000 0.000000
# 2 -0.001227 0.006922 -0.003761 0.000000 0.000000 0.000000
# 3 -0.001067 -0.003761 0.010342 0.000000 0.000000 0.000000
# 4 0.000000 0.000000 0.000000 0.027219 0.000000 0.000000
# 5 0.000000 0.000000 0.000000 0.000000 0.017433 0.000000
# 6 0.000000 0.000000 0.000000 0.000000 0.000000 0.023703
#
#
# Mechanical properties :
#
#
# Convention : Reuss Voigt Hill
#
# Bulk Modulus (GPa) = 71.33982 78.10569 74.72276
# Shear Modulus (GPa) = 44.93839 47.49862 46.21850
#
# Velocity S-wave (km/s) = 4.37488 4.49778 4.43676
# Velocity P-wave (km/s) = 7.47688 7.76139 7.62046
#
# Compressibility (1/GPa) = 0.01401742
#
# Stress axis : x y z
#
# Youngs Moduli (GPa) = 112.84001 144.45878 96.69032
#
# Poissons Ratio (x) = 0.17729 0.10315
# Poissons Ratio (y) = 0.13849 0.36361
# Poissons Ratio (z) = 0.12038 0.54325
#
# Static dielectric constant tensor:
#      x y z
#    x 2.789820 0.000000 0.000000 
#    y 0.000000 2.068020 0.000000 
#    z 0.000000 0.000000 1.548420 
# 
# From -- ./inp_files/12329.got.cif
#   From: 2010.05.17/outbox.cif.g08.bks.cpg/sg48_7_cif.got.tgz:12329.got - 2010.06.03 20:39:00.
