data_PCOD9391078
_publ_section_title
;
Structure prediction by ZEFSAII (Michael W. Deem and Ramdas Pophale) SiO2 
 PCOD9391078
Probable space group: P N N N
;
_chemical_formula_sum "Si O2"
_cell_formula_units_Z 24
_cell_length_a 15.604722
_cell_length_b 8.823903
_cell_length_c 7.617845
_cell_angle_alpha 90.000000
_cell_angle_beta 90.000000
_cell_angle_gamma 90.000000
_cell_volume 1048.935764
_symmetry_space_group_name_H-M "P N N N"
_symmetry_group_IT_number 48
_space_group.IT_coordinate_system_code '2'
_symmetry_cell_setting 'orthorhombic'
loop_
_space_group_symop_operation_xyz
x,y,z
1/2-x,1/2-y,z
x,1/2-y,1/2-z
1/2-x,y,1/2-z
-x,-y,-z
1/2+x,1/2+y,-z
-x,1/2+y,1/2+z
1/2+x,-y,1/2+z
loop_
_atom_site_type_symbol
_atom_site_label
_atom_site_fract_x
_atom_site_fract_y
_atom_site_fract_z
Si Si1 0.398955 0.425817 0.292513
Si Si2 0.664381 0.349387 0.002835
Si Si3 0.903933 0.056080 0.354729
O O1 0.389208 0.250000 0.250000
O O2 0.352505 0.539735 0.158345
O O3 0.499659 0.472278 0.290823
O O4 0.371536 0.446230 0.494176
O O5 0.750000 0.250000 0.983696
O O6 0.657142 0.437203 0.187024
O O7 0.593825 0.218383 0.042246
#
# Coordination Sequence:
#
# PCOD9391078 Si02
#       3
#     8   8   8
#     4  11  23  40  68 108 138 178 238 297 346 421
#     4  11  23  43  68  97 141 194 234 284 361 431
#     4  10  22  40  68 100 139 183 234 284 351 429
#
# _framework density 22.880331999999999
#
# number of rings (size 3 to 8) (size 9 to 14) (size 15 to 20)
#    0.000    1.333    3.333    4.000    0.000    5.333 
#    0.000    3.333    0.000    8.000    0.000    0.000 
#    0.000    0.000    0.000    0.000    0.000    0.000 
#
# Total GULP energy -134129.901036 kJ/mol
# GULP energy per Si atom -5588.745876 kJ/mol
# Density = 2.282826 g / cm^3
# Si number density = 22.880332 Si / 1000 Ang^3
#
#
#
# Elastic Constant Matrix: (Units=GPa)
#
#
# Indices 1 2 3 4 5 6 
#
# 1 111.5261 53.4386 85.6149 0.0000 0.0000 0.0000
# 2 53.4386 98.4822 116.6761 0.0000 0.0000 0.0000
# 3 85.6149 116.6761 210.6056 0.0000 0.0000 0.0000
# 4 0.0000 0.0000 0.0000 51.2270 0.0000 0.0000
# 5 0.0000 0.0000 0.0000 0.0000 26.4412 0.0000
# 6 0.0000 0.0000 0.0000 0.0000 0.0000 41.2841
#
#
#
# Elastic Compliance Matrix: (Units=1/GPa)
#
#
# Indices 1 2 3 4 5 6 
#
# 1 0.013218 -0.002346 -0.004073 0.000000 0.000000 0.000000
# 2 -0.002346 0.029964 -0.015647 0.000000 0.000000 0.000000
# 3 -0.004073 -0.015647 0.015072 0.000000 0.000000 0.000000
# 4 0.000000 0.000000 0.000000 0.019521 0.000000 0.000000
# 5 0.000000 0.000000 0.000000 0.000000 0.037820 0.000000
# 6 0.000000 0.000000 0.000000 0.000000 0.000000 0.024222
#
#
# Mechanical properties :
#
#
# Convention : Reuss Voigt Hill
#
# Bulk Modulus (GPa) = 70.81141 103.56366 87.18754
# Shear Modulus (GPa) = 26.50303 34.78274 30.64288
#
# Velocity S-wave (km/s) = 3.40712 3.90321 3.66357
# Velocity P-wave (km/s) = 6.81863 8.10400 7.48894
#
# Compressibility (1/GPa) = 0.01412202
#
# Stress axis : x y z
#
# Youngs Moduli (GPa) = 75.65568 33.37284 66.34658
#
# Poissons Ratio (x) = 0.07830 0.27025
# Poissons Ratio (y) = 0.17751 1.03810
# Poissons Ratio (z) = 0.30817 0.52217
#
# Static dielectric constant tensor:
#      x y z
#    x 1.913990 0.000000 0.000000 
#    y 0.000000 1.885120 0.000000 
#    z 0.000000 0.000000 1.886660 
# 
# From -- ./inp_files/11714.got.cif
#   From: 2010.05.17/outbox.cif.g08.bks.cpg/sg48_6_cif.got.tgz:11714.got - 2010.06.03 20:39:00.
