data_PCOD9391456
_publ_section_title
;
Structure prediction by ZEFSAII (Michael W. Deem and Ramdas Pophale) SiO2 
 PCOD9391456
Probable space group: P N N N
;
_chemical_formula_sum "Si O2"
_cell_formula_units_Z 28
_cell_length_a 22.069253
_cell_length_b 10.974188
_cell_length_c 5.030065
_cell_angle_alpha 90.000000
_cell_angle_beta 90.000000
_cell_angle_gamma 90.000000
_cell_volume 1218.242164
_symmetry_space_group_name_H-M "P N N N"
_symmetry_group_IT_number 48
_space_group.IT_coordinate_system_code '2'
_symmetry_cell_setting 'orthorhombic'
loop_
_space_group_symop_operation_xyz
x,y,z
1/2-x,1/2-y,z
x,1/2-y,1/2-z
1/2-x,y,1/2-z
-x,-y,-z
1/2+x,1/2+y,-z
-x,1/2+y,1/2+z
1/2+x,-y,1/2+z
loop_
_atom_site_type_symbol
_atom_site_label
_atom_site_fract_x
_atom_site_fract_y
_atom_site_fract_z
Si Si1 0.136764 0.867803 0.920134
Si Si2 0.639945 0.636361 0.056004
Si Si3 0.045317 0.750000 0.250000
Si Si4 0.250000 0.750000 0.750000
Si Si5 0.539686 0.750000 0.750000
Si Si6 0.250000 0.250000 0.250000
O O1 0.115858 0.750000 0.750000
O O2 0.207370 0.832286 0.937206
O O3 0.135766 0.004227 0.811800
O O4 0.092141 0.857353 0.169772
O O5 0.630216 0.750000 0.250000
O O6 0.586096 0.645028 0.841152
O O7 0.704837 0.664668 0.920727
O O8 0.001681 0.779957 0.496659
#
# Coordination Sequence:
#
# PCOD9391456 Si02
#       6
#     8   8   4   2   4   2
#     4  10  25  45  75 109 146 195 243 307 370 442
#     4  11  25  46  75 109 149 193 249 306 376 439
#     4  12  24  51  70 111 148 198 250 304 364 442
#     4   8  22  46  68 114 138 194 230 308 364 438
#     4  11  25  49  72 109 149 199 246 310 362 437
#     4  10  26  40  70 112 144 204 236 314 364 460
#
# _framework density 22.983937999999998
#
# number of rings (size 3 to 8) (size 9 to 14) (size 15 to 20)
#    0.857    0.571    2.857    0.429    4.000    9.714 
#    0.000    0.000    0.000    0.000    0.000    0.000 
#    0.000    0.000    0.000    0.000    0.000    0.000 
#
# Total GULP energy -155950.887265 kJ/mol
# GULP energy per Si atom -5569.674545 kJ/mol
# Density = 2.293163 g / cm^3
# Si number density = 22.983938 Si / 1000 Ang^3
#
#
#
# Elastic Constant Matrix: (Units=GPa)
#
#
# Indices 1 2 3 4 5 6 
#
# 1 181.1535 45.2350 63.5196 0.0000 0.0000 0.0000
# 2 45.2350 199.0205 50.8471 0.0000 0.0000 0.0000
# 3 63.5196 50.8471 106.9064 0.0000 0.0000 0.0000
# 4 0.0000 0.0000 0.0000 23.8675 0.0000 0.0000
# 5 0.0000 0.0000 0.0000 0.0000 55.0360 0.0000
# 6 0.0000 0.0000 0.0000 0.0000 0.0000 -53.8897
#
#
#
# Elastic Compliance Matrix: (Units=1/GPa)
#
#
# Indices 1 2 3 4 5 6 
#
# 1 0.007036 -0.000605 -0.003893 0.000000 0.000000 0.000000
# 2 -0.000605 0.005772 -0.002386 0.000000 0.000000 0.000000
# 3 -0.003893 -0.002386 0.012802 0.000000 0.000000 0.000000
# 4 0.000000 0.000000 0.000000 0.041898 0.000000 0.000000
# 5 0.000000 0.000000 0.000000 0.000000 0.018170 0.000000
# 6 0.000000 0.000000 0.000000 0.000000 0.000000 -0.018556
#
#
# Mechanical properties :
#
#
# Convention : Reuss Voigt Hill
#
# Bulk Modulus (GPa) = 84.44120 89.58709 87.01414
# Shear Modulus (GPa) = 58.93737 26.83466 42.88602
#
# Velocity S-wave (km/s) = 5.06937 3.42064 4.32431
# Velocity P-wave (km/s) = 8.43111 7.39349 7.92929
#
# Compressibility (1/GPa) = 0.01184256
#
# Stress axis : x y z
#
# Youngs Moduli (GPa) = 142.12159 173.26269 78.11365
#
# Poissons Ratio (x) = 0.10476 0.30410
# Poissons Ratio (y) = 0.08593 0.18637
# Poissons Ratio (z) = 0.55329 0.41338
#
# Static dielectric constant tensor:
#      x y z
#    x 1.897520 0.000000 0.000000 
#    y 0.000000 1.836900 0.000000 
#    z 0.000000 0.000000 2.006340 
# 
# From -- ./inp_files/4854.got.cif
#   From: 2010.05.17/outbox.cif.g08.bks.cpg/sg48_3_cif.got.tgz:4854.got - 2010.06.03 20:39:00.
