data_PCOD9391921
_publ_section_title
;
Structure prediction by ZEFSAII (Michael W. Deem and Ramdas Pophale) SiO2 
 PCOD9391921
Probable space group: P N N N
;
_chemical_formula_sum "Si O2"
_cell_formula_units_Z 26
_cell_length_a 28.210595
_cell_length_b 8.029078
_cell_length_c 5.124446
_cell_angle_alpha 90.000000
_cell_angle_beta 90.000000
_cell_angle_gamma 90.000000
_cell_volume 1160.712988
_symmetry_space_group_name_H-M "P N N N"
_symmetry_group_IT_number 48
_space_group.IT_coordinate_system_code '2'
_symmetry_cell_setting 'orthorhombic'
loop_
_space_group_symop_operation_xyz
x,y,z
1/2-x,1/2-y,z
x,1/2-y,1/2-z
1/2-x,y,1/2-z
-x,-y,-z
1/2+x,1/2+y,-z
-x,1/2+y,1/2+z
1/2+x,-y,1/2+z
loop_
_atom_site_type_symbol
_atom_site_label
_atom_site_fract_x
_atom_site_fract_y
_atom_site_fract_z
Si Si1 0.800226 0.561088 0.366975
Si Si2 0.903018 0.433367 0.348293
Si Si3 0.250000 0.250000 0.250000
Si Si4 0.951923 0.931789 0.631007
O O1 0.806180 0.750000 0.250000
O O2 0.750000 0.498090 0.250000
O O3 0.846381 0.451105 0.362425
O O4 0.788111 0.612471 0.657854
O O5 0.916258 0.250000 0.250000
O O6 0.929317 0.468499 0.623033
O O7 0.917309 0.560650 0.117513
O O8 0.959792 0.750000 0.750000
O O9 0.000000 0.000000 0.500000
#
# Coordination Sequence:
#
# PCOD9391921 Si02
#       4
#     8   8   2   8
#     4   9  20  38  67 101 140 187 240 283 350 417
#     4  12  27  45  72 109 148 185 235 297 360 425
#     4   8  18  36  68 100 136 180 248 284 330 432
#     4  12  27  50  76 103 137 189 240 297 357 430
#
# _framework density 22.400026
#
# number of rings (size 3 to 8) (size 9 to 14) (size 15 to 20)
#    0.000    1.538    0.000    5.538   10.769    3.077 
#    0.000    0.000    0.000    0.000    0.000    0.000 
#    0.000    0.000    0.000    0.000    0.000    0.000 
#
# Total GULP energy -144740.788616 kJ/mol
# GULP energy per Si atom -5566.953408 kJ/mol
# Density = 2.234904 g / cm^3
# Si number density = 22.400026 Si / 1000 Ang^3
#
#
#
# Elastic Constant Matrix: (Units=GPa)
#
#
# Indices 1 2 3 4 5 6 
#
# 1 165.7630 48.3364 70.0854 0.0000 0.0000 0.0000
# 2 48.3364 86.8472 36.3863 0.0000 0.0000 0.0000
# 3 70.0854 36.3863 122.1652 0.0000 0.0000 0.0000
# 4 0.0000 0.0000 0.0000 38.7925 0.0000 0.0000
# 5 0.0000 0.0000 0.0000 0.0000 96.1639 0.0000
# 6 0.0000 0.0000 0.0000 0.0000 0.0000 34.9427
#
#
#
# Elastic Compliance Matrix: (Units=1/GPa)
#
#
# Indices 1 2 3 4 5 6 
#
# 1 0.008648 -0.003124 -0.004031 0.000000 0.000000 0.000000
# 2 -0.003124 0.014285 -0.002462 0.000000 0.000000 0.000000
# 3 -0.004031 -0.002462 0.011231 0.000000 0.000000 0.000000
# 4 0.000000 0.000000 0.000000 0.025778 0.000000 0.000000
# 5 0.000000 0.000000 0.000000 0.000000 0.010399 0.000000
# 6 0.000000 0.000000 0.000000 0.000000 0.000000 0.028618
#
#
# Mechanical properties :
#
#
# Convention : Reuss Voigt Hill
#
# Bulk Modulus (GPa) = 66.98089 76.04350 71.51220
# Shear Modulus (GPa) = 40.59389 48.64429 44.61909
#
# Velocity S-wave (km/s) = 4.26164 4.66512 4.46794
# Velocity P-wave (km/s) = 7.36088 7.93974 7.65578
#
# Compressibility (1/GPa) = 0.01492963
#
# Stress axis : x y z
#
# Youngs Moduli (GPa) = 115.63371 70.00318 89.03613
#
# Poissons Ratio (x) = 0.21872 0.35888
# Poissons Ratio (y) = 0.36129 0.21923
# Poissons Ratio (z) = 0.46608 0.17237
#
# Static dielectric constant tensor:
#      x y z
#    x 1.816980 0.000000 0.000000 
#    y 0.000000 1.822360 0.000000 
#    z 0.000000 0.000000 2.226640 
# 
# From -- ./inp_files/6190.got.cif
#   From: 2010.05.17/outbox.cif.g08.bks.cpg/sg48_4_cif.got.tgz:6190.got - 2010.06.03 20:39:00.
