data_PCOD9391267
_publ_section_title
;
Structure prediction by ZEFSAII (Michael W. Deem and Ramdas Pophale) SiO2 
 PCOD9391267
Probable space group: P N N N
;
_chemical_formula_sum "Si O2"
_cell_formula_units_Z 48
_cell_length_a 8.918707
_cell_length_b 7.706238
_cell_length_c 28.948936
_cell_angle_alpha 90.000000
_cell_angle_beta 90.000000
_cell_angle_gamma 90.000000
_cell_volume 1989.651073
_symmetry_space_group_name_H-M "P N N N"
_symmetry_group_IT_number 48
_space_group.IT_coordinate_system_code '2'
_symmetry_cell_setting 'orthorhombic'
loop_
_space_group_symop_operation_xyz
x,y,z
1/2-x,1/2-y,z
x,1/2-y,1/2-z
1/2-x,y,1/2-z
-x,-y,-z
1/2+x,1/2+y,-z
-x,1/2+y,1/2+z
1/2+x,-y,1/2+z
loop_
_atom_site_type_symbol
_atom_site_label
_atom_site_fract_x
_atom_site_fract_y
_atom_site_fract_z
Si Si1 0.352897 0.927919 0.693789
Si Si2 0.573620 0.261887 0.545952
Si Si3 0.074882 0.635558 0.945026
Si Si4 0.081417 0.218032 0.354865
Si Si5 0.670927 0.931674 0.405391
Si Si6 0.915697 0.954803 0.736495
O O1 0.250000 0.750000 0.699178
O O2 0.517042 0.878453 0.673693
O O3 0.421436 0.011079 0.741410
O O4 0.294432 0.030169 0.648904
O O5 0.750000 0.250000 0.551354
O O6 0.522054 0.457420 0.557482
O O7 0.536487 0.260409 0.491159
O O8 0.494951 0.115569 0.577069
O O9 0.244777 0.568627 0.938456
O O10 0.027856 0.721584 0.897654
O O11 0.250000 0.250000 0.368791
O O12 0.071737 0.055449 0.319437
O O13 0.750000 0.750000 0.415937
O O14 0.905865 0.750000 0.750000
O O15 0.750000 0.029505 0.750000
#
# Coordination Sequence:
#
# PCOD9391267 Si02
#       6
#     8   8   8   8   8   8
#     4  11  21  37  65  97 120 165 205 253 316 370
#     4  10  24  41  64  86 121 169 210 255 314 378
#     4  10  23  42  59  91 126 162 208 258 315 375
#     4  11  21  35  62  94 129 158 204 262 310 368
#     4  10  23  44  62  88 130 161 203 267 313 372
#     4   9  17  34  54  92 129 153 192 258 307 353
#
# _framework density 24.124834
#
# number of rings (size 3 to 8) (size 9 to 14) (size 15 to 20)
#    0.000    1.833    5.000    0.000    4.667    7.000 
#    0.000    0.000    0.000    7.000    0.000    7.000 
#    0.000    0.000    0.000    0.000    0.000    0.000 
#
# Total GULP energy -267207.786375 kJ/mol
# GULP energy per Si atom -5566.828883 kJ/mol
# Density = 2.406992 g / cm^3
# Si number density = 24.124834 Si / 1000 Ang^3
#
#
#
# Elastic Constant Matrix: (Units=GPa)
#
#
# Indices 1 2 3 4 5 6 
#
# 1 115.1380 3.5770 0.4833 0.0000 0.0000 0.0000
# 2 3.5770 43.8281 16.6088 0.0000 0.0000 0.0000
# 3 0.4833 16.6088 103.7228 0.0000 0.0000 0.0000
# 4 0.0000 0.0000 0.0000 16.9174 0.0000 0.0000
# 5 0.0000 0.0000 0.0000 0.0000 38.1028 0.0000
# 6 0.0000 0.0000 0.0000 0.0000 0.0000 12.9873
#
#
#
# Elastic Compliance Matrix: (Units=1/GPa)
#
#
# Indices 1 2 3 4 5 6 
#
# 1 0.008708 -0.000740 0.000078 0.000000 0.000000 0.000000
# 2 -0.000740 0.024353 -0.003896 0.000000 0.000000 0.000000
# 3 0.000078 -0.003896 0.010265 0.000000 0.000000 0.000000
# 4 0.000000 0.000000 0.000000 0.059111 0.000000 0.000000
# 5 0.000000 0.000000 0.000000 0.000000 0.026245 0.000000
# 6 0.000000 0.000000 0.000000 0.000000 0.000000 0.076998
#
#
# Mechanical properties :
#
#
# Convention : Reuss Voigt Hill
#
# Bulk Modulus (GPa) = 29.23217 33.78080 31.50649
# Shear Modulus (GPa) = 22.10438 29.73615 25.92027
#
# Velocity S-wave (km/s) = 3.03025 3.51464 3.28139
# Velocity P-wave (km/s) = 4.93827 5.52297 5.23878
#
# Compressibility (1/GPa) = 0.03420889
#
# Stress axis : x y z
#
# Youngs Moduli (GPa) = 114.83830 41.06226 97.42229
#
# Poissons Ratio (x) = 0.03040 -0.00759
# Poissons Ratio (y) = 0.08501 0.37957
# Poissons Ratio (z) = -0.00895 0.15998
#
# Static dielectric constant tensor:
#      x y z
#    x 2.008720 0.000000 0.000000 
#    y 0.000000 2.033450 0.000000 
#    z 0.000000 0.000000 2.200910 
# 
# From -- ./inp_files/38682.got.cif
#   From: 2010.05.17/outbox.cif.g08.bks.cpg/sg48_20_cif.got.tgz:38682.got - 2010.06.03 20:39:00.
