data_PCOD9391282
_publ_section_title
;
Structure prediction by ZEFSAII (Michael W. Deem and Ramdas Pophale) SiO2 
 PCOD9391282
Probable space group: P N N N
;
_chemical_formula_sum "Si O2"
_cell_formula_units_Z 56
_cell_length_a 8.434055
_cell_length_b 21.656940
_cell_length_c 14.188929
_cell_angle_alpha 90.000000
_cell_angle_beta 90.000000
_cell_angle_gamma 90.000000
_cell_volume 2591.690505
_symmetry_space_group_name_H-M "P N N N"
_symmetry_group_IT_number 48
_space_group.IT_coordinate_system_code '2'
_symmetry_cell_setting 'orthorhombic'
loop_
_space_group_symop_operation_xyz
x,y,z
1/2-x,1/2-y,z
x,1/2-y,1/2-z
1/2-x,y,1/2-z
-x,-y,-z
1/2+x,1/2+y,-z
-x,1/2+y,1/2+z
1/2+x,-y,1/2+z
loop_
_atom_site_type_symbol
_atom_site_label
_atom_site_fract_x
_atom_site_fract_y
_atom_site_fract_z
Si Si1 0.750000 0.129298 0.250000
Si Si2 0.233821 0.057647 0.638706
Si Si3 0.084559 0.160628 0.538559
Si Si4 0.452264 0.610482 0.047897
Si Si5 0.932770 0.267964 0.651252
Si Si6 0.084522 0.788711 0.878218
Si Si7 0.250000 0.250000 0.079134
Si Si8 0.842289 0.065886 0.445069
O O1 0.889771 0.174595 0.218547
O O2 0.787827 0.091149 0.342742
O O3 0.250000 0.043165 0.750000
O O4 0.142637 0.122162 0.627781
O O5 0.397975 0.068357 0.579279
O O6 0.133416 0.005658 0.582107
O O7 0.233678 0.187275 0.481957
O O8 0.000358 0.223418 0.570663
O O9 0.976271 0.113909 0.479070
O O10 0.441207 0.659729 0.132357
O O11 0.440095 0.658580 0.958771
O O12 0.297040 0.570038 0.023645
O O13 0.750000 0.250000 0.654592
O O14 0.010695 0.250000 0.750000
O O15 0.250000 0.750000 0.896027
O O16 0.920127 0.752245 0.871721
#
# Coordination Sequence:
#
# PCOD9391282 Si02
#       8
#     4   8   8   8   8   8   4   8
#     4  10  23  42  68  96 130 175 234 280 322 402
#     4  12  25  44  64  97 133 175 235 283 336 405
#     4  12  23  41  67 100 134 175 215 279 348 408
#     4  11  21  41  68  94 130 179 224 276 343 425
#     4  11  21  37  64 101 137 171 220 282 351 420
#     4  11  22  41  69 104 140 180 225 276 353 421
#     4  12  22  40  72 104 140 172 222 276 349 429
#     4  11  24  45  69  90 131 184 234 275 336 409
#
# _framework density 21.607519
#
# number of rings (size 3 to 8) (size 9 to 14) (size 15 to 20)
#    0.000    0.714    5.000    4.071    0.000    0.000 
#    0.000    7.143    0.000    1.714    0.000    0.000 
#    0.000    0.000    0.000    0.000    0.000    0.000 
#
# Total GULP energy -312048.021719 kJ/mol
# GULP energy per Si atom -5572.286102 kJ/mol
# Density = 2.155834 g / cm^3
# Si number density = 21.607519 Si / 1000 Ang^3
#
#
#
# Elastic Constant Matrix: (Units=GPa)
#
#
# Indices 1 2 3 4 5 6 
#
# 1 94.0549 24.8652 18.9634 0.0000 0.0000 0.0000
# 2 24.8652 92.7464 18.4936 0.0000 0.0000 0.0000
# 3 18.9634 18.4936 84.8802 0.0000 0.0000 0.0000
# 4 0.0000 0.0000 0.0000 20.2675 0.0000 0.0000
# 5 0.0000 0.0000 0.0000 0.0000 9.1570 0.0000
# 6 0.0000 0.0000 0.0000 0.0000 0.0000 34.3244
#
#
#
# Elastic Compliance Matrix: (Units=1/GPa)
#
#
# Indices 1 2 3 4 5 6 
#
# 1 0.011768 -0.002750 -0.002030 0.000000 0.000000 0.000000
# 2 -0.002750 0.011915 -0.001981 0.000000 0.000000 0.000000
# 3 -0.002030 -0.001981 0.012667 0.000000 0.000000 0.000000
# 4 0.000000 0.000000 0.000000 0.049340 0.000000 0.000000
# 5 0.000000 0.000000 0.000000 0.000000 0.109207 0.000000
# 6 0.000000 0.000000 0.000000 0.000000 0.000000 0.029134
#
#
# Mechanical properties :
#
#
# Convention : Reuss Voigt Hill
#
# Bulk Modulus (GPa) = 43.80971 44.03621 43.92296
# Shear Modulus (GPa) = 20.39465 26.70706 23.55086
#
# Velocity S-wave (km/s) = 3.07558 3.51950 3.30500
# Velocity P-wave (km/s) = 5.73859 6.07784 5.91065
#
# Compressibility (1/GPa) = 0.02282599
#
# Stress axis : x y z
#
# Youngs Moduli (GPa) = 84.97274 83.93096 78.94807
#
# Poissons Ratio (x) = 0.23084 0.16026
# Poissons Ratio (y) = 0.23370 0.15643
# Poissons Ratio (z) = 0.17249 0.16631
#
# Static dielectric constant tensor:
#      x y z
#    x 1.823390 0.000000 0.000000 
#    y 0.000000 1.855880 0.000000 
#    z 0.000000 0.000000 1.881150 
# 
# From -- ./inp_files/25637.got.cif
#   From: 2010.05.17/outbox.cif.g08.bks.cpg/sg48_13_cif.got.tgz:25637.got - 2010.06.03 20:39:00.
