data_PCOD9391241
_publ_section_title
;
Structure prediction by ZEFSAII (Michael W. Deem and Ramdas Pophale) SiO2 
 PCOD9391241
Probable space group: P N N N
;
_chemical_formula_sum "Si O2"
_cell_formula_units_Z 32
_cell_length_a 8.761957
_cell_length_b 10.771227
_cell_length_c 14.922342
_cell_angle_alpha 90.000000
_cell_angle_beta 90.000000
_cell_angle_gamma 90.000000
_cell_volume 1408.326286
_symmetry_space_group_name_H-M "P N N N"
_symmetry_group_IT_number 48
_space_group.IT_coordinate_system_code '2'
_symmetry_cell_setting 'orthorhombic'
loop_
_space_group_symop_operation_xyz
x,y,z
1/2-x,1/2-y,z
x,1/2-y,1/2-z
1/2-x,y,1/2-z
-x,-y,-z
1/2+x,1/2+y,-z
-x,1/2+y,1/2+z
1/2+x,-y,1/2+z
loop_
_atom_site_type_symbol
_atom_site_label
_atom_site_fract_x
_atom_site_fract_y
_atom_site_fract_z
Si Si1 0.077599 0.781959 0.353629
Si Si2 0.802091 0.123294 0.352037
Si Si3 0.903048 0.552318 0.915739
Si Si4 0.630735 0.910992 0.461764
O O1 0.250000 0.750000 0.382886
O O2 0.048549 0.750000 0.250000
O O3 0.951029 0.708390 0.414336
O O4 0.095533 0.929658 0.356136
O O5 0.750000 0.250000 0.399575
O O6 0.750000 0.122813 0.250000
O O7 0.983512 0.138775 0.361971
O O8 0.728556 0.998272 0.393650
O O9 0.748243 0.607008 0.955417
O O10 0.000000 0.500000 0.000000
O O11 0.500000 0.000000 0.500000
#
# Coordination Sequence:
#
# PCOD9391241 Si02
#       4
#     8   8   8   8
#     4  11  23  42  68 100 139 181 231 289 349 416
#     4  10  23  44  66  91 134 178 223 279 339 415
#     4  10  23  40  65  99 131 170 232 278 345 419
#     4  11  23  40  69  98 134 174 220 289 351 405
#
# _framework density 22.722007999999999
#
# number of rings (size 3 to 8) (size 9 to 14) (size 15 to 20)
#    0.000    1.500    2.500    1.500    7.000    4.000 
#    0.000    6.250    0.000    3.000    0.000    0.000 
#    0.000    0.000    0.000    0.000    0.000    0.000 
#
# Total GULP energy -178280.109323 kJ/mol
# GULP energy per Si atom -5571.253416 kJ/mol
# Density = 2.267029 g / cm^3
# Si number density = 22.722008 Si / 1000 Ang^3
#
#
#
# Elastic Constant Matrix: (Units=GPa)
#
#
# Indices 1 2 3 4 5 6 
#
# 1 185.5708 51.4594 52.8031 0.0000 0.0000 0.0000
# 2 51.4594 122.4685 16.2665 0.0000 0.0000 0.0000
# 3 52.8031 16.2665 105.4467 0.0000 0.0000 0.0000
# 4 0.0000 0.0000 0.0000 27.9498 0.0000 0.0000
# 5 0.0000 0.0000 0.0000 0.0000 47.6304 0.0000
# 6 0.0000 0.0000 0.0000 0.0000 0.0000 29.0989
#
#
#
# Elastic Compliance Matrix: (Units=1/GPa)
#
#
# Indices 1 2 3 4 5 6 
#
# 1 0.006969 -0.002516 -0.003102 0.000000 0.000000 0.000000
# 2 -0.002516 0.009245 -0.000166 0.000000 0.000000 0.000000
# 3 -0.003102 -0.000166 0.011062 0.000000 0.000000 0.000000
# 4 0.000000 0.000000 0.000000 0.035778 0.000000 0.000000
# 5 0.000000 0.000000 0.000000 0.000000 0.020995 0.000000
# 6 0.000000 0.000000 0.000000 0.000000 0.000000 0.034366
#
#
# Mechanical properties :
#
#
# Convention : Reuss Voigt Hill
#
# Bulk Modulus (GPa) = 63.66171 72.72712 68.19442
# Shear Modulus (GPa) = 36.97701 40.46630 38.72166
#
# Velocity S-wave (km/s) = 4.03844 4.22468 4.13261
# Velocity P-wave (km/s) = 7.05860 7.47490 7.26973
#
# Compressibility (1/GPa) = 0.01570803
#
# Stress axis : x y z
#
# Youngs Moduli (GPa) = 143.48994 108.16947 90.39748
#
# Poissons Ratio (x) = 0.27219 0.28038
# Poissons Ratio (y) = 0.36107 0.01501
# Poissons Ratio (z) = 0.44506 0.01796
#
# Static dielectric constant tensor:
#      x y z
#    x 1.471460 0.000000 0.000000 
#    y 0.000000 1.742110 0.000000 
#    z 0.000000 0.000000 1.875140 
# 
# From -- ./inp_files/10086.got.cif
#   From: 2010.05.17/outbox.cif.g08.bks.cpg/sg48_6_cif.got.tgz:10086.got - 2010.06.03 20:39:00.
