data_PCOD9391780
_publ_section_title
;
Structure prediction by ZEFSAII (Michael W. Deem and Ramdas Pophale) SiO2 
 PCOD9391780
Probable space group: P N N N
;
_chemical_formula_sum "Si O2"
_cell_formula_units_Z 28
_cell_length_a 22.687891
_cell_length_b 7.125023
_cell_length_c 7.801355
_cell_angle_alpha 90.000000
_cell_angle_beta 90.000000
_cell_angle_gamma 90.000000
_cell_volume 1261.102651
_symmetry_space_group_name_H-M "P N N N"
_symmetry_group_IT_number 48
_space_group.IT_coordinate_system_code '2'
_symmetry_cell_setting 'orthorhombic'
loop_
_space_group_symop_operation_xyz
x,y,z
1/2-x,1/2-y,z
x,1/2-y,1/2-z
1/2-x,y,1/2-z
-x,-y,-z
1/2+x,1/2+y,-z
-x,1/2+y,1/2+z
1/2+x,-y,1/2+z
loop_
_atom_site_type_symbol
_atom_site_label
_atom_site_fract_x
_atom_site_fract_y
_atom_site_fract_z
Si Si1 0.484251 0.750000 0.250000
Si Si2 0.411972 0.464086 0.880034
Si Si3 0.183622 0.198862 0.449165
Si Si4 0.103089 0.877695 0.500305
O O1 0.526862 0.649926 0.111280
O O2 0.444200 0.596506 0.348576
O O3 0.413783 0.536341 0.683609
O O4 0.397971 0.653238 0.983255
O O5 0.361189 0.320462 0.936512
O O6 0.250000 0.250000 0.499878
O O7 0.176178 0.250000 0.250000
O O8 0.164485 0.981130 0.462318
#
# Coordination Sequence:
#
# PCOD9391780 Si02
#       4
#     4   8   8   8
#     4  12  22  44  67 103 150 180 226 288 352 440
#     4  11  24  42  67 102 136 183 227 286 353 419
#     4  11  25  46  69  94 132 181 237 294 351 419
#     4  11  24  42  67 101 136 182 228 283 355 416
#
# _framework density 22.202794000000001
#
# number of rings (size 3 to 8) (size 9 to 14) (size 15 to 20)
#    0.000    0.857    2.857    3.429    0.000    3.429 
#    0.000    5.714    0.000    0.000    0.000    0.000 
#    0.000    0.000    0.000    0.000    0.000    0.000 
#
# Total GULP energy -156276.790451 kJ/mol
# GULP energy per Si atom -5581.313945 kJ/mol
# Density = 2.215226 g / cm^3
# Si number density = 22.202794 Si / 1000 Ang^3
#
#
#
# Elastic Constant Matrix: (Units=GPa)
#
#
# Indices 1 2 3 4 5 6 
#
# 1 173.3568 71.4419 46.3814 0.0000 0.0000 0.0000
# 2 71.4419 139.3582 15.0024 0.0000 0.0000 0.0000
# 3 46.3814 15.0024 83.0180 0.0000 0.0000 0.0000
# 4 0.0000 0.0000 0.0000 32.1934 0.0000 0.0000
# 5 0.0000 0.0000 0.0000 0.0000 32.3652 0.0000
# 6 0.0000 0.0000 0.0000 0.0000 0.0000 40.5195
#
#
#
# Elastic Compliance Matrix: (Units=1/GPa)
#
#
# Indices 1 2 3 4 5 6 
#
# 1 0.008450 -0.003900 -0.004016 0.000000 0.000000 0.000000
# 2 -0.003900 0.009118 0.000531 0.000000 0.000000 0.000000
# 3 -0.004016 0.000531 0.014193 0.000000 0.000000 0.000000
# 4 0.000000 0.000000 0.000000 0.031062 0.000000 0.000000
# 5 0.000000 0.000000 0.000000 0.000000 0.030897 0.000000
# 6 0.000000 0.000000 0.000000 0.000000 0.000000 0.024679
#
#
# Mechanical properties :
#
#
# Convention : Reuss Voigt Hill
#
# Bulk Modulus (GPa) = 58.85294 73.48717 66.17006
# Shear Modulus (GPa) = 36.01428 38.54278 37.27853
#
# Velocity S-wave (km/s) = 4.03185 4.17098 4.10201
# Velocity P-wave (km/s) = 6.94543 7.50774 7.23205
#
# Compressibility (1/GPa) = 0.01699150
#
# Stress axis : x y z
#
# Youngs Moduli (GPa) = 118.34283 109.67697 70.45490
#
# Poissons Ratio (x) = 0.42769 0.28297
# Poissons Ratio (y) = 0.46148 -0.03741
# Poissons Ratio (z) = 0.47530 -0.05823
#
# Static dielectric constant tensor:
#      x y z
#    x 1.813240 0.000000 0.000000 
#    y 0.000000 1.849720 0.000000 
#    z 0.000000 0.000000 1.882420 
# 
# From -- ./inp_files/13570.got.cif
#   From: 2010.05.17/outbox.cif.g08.bks.cpg/sg48_7_cif.got.tgz:13570.got - 2010.06.03 20:39:00.
