data_PCOD9391183
_publ_section_title
;
Structure prediction by ZEFSAII (Michael W. Deem and Ramdas Pophale) SiO2 
 PCOD9391183
Probable space group: P N N N
;
_chemical_formula_sum "Si O2"
_cell_formula_units_Z 64
_cell_length_a 12.325080
_cell_length_b 17.804358
_cell_length_c 13.094126
_cell_angle_alpha 90.000000
_cell_angle_beta 90.000000
_cell_angle_gamma 90.000000
_cell_volume 2873.376799
_symmetry_space_group_name_H-M "P N N N"
_symmetry_group_IT_number 48
_space_group.IT_coordinate_system_code '2'
_symmetry_cell_setting 'orthorhombic'
loop_
_space_group_symop_operation_xyz
x,y,z
1/2-x,1/2-y,z
x,1/2-y,1/2-z
1/2-x,y,1/2-z
-x,-y,-z
1/2+x,1/2+y,-z
-x,1/2+y,1/2+z
1/2+x,-y,1/2+z
loop_
_atom_site_type_symbol
_atom_site_label
_atom_site_fract_x
_atom_site_fract_y
_atom_site_fract_z
Si Si1 0.307747 0.177598 0.390620
Si Si2 0.507752 0.600610 0.755884
Si Si3 0.169817 0.680618 0.626703
Si Si4 0.392285 0.078537 0.037107
Si Si5 0.946173 0.440285 0.659032
Si Si6 0.771267 0.075562 0.529338
Si Si7 0.511586 0.802451 0.456029
Si Si8 0.043550 0.653215 0.132110
O O1 0.250000 0.250000 0.349020
O O2 0.388887 0.140570 0.309229
O O3 0.218524 0.120651 0.432608
O O4 0.378266 0.209371 0.484406
O O5 0.402893 0.651408 0.778982
O O6 0.532001 0.587065 0.637282
O O7 0.503413 0.520436 0.813681
O O8 0.250000 0.750000 0.642360
O O9 0.227900 0.607905 0.577044
O O10 0.083425 0.704554 0.539614
O O11 0.354240 0.993332 0.019289
O O12 0.453544 0.113714 0.940488
O O13 0.827946 0.446791 0.605123
O O14 0.944413 0.391375 0.762467
O O15 0.012887 0.388032 0.582061
O O16 0.839266 0.142853 0.579888
O O17 0.488414 0.740672 0.370184
#
# Coordination Sequence:
#
# PCOD9391183 Si02
#       8
#     8   8   8   8   8   8   8   8
#     4  11  23  44  70  99 135 180 232 290 351 413
#     4  11  25  42  70 106 138 177 235 289 346 418
#     4  10  22  44  70  99 139 185 226 281 353 420
#     4  12  25  43  70 100 138 180 237 293 348 408
#     4  11  24  41  71 103 137 181 229 288 347 417
#     4  11  23  41  71 100 136 180 235 284 346 416
#     4  10  23  42  68 104 138 176 231 284 348 421
#     4  12  23  43  69  99 142 178 228 289 348 414
#
# _framework density 22.273444000000001
#
# number of rings (size 3 to 8) (size 9 to 14) (size 15 to 20)
#    0.000    1.000    5.000    1.500    1.750    2.500 
#    0.000    2.500    5.500    0.000    0.000    0.000 
#    0.000    0.000    0.000    0.000    0.000    0.000 
#
# Total GULP energy -358100.991712 kJ/mol
# GULP energy per Si atom -5595.327995 kJ/mol
# Density = 2.222275 g / cm^3
# Si number density = 22.273444 Si / 1000 Ang^3
#
#
#
# Elastic Constant Matrix: (Units=GPa)
#
#
# Indices 1 2 3 4 5 6 
#
# 1 82.9091 38.9860 36.4384 0.0000 0.0000 0.0000
# 2 38.9860 130.4083 20.6630 0.0000 0.0000 0.0000
# 3 36.4384 20.6630 75.7644 0.0000 0.0000 0.0000
# 4 0.0000 0.0000 0.0000 13.8072 0.0000 0.0000
# 5 0.0000 0.0000 0.0000 0.0000 1.0486 0.0000
# 6 0.0000 0.0000 0.0000 0.0000 0.0000 31.1425
#
#
#
# Elastic Compliance Matrix: (Units=1/GPa)
#
#
# Indices 1 2 3 4 5 6 
#
# 1 0.017059 -0.003971 -0.007121 0.000000 0.000000 0.000000
# 2 -0.003971 0.008939 -0.000528 0.000000 0.000000 0.000000
# 3 -0.007121 -0.000528 0.016768 0.000000 0.000000 0.000000
# 4 0.000000 0.000000 0.000000 0.072426 0.000000 0.000000
# 5 0.000000 0.000000 0.000000 0.000000 0.953661 0.000000
# 6 0.000000 0.000000 0.000000 0.000000 0.000000 0.032110
#
#
# Mechanical properties :
#
#
# Convention : Reuss Voigt Hill
#
# Bulk Modulus (GPa) = 51.21770 53.47294 52.34532
# Shear Modulus (GPa) = 4.42199 22.06595 13.24397
#
# Velocity S-wave (km/s) = 1.41054 3.15093 2.44110
# Velocity P-wave (km/s) = 5.06929 6.10716 5.61227
#
# Compressibility (1/GPa) = 0.01952450
#
# Stress axis : x y z
#
# Youngs Moduli (GPa) = 58.62158 111.86767 59.63869
#
# Poissons Ratio (x) = 0.44427 0.42469
# Poissons Ratio (y) = 0.23281 0.03148
# Poissons Ratio (z) = 0.41745 0.05906
#
# Static dielectric constant tensor:
#      x y z
#    x 1.817310 0.000000 0.000000 
#    y 0.000000 1.714110 0.000000 
#    z 0.000000 0.000000 1.822010 
# 
# From -- ./inp_files/26719.got.cif
#   From: 2010.05.17/outbox.cif.g08.bks.cpg/sg48_14_cif.got.tgz:26719.got - 2010.06.03 20:39:00.
