data_PCOD9391724
_publ_section_title
;
Structure prediction by ZEFSAII (Michael W. Deem and Ramdas Pophale) SiO2 
 PCOD9391724
Probable space group: P N N N
;
_chemical_formula_sum "Si O2"
_cell_formula_units_Z 48
_cell_length_a 9.226948
_cell_length_b 8.329131
_cell_length_c 28.455933
_cell_angle_alpha 90.000000
_cell_angle_beta 90.000000
_cell_angle_gamma 90.000000
_cell_volume 2186.908413
_symmetry_space_group_name_H-M "P N N N"
_symmetry_group_IT_number 48
_space_group.IT_coordinate_system_code '2'
_symmetry_cell_setting 'orthorhombic'
loop_
_space_group_symop_operation_xyz
x,y,z
1/2-x,1/2-y,z
x,1/2-y,1/2-z
1/2-x,y,1/2-z
-x,-y,-z
1/2+x,1/2+y,-z
-x,1/2+y,1/2+z
1/2+x,-y,1/2+z
loop_
_atom_site_type_symbol
_atom_site_label
_atom_site_fract_x
_atom_site_fract_y
_atom_site_fract_z
Si Si1 0.203149 0.432966 0.896219
Si Si2 0.448880 0.072069 0.151109
Si Si3 0.824844 0.563627 0.998713
Si Si4 0.296395 0.930249 0.402126
Si Si5 0.575496 0.438398 0.751864
Si Si6 0.458679 0.932927 0.649651
O O1 0.250000 0.250000 0.891407
O O2 0.036520 0.453564 0.882849
O O3 0.226560 0.487882 0.949606
O O4 0.290395 0.538167 0.858879
O O5 0.498128 0.250833 0.141409
O O6 0.284228 0.044387 0.135594
O O7 0.475904 0.025877 0.204784
O O8 0.750000 0.750000 0.994908
O O9 0.753469 0.476883 0.954186
O O10 0.000000 0.500000 0.000000
O O11 0.250000 0.750000 0.391434
O O12 0.463407 0.959730 0.390488
O O13 0.539121 0.250000 0.750000
O O14 0.750000 0.452361 0.750000
O O15 0.510382 0.511599 0.799152
#
# Coordination Sequence:
#
# PCOD9391724 Si02
#       6
#     8   8   8   8   8   8
#     4  11  25  46  71  98 143 182 232 289 362 429
#     4  12  24  44  69  99 140 179 231 295 352 428
#     4  11  25  47  75 105 144 191 243 302 370 442
#     4  12  25  43  70  99 138 184 240 288 358 428
#     4  11  23  41  69 100 136 180 234 288 353 426
#     4  12  26  42  69 106 135 183 234 292 357 421
#
# _framework density 21.948792999999998
#
# number of rings (size 3 to 8) (size 9 to 14) (size 15 to 20)
#    0.000    0.500    3.333    5.500    2.333    3.333 
#    0.000    3.333    0.000    0.000    0.000    0.000 
#    0.000    0.000    0.000    0.000    0.000    0.000 
#
# Total GULP energy -267966.547761 kJ/mol
# GULP energy per Si atom -5582.636412 kJ/mol
# Density = 2.189884 g / cm^3
# Si number density = 21.948793 Si / 1000 Ang^3
#
#
#
# Elastic Constant Matrix: (Units=GPa)
#
#
# Indices 1 2 3 4 5 6 
#
# 1 59.0306 17.3185 13.9475 0.0000 0.0000 0.0000
# 2 17.3185 105.4241 11.6251 0.0000 0.0000 0.0000
# 3 13.9475 11.6251 115.0027 0.0000 0.0000 0.0000
# 4 0.0000 0.0000 0.0000 32.1671 0.0000 0.0000
# 5 0.0000 0.0000 0.0000 0.0000 24.5870 0.0000
# 6 0.0000 0.0000 0.0000 0.0000 0.0000 34.4133
#
#
#
# Elastic Compliance Matrix: (Units=1/GPa)
#
#
# Indices 1 2 3 4 5 6 
#
# 1 0.018211 -0.002779 -0.001928 0.000000 0.000000 0.000000
# 2 -0.002779 0.010017 -0.000675 0.000000 0.000000 0.000000
# 3 -0.001928 -0.000675 0.008998 0.000000 0.000000 0.000000
# 4 0.000000 0.000000 0.000000 0.031088 0.000000 0.000000
# 5 0.000000 0.000000 0.000000 0.000000 0.040672 0.000000
# 6 0.000000 0.000000 0.000000 0.000000 0.000000 0.029059
#
#
# Mechanical properties :
#
#
# Convention : Reuss Voigt Hill
#
# Bulk Modulus (GPa) = 37.79192 40.58216 39.18704
# Shear Modulus (GPa) = 31.72025 34.00456 32.86241
#
# Velocity S-wave (km/s) = 3.80569 3.94034 3.87360
# Velocity P-wave (km/s) = 6.04704 6.26349 6.15622
#
# Compressibility (1/GPa) = 0.02646069
#
# Stress axis : x y z
#
# Youngs Moduli (GPa) = 54.91137 99.83519 111.14166
#
# Poissons Ratio (x) = 0.27745 0.21425
# Poissons Ratio (y) = 0.15260 0.07507
# Poissons Ratio (z) = 0.10585 0.06744
#
# Static dielectric constant tensor:
#      x y z
#    x 1.784430 0.000000 0.000000 
#    y 0.000000 1.807750 0.000000 
#    z 0.000000 0.000000 1.742850 
# 
# From -- ./inp_files/38696.got.cif
#   From: 2010.05.17/outbox.cif.g08.bks.cpg/sg48_20_cif.got.tgz:38696.got - 2010.06.03 20:39:00.
