data_PCOD9391955
_publ_section_title
;
Structure prediction by ZEFSAII (Michael W. Deem and Ramdas Pophale) SiO2 
 PCOD9391955
Probable space group: P N N N
;
_chemical_formula_sum "Si O2"
_cell_formula_units_Z 58
_cell_length_a 9.000000
_cell_length_b 27.000000
_cell_length_c 12.000000
_cell_angle_alpha 90.000000
_cell_angle_beta 90.000000
_cell_angle_gamma 90.000000
_cell_volume 2916.000000
_symmetry_space_group_name_H-M "P N N N"
_symmetry_group_IT_number 48
_space_group.IT_coordinate_system_code '2'
_symmetry_cell_setting 'orthorhombic'
loop_
_space_group_symop_operation_xyz
x,y,z
1/2-x,1/2-y,z
x,1/2-y,1/2-z
1/2-x,y,1/2-z
-x,-y,-z
1/2+x,1/2+y,-z
-x,1/2+y,1/2+z
1/2+x,-y,1/2+z
loop_
_atom_site_type_symbol
_atom_site_label
_atom_site_fract_x
_atom_site_fract_y
_atom_site_fract_z
Si Si1 0.750000 0.250000 0.750000
Si Si2 0.609722 0.861620 0.393446
Si Si3 0.644932 0.192304 0.354862
Si Si4 0.847880 0.393987 0.046270
Si Si5 0.570156 0.887635 0.744455
Si Si6 0.555232 0.647515 0.369138
Si Si7 0.549969 0.054319 0.460968
Si Si8 0.026510 0.739708 0.437579
O O1 0.856985 0.276100 0.660230
O O2 0.784174 0.871217 0.409817
O O3 0.565313 0.859295 0.263427
O O4 0.514130 0.903164 0.455925
O O5 0.588385 0.805371 0.436561
O O6 0.750000 0.202293 0.250000
O O7 0.741536 0.152818 0.425515
O O8 0.500773 0.162896 0.307533
O O9 0.595822 0.235891 0.438695
O O10 0.977644 0.396015 0.140446
O O11 0.729103 0.438704 0.046062
O O12 0.926538 0.383238 0.929219
O O13 0.750000 0.885272 0.750000
O O14 0.519641 0.930584 0.658527
O O15 0.529220 0.705611 0.403434
O O16 0.500000 0.000000 0.500000
#
# Coordination Sequence:
#
# PCOD9391955 Si02
#       8
#     2   8   8   8   8   8   8   8
#     4  12  24  32  60 100 124 184 230 270 332 404
#     4  11  23  43  63  93 146 176 226 279 335 408
#     4   9  20  38  62  94 130 177 221 276 318 389
#     4  10  21  41  68  95 132 171 226 277 333 403
#     4  10  20  42  70  94 131 176 220 277 345 397
#     4  11  24  40  65 101 134 184 220 278 340 406
#     4  11  24  46  71  98 129 174 226 287 348 402
#     4  12  21  37  66  93 139 180 227 272 333 403
#
# _framework density 19.890260999999999
#
# number of rings (size 3 to 8) (size 9 to 14) (size 15 to 20)
#    0.000    1.379    4.138    3.310    0.000    1.655 
#    7.448   10.690    0.000    0.828    0.000    0.000 
#    0.000    0.000    0.000    0.000    0.000    0.000 
#
# Total GULP energy -323725.824134 kJ/mol
# GULP energy per Si atom -5581.479726 kJ/mol
# Density = 1.984499 g / cm^3
# Si number density = 19.890261 Si / 1000 Ang^3
#
#
#
# Elastic Constant Matrix: (Units=GPa)
#
#
# Indices 1 2 3 4 5 6 
#
# 1 158.9123 33.8523 45.7632 0.0000 0.0000 0.0000
# 2 33.8523 80.4973 29.4234 0.0000 0.0000 0.0000
# 3 45.7632 29.4234 106.8680 0.0000 0.0000 0.0000
# 4 0.0000 0.0000 0.0000 25.6519 0.0000 0.0000
# 5 0.0000 0.0000 0.0000 0.0000 37.2234 0.0000
# 6 0.0000 0.0000 0.0000 0.0000 0.0000 20.2738
#
#
#
# Elastic Compliance Matrix: (Units=1/GPa)
#
#
# Indices 1 2 3 4 5 6 
#
# 1 0.007514 -0.002206 -0.002611 0.000000 0.000000 0.000000
# 2 -0.002206 0.014460 -0.003037 0.000000 0.000000 0.000000
# 3 -0.002611 -0.003037 0.011311 0.000000 0.000000 0.000000
# 4 0.000000 0.000000 0.000000 0.038984 0.000000 0.000000
# 5 0.000000 0.000000 0.000000 0.000000 0.026865 0.000000
# 6 0.000000 0.000000 0.000000 0.000000 0.000000 0.049325
#
#
# Mechanical properties :
#
#
# Convention : Reuss Voigt Hill
#
# Bulk Modulus (GPa) = 56.88307 62.70616 59.79462
# Shear Modulus (GPa) = 29.40735 32.44574 30.92654
#
# Velocity S-wave (km/s) = 3.84927 4.04324 3.94745
# Velocity P-wave (km/s) = 6.95819 7.30695 7.13470
#
# Compressibility (1/GPa) = 0.01757992
#
# Stress axis : x y z
#
# Youngs Moduli (GPa) = 133.07669 69.15426 88.40730
#
# Poissons Ratio (x) = 0.15255 0.23079
# Poissons Ratio (y) = 0.29356 0.26847
# Poissons Ratio (z) = 0.34740 0.21000
#
# Static dielectric constant tensor:
#      x y z
#    x 1.754630 0.000000 0.000000 
#    y 0.000000 1.709310 0.000000 
#    z 0.000000 0.000000 1.727740 
# 
# From -- ./inp_files/18964.got.cif
#   From: 2010.05.17/outbox.ucp.g08.bks.cvg/sg48_10_cif.got.tgz:18964.got - 2010.06.11 16:38:40.
