data_PCOD9391506
_publ_section_title
;
Structure prediction by ZEFSAII (Michael W. Deem and Ramdas Pophale) SiO2 
 PCOD9391506
Probable space group: P N N N
;
_chemical_formula_sum "Si O2"
_cell_formula_units_Z 56
_cell_length_a 11.499993
_cell_length_b 12.879837
_cell_length_c 20.099779
_cell_angle_alpha 90.000000
_cell_angle_beta 90.000000
_cell_angle_gamma 90.000000
_cell_volume 2977.139776
_symmetry_space_group_name_H-M "P N N N"
_symmetry_group_IT_number 48
_space_group.IT_coordinate_system_code '2'
_symmetry_cell_setting 'orthorhombic'
loop_
_space_group_symop_operation_xyz
x,y,z
1/2-x,1/2-y,z
x,1/2-y,1/2-z
1/2-x,y,1/2-z
-x,-y,-z
1/2+x,1/2+y,-z
-x,1/2+y,1/2+z
1/2+x,-y,1/2+z
loop_
_atom_site_type_symbol
_atom_site_label
_atom_site_fract_x
_atom_site_fract_y
_atom_site_fract_z
Si Si1 0.807618 0.484398 0.614578
Si Si2 0.376156 0.262347 0.606374
Si Si3 0.878962 0.294589 0.676489
Si Si4 0.907455 0.812970 0.958243
Si Si5 0.323824 0.855094 0.520377
Si Si6 0.906757 0.918077 0.584839
Si Si7 0.642970 0.997382 0.063657
O O1 0.867626 0.419787 0.672782
O O2 0.858681 0.589777 0.582631
O O3 0.818637 0.402312 0.553735
O O4 0.676925 0.518594 0.633461
O O5 0.250000 0.250000 0.641916
O O6 0.501849 0.234652 0.637385
O O7 0.367896 0.199374 0.535614
O O8 0.376000 0.384876 0.593298
O O9 0.750000 0.250000 0.654431
O O10 0.893655 0.250000 0.750000
O O11 0.878539 0.702704 0.924486
O O12 0.045259 0.829172 0.961571
O O13 0.250000 0.750000 0.523267
O O14 0.265031 0.943456 0.566433
O O15 0.879938 0.976447 0.514787
O O16 0.043274 0.930316 0.594089
#
# Coordination Sequence:
#
# PCOD9391506 Si02
#       7
#     8   8   8   8   8   8   8
#     4  11  21  32  55  77 115 156 189 238 301 344
#     4  11  22  36  57  83 120 153 193 244 300 361
#     4  11  25  43  61  82 107 152 213 256 287 343
#     4  11  20  32  51  86 125 154 189 226 297 378
#     4  11  19  29  48  78 119 157 186 221 278 376
#     4   9  17  30  47  76 115 152 189 221 282 358
#     4   9  18  29  47  75 113 158 185 221 280 357
#
# _framework density 18.810001
#
# number of rings (size 3 to 8) (size 9 to 14) (size 15 to 20)
#    0.000    1.571    2.857    4.714    4.000    0.286 
#    0.000    0.000    0.000    0.000    0.000   17.000 
#    0.000    1.143    0.000    0.000    0.000    0.000 
#
# Total GULP energy -311875.757498 kJ/mol
# GULP energy per Si atom -5569.209955 kJ/mol
# Density = 1.876719 g / cm^3
# Si number density = 18.810001 Si / 1000 Ang^3
#
#
#
# Elastic Constant Matrix: (Units=GPa)
#
#
# Indices 1 2 3 4 5 6 
#
# 1 137.9088 33.4077 20.1691 0.0000 0.0000 0.0000
# 2 33.4077 108.4774 30.3115 0.0000 0.0000 0.0000
# 3 20.1691 30.3115 38.1588 0.0000 0.0000 0.0000
# 4 0.0000 0.0000 0.0000 17.7732 0.0000 0.0000
# 5 0.0000 0.0000 0.0000 0.0000 8.3101 0.0000
# 6 0.0000 0.0000 0.0000 0.0000 0.0000 37.1886
#
#
#
# Elastic Compliance Matrix: (Units=1/GPa)
#
#
# Indices 1 2 3 4 5 6 
#
# 1 0.008086 -0.001666 -0.002951 0.000000 0.000000 0.000000
# 2 -0.001666 0.012192 -0.008804 0.000000 0.000000 0.000000
# 3 -0.002951 -0.008804 0.034759 0.000000 0.000000 0.000000
# 4 0.000000 0.000000 0.000000 0.056265 0.000000 0.000000
# 5 0.000000 0.000000 0.000000 0.000000 0.120335 0.000000
# 6 0.000000 0.000000 0.000000 0.000000 0.000000 0.026890
#
#
# Mechanical properties :
#
#
# Convention : Reuss Voigt Hill
#
# Bulk Modulus (GPa) = 35.46591 50.25797 42.86194
# Shear Modulus (GPa) = 16.96256 26.03149 21.49702
#
# Velocity S-wave (km/s) = 3.00623 3.72414 3.38428
# Velocity P-wave (km/s) = 5.56288 6.72823 6.17311
#
# Compressibility (1/GPa) = 0.02819609
#
# Stress axis : x y z
#
# Youngs Moduli (GPa) = 123.66667 82.02387 28.76923
#
# Poissons Ratio (x) = 0.13663 0.08489
# Poissons Ratio (y) = 0.20600 0.25328
# Poissons Ratio (z) = 0.36492 0.72213
#
# Static dielectric constant tensor:
#      x y z
#    x 1.737760 0.000000 0.000000 
#    y 0.000000 1.675650 0.000000 
#    z 0.000000 0.000000 1.677760 
# 
# From -- ./inp_files/34177.got.cif
#   From: 2010.05.17/outbox.cif.g08.bks.cpg/sg48_18_cif.got.tgz:34177.got - 2010.06.03 20:39:00.
