data_PCOD9391406
_publ_section_title
;
Structure prediction by ZEFSAII (Michael W. Deem and Ramdas Pophale) SiO2 
 PCOD9391406
Probable space group: P N N N
;
_chemical_formula_sum "Si O2"
_cell_formula_units_Z 38
_cell_length_a 6.955441
_cell_length_b 20.597608
_cell_length_c 12.324243
_cell_angle_alpha 90.000000
_cell_angle_beta 90.000000
_cell_angle_gamma 90.000000
_cell_volume 1765.638185
_symmetry_space_group_name_H-M "P N N N"
_symmetry_group_IT_number 48
_space_group.IT_coordinate_system_code '2'
_symmetry_cell_setting 'orthorhombic'
loop_
_space_group_symop_operation_xyz
x,y,z
1/2-x,1/2-y,z
x,1/2-y,1/2-z
1/2-x,y,1/2-z
-x,-y,-z
1/2+x,1/2+y,-z
-x,1/2+y,1/2+z
1/2+x,-y,1/2+z
loop_
_atom_site_type_symbol
_atom_site_label
_atom_site_fract_x
_atom_site_fract_y
_atom_site_fract_z
Si Si1 0.415414 0.658677 0.426615
Si Si2 0.794035 0.920816 0.029642
Si Si3 0.670724 0.462047 0.870557
Si Si4 0.629482 0.684894 0.853659
Si Si5 0.250000 0.750000 0.889081
Si Si6 0.250000 0.750000 0.250000
O O1 0.609933 0.616890 0.424755
O O2 0.251942 0.605171 0.415033
O O3 0.373595 0.701712 0.533026
O O4 0.385919 0.706521 0.325646
O O5 0.882003 0.865853 0.950521
O O6 0.755335 0.980607 0.948219
O O7 0.941276 0.951403 0.116873
O O8 0.750000 0.472021 0.750000
O O9 0.750000 0.750000 0.883078
O O10 0.750000 0.658617 0.750000
O O11 0.411153 0.706282 0.830380
#
# Coordination Sequence:
#
# PCOD9391406 Si02
#       6
#     8   8   8   8   4   2
#     4  11  22  44  69 100 140 180 228 289 365 413
#     4  11  24  44  72  98 139 189 227 292 358 419
#     4  11  24  45  69 101 139 180 242 288 347 435
#     4  11  23  41  67  99 134 181 233 283 349 427
#     4  11  22  42  67  98 140 176 227 299 357 415
#     4  10  24  44  72 108 140 180 232 298 348 450
#
# _framework density 21.521963
#
# number of rings (size 3 to 8) (size 9 to 14) (size 15 to 20)
#    0.000    1.053    5.263    1.263    0.000    2.526 
#    0.000    1.053    0.000    0.000    0.000    0.000 
#    0.000    0.000    0.000    0.000    0.000    0.000 
#
# Total GULP energy -212135.209265 kJ/mol
# GULP energy per Si atom -5582.505507 kJ/mol
# Density = 2.147298 g / cm^3
# Si number density = 21.521963 Si / 1000 Ang^3
#
#
#
# Elastic Constant Matrix: (Units=GPa)
#
#
# Indices 1 2 3 4 5 6 
#
# 1 129.1590 22.0228 65.4253 0.0000 0.0000 0.0000
# 2 22.0228 90.9151 25.5190 0.0000 0.0000 0.0000
# 3 65.4253 25.5190 99.0071 0.0000 0.0000 0.0000
# 4 0.0000 0.0000 0.0000 -6.1857 0.0000 0.0000
# 5 0.0000 0.0000 0.0000 0.0000 28.2007 0.0000
# 6 0.0000 0.0000 0.0000 0.0000 0.0000 67.3054
#
#
#
# Elastic Compliance Matrix: (Units=1/GPa)
#
#
# Indices 1 2 3 4 5 6 
#
# 1 0.011681 -0.000715 -0.007535 0.000000 0.000000 0.000000
# 2 -0.000715 0.011901 -0.002595 0.000000 0.000000 0.000000
# 3 -0.007535 -0.002595 0.015748 0.000000 0.000000 0.000000
# 4 0.000000 0.000000 0.000000 -0.161664 0.000000 0.000000
# 5 0.000000 0.000000 0.000000 0.000000 0.035460 0.000000
# 6 0.000000 0.000000 0.000000 0.000000 0.000000 0.014858
#
#
# Mechanical properties :
#
#
# Convention : Reuss Voigt Hill
#
# Bulk Modulus (GPa) = 56.68637 60.55726 58.62182
# Shear Modulus (GPa) = -112.49417 31.60504 -40.44456
#
# Velocity S-wave (km/s) = -7.23761 3.83626 -4.33970
# Velocity P-wave (km/s) = 6.59150 6.91528 1.47871
#
# Compressibility (1/GPa) = 0.01764093
#
# Stress axis : x y z
#
# Youngs Moduli (GPa) = 85.60942 84.02785 63.49908
#
# Poissons Ratio (x) = 0.06005 0.47845
# Poissons Ratio (y) = 0.06118 0.16479
# Poissons Ratio (z) = 0.64505 0.21807
#
# Static dielectric constant tensor:
#      x y z
#    x 2.160100 0.000000 0.000000 
#    y 0.000000 1.757650 0.000000 
#    z 0.000000 0.000000 1.846220 
# 
# From -- ./inp_files/24318.got.cif
#   From: 2010.05.17/outbox.cif.g08.bks.cpg/sg48_13_cif.got.tgz:24318.got - 2010.06.03 20:39:00.
