data_PCOD9391401
_publ_section_title
;
Structure prediction by ZEFSAII (Michael W. Deem and Ramdas Pophale) SiO2 
 PCOD9391401
Probable space group: P N N N
;
_chemical_formula_sum "Si O2"
_cell_formula_units_Z 48
_cell_length_a 15.148655
_cell_length_b 25.246121
_cell_length_c 6.348839
_cell_angle_alpha 90.000000
_cell_angle_beta 90.000000
_cell_angle_gamma 90.000000
_cell_volume 2428.080316
_symmetry_space_group_name_H-M "P N N N"
_symmetry_group_IT_number 48
_space_group.IT_coordinate_system_code '2'
_symmetry_cell_setting 'orthorhombic'
loop_
_space_group_symop_operation_xyz
x,y,z
1/2-x,1/2-y,z
x,1/2-y,1/2-z
1/2-x,y,1/2-z
-x,-y,-z
1/2+x,1/2+y,-z
-x,1/2+y,1/2+z
1/2+x,-y,1/2+z
loop_
_atom_site_type_symbol
_atom_site_label
_atom_site_fract_x
_atom_site_fract_y
_atom_site_fract_z
Si Si1 0.398442 0.124463 0.965228
Si Si2 0.750000 0.459090 0.750000
Si Si3 0.341369 0.906263 0.631959
Si Si4 0.898175 0.997571 0.430889
Si Si5 0.366935 0.299160 0.904112
Si Si6 0.750000 0.839215 0.750000
Si Si7 0.026994 0.688697 0.730121
O O1 0.397828 0.064493 0.885212
O O2 0.366803 0.153428 0.757706
O O3 0.329125 0.126789 0.156587
O O4 0.481048 0.158929 0.065234
O O5 0.812735 0.423676 0.600945
O O6 0.680441 0.490488 0.600476
O O7 0.250000 0.893707 0.750000
O O8 0.403950 0.855234 0.648894
O O9 0.382244 0.958184 0.749704
O O10 0.000000 0.000000 0.500000
O O11 0.368426 0.250000 0.750000
O O12 0.285558 0.303990 0.060595
O O13 0.450964 0.302557 0.056472
O O14 0.061699 0.750000 0.750000
#
# Coordination Sequence:
#
# PCOD9391401 Si02
#       7
#     8   4   8   8   8   4   8
#     4  11  23  41  63  97 130 173 224 271 331 403
#     4  10  25  44  67 105 140 168 223 278 340 410
#     4  10  24  44  70  99 133 172 217 280 341 406
#     4  11  23  42  70 100 134 176 219 273 342 405
#     4  11  24  41  62  93 130 175 218 273 325 397
#     4  10  25  39  59  90 131 176 217 267 332 390
#     4  11  23  43  67  94 130 171 229 279 330 395
#
# _framework density 19.768704
#
# number of rings (size 3 to 8) (size 9 to 14) (size 15 to 20)
#    0.000    1.333    3.333    1.000    2.333    9.667 
#    0.000    0.000    0.000    0.000    0.000    0.000 
#    0.000    0.000    0.000    0.000    0.000    0.000 
#
# Total GULP energy -267379.624391 kJ/mol
# GULP energy per Si atom -5570.408841 kJ/mol
# Density = 1.972371 g / cm^3
# Si number density = 19.768704 Si / 1000 Ang^3
#
#
#
# Elastic Constant Matrix: (Units=GPa)
#
#
# Indices 1 2 3 4 5 6 
#
# 1 65.2407 45.6191 12.9403 0.0000 0.0000 0.0000
# 2 45.6191 200.9326 52.4254 0.0000 0.0000 0.0000
# 3 12.9403 52.4254 88.7148 0.0000 0.0000 0.0000
# 4 0.0000 0.0000 0.0000 23.5757 0.0000 0.0000
# 5 0.0000 0.0000 0.0000 0.0000 20.4669 0.0000
# 6 0.0000 0.0000 0.0000 0.0000 0.0000 -9.5060
#
#
#
# Elastic Compliance Matrix: (Units=1/GPa)
#
#
# Indices 1 2 3 4 5 6 
#
# 1 0.018225 -0.004072 -0.000252 0.000000 0.000000 0.000000
# 2 -0.004072 0.006794 -0.003421 0.000000 0.000000 0.000000
# 3 -0.000252 -0.003421 0.013330 0.000000 0.000000 0.000000
# 4 0.000000 0.000000 0.000000 0.042417 0.000000 0.000000
# 5 0.000000 0.000000 0.000000 0.000000 0.048859 0.000000
# 6 0.000000 0.000000 0.000000 0.000000 0.000000 -0.105197
#
#
# Mechanical properties :
#
#
# Convention : Reuss Voigt Hill
#
# Bulk Modulus (GPa) = 43.74535 64.09531 53.92033
# Shear Modulus (GPa) = 105.17836 23.16753 64.17295
#
# Velocity S-wave (km/s) = 7.30205 3.42706 5.70371
# Velocity P-wave (km/s) = 9.65764 6.93921 8.40900
#
# Compressibility (1/GPa) = 0.02285957
#
# Stress axis : x y z
#
# Youngs Moduli (GPa) = 54.86912 147.19273 75.01682
#
# Poissons Ratio (x) = 0.59937 0.01891
# Poissons Ratio (y) = 0.22343 0.25662
# Poissons Ratio (z) = 0.01383 0.50352
#
# Static dielectric constant tensor:
#      x y z
#    x 1.747030 0.000000 0.000000 
#    y 0.000000 1.453610 0.000000 
#    z 0.000000 0.000000 1.692670 
# 
# From -- ./inp_files/3549.got.cif
#   From: 2010.05.17/outbox.cif.g08.bks.cpg/sg48_2_cif.got.tgz:3549.got - 2010.06.03 20:39:00.
