data_PCOD9391910
_publ_section_title
;
Structure prediction by ZEFSAII (Michael W. Deem and Ramdas Pophale) SiO2 
 PCOD9391910
Probable space group: P N N N
;
_chemical_formula_sum "Si O2"
_cell_formula_units_Z 18
_cell_length_a 20.548887
_cell_length_b 4.868218
_cell_length_c 7.252034
_cell_angle_alpha 90.000000
_cell_angle_beta 90.000000
_cell_angle_gamma 90.000000
_cell_volume 725.467821
_symmetry_space_group_name_H-M "P N N N"
_symmetry_group_IT_number 48
_space_group.IT_coordinate_system_code '2'
_symmetry_cell_setting 'orthorhombic'
loop_
_space_group_symop_operation_xyz
x,y,z
1/2-x,1/2-y,z
x,1/2-y,1/2-z
1/2-x,y,1/2-z
-x,-y,-z
1/2+x,1/2+y,-z
-x,1/2+y,1/2+z
1/2+x,-y,1/2+z
loop_
_atom_site_type_symbol
_atom_site_label
_atom_site_fract_x
_atom_site_fract_y
_atom_site_fract_z
Si Si1 0.750000 0.250000 0.750000
Si Si2 0.653736 0.139504 0.450454
Si Si3 0.568102 0.855269 0.954880
O O1 0.708307 0.069115 0.602496
O O2 0.675965 0.250000 0.250000
O O3 0.619968 0.404252 0.537036
O O4 0.599020 0.901506 0.432923
O O5 0.560728 0.750000 0.750000
O O6 0.500000 0.000000 0.000000
#
# Coordination Sequence:
#
# PCOD9391910 Si02
#       3
#     2   8   8
#     4  12  26  54  80 112 168 198 274 316 400 476
#     4  12  27  48  79 117 153 207 262 321 395 467
#     4  12  25  49  76 113 160 205 258 327 394 468
#
# _framework density 24.811579999999999
#
# number of rings (size 3 to 8) (size 9 to 14) (size 15 to 20)
#    0.000    0.000    4.444    4.667    0.000    7.111 
#    0.000    4.444    0.000    0.000    0.000    0.000 
#    0.000    0.000    0.000    0.000    0.000    0.000 
#
# Total GULP energy -100686.350447 kJ/mol
# GULP energy per Si atom -5593.686136 kJ/mol
# Density = 2.475511 g / cm^3
# Si number density = 24.811580 Si / 1000 Ang^3
#
#
#
# Elastic Constant Matrix: (Units=GPa)
#
#
# Indices 1 2 3 4 5 6 
#
# 1 123.9417 47.5996 92.9186 0.0000 0.0000 0.0000
# 2 47.5996 154.4790 55.2326 0.0000 0.0000 0.0000
# 3 92.9186 55.2326 218.6864 0.0000 0.0000 0.0000
# 4 0.0000 0.0000 0.0000 52.7947 0.0000 0.0000
# 5 0.0000 0.0000 0.0000 0.0000 1.3452 0.0000
# 6 0.0000 0.0000 0.0000 0.0000 0.0000 32.4750
#
#
#
# Elastic Compliance Matrix: (Units=1/GPa)
#
#
# Indices 1 2 3 4 5 6 
#
# 1 0.012451 -0.002138 -0.004750 0.000000 0.000000 0.000000
# 2 -0.002138 0.007483 -0.000982 0.000000 0.000000 0.000000
# 3 -0.004750 -0.000982 0.006839 0.000000 0.000000 0.000000
# 4 0.000000 0.000000 0.000000 0.018941 0.000000 0.000000
# 5 0.000000 0.000000 0.000000 0.000000 0.743364 0.000000
# 6 0.000000 0.000000 0.000000 0.000000 0.000000 0.030793
#
#
# Mechanical properties :
#
#
# Convention : Reuss Voigt Hill
#
# Bulk Modulus (GPa) = 90.63561 98.73430 94.68495
# Shear Modulus (GPa) = 5.95743 37.41341 21.68542
#
# Velocity S-wave (km/s) = 1.55122 3.88738 2.95956
# Velocity P-wave (km/s) = 6.31009 7.74784 7.06563
#
# Compressibility (1/GPa) = 0.01103319
#
# Stress axis : x y z
#
# Youngs Moduli (GPa) = 80.31724 133.63448 146.22025
#
# Poissons Ratio (x) = 0.28571 0.69458
# Poissons Ratio (y) = 0.17172 0.14352
# Poissons Ratio (z) = 0.38152 0.13117
#
# Static dielectric constant tensor:
#      x y z
#    x 2.072890 0.000000 0.000000 
#    y 0.000000 1.918350 0.000000 
#    z 0.000000 0.000000 2.077400 
# 
# From -- ./inp_files/660.got.cif
#   From: 2010.05.17/outbox.cif.g08.bks.cpg/sg48_1_cif.got.tgz:660.got - 2010.06.03 20:39:00.
