data_PCOD9391552
_publ_section_title
;
Structure prediction by ZEFSAII (Michael W. Deem and Ramdas Pophale) SiO2 
 PCOD9391552
Probable space group: P N N N
;
_chemical_formula_sum "Si O2"
_cell_formula_units_Z 40
_cell_length_a 17.354029
_cell_length_b 11.090246
_cell_length_c 9.902666
_cell_angle_alpha 90.000000
_cell_angle_beta 90.000000
_cell_angle_gamma 90.000000
_cell_volume 1905.871562
_symmetry_space_group_name_H-M "P N N N"
_symmetry_group_IT_number 48
_space_group.IT_coordinate_system_code '2'
_symmetry_cell_setting 'orthorhombic'
loop_
_space_group_symop_operation_xyz
x,y,z
1/2-x,1/2-y,z
x,1/2-y,1/2-z
1/2-x,y,1/2-z
-x,-y,-z
1/2+x,1/2+y,-z
-x,1/2+y,1/2+z
1/2+x,-y,1/2+z
loop_
_atom_site_type_symbol
_atom_site_label
_atom_site_fract_x
_atom_site_fract_y
_atom_site_fract_z
Si Si1 0.507702 0.885251 0.188262
Si Si2 0.609316 0.994184 0.971953
Si Si3 0.838190 0.243144 0.410745
Si Si4 0.916813 0.492864 0.433116
Si Si5 0.740163 0.608065 0.092657
O O1 0.500237 0.750000 0.250000
O O2 0.551151 0.898816 0.043684
O O3 0.564012 0.962038 0.282763
O O4 0.428481 0.960292 0.168208
O O5 0.618970 0.122501 0.046947
O O6 0.693842 0.940225 0.993132
O O7 0.750000 0.250000 0.462907
O O8 0.833836 0.250000 0.250000
O O9 0.886310 0.358690 0.454303
O O10 0.843128 0.575092 0.466631
O O11 0.000000 0.500000 0.500000
O O12 0.750000 0.750000 0.103762
O O13 0.750000 0.559083 0.250000
#
# Coordination Sequence:
#
# PCOD9391552 Si02
#       5
#     8   8   8   8   8
#     4  11  23  41  63  98 134 169 220 279 344 398
#     4  11  22  39  67  95 131 175 221 280 336 407
#     4  11  20  37  62  90 125 162 215 266 324 390
#     4  12  24  40  65  95 129 169 221 279 333 402
#     4  11  21  40  68  97 129 171 226 278 334 405
#
# _framework density 20.987774000000002
#
# number of rings (size 3 to 8) (size 9 to 14) (size 15 to 20)
#    0.000    0.800    6.000    2.400    0.000    1.600 
#    0.000    1.000    0.000    1.200    0.000    0.000 
#    0.000    0.000    0.000    0.000    0.000    0.000 
#
# Total GULP energy -222970.220677 kJ/mol
# GULP energy per Si atom -5574.255517 kJ/mol
# Density = 2.094000 g / cm^3
# Si number density = 20.987774 Si / 1000 Ang^3
#
#
#
# Elastic Constant Matrix: (Units=GPa)
#
#
# Indices 1 2 3 4 5 6 
#
# 1 201.3429 64.1727 30.1991 0.0000 0.0000 0.0000
# 2 64.1727 134.1619 24.7722 0.0000 0.0000 0.0000
# 3 30.1991 24.7722 10.4914 0.0000 0.0000 0.0000
# 4 0.0000 0.0000 0.0000 25.6499 0.0000 0.0000
# 5 0.0000 0.0000 0.0000 0.0000 33.5353 0.0000
# 6 0.0000 0.0000 0.0000 0.0000 0.0000 50.1145
#
#
#
# Elastic Compliance Matrix: (Units=1/GPa)
#
#
# Indices 1 2 3 4 5 6 
#
# 1 0.008792 0.000829 -0.027263 0.000000 0.000000 0.000000
# 2 0.000829 0.013293 -0.033774 0.000000 0.000000 0.000000
# 3 -0.027263 -0.033774 0.253539 0.000000 0.000000 0.000000
# 4 0.000000 0.000000 0.000000 0.038986 0.000000 0.000000
# 5 0.000000 0.000000 0.000000 0.000000 0.029819 0.000000
# 6 0.000000 0.000000 0.000000 0.000000 0.000000 0.019954
#
#
# Mechanical properties :
#
#
# Convention : Reuss Voigt Hill
#
# Bulk Modulus (GPa) = 6.44299 64.92047 35.68173
# Shear Modulus (GPa) = 9.31901 36.98342 23.15122
#
# Velocity S-wave (km/s) = 2.10947 4.20234 3.32487
# Velocity P-wave (km/s) = 3.00161 7.38552 5.63718
#
# Compressibility (1/GPa) = 0.15520738
#
# Stress axis : x y z
#
# Youngs Moduli (GPa) = 113.74349 75.22528 3.94416
#
# Poissons Ratio (x) = -0.06234 0.10753
# Poissons Ratio (y) = -0.09427 0.13321
# Poissons Ratio (z) = 3.10104 2.54065
#
# Static dielectric constant tensor:
#      x y z
#    x 1.838250 0.000000 0.000000 
#    y 0.000000 1.814920 0.000000 
#    z 0.000000 0.000000 1.827550 
# 
# From -- ./inp_files/19792.got.cif
#   From: 2010.05.17/outbox.cif.g08.bks.cpg/sg48_10_cif.got.tgz:19792.got - 2010.06.03 20:39:00.
