data_PCOD9391366
_publ_section_title
;
Structure prediction by ZEFSAII (Michael W. Deem and Ramdas Pophale) SiO2 
 PCOD9391366
Probable space group: P N N N
;
_chemical_formula_sum "Si O2"
_cell_formula_units_Z 58
_cell_length_a 8.602281
_cell_length_b 11.795048
_cell_length_c 29.436080
_cell_angle_alpha 90.000000
_cell_angle_beta 90.000000
_cell_angle_gamma 90.000000
_cell_volume 2986.711761
_symmetry_space_group_name_H-M "P N N N"
_symmetry_group_IT_number 48
_space_group.IT_coordinate_system_code '2'
_symmetry_cell_setting 'orthorhombic'
loop_
_space_group_symop_operation_xyz
x,y,z
1/2-x,1/2-y,z
x,1/2-y,1/2-z
1/2-x,y,1/2-z
-x,-y,-z
1/2+x,1/2+y,-z
-x,1/2+y,1/2+z
1/2+x,-y,1/2+z
loop_
_atom_site_type_symbol
_atom_site_label
_atom_site_fract_x
_atom_site_fract_y
_atom_site_fract_z
Si Si1 0.715708 0.637210 0.100967
Si Si2 0.969933 0.501790 0.888358
Si Si3 0.699087 0.072239 0.801958
Si Si4 0.250000 0.250000 0.750000
Si Si5 0.997922 0.800077 0.182881
Si Si6 0.392893 0.551971 0.961830
Si Si7 0.140729 0.859157 0.473353
Si Si8 0.568443 0.781688 0.950372
O O1 0.750000 0.750000 0.071586
O O2 0.603612 0.696138 0.137863
O O3 0.618704 0.542288 0.075919
O O4 0.865879 0.564717 0.117346
O O5 0.883354 0.506672 0.839553
O O6 0.882494 0.424842 0.926448
O O7 0.974901 0.624149 0.912568
O O8 0.750000 0.039947 0.750000
O O9 0.863660 0.112030 0.821858
O O10 0.584669 0.183119 0.802636
O O11 0.365734 0.324587 0.779978
O O12 0.463376 0.669502 0.944300
O O13 0.500000 0.500000 0.000000
O O14 0.230553 0.570843 0.987639
O O15 0.250000 0.750000 0.465058
O O16 0.983118 0.826759 0.499770
O O17 0.750000 0.750000 0.948121
#
# Coordination Sequence:
#
# PCOD9391366 Si02
#       8
#     8   8   8   2   8   8   8   8
#     4  12  26  39  63 101 135 171 223 282 340 429
#     4  12  25  41  67  97 135 179 234 283 348 417
#     4  11  23  42  62  95 134 177 220 287 350 414
#     4  12  16  38  60  92 128 172 200 256 356 418
#     4  11  22  37  62  93 132 170 209 270 351 422
#     4  11  26  42  64  93 134 185 226 283 346 406
#     4  10  24  41  60  92 134 177 221 281 338 413
#     4  11  25  44  66  92 132 186 238 278 339 413
#
# _framework density 19.419350000000001
#
# number of rings (size 3 to 8) (size 9 to 14) (size 15 to 20)
#    0.000    0.828    4.828    1.655   11.586    0.000 
#    0.000    0.000    0.000    0.414    0.000    0.000 
#    0.000    0.000    0.000    0.000    0.000    0.000 
#
# Total GULP energy -323447.269652 kJ/mol
# GULP energy per Si atom -5576.677063 kJ/mol
# Density = 1.937515 g / cm^3
# Si number density = 19.419350 Si / 1000 Ang^3
#
#
#
# Elastic Constant Matrix: (Units=GPa)
#
#
# Indices 1 2 3 4 5 6 
#
# 1 116.4816 31.9496 45.5329 0.0000 0.0000 0.0000
# 2 31.9496 106.7219 52.5922 0.0000 0.0000 0.0000
# 3 45.5329 52.5922 111.9639 0.0000 0.0000 0.0000
# 4 0.0000 0.0000 0.0000 33.4111 0.0000 0.0000
# 5 0.0000 0.0000 0.0000 0.0000 11.5379 0.0000
# 6 0.0000 0.0000 0.0000 0.0000 0.0000 26.8362
#
#
#
# Elastic Compliance Matrix: (Units=1/GPa)
#
#
# Indices 1 2 3 4 5 6 
#
# 1 0.010351 -0.001333 -0.003584 0.000000 0.000000 0.000000
# 2 -0.001333 0.012364 -0.005266 0.000000 0.000000 0.000000
# 3 -0.003584 -0.005266 0.012862 0.000000 0.000000 0.000000
# 4 0.000000 0.000000 0.000000 0.029930 0.000000 0.000000
# 5 0.000000 0.000000 0.000000 0.000000 0.086671 0.000000
# 6 0.000000 0.000000 0.000000 0.000000 0.000000 0.037263
#
#
# Mechanical properties :
#
#
# Convention : Reuss Voigt Hill
#
# Bulk Modulus (GPa) = 65.73138 66.14630 65.93884
# Shear Modulus (GPa) = 23.26914 28.02993 25.64954
#
# Velocity S-wave (km/s) = 3.46532 3.80333 3.63826
# Velocity P-wave (km/s) = 7.06634 7.30911 7.18875
#
# Compressibility (1/GPa) = 0.01521343
#
# Stress axis : x y z
#
# Youngs Moduli (GPa) = 96.60454 80.87947 77.74736
#
# Poissons Ratio (x) = 0.10781 0.27861
# Poissons Ratio (y) = 0.12877 0.40939
# Poissons Ratio (z) = 0.34619 0.42588
#
# Static dielectric constant tensor:
#      x y z
#    x 1.647750 0.000000 0.000000 
#    y 0.000000 1.697170 0.000000 
#    z 0.000000 0.000000 1.718820 
# 
# From -- ./inp_files/38794.got.cif
#   From: 2010.05.17/outbox.cif.g08.bks.cpg/sg48_20_cif.got.tgz:38794.got - 2010.06.03 20:39:00.
