data_PCOD9391583
_publ_section_title
;
Structure prediction by ZEFSAII (Michael W. Deem and Ramdas Pophale) SiO2 
 PCOD9391583
Probable space group: P N N N
;
_chemical_formula_sum "Si O2"
_cell_formula_units_Z 34
_cell_length_a 5.335715
_cell_length_b 34.569468
_cell_length_c 10.304403
_cell_angle_alpha 90.000000
_cell_angle_beta 90.000000
_cell_angle_gamma 90.000000
_cell_volume 1900.676284
_symmetry_space_group_name_H-M "P N N N"
_symmetry_group_IT_number 48
_space_group.IT_coordinate_system_code '2'
_symmetry_cell_setting 'orthorhombic'
loop_
_space_group_symop_operation_xyz
x,y,z
1/2-x,1/2-y,z
x,1/2-y,1/2-z
1/2-x,y,1/2-z
-x,-y,-z
1/2+x,1/2+y,-z
-x,1/2+y,1/2+z
1/2+x,-y,1/2+z
loop_
_atom_site_type_symbol
_atom_site_label
_atom_site_fract_x
_atom_site_fract_y
_atom_site_fract_z
Si Si1 0.750000 0.250000 0.750000
Si Si2 0.754218 0.874945 0.092403
Si Si3 0.243512 0.921026 0.479183
Si Si4 0.358129 0.289245 0.897249
Si Si5 0.250000 0.964911 0.750000
Si Si6 0.250000 0.983225 0.250000
O O1 0.640534 0.280300 0.856563
O O2 0.750000 0.875468 0.250000
O O3 0.493691 0.893079 0.044846
O O4 0.793967 0.830615 0.046498
O O5 0.993881 0.899369 0.046087
O O6 0.234050 0.938839 0.621945
O O7 0.227444 0.955714 0.375111
O O8 0.250000 0.250000 0.960836
O O9 0.250000 0.289268 0.750000
O O10 0.499616 0.991099 0.740852
#
# Coordination Sequence:
#
# PCOD9391583 Si02
#       6
#     2   8   8   8   4   4
#     4   8  14  26  44  74 120 150 190 224 294 334
#     4  11  21  36  58  86 123 155 190 243 284 345
#     4  12  24  40  61  89 116 153 195 239 298 345
#     4   8  17  27  47  78 116 154 187 229 288 335
#     4  12  26  42  62  86 117 152 193 246 296 354
#     4  12  22  43  64  86 113 148 199 246 294 352
#
# _framework density 17.888369999999998
#
# number of rings (size 3 to 8) (size 9 to 14) (size 15 to 20)
#    0.000    1.647    2.353    4.235    9.882    0.000 
#    0.000    0.000    0.000    0.000    0.000    4.941 
#    0.000    0.000    0.000    0.000    0.000    0.000 
#
# Total GULP energy -189354.101665 kJ/mol
# GULP energy per Si atom -5569.238284 kJ/mol
# Density = 1.784765 g / cm^3
# Si number density = 17.888370 Si / 1000 Ang^3
#
#
#
# Elastic Constant Matrix: (Units=GPa)
#
#
# Indices 1 2 3 4 5 6 
#
# 1 108.2092 55.1332 20.3617 0.0000 0.0000 0.0000
# 2 55.1332 133.8370 54.3245 0.0000 0.0000 0.0000
# 3 20.3617 54.3245 98.8138 0.0000 0.0000 0.0000
# 4 0.0000 0.0000 0.0000 -7.3555 0.0000 0.0000
# 5 0.0000 0.0000 0.0000 0.0000 -32.9200 0.0000
# 6 0.0000 0.0000 0.0000 0.0000 0.0000 43.1448
#
#
#
# Elastic Compliance Matrix: (Units=1/GPa)
#
#
# Indices 1 2 3 4 5 6 
#
# 1 0.011704 -0.004946 0.000307 0.000000 0.000000 0.000000
# 2 -0.004946 0.011708 -0.005418 0.000000 0.000000 0.000000
# 3 0.000307 -0.005418 0.013035 0.000000 0.000000 0.000000
# 4 0.000000 0.000000 0.000000 -0.135952 0.000000 0.000000
# 5 0.000000 0.000000 0.000000 0.000000 -0.030377 0.000000
# 6 0.000000 0.000000 0.000000 0.000000 0.000000 0.023178
#
#
# Mechanical properties :
#
#
# Convention : Reuss Voigt Hill
#
# Bulk Modulus (GPa) = 61.21963 66.72210 63.97086
# Shear Modulus (GPa) = -61.61662 14.64324 -23.48669
#
# Velocity S-wave (km/s) = -5.87536 2.86420 -3.62741
# Velocity P-wave (km/s) = 3.42477 6.95114 4.27723
#
# Compressibility (1/GPa) = 0.01633463
#
# Stress axis : x y z
#
# Youngs Moduli (GPa) = 85.44446 85.40981 76.71593
#
# Poissons Ratio (x) = 0.42244 -0.02359
# Poissons Ratio (y) = 0.42261 0.41562
# Poissons Ratio (z) = -0.02627 0.46272
#
# Static dielectric constant tensor:
#      x y z
#    x 1.318090 0.000000 0.000000 
#    y 0.000000 1.677810 0.000000 
#    z 0.000000 0.000000 1.560990 
# 
# From -- ./inp_files/7662.got.cif
#   From: 2010.05.17/outbox.cif.g08.bks.cpg/sg48_4_cif.got.tgz:7662.got - 2010.06.03 20:39:00.
