data_PCOD9391018
_publ_section_title
;
Structure prediction by ZEFSAII (Michael W. Deem and Ramdas Pophale) SiO2 
 PCOD9391018
Probable space group: P N N N
;
_chemical_formula_sum "Si O2"
_cell_formula_units_Z 48
_cell_length_a 14.076420
_cell_length_b 5.627891
_cell_length_c 25.486578
_cell_angle_alpha 90.000000
_cell_angle_beta 90.000000
_cell_angle_gamma 90.000000
_cell_volume 2019.060916
_symmetry_space_group_name_H-M "P N N N"
_symmetry_group_IT_number 48
_space_group.IT_coordinate_system_code '2'
_symmetry_cell_setting 'orthorhombic'
loop_
_space_group_symop_operation_xyz
x,y,z
1/2-x,1/2-y,z
x,1/2-y,1/2-z
1/2-x,y,1/2-z
-x,-y,-z
1/2+x,1/2+y,-z
-x,1/2+y,1/2+z
1/2+x,-y,1/2+z
loop_
_atom_site_type_symbol
_atom_site_label
_atom_site_fract_x
_atom_site_fract_y
_atom_site_fract_z
Si Si1 0.011430 0.870933 0.694394
Si Si2 0.489248 0.528476 0.908334
Si Si3 0.351180 0.132058 0.870043
Si Si4 0.303780 0.001451 0.169802
Si Si5 0.352374 0.827747 0.973684
Si Si6 0.347828 0.185285 0.054696
O O1 0.019419 0.750000 0.750000
O O2 0.010577 0.690500 0.644533
O O3 0.909754 0.004342 0.693476
O O4 0.104677 0.022503 0.682186
O O5 0.440511 0.287192 0.891056
O O6 0.422269 0.622446 0.955029
O O7 0.594773 0.578894 0.929395
O O8 0.250000 0.250000 0.859893
O O9 0.332143 0.955640 0.918169
O O10 0.250000 0.250000 0.186692
O O11 0.320727 0.045240 0.107721
O O12 0.250000 0.750000 0.179103
O O13 0.250000 0.750000 0.994799
O O14 0.398403 0.005204 0.015690
O O15 0.250000 0.250000 0.026766
#
# Coordination Sequence:
#
# PCOD9391018 Si02
#       6
#     8   8   8   8   8   8
#     4  10  25  45  71 102 138 178 243 304 372 445
#     4  10  23  43  65  93 135 184 233 301 361 428
#     4  11  23  43  71  96 137 187 234 307 369 430
#     4  10  23  45  72 107 154 194 235 299 369 441
#     4  11  21  39  63  95 138 184 239 288 352 439
#     4  10  22  38  64 102 142 186 239 283 358 438
#
# _framework density 23.773427000000002
#
# number of rings (size 3 to 8) (size 9 to 14) (size 15 to 20)
#    0.000    1.667    1.667    1.500    7.000    1.667 
#    3.000    3.333    0.000    0.000    0.000    0.000 
#    0.000    0.000    0.000    0.000    0.000    0.000 
#
# Total GULP energy -268236.172740 kJ/mol
# GULP energy per Si atom -5588.253599 kJ/mol
# Density = 2.371932 g / cm^3
# Si number density = 23.773427 Si / 1000 Ang^3
#
#
#
# Elastic Constant Matrix: (Units=GPa)
#
#
# Indices 1 2 3 4 5 6 
#
# 1 129.1542 41.3765 38.3505 0.0000 0.0000 0.0000
# 2 41.3765 83.3540 27.3310 0.0000 0.0000 0.0000
# 3 38.3505 27.3310 100.0663 0.0000 0.0000 0.0000
# 4 0.0000 0.0000 0.0000 12.4927 0.0000 0.0000
# 5 0.0000 0.0000 0.0000 0.0000 14.4521 0.0000
# 6 0.0000 0.0000 0.0000 0.0000 0.0000 40.1991
#
#
#
# Elastic Compliance Matrix: (Units=1/GPa)
#
#
# Indices 1 2 3 4 5 6 
#
# 1 0.009816 -0.003997 -0.002670 0.000000 0.000000 0.000000
# 2 -0.003997 0.014805 -0.002512 0.000000 0.000000 0.000000
# 3 -0.002670 -0.002512 0.011703 0.000000 0.000000 0.000000
# 4 0.000000 0.000000 0.000000 0.080047 0.000000 0.000000
# 5 0.000000 0.000000 0.000000 0.000000 0.069194 0.000000
# 6 0.000000 0.000000 0.000000 0.000000 0.000000 0.024876
#
#
# Mechanical properties :
#
#
# Convention : Reuss Voigt Hill
#
# Bulk Modulus (GPa) = 55.66254 58.52117 57.09185
# Shear Modulus (GPa) = 21.29585 27.12988 24.21287
#
# Velocity S-wave (km/s) = 2.99621 3.38181 3.19483
# Velocity P-wave (km/s) = 5.95267 6.31811 6.13811
#
# Compressibility (1/GPa) = 0.01796540
#
# Stress axis : x y z
#
# Youngs Moduli (GPa) = 101.87316 67.54595 85.44965
#
# Poissons Ratio (x) = 0.26999 0.22818
# Poissons Ratio (y) = 0.40720 0.21462
# Poissons Ratio (z) = 0.27203 0.16966
#
# Static dielectric constant tensor:
#      x y z
#    x 1.956070 0.000000 0.000000 
#    y 0.000000 2.023090 0.000000 
#    z 0.000000 0.000000 1.835230 
# 
# From -- ./inp_files/37882.got.cif
#   From: 2010.05.17/outbox.cif.g08.bks.cpg/sg48_19_cif.got.tgz:37882.got - 2010.06.03 20:39:00.
