data_PCOD9391867
_publ_section_title
;
Structure prediction by ZEFSAII (Michael W. Deem and Ramdas Pophale) SiO2 
 PCOD9391867
Probable space group: P N N N
;
_chemical_formula_sum "Si O2"
_cell_formula_units_Z 24
_cell_length_a 17.215180
_cell_length_b 8.098689
_cell_length_c 6.743858
_cell_angle_alpha 90.000000
_cell_angle_beta 90.000000
_cell_angle_gamma 90.000000
_cell_volume 940.231305
_symmetry_space_group_name_H-M "P N N N"
_symmetry_group_IT_number 48
_space_group.IT_coordinate_system_code '2'
_symmetry_cell_setting 'orthorhombic'
loop_
_space_group_symop_operation_xyz
x,y,z
1/2-x,1/2-y,z
x,1/2-y,1/2-z
1/2-x,y,1/2-z
-x,-y,-z
1/2+x,1/2+y,-z
-x,1/2+y,1/2+z
1/2+x,-y,1/2+z
loop_
_atom_site_type_symbol
_atom_site_label
_atom_site_fract_x
_atom_site_fract_y
_atom_site_fract_z
Si Si1 0.068318 0.659074 0.565996
Si Si2 0.434766 0.110914 0.869186
Si Si3 0.341908 0.051412 0.239388
O O1 0.111571 0.750000 0.750000
O O2 0.031883 0.510914 0.700894
O O3 0.122076 0.569833 0.404862
O O4 0.003296 0.782896 0.474982
O O5 0.386717 0.250000 0.750000
O O6 0.618836 0.980403 0.972945
O O7 0.357740 0.250000 0.250000
O O8 0.250000 0.030069 0.250000
#
# Coordination Sequence:
#
# PCOD9391867 Si02
#       3
#     8   8   8
#     4  12  29  47  84 120 158 205 271 338 400 476
#     4  12  27  47  82 117 156 204 270 332 398 475
#     4  11  27  52  79 114 166 216 267 331 408 485
#
# _framework density 25.525634
#
# number of rings (size 3 to 8) (size 9 to 14) (size 15 to 20)
#    0.000    0.333    3.333    3.000    9.333    1.333 
#    0.000    5.000    0.000    0.000    0.000    0.000 
#    0.000    0.000    0.000    0.000    0.000    0.000 
#
# Total GULP energy -134054.948977 kJ/mol
# GULP energy per Si atom -5585.622874 kJ/mol
# Density = 2.546754 g / cm^3
# Si number density = 25.525634 Si / 1000 Ang^3
#
#
#
# Elastic Constant Matrix: (Units=GPa)
#
#
# Indices 1 2 3 4 5 6 
#
# 1 147.7233 64.8818 99.4153 0.0000 0.0000 0.0000
# 2 64.8818 97.9297 99.7201 0.0000 0.0000 0.0000
# 3 99.4153 99.7201 240.9164 0.0000 0.0000 0.0000
# 4 0.0000 0.0000 0.0000 102.2701 0.0000 0.0000
# 5 0.0000 0.0000 0.0000 0.0000 25.0528 0.0000
# 6 0.0000 0.0000 0.0000 0.0000 0.0000 32.5703
#
#
#
# Elastic Compliance Matrix: (Units=1/GPa)
#
#
# Indices 1 2 3 4 5 6 
#
# 1 0.010335 -0.004329 -0.002473 0.000000 0.000000 0.000000
# 2 -0.004329 0.019465 -0.006270 0.000000 0.000000 0.000000
# 3 -0.002473 -0.006270 0.007767 0.000000 0.000000 0.000000
# 4 0.000000 0.000000 0.000000 0.009778 0.000000 0.000000
# 5 0.000000 0.000000 0.000000 0.000000 0.039916 0.000000
# 6 0.000000 0.000000 0.000000 0.000000 0.000000 0.030703
#
#
# Mechanical properties :
#
#
# Convention : Reuss Voigt Hill
#
# Bulk Modulus (GPa) = 87.55414 112.73377 100.14396
# Shear Modulus (GPa) = 33.80321 46.81546 40.30933
#
# Velocity S-wave (km/s) = 3.64302 4.28723 3.97819
# Velocity P-wave (km/s) = 7.21598 8.29265 7.77298
#
# Compressibility (1/GPa) = 0.01142150
#
# Stress axis : x y z
#
# Youngs Moduli (GPa) = 96.75799 51.37509 128.75566
#
# Poissons Ratio (x) = 0.22242 0.31839
# Poissons Ratio (y) = 0.41890 0.80734
# Poissons Ratio (z) = 0.23927 0.32214
#
# Static dielectric constant tensor:
#      x y z
#    x 1.918390 0.000000 0.000000 
#    y 0.000000 2.373820 0.000000 
#    z 0.000000 0.000000 2.156570 
# 
# From -- ./inp_files/11708.got.cif
#   From: 2010.05.17/outbox.cif.g08.bks.cpg/sg48_6_cif.got.tgz:11708.got - 2010.06.03 20:39:00.
