data_PCOD9391392
_publ_section_title
;
Structure prediction by ZEFSAII (Michael W. Deem and Ramdas Pophale) SiO2 
 PCOD9391392
Probable space group: P N N N
;
_chemical_formula_sum "Si O2"
_cell_formula_units_Z 34
_cell_length_a 16.824523
_cell_length_b 12.223452
_cell_length_c 7.175835
_cell_angle_alpha 90.000000
_cell_angle_beta 90.000000
_cell_angle_gamma 90.000000
_cell_volume 1475.737372
_symmetry_space_group_name_H-M "P N N N"
_symmetry_group_IT_number 48
_space_group.IT_coordinate_system_code '2'
_symmetry_cell_setting 'orthorhombic'
loop_
_space_group_symop_operation_xyz
x,y,z
1/2-x,1/2-y,z
x,1/2-y,1/2-z
1/2-x,y,1/2-z
-x,-y,-z
1/2+x,1/2+y,-z
-x,1/2+y,1/2+z
1/2+x,-y,1/2+z
loop_
_atom_site_type_symbol
_atom_site_label
_atom_site_fract_x
_atom_site_fract_y
_atom_site_fract_z
Si Si1 0.165043 0.876229 0.186701
Si Si2 0.856985 0.665623 0.085785
Si Si3 0.250000 0.250000 0.250000
Si Si4 0.531716 0.379647 0.524751
Si Si5 0.340638 0.920394 0.741008
O O1 0.173992 0.750000 0.250000
O O2 0.250000 0.927467 0.250000
O O3 0.084666 0.898081 0.294616
O O4 0.145435 0.910015 0.977481
O O5 0.835287 0.750000 0.250000
O O6 0.844102 0.543784 0.172762
O O7 0.950764 0.688300 0.041524
O O8 0.806211 0.683279 0.896283
O O9 0.500000 0.500000 0.500000
O O10 0.595398 0.354256 0.363231
O O11 0.250000 0.879762 0.750000
#
# Coordination Sequence:
#
# PCOD9391392 Si02
#       5
#     8   8   2   8   8
#     4  11  24  44  70 101 140 193 246 298 365 436
#     4  11  26  46  72 108 147 191 245 307 373 448
#     4  12  26  48  76 110 142 198 246 304 380 450
#     4  10  24  43  69 106 142 190 242 304 369 433
#     4  11  23  44  71 102 145 190 246 300 365 439
#
# _framework density 23.039328000000001
#
# number of rings (size 3 to 8) (size 9 to 14) (size 15 to 20)
#    0.000    1.176    2.353    2.471    0.000   16.000 
#    2.118    0.000    0.000    0.000    0.000    0.000 
#    0.000    0.000    0.000    0.000    0.000    0.000 
#
# Total GULP energy -189598.040145 kJ/mol
# GULP energy per Si atom -5576.412945 kJ/mol
# Density = 2.298689 g / cm^3
# Si number density = 23.039328 Si / 1000 Ang^3
#
#
#
# Elastic Constant Matrix: (Units=GPa)
#
#
# Indices 1 2 3 4 5 6 
#
# 1 227.9994 22.2710 113.9459 0.0000 0.0000 0.0000
# 2 22.2710 80.1348 45.0783 0.0000 0.0000 0.0000
# 3 113.9459 45.0783 252.3123 0.0000 0.0000 0.0000
# 4 0.0000 0.0000 0.0000 31.7108 0.0000 0.0000
# 5 0.0000 0.0000 0.0000 0.0000 74.4783 0.0000
# 6 0.0000 0.0000 0.0000 0.0000 0.0000 -61.9100
#
#
#
# Elastic Compliance Matrix: (Units=1/GPa)
#
#
# Indices 1 2 3 4 5 6 
#
# 1 0.005666 -0.000150 -0.002532 0.000000 0.000000 0.000000
# 2 -0.000150 0.013877 -0.002411 0.000000 0.000000 0.000000
# 3 -0.002532 -0.002411 0.005538 0.000000 0.000000 0.000000
# 4 0.000000 0.000000 0.000000 0.031535 0.000000 0.000000
# 5 0.000000 0.000000 0.000000 0.000000 0.013427 0.000000
# 6 0.000000 0.000000 0.000000 0.000000 0.000000 -0.016152
#
#
# Mechanical properties :
#
#
# Convention : Reuss Voigt Hill
#
# Bulk Modulus (GPa) = 67.14378 102.55966 84.85172
# Shear Modulus (GPa) = 72.41952 34.13258 53.27605
#
# Velocity S-wave (km/s) = 5.61260 3.85319 4.81395
# Velocity P-wave (km/s) = 8.43849 8.02545 8.23456
#
# Compressibility (1/GPa) = 0.01489341
#
# Stress axis : x y z
#
# Youngs Moduli (GPa) = 176.48981 72.06033 180.58314
#
# Poissons Ratio (x) = 0.01084 0.45723
# Poissons Ratio (y) = 0.02654 0.43546
# Poissons Ratio (z) = 0.44686 0.17377
#
# Static dielectric constant tensor:
#      x y z
#    x 1.537060 0.000000 0.000000 
#    y 0.000000 2.016080 0.000000 
#    z 0.000000 0.000000 2.140620 
# 
# From -- ./inp_files/4051.got.cif
#   From: 2010.05.17/outbox.cif.g08.bks.cpg/sg48_3_cif.got.tgz:4051.got - 2010.06.03 20:39:00.
