data_PCOD9391633
_publ_section_title
;
Structure prediction by ZEFSAII (Michael W. Deem and Ramdas Pophale) SiO2 
 PCOD9391633
Probable space group: P N N N
;
_chemical_formula_sum "Si O2"
_cell_formula_units_Z 52
_cell_length_a 19.387472
_cell_length_b 9.933305
_cell_length_c 12.960519
_cell_angle_alpha 90.000000
_cell_angle_beta 90.000000
_cell_angle_gamma 90.000000
_cell_volume 2495.958426
_symmetry_space_group_name_H-M "P N N N"
_symmetry_group_IT_number 48
_space_group.IT_coordinate_system_code '2'
_symmetry_cell_setting 'orthorhombic'
loop_
_space_group_symop_operation_xyz
x,y,z
1/2-x,1/2-y,z
x,1/2-y,1/2-z
1/2-x,y,1/2-z
-x,-y,-z
1/2+x,1/2+y,-z
-x,1/2+y,1/2+z
1/2+x,-y,1/2+z
loop_
_atom_site_type_symbol
_atom_site_label
_atom_site_fract_x
_atom_site_fract_y
_atom_site_fract_z
Si Si1 0.145865 0.461678 0.517614
Si Si2 0.016860 0.859935 0.660317
Si Si3 0.101732 0.090247 0.759310
Si Si4 0.866250 0.801002 0.592879
Si Si5 0.750000 0.750000 0.750000
Si Si6 0.151050 0.748617 0.562152
Si Si7 0.201066 0.461383 0.917950
Si Si8 0.750000 0.250000 0.250000
O O1 0.099607 0.447793 0.620110
O O2 0.126446 0.359358 0.427115
O O3 0.148710 0.619173 0.489512
O O4 0.221228 0.420120 0.560201
O O5 0.019346 0.750000 0.750000
O O6 0.073773 0.801343 0.581777
O O7 0.938633 0.863279 0.624258
O O8 0.044594 0.002526 0.700370
O O9 0.094546 0.250000 0.750000
O O10 0.172644 0.047138 0.698718
O O11 0.803636 0.825169 0.673242
O O12 0.846126 0.862917 0.483660
O O13 0.192493 0.697764 0.666080
O O14 0.190700 0.887158 0.538679
#
# Coordination Sequence:
#
# PCOD9391633 Si02
#       8
#     8   8   8   8   2   8   8   2
#     4  12  21  39  63 103 126 167 212 266 324 390
#     4  11  23  43  62  90 129 181 211 258 324 397
#     4  11  23  38  63  99 139 161 199 265 342 397
#     4  12  26  43  68  87 125 175 233 265 313 371
#     4  12  24  46  68  88 120 178 228 274 300 368
#     4  11  22  35  64  95 137 162 204 255 334 401
#     4  11  22  38  63 100 131 168 204 270 329 387
#     4  12  16  34  60  98 124 172 184 242 336 422
#
# _framework density 20.833680000000001
#
# number of rings (size 3 to 8) (size 9 to 14) (size 15 to 20)
#    0.000    0.615    7.692    1.385    0.000    3.692 
#    0.000    0.000    0.000    0.923    0.000    0.000 
#    0.000    0.000    0.000    0.000    0.000    0.000 
#
# Total GULP energy -290007.942201 kJ/mol
# GULP energy per Si atom -5577.075812 kJ/mol
# Density = 2.078626 g / cm^3
# Si number density = 20.833680 Si / 1000 Ang^3
#
#
#
# Elastic Constant Matrix: (Units=GPa)
#
#
# Indices 1 2 3 4 5 6 
#
# 1 139.9161 15.3682 13.1782 0.0000 0.0000 0.0000
# 2 15.3682 133.4555 4.3318 0.0000 0.0000 0.0000
# 3 13.1782 4.3318 30.9161 0.0000 0.0000 0.0000
# 4 0.0000 0.0000 0.0000 -5.1592 0.0000 0.0000
# 5 0.0000 0.0000 0.0000 0.0000 19.8151 0.0000
# 6 0.0000 0.0000 0.0000 0.0000 0.0000 20.6758
#
#
#
# Elastic Compliance Matrix: (Units=1/GPa)
#
#
# Indices 1 2 3 4 5 6 
#
# 1 0.007523 -0.000766 -0.003100 0.000000 0.000000 0.000000
# 2 -0.000766 0.007605 -0.000739 0.000000 0.000000 0.000000
# 3 -0.003100 -0.000739 0.033770 0.000000 0.000000 0.000000
# 4 0.000000 0.000000 0.000000 -0.193828 0.000000 0.000000
# 5 0.000000 0.000000 0.000000 0.000000 0.050467 0.000000
# 6 0.000000 0.000000 0.000000 0.000000 0.000000 0.048366
#
#
# Mechanical properties :
#
#
# Convention : Reuss Voigt Hill
#
# Bulk Modulus (GPa) = 25.19528 41.11600 33.15564
# Shear Modulus (GPa) = -211.34655 25.16030 -93.09312
#
# Velocity S-wave (km/s) = -10.08290 3.47893 -6.69186
# Velocity P-wave (km/s) = 11.11006 5.99295 6.61506
#
# Compressibility (1/GPa) = 0.03968997
#
# Stress axis : x y z
#
# Youngs Moduli (GPa) = 132.92254 131.48707 29.61173
#
# Poissons Ratio (x) = 0.10068 0.09178
# Poissons Ratio (y) = 0.10178 0.02189
# Poissons Ratio (z) = 0.41200 0.09720
#
# Static dielectric constant tensor:
#      x y z
#    x 1.811890 0.000000 0.000000 
#    y 0.000000 1.796890 0.000000 
#    z 0.000000 0.000000 1.760960 
# 
# From -- ./inp_files/28310.got.cif
#   From: 2010.05.17/outbox.cif.g08.bks.cpg/sg48_15_cif.got.tgz:28310.got - 2010.06.03 20:39:00.
