data_PCOD9391306
_publ_section_title
;
Structure prediction by ZEFSAII (Michael W. Deem and Ramdas Pophale) SiO2 
 PCOD9391306
Probable space group: P N N N
;
_chemical_formula_sum "Si O2"
_cell_formula_units_Z 48
_cell_length_a 8.643244
_cell_length_b 30.097060
_cell_length_c 7.826080
_cell_angle_alpha 90.000000
_cell_angle_beta 90.000000
_cell_angle_gamma 90.000000
_cell_volume 2035.846972
_symmetry_space_group_name_H-M "P N N N"
_symmetry_group_IT_number 48
_space_group.IT_coordinate_system_code '2'
_symmetry_cell_setting 'orthorhombic'
loop_
_space_group_symop_operation_xyz
x,y,z
1/2-x,1/2-y,z
x,1/2-y,1/2-z
1/2-x,y,1/2-z
-x,-y,-z
1/2+x,1/2+y,-z
-x,1/2+y,1/2+z
1/2+x,-y,1/2+z
loop_
_atom_site_type_symbol
_atom_site_label
_atom_site_fract_x
_atom_site_fract_y
_atom_site_fract_z
Si Si1 0.066224 0.497045 0.198909
Si Si2 0.361847 0.330819 0.893302
Si Si3 0.383041 0.175027 0.144342
Si Si4 0.573025 0.249353 0.544060
Si Si5 0.068483 0.595001 0.214351
Si Si6 0.926034 0.095230 0.303828
O O1 0.250000 0.494072 0.250000
O O2 0.020283 0.545319 0.272288
O O3 0.990919 0.451482 0.264075
O O4 0.000000 0.500000 0.000000
O O5 0.250000 0.307973 0.750000
O O6 0.471435 0.294615 0.982828
O O7 0.467911 0.367704 0.805734
O O8 0.230306 0.351249 0.014279
O O9 0.250000 0.199692 0.250000
O O10 0.480000 0.138864 0.247767
O O11 0.490162 0.208853 0.042603
O O12 0.750000 0.250000 0.482021
O O13 0.579057 0.250000 0.750000
O O14 0.250000 0.602150 0.250000
O O15 0.059298 0.596047 0.009357
O O16 0.750000 0.099450 0.250000
#
# Coordination Sequence:
#
# PCOD9391306 Si02
#       6
#     8   8   8   8   8   8
#     4   9  20  44  69 104 149 191 248 305 368 447
#     4  12  24  44  74 102 139 184 243 299 352 437
#     4  12  28  47  70 107 145 187 240 299 370 437
#     4  11  25  45  74 102 138 184 239 298 360 429
#     4  10  23  43  71 107 140 189 248 295 359 437
#     4  11  24  44  70 103 151 195 236 297 372 436
#
# _framework density 23.57741
#
# number of rings (size 3 to 8) (size 9 to 14) (size 15 to 20)
#    0.000    1.167    3.333    1.000    7.000    2.000 
#    3.000    5.000    0.000    0.000    0.000    0.000 
#    0.000    0.000    0.000    0.000    0.000    0.000 
#
# Total GULP energy -267990.010455 kJ/mol
# GULP energy per Si atom -5583.125218 kJ/mol
# Density = 2.352375 g / cm^3
# Si number density = 23.577410 Si / 1000 Ang^3
#
#
#
# Elastic Constant Matrix: (Units=GPa)
#
#
# Indices 1 2 3 4 5 6 
#
# 1 204.8163 118.4158 47.5524 0.0000 0.0000 0.0000
# 2 118.4158 191.5941 30.2602 0.0000 0.0000 0.0000
# 3 47.5524 30.2602 47.4045 0.0000 0.0000 0.0000
# 4 0.0000 0.0000 0.0000 5.5049 0.0000 0.0000
# 5 0.0000 0.0000 0.0000 0.0000 43.3653 0.0000
# 6 0.0000 0.0000 0.0000 0.0000 0.0000 11.0268
#
#
#
# Elastic Compliance Matrix: (Units=1/GPa)
#
#
# Indices 1 2 3 4 5 6 
#
# 1 0.008920 -0.004560 -0.006038 0.000000 0.000000 0.000000
# 2 -0.004560 0.008135 -0.000619 0.000000 0.000000 0.000000
# 3 -0.006038 -0.000619 0.027547 0.000000 0.000000 0.000000
# 4 0.000000 0.000000 0.000000 0.181655 0.000000 0.000000
# 5 0.000000 0.000000 0.000000 0.000000 0.023060 0.000000
# 6 0.000000 0.000000 0.000000 0.000000 0.000000 0.090688
#
#
# Mechanical properties :
#
#
# Convention : Reuss Voigt Hill
#
# Bulk Modulus (GPa) = 45.10699 92.91907 69.01303
# Shear Modulus (GPa) = 13.51978 28.48516 21.00247
#
# Velocity S-wave (km/s) = 2.39722 3.47962 2.98784
# Velocity P-wave (km/s) = 5.18027 7.45919 6.42163
#
# Compressibility (1/GPa) = 0.02216951
#
# Stress axis : x y z
#
# Youngs Moduli (GPa) = 112.10227 122.92058 36.30201
#
# Poissons Ratio (x) = 0.56049 0.21918
# Poissons Ratio (y) = 0.51116 0.02248
# Poissons Ratio (z) = 0.67683 0.07610
#
# Static dielectric constant tensor:
#      x y z
#    x 1.840350 0.000000 0.000000 
#    y 0.000000 1.874460 0.000000 
#    z 0.000000 0.000000 2.100290 
# 
# From -- ./inp_files/9438.got.cif
#   From: 2010.05.17/outbox.cif.g08.bks.cpg/sg48_5_cif.got.tgz:9438.got - 2010.06.03 20:39:00.
