data_PCOD9391163
_publ_section_title
;
Structure prediction by ZEFSAII (Michael W. Deem and Ramdas Pophale) SiO2 
 PCOD9391163
Probable space group: P N N N
;
_chemical_formula_sum "Si O2"
_cell_formula_units_Z 64
_cell_length_a 11.977736
_cell_length_b 9.661979
_cell_length_c 27.554885
_cell_angle_alpha 90.000000
_cell_angle_beta 90.000000
_cell_angle_gamma 90.000000
_cell_volume 3188.889193
_symmetry_space_group_name_H-M "P N N N"
_symmetry_group_IT_number 48
_space_group.IT_coordinate_system_code '2'
_symmetry_cell_setting 'orthorhombic'
loop_
_space_group_symop_operation_xyz
x,y,z
1/2-x,1/2-y,z
x,1/2-y,1/2-z
1/2-x,y,1/2-z
-x,-y,-z
1/2+x,1/2+y,-z
-x,1/2+y,1/2+z
1/2+x,-y,1/2+z
loop_
_atom_site_type_symbol
_atom_site_label
_atom_site_fract_x
_atom_site_fract_y
_atom_site_fract_z
Si Si1 0.903988 0.799643 0.462085
Si Si2 0.381041 0.719941 0.692968
Si Si3 0.405245 0.365952 0.428389
Si Si4 0.761054 0.415082 0.615461
Si Si5 0.865611 0.182466 0.980868
Si Si6 0.133128 0.965222 0.607931
Si Si7 0.628574 0.002152 0.431172
Si Si8 0.059292 0.101894 0.133556
O O1 0.872262 0.863417 0.514659
O O2 0.853831 0.647673 0.454528
O O3 0.038351 0.785685 0.464690
O O4 0.879471 0.881390 0.412869
O O5 0.250000 0.750000 0.682498
O O6 0.392244 0.750000 0.750000
O O7 0.391850 0.573459 0.663755
O O8 0.479371 0.812433 0.669546
O O9 0.346196 0.490367 0.398230
O O10 0.539378 0.385082 0.423268
O O11 0.386643 0.217206 0.402636
O O12 0.750000 0.250000 0.627725
O O13 0.828707 0.409311 0.564600
O O14 0.839787 0.504283 0.651099
O O15 0.750000 0.250000 0.996666
O O16 0.911976 0.096868 0.025133
O O17 0.260202 0.934895 0.592554
O O18 0.531043 0.002872 0.392276
#
# Coordination Sequence:
#
# PCOD9391163 Si02
#       8
#     8   8   8   8   8   8   8   8
#     4  12  22  37  51  88 130 176 214 253 301 372
#     4  10  22  43  71  98 120 152 206 274 339 392
#     4  11  23  38  59  87 129 176 222 252 295 361
#     4  11  23  40  57  87 127 174 211 254 305 361
#     4  11  21  33  54  78 126 177 220 252 296 362
#     4  11  23  37  60  91 124 165 209 266 317 379
#     4  12  22  35  55  87 128 167 210 256 311 369
#     4  11  22  39  66  91 123 163 212 258 313 380
#
# _framework density 20.069683999999999
#
# number of rings (size 3 to 8) (size 9 to 14) (size 15 to 20)
#    0.000    0.875    3.750    5.250    1.750    1.000 
#    0.000    0.000    0.000    6.750    0.000    7.875 
#    0.000    0.000    0.000    0.000    0.000    0.000 
#
# Total GULP energy -356729.502600 kJ/mol
# GULP energy per Si atom -5573.898478 kJ/mol
# Density = 2.002400 g / cm^3
# Si number density = 20.069684 Si / 1000 Ang^3
#
#
#
# Elastic Constant Matrix: (Units=GPa)
#
#
# Indices 1 2 3 4 5 6 
#
# 1 105.1301 41.7859 27.6228 0.0000 0.0000 0.0000
# 2 41.7859 98.9052 31.8737 0.0000 0.0000 0.0000
# 3 27.6228 31.8737 80.4115 0.0000 0.0000 0.0000
# 4 0.0000 0.0000 0.0000 14.5828 0.0000 0.0000
# 5 0.0000 0.0000 0.0000 0.0000 17.4972 0.0000
# 6 0.0000 0.0000 0.0000 0.0000 0.0000 36.8521
#
#
#
# Elastic Compliance Matrix: (Units=1/GPa)
#
#
# Indices 1 2 3 4 5 6 
#
# 1 0.011818 -0.004224 -0.002385 0.000000 0.000000 0.000000
# 2 -0.004224 0.013101 -0.003742 0.000000 0.000000 0.000000
# 3 -0.002385 -0.003742 0.014739 0.000000 0.000000 0.000000
# 4 0.000000 0.000000 0.000000 0.068574 0.000000 0.000000
# 5 0.000000 0.000000 0.000000 0.000000 0.057152 0.000000
# 6 0.000000 0.000000 0.000000 0.000000 0.000000 0.027135
#
#
# Mechanical properties :
#
#
# Convention : Reuss Voigt Hill
#
# Bulk Modulus (GPa) = 52.75694 54.11241 53.43467
# Shear Modulus (GPa) = 22.77486 25.99737 24.38611
#
# Velocity S-wave (km/s) = 3.37232 3.60301 3.48957
# Velocity P-wave (km/s) = 6.44262 6.65805 6.55122
#
# Compressibility (1/GPa) = 0.01895485
#
# Stress axis : x y z
#
# Youngs Moduli (GPa) = 84.61889 76.32861 67.84867
#
# Poissons Ratio (x) = 0.32242 0.16183
# Poissons Ratio (y) = 0.35744 0.25389
# Poissons Ratio (z) = 0.20183 0.28563
#
# Static dielectric constant tensor:
#      x y z
#    x 1.788420 0.000000 0.000000 
#    y 0.000000 1.796550 0.000000 
#    z 0.000000 0.000000 1.679720 
# 
# From -- ./inp_files/38958.got.cif
#   From: 2010.05.17/outbox.cif.g08.bks.cpg/sg48_20_cif.got.tgz:38958.got - 2010.06.03 20:39:00.
