data_PCOD9391963
_publ_section_title
;
Structure prediction by ZEFSAII (Michael W. Deem and Ramdas Pophale) SiO2 
 PCOD9391963
Probable space group: P N N N
;
_chemical_formula_sum "Si O2"
_cell_formula_units_Z 64
_cell_length_a 18.000000
_cell_length_b 15.000000
_cell_length_c 12.000000
_cell_angle_alpha 90.000000
_cell_angle_beta 90.000000
_cell_angle_gamma 90.000000
_cell_volume 3240.000000
_symmetry_space_group_name_H-M "P N N N"
_symmetry_group_IT_number 48
_space_group.IT_coordinate_system_code '2'
_symmetry_cell_setting 'orthorhombic'
loop_
_space_group_symop_operation_xyz
x,y,z
1/2-x,1/2-y,z
x,1/2-y,1/2-z
1/2-x,y,1/2-z
-x,-y,-z
1/2+x,1/2+y,-z
-x,1/2+y,1/2+z
1/2+x,-y,1/2+z
loop_
_atom_site_type_symbol
_atom_site_label
_atom_site_fract_x
_atom_site_fract_y
_atom_site_fract_z
Si Si1 0.201587 0.538972 0.534617
Si Si2 0.436095 0.947709 0.154053
Si Si3 0.544741 0.713794 0.869621
Si Si4 0.735388 0.647195 0.382001
Si Si5 0.311252 0.680027 0.429021
Si Si6 0.632511 0.201044 0.362651
Si Si7 0.578061 0.887643 0.011845
Si Si8 0.062581 0.486809 0.404241
O O1 0.219137 0.437658 0.569230
O O2 0.269307 0.595098 0.483456
O O3 0.169457 0.603684 0.630818
O O4 0.136054 0.536663 0.444479
O O5 0.374831 0.867852 0.145383
O O6 0.509456 0.915187 0.089695
O O7 0.455052 0.976763 0.280501
O O8 0.411628 0.036181 0.083657
O O9 0.570021 0.750000 0.750000
O O10 0.456504 0.694430 0.862414
O O11 0.579326 0.618551 0.897161
O O12 0.559914 0.792816 0.955511
O O13 0.750000 0.750000 0.421716
O O14 0.750000 0.647333 0.250000
O O15 0.651350 0.623678 0.414859
O O16 0.250000 0.750000 0.379769
O O17 0.345514 0.738929 0.530426
O O18 0.656028 0.250000 0.250000
O O19 0.000000 0.500000 0.500000
#
# Coordination Sequence:
#
# PCOD9391963 Si02
#       8
#     8   8   8   8   8   8   8   8
#     4  11  24  42  66  95 143 179 230 291 342 416
#     4  11  24  44  72 105 135 184 234 289 354 425
#     4  11  21  42  70 101 138 176 237 296 340 423
#     4  11  26  45  67 100 142 186 232 289 353 416
#     4  10  22  43  66 101 137 182 234 286 354 425
#     4  10  22  38  68 106 137 180 231 290 353 421
#     4  11  23  44  75 100 136 182 236 291 351 417
#     4  12  26  44  67 103 139 182 236 285 357 419
#
# _framework density 19.753086
#
# number of rings (size 3 to 8) (size 9 to 14) (size 15 to 20)
#    0.000    1.125    5.000    0.750    3.500    2.250 
#    0.000    6.875    0.000    0.000    0.000    0.000 
#    0.000    0.000    0.000    0.000    0.000    0.000 
#
# Total GULP energy -357385.199090 kJ/mol
# GULP energy per Si atom -5584.143736 kJ/mol
# Density = 1.970813 g / cm^3
# Si number density = 19.753086 Si / 1000 Ang^3
#
#
#
# Elastic Constant Matrix: (Units=GPa)
#
#
# Indices 1 2 3 4 5 6 
#
# 1 64.4927 25.6969 27.8747 0.0000 0.0000 0.0000
# 2 25.6969 145.1915 49.1307 0.0000 0.0000 0.0000
# 3 27.8747 49.1307 105.8263 0.0000 0.0000 0.0000
# 4 0.0000 0.0000 0.0000 39.2246 0.0000 0.0000
# 5 0.0000 0.0000 0.0000 0.0000 15.3823 0.0000
# 6 0.0000 0.0000 0.0000 0.0000 0.0000 39.5776
#
#
#
# Elastic Compliance Matrix: (Units=1/GPa)
#
#
# Indices 1 2 3 4 5 6 
#
# 1 0.017914 -0.001867 -0.003852 0.000000 0.000000 0.000000
# 2 -0.001867 0.008366 -0.003392 0.000000 0.000000 0.000000
# 3 -0.003852 -0.003392 0.012039 0.000000 0.000000 0.000000
# 4 0.000000 0.000000 0.000000 0.025494 0.000000 0.000000
# 5 0.000000 0.000000 0.000000 0.000000 0.065010 0.000000
# 6 0.000000 0.000000 0.000000 0.000000 0.000000 0.025267
#
#
# Mechanical properties :
#
#
# Convention : Reuss Voigt Hill
#
# Bulk Modulus (GPa) = 49.75900 57.87945 53.81923
# Shear Modulus (GPa) = 27.93124 33.02410 30.47767
#
# Velocity S-wave (km/s) = 3.76442 4.09326 3.93228
# Velocity P-wave (km/s) = 6.64377 7.19060 6.92259
#
# Compressibility (1/GPa) = 0.02009687
#
# Stress axis : x y z
#
# Youngs Moduli (GPa) = 55.82092 119.53503 83.06475
#
# Poissons Ratio (x) = 0.22320 0.31995
# Poissons Ratio (y) = 0.10423 0.28176
# Poissons Ratio (z) = 0.21501 0.40547
#
# Static dielectric constant tensor:
#      x y z
#    x 1.705110 0.000000 0.000000 
#    y 0.000000 1.688520 0.000000 
#    z 0.000000 0.000000 1.691830 
# 
# From -- ./inp_files/22338.got.cif
#   From: 2010.05.17/outbox.ucp.g08.bks.cvg/sg48_12_cif.got.tgz:22338.got - 2010.06.11 16:38:40.
