data_PCOD9391720
_publ_section_title
;
Structure prediction by ZEFSAII (Michael W. Deem and Ramdas Pophale) SiO2 
 PCOD9391720
Probable space group: P N N N
;
_chemical_formula_sum "Si O2"
_cell_formula_units_Z 32
_cell_length_a 21.136764
_cell_length_b 10.760397
_cell_length_c 7.205345
_cell_angle_alpha 90.000000
_cell_angle_beta 90.000000
_cell_angle_gamma 90.000000
_cell_volume 1638.783465
_symmetry_space_group_name_H-M "P N N N"
_symmetry_group_IT_number 48
_space_group.IT_coordinate_system_code '2'
_symmetry_cell_setting 'orthorhombic'
loop_
_space_group_symop_operation_xyz
x,y,z
1/2-x,1/2-y,z
x,1/2-y,1/2-z
1/2-x,y,1/2-z
-x,-y,-z
1/2+x,1/2+y,-z
-x,1/2+y,1/2+z
1/2+x,-y,1/2+z
loop_
_atom_site_type_symbol
_atom_site_label
_atom_site_fract_x
_atom_site_fract_y
_atom_site_fract_z
Si Si1 0.429426 0.360032 0.107571
Si Si2 0.556609 0.147718 0.597685
Si Si3 0.750000 0.071627 0.250000
Si Si4 0.717103 0.628495 0.951237
Si Si5 0.862368 0.250000 0.250000
O O1 0.446376 0.250000 0.250000
O O2 0.431375 0.506190 0.165065
O O3 0.356630 0.340739 0.059430
O O4 0.481856 0.348523 0.947926
O O5 0.573148 0.250000 0.750000
O O6 0.595000 0.185794 0.410035
O O7 0.811162 0.148594 0.319907
O O8 0.727208 0.988714 0.420008
O O9 0.750000 0.750000 0.032529
O O10 0.750000 0.608785 0.750000
#
# Coordination Sequence:
#
# PCOD9391720 Si02
#       5
#     8   8   4   8   4
#     4  11  23  47  66  99 138 167 226 278 327 404
#     4  11  26  45  71  98 132 180 222 278 339 392
#     4  11  25  40  64  96 135 175 216 276 334 399
#     4  11  23  41  65  97 132 173 219 273 332 399
#     4  11  24  44  64  98 135 168 228 276 327 406
#
# _framework density 19.526679999999999
#
# number of rings (size 3 to 8) (size 9 to 14) (size 15 to 20)
#    0.000    1.000    6.250    0.375    3.500    3.000 
#    0.000    2.500    0.000    0.000    0.000    0.000 
#    0.000    0.000    0.000    0.000    0.000    0.000 
#
# Total GULP energy -178414.741826 kJ/mol
# GULP energy per Si atom -5575.460682 kJ/mol
# Density = 1.948224 g / cm^3
# Si number density = 19.526680 Si / 1000 Ang^3
#
#
#
# Elastic Constant Matrix: (Units=GPa)
#
#
# Indices 1 2 3 4 5 6 
#
# 1 134.2841 23.3983 11.4872 0.0000 0.0000 0.0000
# 2 23.3983 136.1792 35.8923 0.0000 0.0000 0.0000
# 3 11.4872 35.8923 49.5335 0.0000 0.0000 0.0000
# 4 0.0000 0.0000 0.0000 34.7267 0.0000 0.0000
# 5 0.0000 0.0000 0.0000 0.0000 0.2919 0.0000
# 6 0.0000 0.0000 0.0000 0.0000 0.0000 29.0231
#
#
#
# Elastic Compliance Matrix: (Units=1/GPa)
#
#
# Indices 1 2 3 4 5 6 
#
# 1 0.007719 -0.001056 -0.001025 0.000000 0.000000 0.000000
# 2 -0.001056 0.009221 -0.006437 0.000000 0.000000 0.000000
# 3 -0.001025 -0.006437 0.025090 0.000000 0.000000 0.000000
# 4 0.000000 0.000000 0.000000 0.028796 0.000000 0.000000
# 5 0.000000 0.000000 0.000000 0.000000 3.426370 0.000000
# 6 0.000000 0.000000 0.000000 0.000000 0.000000 0.034455
#
#
# Mechanical properties :
#
#
# Convention : Reuss Voigt Hill
#
# Bulk Modulus (GPa) = 40.00863 51.28362 45.64612
# Shear Modulus (GPa) = 1.40567 29.42295 15.41431
#
# Velocity S-wave (km/s) = 0.84937 3.88597 2.81267
# Velocity P-wave (km/s) = 4.63634 6.81577 5.82882
#
# Compressibility (1/GPa) = 0.02499461
#
# Stress axis : x y z
#
# Youngs Moduli (GPa) = 129.55752 108.44494 39.85623
#
# Poissons Ratio (x) = 0.11453 0.04084
# Poissons Ratio (y) = 0.13683 0.25655
# Poissons Ratio (z) = 0.13276 0.69805
#
# Static dielectric constant tensor:
#      x y z
#    x 1.659530 0.000000 0.000000 
#    y 0.000000 1.716990 0.000000 
#    z 0.000000 0.000000 1.676100 
# 
# From -- ./inp_files/8682.got.cif
#   From: 2010.05.17/outbox.cif.g08.bks.cpg/sg48_5_cif.got.tgz:8682.got - 2010.06.03 20:39:00.
