data_PCOD9391562
_publ_section_title
;
Structure prediction by ZEFSAII (Michael W. Deem and Ramdas Pophale) SiO2 
 PCOD9391562
Probable space group: P N N N
;
_chemical_formula_sum "Si O2"
_cell_formula_units_Z 54
_cell_length_a 11.169854
_cell_length_b 21.621340
_cell_length_c 12.091186
_cell_angle_alpha 90.000000
_cell_angle_beta 90.000000
_cell_angle_gamma 90.000000
_cell_volume 2920.108610
_symmetry_space_group_name_H-M "P N N N"
_symmetry_group_IT_number 48
_space_group.IT_coordinate_system_code '2'
_symmetry_cell_setting 'orthorhombic'
loop_
_space_group_symop_operation_xyz
x,y,z
1/2-x,1/2-y,z
x,1/2-y,1/2-z
1/2-x,y,1/2-z
-x,-y,-z
1/2+x,1/2+y,-z
-x,1/2+y,1/2+z
1/2+x,-y,1/2+z
loop_
_atom_site_type_symbol
_atom_site_label
_atom_site_fract_x
_atom_site_fract_y
_atom_site_fract_z
Si Si1 0.750000 0.750000 0.750000
Si Si2 0.970215 0.447923 0.233181
Si Si3 0.955400 0.125594 0.476652
Si Si4 0.892049 0.245246 0.116517
Si Si5 0.720732 0.925514 0.014379
Si Si6 0.250000 0.020561 0.750000
Si Si7 0.410281 0.347757 0.113089
Si Si8 0.668898 0.038798 0.857299
O O1 0.668263 0.704914 0.825172
O O2 0.911611 0.410228 0.132663
O O3 0.859649 0.479026 0.293707
O O4 0.052600 0.401401 0.301236
O O5 0.051992 0.502203 0.185037
O O6 0.946812 0.197173 0.449028
O O7 0.877309 0.098868 0.577136
O O8 0.093814 0.105887 0.485911
O O9 0.750000 0.250000 0.098120
O O10 0.909906 0.250000 0.250000
O O11 0.964904 0.184618 0.079088
O O12 0.715025 0.940003 0.143676
O O13 0.828745 0.880511 0.979030
O O14 0.728039 0.989064 0.942339
O O15 0.750000 0.051044 0.750000
#
# Coordination Sequence:
#
# PCOD9391562 Si02
#       8
#     2   8   8   8   8   4   8   8
#     4  12  20  40  62  90 124 160 216 270 320 360
#     4  11  21  36  62  92 130 164 203 262 334 384
#     4  11  21  41  62  90 131 173 207 264 329 390
#     4  11  24  40  61  93 127 166 209 266 332 381
#     4  11  23  39  64  91 131 164 215 267 326 388
#     4  12  24  40  58  94 132 176 200 256 342 404
#     4  12  22  37  64  96 126 164 216 281 314 392
#     4  11  20  40  63  95 127 169 213 261 324 397
#
# _framework density 18.492463000000001
#
# number of rings (size 3 to 8) (size 9 to 14) (size 15 to 20)
#    0.000    0.741    6.667    3.556    2.074    0.593 
#    2.667    0.000    0.000    6.222    0.000    0.000 
#    0.000    0.000    0.000    0.000    0.000    0.000 
#
# Total GULP energy -301424.036873 kJ/mol
# GULP energy per Si atom -5581.926609 kJ/mol
# Density = 1.845037 g / cm^3
# Si number density = 18.492463 Si / 1000 Ang^3
#
#
#
# Elastic Constant Matrix: (Units=GPa)
#
#
# Indices 1 2 3 4 5 6 
#
# 1 74.9771 25.7179 29.8098 0.0000 0.0000 0.0000
# 2 25.7179 75.1857 40.9693 0.0000 0.0000 0.0000
# 3 29.8098 40.9693 80.4963 0.0000 0.0000 0.0000
# 4 0.0000 0.0000 0.0000 25.9168 0.0000 0.0000
# 5 0.0000 0.0000 0.0000 0.0000 30.0541 0.0000
# 6 0.0000 0.0000 0.0000 0.0000 0.0000 -11.3153
#
#
#
# Elastic Compliance Matrix: (Units=1/GPa)
#
#
# Indices 1 2 3 4 5 6 
#
# 1 0.016157 -0.003136 -0.004387 0.000000 0.000000 0.000000
# 2 -0.003136 0.019013 -0.008516 0.000000 0.000000 0.000000
# 3 -0.004387 -0.008516 0.018382 0.000000 0.000000 0.000000
# 4 0.000000 0.000000 0.000000 0.038585 0.000000 0.000000
# 5 0.000000 0.000000 0.000000 0.000000 0.033273 0.000000
# 6 0.000000 0.000000 0.000000 0.000000 0.000000 -0.088376
#
#
# Mechanical properties :
#
#
# Convention : Reuss Voigt Hill
#
# Bulk Modulus (GPa) = 46.56702 47.07256 46.81979
# Shear Modulus (GPa) = 65.55549 17.87527 41.71538
#
# Velocity S-wave (km/s) = 5.96044 3.11243 4.75468
# Velocity P-wave (km/s) = 8.52088 6.19892 7.45090
#
# Compressibility (1/GPa) = 0.02147442
#
# Stress axis : x y z
#
# Youngs Moduli (GPa) = 61.89086 52.59458 54.40163
#
# Poissons Ratio (x) = 0.16494 0.23868
# Poissons Ratio (y) = 0.19409 0.46327
# Poissons Ratio (z) = 0.27154 0.44788
#
# Static dielectric constant tensor:
#      x y z
#    x 1.674200 0.000000 0.000000 
#    y 0.000000 1.655960 0.000000 
#    z 0.000000 0.000000 1.621080 
# 
# From -- ./inp_files/20297.got.cif
#   From: 2010.05.17/outbox.cif.g08.bks.cpg/sg48_11_cif.got.tgz:20297.got - 2010.06.03 20:39:00.
