data_PCOD9391286
_publ_section_title
;
Structure prediction by ZEFSAII (Michael W. Deem and Ramdas Pophale) SiO2 
 PCOD9391286
Probable space group: P N N N
;
_chemical_formula_sum "Si O2"
_cell_formula_units_Z 44
_cell_length_a 8.349094
_cell_length_b 30.379981
_cell_length_c 8.383842
_cell_angle_alpha 90.000000
_cell_angle_beta 90.000000
_cell_angle_gamma 90.000000
_cell_volume 2126.522262
_symmetry_space_group_name_H-M "P N N N"
_symmetry_group_IT_number 48
_space_group.IT_coordinate_system_code '2'
_symmetry_cell_setting 'orthorhombic'
loop_
_space_group_symop_operation_xyz
x,y,z
1/2-x,1/2-y,z
x,1/2-y,1/2-z
1/2-x,y,1/2-z
-x,-y,-z
1/2+x,1/2+y,-z
-x,1/2+y,1/2+z
1/2+x,-y,1/2+z
loop_
_atom_site_type_symbol
_atom_site_label
_atom_site_fract_x
_atom_site_fract_y
_atom_site_fract_z
Si Si1 0.077833 0.699758 0.692231
Si Si2 0.750000 0.650125 0.750000
Si Si3 0.168288 0.937455 0.575050
Si Si4 0.802876 0.526952 0.927047
Si Si5 0.674059 0.143800 0.583264
Si Si6 0.169115 0.104497 0.912831
O O1 0.070252 0.750000 0.750000
O O2 0.250000 0.682080 0.750000
O O3 0.101603 0.686507 0.507548
O O4 0.916762 0.677070 0.755227
O O5 0.766900 0.625359 0.579691
O O6 0.250000 0.939430 0.750000
O O7 0.200386 0.888674 0.506848
O O8 0.983886 0.953677 0.573572
O O9 0.234159 0.975935 0.461177
O O10 0.750000 0.537142 0.750000
O O11 0.708546 0.553590 0.061934
O O12 0.750000 0.156665 0.750000
O O13 0.518163 0.113222 0.600804
O O14 0.250000 0.121116 0.750000
#
# Coordination Sequence:
#
# PCOD9391286 Si02
#       6
#     8   4   8   8   8   8
#     4  10  23  43  71  99 128 174 218 278 353 419
#     4  10  23  42  70 100 136 176 224 284 342 415
#     4  11  24  38  60  91 130 182 224 281 337 395
#     4  11  23  39  58  90 135 178 232 280 332 395
#     4  11  24  41  66  98 131 174 221 282 341 410
#     4  11  23  39  65  98 130 181 226 275 338 399
#
# _framework density 20.69106
#
# number of rings (size 3 to 8) (size 9 to 14) (size 15 to 20)
#    0.000    1.273    0.909    4.091    7.636    5.818 
#    0.000    1.818    0.000    1.091    0.000    0.000 
#    0.000    0.000    0.000    0.000    0.000    0.000 
#
# Total GULP energy -245176.495065 kJ/mol
# GULP energy per Si atom -5572.193070 kJ/mol
# Density = 2.064397 g / cm^3
# Si number density = 20.691060 Si / 1000 Ang^3
#
#
#
# Elastic Constant Matrix: (Units=GPa)
#
#
# Indices 1 2 3 4 5 6 
#
# 1 73.4337 24.7555 30.7424 0.0000 0.0000 0.0000
# 2 24.7555 100.9732 44.0860 0.0000 0.0000 0.0000
# 3 30.7424 44.0860 119.4234 0.0000 0.0000 0.0000
# 4 0.0000 0.0000 0.0000 21.6634 0.0000 0.0000
# 5 0.0000 0.0000 0.0000 0.0000 26.0807 0.0000
# 6 0.0000 0.0000 0.0000 0.0000 0.0000 111.1629
#
#
#
# Elastic Compliance Matrix: (Units=1/GPa)
#
#
# Indices 1 2 3 4 5 6 
#
# 1 0.015773 -0.002497 -0.003139 0.000000 0.000000 0.000000
# 2 -0.002497 0.012202 -0.003862 0.000000 0.000000 0.000000
# 3 -0.003139 -0.003862 0.010607 0.000000 0.000000 0.000000
# 4 0.000000 0.000000 0.000000 0.046161 0.000000 0.000000
# 5 0.000000 0.000000 0.000000 0.000000 0.038342 0.000000
# 6 0.000000 0.000000 0.000000 0.000000 0.000000 0.008996
#
#
# Mechanical properties :
#
#
# Convention : Reuss Voigt Hill
#
# Bulk Modulus (GPa) = 51.05165 54.77758 52.91462
# Shear Modulus (GPa) = 31.72488 44.73116 38.22802
#
# Velocity S-wave (km/s) = 3.91994 4.65462 4.30299
# Velocity P-wave (km/s) = 6.72419 7.44439 7.09343
#
# Compressibility (1/GPa) = 0.01958801
#
# Stress axis : x y z
#
# Youngs Moduli (GPa) = 63.39778 81.95526 94.27628
#
# Poissons Ratio (x) = 0.20462 0.29591
# Poissons Ratio (y) = 0.15829 0.36406
# Poissons Ratio (z) = 0.19899 0.31648
#
# Static dielectric constant tensor:
#      x y z
#    x 1.795110 0.000000 0.000000 
#    y 0.000000 1.765930 0.000000 
#    z 0.000000 0.000000 1.858610 
# 
# From -- ./inp_files/9382.got.cif
#   From: 2010.05.17/outbox.cif.g08.bks.cpg/sg48_5_cif.got.tgz:9382.got - 2010.06.03 20:39:00.
