data_PCOD9391397
_publ_section_title
;
Structure prediction by ZEFSAII (Michael W. Deem and Ramdas Pophale) SiO2 
 PCOD9391397
Probable space group: P N N N
;
_chemical_formula_sum "Si O2"
_cell_formula_units_Z 38
_cell_length_a 19.134779
_cell_length_b 4.956205
_cell_length_c 17.279256
_cell_angle_alpha 90.000000
_cell_angle_beta 90.000000
_cell_angle_gamma 90.000000
_cell_volume 1638.693576
_symmetry_space_group_name_H-M "P N N N"
_symmetry_group_IT_number 48
_space_group.IT_coordinate_system_code '2'
_symmetry_cell_setting 'orthorhombic'
loop_
_space_group_symop_operation_xyz
x,y,z
1/2-x,1/2-y,z
x,1/2-y,1/2-z
1/2-x,y,1/2-z
-x,-y,-z
1/2+x,1/2+y,-z
-x,1/2+y,1/2+z
1/2+x,-y,1/2+z
loop_
_atom_site_type_symbol
_atom_site_label
_atom_site_fract_x
_atom_site_fract_y
_atom_site_fract_z
Si Si1 0.750000 0.250000 0.250000
Si Si2 0.250000 0.250000 0.996450
Si Si3 0.937333 0.750000 0.750000
Si Si4 0.070313 0.827099 0.004617
Si Si5 0.144940 0.467065 0.632283
Si Si6 0.126161 0.334645 0.086839
Si Si7 0.041109 0.250000 0.750000
O O1 0.802061 0.417191 0.304500
O O2 0.202001 0.425459 0.054664
O O3 0.192671 0.152625 0.934883
O O4 0.889917 0.672554 0.823070
O O5 0.990394 0.502181 0.738592
O O6 0.116368 0.025437 0.059141
O O7 0.071738 0.536815 0.044763
O O8 0.100308 0.816290 0.917202
O O9 0.000000 0.000000 0.000000
O O10 0.092645 0.264028 0.675818
#
# Coordination Sequence:
#
# PCOD9391397 Si02
#       7
#     2   4   4   8   8   8   4
#     4  12  22  38  68 102 138 180 216 268 340 402
#     4  10  24  44  66  96 134 180 230 276 344 410
#     4  12  25  45  68 101 135 174 232 282 348 410
#     4  11  23  41  66  95 130 176 225 276 337 401
#     4  11  23  40  65  98 137 176 224 277 337 418
#     4  11  24  42  67  95 132 176 224 286 336 405
#     4  12  26  43  68 101 140 180 220 286 348 402
#
# _framework density 23.189207
#
# number of rings (size 3 to 8) (size 9 to 14) (size 15 to 20)
#    0.000    0.842    0.000    7.579    0.000    9.684 
#    0.000    0.000    0.000    6.316    0.000    0.000 
#    0.000    0.000    0.000    0.000    0.000    0.000 
#
# Total GULP energy -212173.082275 kJ/mol
# GULP energy per Si atom -5583.502165 kJ/mol
# Density = 2.313643 g / cm^3
# Si number density = 23.189207 Si / 1000 Ang^3
#
#
#
# Elastic Constant Matrix: (Units=GPa)
#
#
# Indices 1 2 3 4 5 6 
#
# 1 87.7252 12.1954 85.2712 0.0000 0.0000 0.0000
# 2 12.1954 94.5963 34.4310 0.0000 0.0000 0.0000
# 3 85.2712 34.4310 193.9336 0.0000 0.0000 0.0000
# 4 0.0000 0.0000 0.0000 29.5127 0.0000 0.0000
# 5 0.0000 0.0000 0.0000 0.0000 37.3478 0.0000
# 6 0.0000 0.0000 0.0000 0.0000 0.0000 4.9308
#
#
#
# Elastic Compliance Matrix: (Units=1/GPa)
#
#
# Indices 1 2 3 4 5 6 
#
# 1 0.019946 0.000664 -0.008888 0.000000 0.000000 0.000000
# 2 0.000664 0.011324 -0.002302 0.000000 0.000000 0.000000
# 3 -0.008888 -0.002302 0.009473 0.000000 0.000000 0.000000
# 4 0.000000 0.000000 0.000000 0.033884 0.000000 0.000000
# 5 0.000000 0.000000 0.000000 0.000000 0.026775 0.000000
# 6 0.000000 0.000000 0.000000 0.000000 0.000000 0.202805
#
#
# Mechanical properties :
#
#
# Convention : Reuss Voigt Hill
#
# Bulk Modulus (GPa) = 50.78765 71.11670 60.95217
# Shear Modulus (GPa) = 15.06822 30.64877 22.85849
#
# Velocity S-wave (km/s) = 2.55187 3.63944 3.14305
# Velocity P-wave (km/s) = 5.53459 6.95667 6.28598
#
# Compressibility (1/GPa) = 0.01968983
#
# Stress axis : x y z
#
# Youngs Moduli (GPa) = 50.13421 88.31089 105.56125
#
# Poissons Ratio (x) = -0.05860 0.93824
# Poissons Ratio (y) = -0.03327 0.24302
# Poissons Ratio (z) = 0.44560 0.20331
#
# Static dielectric constant tensor:
#      x y z
#    x 2.036760 0.000000 0.000000 
#    y 0.000000 1.903320 0.000000 
#    z 0.000000 0.000000 1.711880 
# 
# From -- ./inp_files/28547.got.cif
#   From: 2010.05.17/outbox.cif.g08.bks.cpg/sg48_15_cif.got.tgz:28547.got - 2010.06.03 20:39:00.
