data_PCOD9391558
_publ_section_title
;
Structure prediction by ZEFSAII (Michael W. Deem and Ramdas Pophale) SiO2 
 PCOD9391558
Probable space group: P N N N
;
_chemical_formula_sum "Si O2"
_cell_formula_units_Z 64
_cell_length_a 10.020940
_cell_length_b 16.485217
_cell_length_c 20.793659
_cell_angle_alpha 90.000000
_cell_angle_beta 90.000000
_cell_angle_gamma 90.000000
_cell_volume 3435.057789
_symmetry_space_group_name_H-M "P N N N"
_symmetry_group_IT_number 48
_space_group.IT_coordinate_system_code '2'
_symmetry_cell_setting 'orthorhombic'
loop_
_space_group_symop_operation_xyz
x,y,z
1/2-x,1/2-y,z
x,1/2-y,1/2-z
1/2-x,y,1/2-z
-x,-y,-z
1/2+x,1/2+y,-z
-x,1/2+y,1/2+z
1/2+x,-y,1/2+z
loop_
_atom_site_type_symbol
_atom_site_label
_atom_site_fract_x
_atom_site_fract_y
_atom_site_fract_z
Si Si1 0.894217 0.235488 0.324845
Si Si2 0.734455 0.507483 0.675258
Si Si3 0.776157 0.951030 0.436405
Si Si4 0.952545 0.435429 0.127581
Si Si5 0.150869 0.174379 0.126559
Si Si6 0.428405 0.165593 0.517166
Si Si7 0.016696 0.647893 0.012325
Si Si8 0.206298 0.580711 0.453512
O O1 0.750000 0.250000 0.356624
O O2 0.886687 0.250000 0.250000
O O3 0.931718 0.142085 0.329012
O O4 0.005066 0.293393 0.355052
O O5 0.750000 0.482829 0.750000
O O6 0.579749 0.516045 0.653698
O O7 0.800053 0.596685 0.665937
O O8 0.799052 0.450581 0.620008
O O9 0.668508 0.879086 0.431600
O O10 0.918911 0.910363 0.448919
O O11 0.816043 0.013429 0.380128
O O12 0.735097 0.006339 0.497503
O O13 0.984597 0.391522 0.058992
O O14 0.250000 0.250000 0.136314
O O15 0.144080 0.152342 0.051319
O O16 0.457876 0.261759 0.518212
O O17 0.569983 0.121639 0.523804
O O18 0.167393 0.640338 0.037510
#
# Coordination Sequence:
#
# PCOD9391558 Si02
#       8
#     8   8   8   8   8   8   8   8
#     4  11  25  39  54  85 131 172 208 239 288 360
#     4  12  23  39  62  86 123 166 211 250 290 371
#     4  11  21  36  60  86 127 159 196 248 311 370
#     4  11  20  38  61  86 121 173 199 241 308 369
#     4  12  23  37  60  91 129 162 206 241 296 369
#     4  12  23  35  60  95 124 150 202 268 311 357
#     4  11  20  38  62  84 125 163 198 245 315 380
#     4  11  23  38  57  93 123 158 200 257 315 362
#
# _framework density 18.631419000000001
#
# number of rings (size 3 to 8) (size 9 to 14) (size 15 to 20)
#    0.000    0.625    6.250    3.375    3.500    0.000 
#    0.000    0.000    0.000    1.500    0.000    0.000 
#    7.500    0.000    0.000    0.000    0.000    0.000 
#
# Total GULP energy -357251.466824 kJ/mol
# GULP energy per Si atom -5582.054169 kJ/mol
# Density = 1.858901 g / cm^3
# Si number density = 18.631419 Si / 1000 Ang^3
#
#
#
# Elastic Constant Matrix: (Units=GPa)
#
#
# Indices 1 2 3 4 5 6 
#
# 1 76.3477 0.6043 -4.6431 0.0000 0.0000 0.0000
# 2 0.6043 49.5090 11.2628 0.0000 0.0000 0.0000
# 3 -4.6431 11.2628 53.9377 0.0000 0.0000 0.0000
# 4 0.0000 0.0000 0.0000 -14.3980 0.0000 0.0000
# 5 0.0000 0.0000 0.0000 0.0000 -15.0141 0.0000
# 6 0.0000 0.0000 0.0000 0.0000 0.0000 31.1662
#
#
#
# Elastic Compliance Matrix: (Units=1/GPa)
#
#
# Indices 1 2 3 4 5 6 
#
# 1 0.013176 -0.000440 0.001226 0.000000 0.000000 0.000000
# 2 -0.000440 0.021220 -0.004469 0.000000 0.000000 0.000000
# 3 0.001226 -0.004469 0.019579 0.000000 0.000000 0.000000
# 4 0.000000 0.000000 0.000000 -0.069454 0.000000 0.000000
# 5 0.000000 0.000000 0.000000 0.000000 -0.066604 0.000000
# 6 0.000000 0.000000 0.000000 0.000000 0.000000 0.032086
#
#
# Mechanical properties :
#
#
# Convention : Reuss Voigt Hill
#
# Bulk Modulus (GPa) = 21.45472 21.58249 21.51860
# Shear Modulus (GPa) = -184.53313 11.85552 -86.33881
#
# Velocity S-wave (km/s) = -9.96288 2.52527 -6.81477
# Velocity P-wave (km/s) = 10.99114 4.48461 7.09554
#
# Compressibility (1/GPa) = 0.04660979
#
# Stress axis : x y z
#
# Youngs Moduli (GPa) = 75.89547 47.12464 51.07623
#
# Poissons Ratio (x) = 0.02072 -0.06262
# Poissons Ratio (y) = 0.03337 0.22825
# Poissons Ratio (z) = -0.09305 0.21059
#
# Static dielectric constant tensor:
#      x y z
#    x 1.704850 0.000000 0.000000 
#    y 0.000000 1.695620 0.000000 
#    z 0.000000 0.000000 1.659010 
# 
# From -- ./inp_files/30607.got.cif
#   From: 2010.05.17/outbox.cif.g08.bks.cpg/sg48_16_cif.got.tgz:30607.got - 2010.06.03 20:39:00.
