data_PCOD9391573
_publ_section_title
;
Structure prediction by ZEFSAII (Michael W. Deem and Ramdas Pophale) SiO2 
 PCOD9391573
Probable space group: P N N N
;
_chemical_formula_sum "Si O2"
_cell_formula_units_Z 40
_cell_length_a 9.700441
_cell_length_b 9.373552
_cell_length_c 21.262770
_cell_angle_alpha 90.000000
_cell_angle_beta 90.000000
_cell_angle_gamma 90.000000
_cell_volume 1933.372393
_symmetry_space_group_name_H-M "P N N N"
_symmetry_group_IT_number 48
_space_group.IT_coordinate_system_code '2'
_symmetry_cell_setting 'orthorhombic'
loop_
_space_group_symop_operation_xyz
x,y,z
1/2-x,1/2-y,z
x,1/2-y,1/2-z
1/2-x,y,1/2-z
-x,-y,-z
1/2+x,1/2+y,-z
-x,1/2+y,1/2+z
1/2+x,-y,1/2+z
loop_
_atom_site_type_symbol
_atom_site_label
_atom_site_fract_x
_atom_site_fract_y
_atom_site_fract_z
Si Si1 0.016039 0.250000 0.750000
Si Si2 0.250000 0.250000 0.646063
Si Si3 0.654871 0.512151 0.438416
Si Si4 0.866655 0.526561 0.793464
Si Si5 0.750000 0.250000 0.140059
Si Si6 0.423976 0.750000 0.750000
Si Si7 0.664961 0.098971 0.928090
O O1 0.116388 0.250479 0.690185
O O2 0.920226 0.385676 0.758489
O O3 0.248162 0.386617 0.601775
O O4 0.665177 0.357867 0.404129
O O5 0.706273 0.486957 0.509243
O O6 0.504172 0.590324 0.435859
O O7 0.750000 0.590263 0.750000
O O8 0.814845 0.482581 0.862258
O O9 0.990863 0.636795 0.789913
O O10 0.658444 0.330752 0.193672
O O11 0.750000 0.250000 0.926528
#
# Coordination Sequence:
#
# PCOD9391573 Si02
#       7
#     4   4   8   8   4   4   8
#     4  11  21  40  66  92 127 171 224 278 332 399
#     4  11  22  40  64 100 125 160 236 286 327 394
#     4  11  23  42  69  96 130 175 227 283 334 405
#     4  12  24  41  65  95 134 176 213 271 337 414
#     4  11  20  44  70  94 133 174 226 282 339 390
#     4  11  23  40  66 100 131 171 222 280 336 387
#     4  11  23  44  67  93 133 187 222 267 346 422
#
# _framework density 20.689238
#
# number of rings (size 3 to 8) (size 9 to 14) (size 15 to 20)
#    0.000    0.800    5.000    3.000    0.000    3.200 
#    3.600    1.000    0.000    0.000    0.000    0.000 
#    0.000    0.000    0.000    0.000    0.000    0.000 
#
# Total GULP energy -222890.464954 kJ/mol
# GULP energy per Si atom -5572.261624 kJ/mol
# Density = 2.064215 g / cm^3
# Si number density = 20.689238 Si / 1000 Ang^3
#
#
#
# Elastic Constant Matrix: (Units=GPa)
#
#
# Indices 1 2 3 4 5 6 
#
# 1 51.5951 22.9480 19.2117 0.0000 0.0000 0.0000
# 2 22.9480 87.7284 43.6043 0.0000 0.0000 0.0000
# 3 19.2117 43.6043 159.2149 0.0000 0.0000 0.0000
# 4 0.0000 0.0000 0.0000 34.4400 0.0000 0.0000
# 5 0.0000 0.0000 0.0000 0.0000 6.8575 0.0000
# 6 0.0000 0.0000 0.0000 0.0000 0.0000 29.1576
#
#
#
# Elastic Compliance Matrix: (Units=1/GPa)
#
#
# Indices 1 2 3 4 5 6 
#
# 1 0.022149 -0.005169 -0.001257 0.000000 0.000000 0.000000
# 2 -0.005169 0.014401 -0.003320 0.000000 0.000000 0.000000
# 3 -0.001257 -0.003320 0.007342 0.000000 0.000000 0.000000
# 4 0.000000 0.000000 0.000000 0.029036 0.000000 0.000000
# 5 0.000000 0.000000 0.000000 0.000000 0.145825 0.000000
# 6 0.000000 0.000000 0.000000 0.000000 0.000000 0.034296
#
#
# Mechanical properties :
#
#
# Convention : Reuss Voigt Hill
#
# Bulk Modulus (GPa) = 40.98477 52.22960 46.60718
# Shear Modulus (GPa) = 17.81424 28.27601 23.04512
#
# Velocity S-wave (km/s) = 2.93753 3.70090 3.34109
# Velocity P-wave (km/s) = 5.59983 6.60014 6.12046
#
# Compressibility (1/GPa) = 0.02439931
#
# Stress axis : x y z
#
# Youngs Moduli (GPa) = 45.14940 69.43838 136.20558
#
# Poissons Ratio (x) = 0.35892 0.17121
# Poissons Ratio (y) = 0.23337 0.45225
# Poissons Ratio (z) = 0.05675 0.23056
#
# Static dielectric constant tensor:
#      x y z
#    x 1.847610 0.000000 0.000000 
#    y 0.000000 4.926950 0.000000 
#    z 0.000000 0.000000 1.725300 
# 
# From -- ./inp_files/34062.got.cif
#   From: 2010.05.17/outbox.cif.g08.bks.cpg/sg48_18_cif.got.tgz:34062.got - 2010.06.03 20:39:00.
