data_PCOD9391337
_publ_section_title
;
Structure prediction by ZEFSAII (Michael W. Deem and Ramdas Pophale) SiO2 
 PCOD9391337
Probable space group: P N N N
;
_chemical_formula_sum "Si O2"
_cell_formula_units_Z 26
_cell_length_a 21.267500
_cell_length_b 5.151854
_cell_length_c 11.293372
_cell_angle_alpha 90.000000
_cell_angle_beta 90.000000
_cell_angle_gamma 90.000000
_cell_volume 1237.381510
_symmetry_space_group_name_H-M "P N N N"
_symmetry_group_IT_number 48
_space_group.IT_coordinate_system_code '2'
_symmetry_cell_setting 'orthorhombic'
loop_
_space_group_symop_operation_xyz
x,y,z
1/2-x,1/2-y,z
x,1/2-y,1/2-z
1/2-x,y,1/2-z
-x,-y,-z
1/2+x,1/2+y,-z
-x,1/2+y,1/2+z
1/2+x,-y,1/2+z
loop_
_atom_site_type_symbol
_atom_site_label
_atom_site_fract_x
_atom_site_fract_y
_atom_site_fract_z
Si Si1 0.089070 0.750000 0.750000
Si Si2 0.118862 0.516221 0.174967
Si Si3 0.750000 0.750000 0.250000
Si Si4 0.001318 0.250000 0.750000
Si Si5 0.685494 0.102725 0.061000
O O1 0.045371 0.497555 0.736837
O O2 0.132392 0.760241 0.867976
O O3 0.113058 0.250000 0.250000
O O4 0.050122 0.648385 0.153033
O O5 0.151321 0.750000 0.250000
O O6 0.155483 0.473995 0.053998
O O7 0.793425 0.590119 0.163331
O O8 0.750000 0.250000 0.028662
#
# Coordination Sequence:
#
# PCOD9391337 Si02
#       5
#     4   8   2   4   8
#     4  12  23  44  76 104 147 186 238 298 352 420
#     4  10  25  50  69 108 144 186 241 288 358 428
#     4  12  24  48  70 106 140 180 248 280 382 406
#     4  10  23  46  70 110 140 189 240 284 366 418
#     4  12  27  46  73 105 145 189 238 302 353 430
#
# _framework density 21.012112999999999
#
# number of rings (size 3 to 8) (size 9 to 14) (size 15 to 20)
#    0.923    0.000    4.615    0.923    4.308    3.077 
#    0.000    0.000    0.000    0.000    0.000    0.000 
#    0.000    0.000    0.000    0.000    0.000    0.000 
#
# Total GULP energy -144840.161262 kJ/mol
# GULP energy per Si atom -5570.775433 kJ/mol
# Density = 2.096429 g / cm^3
# Si number density = 21.012113 Si / 1000 Ang^3
#
#
#
# Elastic Constant Matrix: (Units=GPa)
#
#
# Indices 1 2 3 4 5 6 
#
# 1 141.7284 62.1385 69.8826 0.0000 0.0000 0.0000
# 2 62.1385 138.7374 40.9004 0.0000 0.0000 0.0000
# 3 69.8826 40.9004 100.3167 0.0000 0.0000 0.0000
# 4 0.0000 0.0000 0.0000 68.5082 0.0000 0.0000
# 5 0.0000 0.0000 0.0000 0.0000 28.5796 0.0000
# 6 0.0000 0.0000 0.0000 0.0000 0.0000 14.9682
#
#
#
# Elastic Compliance Matrix: (Units=1/GPa)
#
#
# Indices 1 2 3 4 5 6 
#
# 1 0.011937 -0.003290 -0.006974 0.000000 0.000000 0.000000
# 2 -0.003290 0.009100 -0.001418 0.000000 0.000000 0.000000
# 3 -0.006974 -0.001418 0.015405 0.000000 0.000000 0.000000
# 4 0.000000 0.000000 0.000000 0.014597 0.000000 0.000000
# 5 0.000000 0.000000 0.000000 0.000000 0.034990 0.000000
# 6 0.000000 0.000000 0.000000 0.000000 0.000000 0.066809
#
#
# Mechanical properties :
#
#
# Convention : Reuss Voigt Hill
#
# Bulk Modulus (GPa) = 76.47147 80.73617 78.60382
# Shear Modulus (GPa) = 27.69155 36.26858 31.98007
#
# Velocity S-wave (km/s) = 3.63421 4.15912 3.90549
# Velocity P-wave (km/s) = 7.35411 7.84674 7.60442
#
# Compressibility (1/GPa) = 0.01307677
#
# Stress axis : x y z
#
# Youngs Moduli (GPa) = 83.77212 109.89493 64.91498
#
# Poissons Ratio (x) = 0.36161 0.45272
# Poissons Ratio (y) = 0.27565 0.09204
# Poissons Ratio (z) = 0.58423 0.15581
#
# Static dielectric constant tensor:
#      x y z
#    x 1.968370 0.000000 0.000000 
#    y 0.000000 1.792380 0.000000 
#    z 0.000000 0.000000 1.742560 
# 
# From -- ./inp_files/21753.got.cif
#   From: 2010.05.17/outbox.cif.g08.bks.cpg/sg48_11_cif.got.tgz:21753.got - 2010.06.03 20:39:00.
