data_PCOD9391249
_publ_section_title
;
Structure prediction by ZEFSAII (Michael W. Deem and Ramdas Pophale) SiO2 
 PCOD9391249
Probable space group: P N N N
;
_chemical_formula_sum "Si O2"
_cell_formula_units_Z 48
_cell_length_a 5.356231
_cell_length_b 15.357985
_cell_length_c 30.552534
_cell_angle_alpha 90.000000
_cell_angle_beta 90.000000
_cell_angle_gamma 90.000000
_cell_volume 2513.279413
_symmetry_space_group_name_H-M "P N N N"
_symmetry_group_IT_number 48
_space_group.IT_coordinate_system_code '2'
_symmetry_cell_setting 'orthorhombic'
loop_
_space_group_symop_operation_xyz
x,y,z
1/2-x,1/2-y,z
x,1/2-y,1/2-z
1/2-x,y,1/2-z
-x,-y,-z
1/2+x,1/2+y,-z
-x,1/2+y,1/2+z
1/2+x,-y,1/2+z
loop_
_atom_site_type_symbol
_atom_site_label
_atom_site_fract_x
_atom_site_fract_y
_atom_site_fract_z
Si Si1 0.250000 0.750000 0.465646
Si Si2 0.003765 0.610293 0.778000
Si Si3 0.873019 0.655615 0.084165
Si Si4 0.250000 0.250000 0.337694
Si Si5 0.596969 0.493741 0.362598
Si Si6 0.587234 0.898977 0.502115
Si Si7 0.400489 0.405510 0.102792
O O1 0.352740 0.678054 0.432054
O O2 0.417457 0.812117 0.495710
O O3 0.250000 0.627902 0.750000
O O4 0.082747 0.534700 0.812163
O O5 0.750000 0.590885 0.750000
O O6 0.931606 0.693930 0.807129
O O7 0.750000 0.750000 0.090243
O O8 0.859416 0.593973 0.125483
O O9 0.762848 0.610915 0.040283
O O10 0.388986 0.181837 0.368660
O O11 0.324270 0.466778 0.380443
O O12 0.825276 0.445156 0.387752
O O13 0.668045 0.889760 0.552303
O O14 0.500000 0.000000 0.500000
#
# Coordination Sequence:
#
# PCOD9391249 Si02
#       7
#     4   8   8   4   8   8   8
#     4  10  24  36  60  90 123 174 229 258 322 378
#     4  11  24  43  67  95 125 169 210 264 329 405
#     4  10  23  41  62  93 122 174 221 269 326 384
#     4  10  25  40  62  96 136 170 208 258 315 386
#     4  11  24  43  64  93 126 163 218 267 328 386
#     4  11  22  39  60  87 132 179 219 273 313 374
#     4  11  25  38  60  95 132 179 216 258 310 377
#
# _framework density 19.098552999999999
#
# number of rings (size 3 to 8) (size 9 to 14) (size 15 to 20)
#    0.000    1.333    1.667    3.250    8.167   10.667 
#    0.000    0.000    0.000    0.500    0.000    0.000 
#    0.000    0.000    0.000    0.000    0.000    0.000 
#
# Total GULP energy -267418.321549 kJ/mol
# GULP energy per Si atom -5571.215032 kJ/mol
# Density = 1.905508 g / cm^3
# Si number density = 19.098553 Si / 1000 Ang^3
#
#
#
# Elastic Constant Matrix: (Units=GPa)
#
#
# Indices 1 2 3 4 5 6 
#
# 1 60.5424 19.4948 27.5577 0.0000 0.0000 0.0000
# 2 19.4948 108.7055 66.3075 0.0000 0.0000 0.0000
# 3 27.5577 66.3075 120.6225 0.0000 0.0000 0.0000
# 4 0.0000 0.0000 0.0000 19.9087 0.0000 0.0000
# 5 0.0000 0.0000 0.0000 0.0000 0.4136 0.0000
# 6 0.0000 0.0000 0.0000 0.0000 0.0000 3.3041
#
#
#
# Elastic Compliance Matrix: (Units=1/GPa)
#
#
# Indices 1 2 3 4 5 6 
#
# 1 0.018524 -0.001114 -0.003619 0.000000 0.000000 0.000000
# 2 -0.001114 0.013907 -0.007390 0.000000 0.000000 0.000000
# 3 -0.003619 -0.007390 0.013180 0.000000 0.000000 0.000000
# 4 0.000000 0.000000 0.000000 0.050229 0.000000 0.000000
# 5 0.000000 0.000000 0.000000 0.000000 2.417687 0.000000
# 6 0.000000 0.000000 0.000000 0.000000 0.000000 0.302657
#
#
# Mechanical properties :
#
#
# Convention : Reuss Voigt Hill
#
# Bulk Modulus (GPa) = 46.81102 57.39892 52.10497
# Shear Modulus (GPa) = 1.75589 16.49264 9.12427
#
# Velocity S-wave (km/s) = 0.95989 2.94182 2.18811
# Velocity P-wave (km/s) = 5.07858 6.45433 5.80734
#
# Compressibility (1/GPa) = 0.02136249
#
# Stress axis : x y z
#
# Youngs Moduli (GPa) = 53.98510 71.90735 75.87427
#
# Poissons Ratio (x) = 0.08012 0.27463
# Poissons Ratio (y) = 0.06015 0.56072
# Poissons Ratio (z) = 0.19540 0.53141
#
# Static dielectric constant tensor:
#      x y z
#    x 1.818470 0.000000 0.000000 
#    y 0.000000 1.629400 0.000000 
#    z 0.000000 0.000000 1.529310 
# 
# From -- ./inp_files/7015.got.cif
#   From: 2010.05.17/outbox.cif.g08.bks.cpg/sg48_4_cif.got.tgz:7015.got - 2010.06.03 20:39:00.
