data_PCOD9391483
_publ_section_title
;
Structure prediction by ZEFSAII (Michael W. Deem and Ramdas Pophale) SiO2 
 PCOD9391483
Probable space group: P N N N
;
_chemical_formula_sum "Si O2"
_cell_formula_units_Z 36
_cell_length_a 22.676470
_cell_length_b 11.788696
_cell_length_c 6.594976
_cell_angle_alpha 90.000000
_cell_angle_beta 90.000000
_cell_angle_gamma 90.000000
_cell_volume 1763.008628
_symmetry_space_group_name_H-M "P N N N"
_symmetry_group_IT_number 48
_space_group.IT_coordinate_system_code '2'
_symmetry_cell_setting 'orthorhombic'
loop_
_space_group_symop_operation_xyz
x,y,z
1/2-x,1/2-y,z
x,1/2-y,1/2-z
1/2-x,y,1/2-z
-x,-y,-z
1/2+x,1/2+y,-z
-x,1/2+y,1/2+z
1/2+x,-y,1/2+z
loop_
_atom_site_type_symbol
_atom_site_label
_atom_site_fract_x
_atom_site_fract_y
_atom_site_fract_z
Si Si1 0.083025 0.250000 0.250000
Si Si2 0.250000 0.250000 0.750000
Si Si3 0.159578 0.828722 0.941366
Si Si4 0.141740 0.402227 0.589625
Si Si5 0.933895 0.250000 0.750000
Si Si6 0.750000 0.250000 0.750000
Si Si7 0.969355 0.606552 0.105184
O O1 0.119773 0.345178 0.377529
O O2 0.043766 0.190596 0.419926
O O3 0.202809 0.335320 0.640656
O O4 0.174697 0.750000 0.750000
O O5 0.148551 0.961500 0.909105
O O6 0.106011 0.763455 0.052700
O O7 0.211029 0.825866 0.105329
O O8 0.090840 0.389829 0.763241
O O9 0.978223 0.353958 0.750051
O O10 0.000000 0.500000 0.000000
#
# Coordination Sequence:
#
# PCOD9391483 Si02
#       7
#     4   2   8   8   4   2   8
#     4  12  24  47  70 106 146 191 238 302 374 436
#     4  12  26  50  68 104 148 184 264 302 352 456
#     4  11  26  45  74 104 144 192 240 311 370 435
#     4  12  27  48  72 107 147 195 253 301 377 450
#     4  11  23  43  66 111 139 177 246 284 372 443
#     4  10  26  48  62 112 132 178 258 286 374 432
#     4  12  25  44  71 105 146 186 244 303 367 455
#
# _framework density 20.419640000000001
#
# number of rings (size 3 to 8) (size 9 to 14) (size 15 to 20)
#    0.000    0.444    4.444    3.000    7.778    5.778 
#    0.000    0.000    0.000    0.000    0.000    0.000 
#    0.000    0.000    0.000    0.000    0.000    0.000 
#
# Total GULP energy -200582.742005 kJ/mol
# GULP energy per Si atom -5571.742833 kJ/mol
# Density = 2.037316 g / cm^3
# Si number density = 20.419640 Si / 1000 Ang^3
#
#
#
# Elastic Constant Matrix: (Units=GPa)
#
#
# Indices 1 2 3 4 5 6 
#
# 1 123.0562 26.0716 52.1296 0.0000 0.0000 0.0000
# 2 26.0716 120.5167 44.7196 0.0000 0.0000 0.0000
# 3 52.1296 44.7196 123.2173 0.0000 0.0000 0.0000
# 4 0.0000 0.0000 0.0000 37.0578 0.0000 0.0000
# 5 0.0000 0.0000 0.0000 0.0000 1.5902 0.0000
# 6 0.0000 0.0000 0.0000 0.0000 0.0000 13.3953
#
#
#
# Elastic Compliance Matrix: (Units=1/GPa)
#
#
# Indices 1 2 3 4 5 6 
#
# 1 0.009949 -0.000682 -0.003962 0.000000 0.000000 0.000000
# 2 -0.000682 0.009636 -0.003208 0.000000 0.000000 0.000000
# 3 -0.003962 -0.003208 0.010956 0.000000 0.000000 0.000000
# 4 0.000000 0.000000 0.000000 0.026985 0.000000 0.000000
# 5 0.000000 0.000000 0.000000 0.000000 0.628851 0.000000
# 6 0.000000 0.000000 0.000000 0.000000 0.000000 0.074653
#
#
# Mechanical properties :
#
#
# Convention : Reuss Voigt Hill
#
# Bulk Modulus (GPa) = 67.40158 68.07020 67.73589
# Shear Modulus (GPa) = 6.39648 26.66663 16.53155
#
# Velocity S-wave (km/s) = 1.77181 3.61769 2.84842
# Velocity P-wave (km/s) = 6.10456 7.13150 6.63792
#
# Compressibility (1/GPa) = 0.01483645
#
# Stress axis : x y z
#
# Youngs Moduli (GPa) = 100.51123 103.78006 91.27236
#
# Poissons Ratio (x) = 0.07081 0.36158
# Poissons Ratio (y) = 0.06858 0.29284
# Poissons Ratio (z) = 0.39818 0.33297
#
# Static dielectric constant tensor:
#      x y z
#    x 1.747160 0.000000 0.000000 
#    y 0.000000 1.198830 0.000000 
#    z 0.000000 0.000000 1.644350 
# 
# From -- ./inp_files/2301.got.cif
#   From: 2010.05.17/outbox.cif.g08.bks.cpg/sg48_2_cif.got.tgz:2301.got - 2010.06.03 20:39:00.
