data_PCOD9391276
_publ_section_title
;
Structure prediction by ZEFSAII (Michael W. Deem and Ramdas Pophale) SiO2 
 PCOD9391276
Probable space group: P N N N
;
_chemical_formula_sum "Si O2"
_cell_formula_units_Z 38
_cell_length_a 12.158957
_cell_length_b 25.926173
_cell_length_c 5.100110
_cell_angle_alpha 90.000000
_cell_angle_beta 90.000000
_cell_angle_gamma 90.000000
_cell_volume 1607.734312
_symmetry_space_group_name_H-M "P N N N"
_symmetry_group_IT_number 48
_space_group.IT_coordinate_system_code '2'
_symmetry_cell_setting 'orthorhombic'
loop_
_space_group_symop_operation_xyz
x,y,z
1/2-x,1/2-y,z
x,1/2-y,1/2-z
1/2-x,y,1/2-z
-x,-y,-z
1/2+x,1/2+y,-z
-x,1/2+y,1/2+z
1/2+x,-y,1/2+z
loop_
_atom_site_type_symbol
_atom_site_label
_atom_site_fract_x
_atom_site_fract_y
_atom_site_fract_z
Si Si1 0.750000 0.684001 0.750000
Si Si2 0.250000 0.250000 0.750000
Si Si3 0.022395 0.917850 0.354434
Si Si4 0.820877 0.508915 0.992509
Si Si5 0.511965 0.854395 0.648822
Si Si6 0.698386 0.192507 0.497011
O O1 0.701226 0.712633 0.482508
O O2 0.858813 0.657054 0.640651
O O3 0.914775 0.950564 0.431354
O O4 0.020900 0.870400 0.557781
O O5 0.122968 0.956086 0.400142
O O6 0.015073 0.899806 0.055377
O O7 0.750000 0.529648 0.750000
O O8 0.750000 0.499904 0.250000
O O9 0.432207 0.808728 0.542311
O O10 0.750000 0.250000 0.498784
O O11 0.750000 0.164400 0.250000
O O12 0.750000 0.166524 0.750000
#
# Coordination Sequence:
#
# PCOD9391276 Si02
#       6
#     4   2   8   8   8   8
#     4  11  26  44  72 102 138 194 236 304 370 426
#     4  10  24  46  64  94 138 178 240 282 356 444
#     4  11  26  42  66 106 138 180 247 292 353 426
#     4  11  24  44  69  96 140 198 231 292 363 428
#     4  12  25  43  69 105 140 180 241 304 356 430
#     4  10  23  42  66  97 132 176 224 280 357 430
#
# _framework density 23.635746999999999
#
# number of rings (size 3 to 8) (size 9 to 14) (size 15 to 20)
#    0.000    1.053    0.000    5.053    4.421   13.474 
#    0.000    0.000    0.000    0.000    0.000    0.000 
#    0.000    0.000    0.000    0.000    0.000    0.000 
#
# Total GULP energy -212080.208133 kJ/mol
# GULP energy per Si atom -5581.058109 kJ/mol
# Density = 2.358195 g / cm^3
# Si number density = 23.635747 Si / 1000 Ang^3
#
#
#
# Elastic Constant Matrix: (Units=GPa)
#
#
# Indices 1 2 3 4 5 6 
#
# 1 142.3639 28.8783 21.5427 0.0000 0.0000 0.0000
# 2 28.8783 47.2194 -4.2794 0.0000 0.0000 0.0000
# 3 21.5427 -4.2794 162.1626 0.0000 0.0000 0.0000
# 4 0.0000 0.0000 0.0000 21.2220 0.0000 0.0000
# 5 0.0000 0.0000 0.0000 0.0000 33.7378 0.0000
# 6 0.0000 0.0000 0.0000 0.0000 0.0000 -13.9768
#
#
#
# Elastic Compliance Matrix: (Units=1/GPa)
#
#
# Indices 1 2 3 4 5 6 
#
# 1 0.008258 -0.005162 -0.001233 0.000000 0.000000 0.000000
# 2 -0.005162 0.024455 0.001331 0.000000 0.000000 0.000000
# 3 -0.001233 0.001331 0.006366 0.000000 0.000000 0.000000
# 4 0.000000 0.000000 0.000000 0.047121 0.000000 0.000000
# 5 0.000000 0.000000 0.000000 0.000000 0.029640 0.000000
# 6 0.000000 0.000000 0.000000 0.000000 0.000000 -0.071547
#
#
# Mechanical properties :
#
#
# Convention : Reuss Voigt Hill
#
# Bulk Modulus (GPa) = 34.54176 49.33656 41.93916
# Shear Modulus (GPa) = 78.03720 28.57022 53.30371
#
# Velocity S-wave (km/s) = 5.75224 3.48051 4.75406
# Velocity P-wave (km/s) = 7.66574 6.08859 6.92223
#
# Compressibility (1/GPa) = 0.02895047
#
# Stress axis : x y z
#
# Youngs Moduli (GPa) = 121.09441 40.89064 157.09403
#
# Poissons Ratio (x) = 0.21109 0.19374
# Poissons Ratio (y) = 0.62511 -0.20912
# Poissons Ratio (z) = 0.14934 -0.05443
#
# Static dielectric constant tensor:
#      x y z
#    x 1.933610 0.000000 0.000000 
#    y 0.000000 1.932960 0.000000 
#    z 0.000000 0.000000 1.991580 
# 
# From -- ./inp_files/2431.got.cif
#   From: 2010.05.17/outbox.cif.g08.bks.cpg/sg48_2_cif.got.tgz:2431.got - 2010.06.03 20:39:00.
