data_PCOD9391474
_publ_section_title
;
Structure prediction by ZEFSAII (Michael W. Deem and Ramdas Pophale) SiO2 
 PCOD9391474
Probable space group: P N N N
;
_chemical_formula_sum "Si O2"
_cell_formula_units_Z 32
_cell_length_a 20.966649
_cell_length_b 12.323697
_cell_length_c 5.092134
_cell_angle_alpha 90.000000
_cell_angle_beta 90.000000
_cell_angle_gamma 90.000000
_cell_volume 1315.739341
_symmetry_space_group_name_H-M "P N N N"
_symmetry_group_IT_number 48
_space_group.IT_coordinate_system_code '2'
_symmetry_cell_setting 'orthorhombic'
loop_
_space_group_symop_operation_xyz
x,y,z
1/2-x,1/2-y,z
x,1/2-y,1/2-z
1/2-x,y,1/2-z
-x,-y,-z
1/2+x,1/2+y,-z
-x,1/2+y,1/2+z
1/2+x,-y,1/2+z
loop_
_atom_site_type_symbol
_atom_site_label
_atom_site_fract_x
_atom_site_fract_y
_atom_site_fract_z
Si Si1 0.540710 0.750000 0.250000
Si Si2 0.642336 0.853827 0.564506
Si Si3 0.864777 0.101749 0.905303
Si Si4 0.455514 0.893423 0.925245
Si Si5 0.250000 0.750000 0.250000
Si Si6 0.250000 0.250000 0.750000
O O1 0.585532 0.846036 0.354634
O O2 0.502894 0.704012 0.496901
O O3 0.632098 0.750000 0.750000
O O4 0.707263 0.826135 0.423252
O O5 0.648309 0.975087 0.658216
O O6 0.902296 0.131481 0.643305
O O7 0.799459 0.172494 0.915472
O O8 0.915283 0.105261 0.151849
O O9 0.500000 0.000000 0.000000
#
# Coordination Sequence:
#
# PCOD9391474 Si02
#       6
#     4   8   8   8   2   2
#     4  11  25  43  80 115 163 197 274 340 426 501
#     4  11  25  46  77 115 151 215 268 358 416 493
#     4  12  30  53  82 115 172 223 278 346 412 512
#     4  12  26  51  81 123 160 217 274 348 431 493
#     4  12  34  58  80 122 174 238 288 322 424 526
#     4  10  26  44  70 116 148 202 278 330 432 478
#
# _framework density 24.320926
#
# number of rings (size 3 to 8) (size 9 to 14) (size 15 to 20)
#    0.000    0.500    2.500    3.375   10.500    5.000 
#    0.000    0.000    0.000    0.000    0.000    0.000 
#    0.000    0.000    0.000    0.000    0.000    0.000 
#
# Total GULP energy -178624.894794 kJ/mol
# GULP energy per Si atom -5582.027962 kJ/mol
# Density = 2.426557 g / cm^3
# Si number density = 24.320926 Si / 1000 Ang^3
#
#
#
# Elastic Constant Matrix: (Units=GPa)
#
#
# Indices 1 2 3 4 5 6 
#
# 1 162.3095 66.5576 49.0003 0.0000 0.0000 0.0000
# 2 66.5576 149.9862 22.5252 0.0000 0.0000 0.0000
# 3 49.0003 22.5252 118.4724 0.0000 0.0000 0.0000
# 4 0.0000 0.0000 0.0000 31.0172 0.0000 0.0000
# 5 0.0000 0.0000 0.0000 0.0000 50.0548 0.0000
# 6 0.0000 0.0000 0.0000 0.0000 0.0000 105.2200
#
#
#
# Elastic Compliance Matrix: (Units=1/GPa)
#
#
# Indices 1 2 3 4 5 6 
#
# 1 0.008364 -0.003286 -0.002835 0.000000 0.000000 0.000000
# 2 -0.003286 0.008154 -0.000191 0.000000 0.000000 0.000000
# 3 -0.002835 -0.000191 0.009650 0.000000 0.000000 0.000000
# 4 0.000000 0.000000 0.000000 0.032240 0.000000 0.000000
# 5 0.000000 0.000000 0.000000 0.000000 0.019978 0.000000
# 6 0.000000 0.000000 0.000000 0.000000 0.000000 0.009504
#
#
# Mechanical properties :
#
#
# Convention : Reuss Voigt Hill
#
# Bulk Modulus (GPa) = 73.83275 78.54825 76.19050
# Shear Modulus (GPa) = 47.60587 56.77072 52.18830
#
# Velocity S-wave (km/s) = 4.42906 4.83663 4.63732
# Velocity P-wave (km/s) = 7.52190 7.97229 7.75037
#
# Compressibility (1/GPa) = 0.01354413
#
# Stress axis : x y z
#
# Youngs Moduli (GPa) = 119.55510 122.63610 103.63125
#
# Poissons Ratio (x) = 0.40299 0.29377
# Poissons Ratio (y) = 0.39286 0.01982
# Poissons Ratio (z) = 0.33891 0.02346
#
# Static dielectric constant tensor:
#      x y z
#    x 1.918820 0.000000 0.000000 
#    y 0.000000 1.345570 0.000000 
#    z 0.000000 0.000000 1.901500 
# 
# From -- ./inp_files/1996.got.cif
#   From: 2010.05.17/outbox.cif.g08.bks.cpg/sg48_1_cif.got.tgz:1996.got - 2010.06.03 20:39:00.
