data_PCOD9391901
_publ_section_title
;
Structure prediction by ZEFSAII (Michael W. Deem and Ramdas Pophale) SiO2 
 PCOD9391901
Probable space group: P N N N
;
_chemical_formula_sum "Si O2"
_cell_formula_units_Z 28
_cell_length_a 4.694768
_cell_length_b 12.813750
_cell_length_c 17.843889
_cell_angle_alpha 90.000000
_cell_angle_beta 90.000000
_cell_angle_gamma 90.000000
_cell_volume 1073.445242
_symmetry_space_group_name_H-M "P N N N"
_symmetry_group_IT_number 48
_space_group.IT_coordinate_system_code '2'
_symmetry_cell_setting 'orthorhombic'
loop_
_space_group_symop_operation_xyz
x,y,z
1/2-x,1/2-y,z
x,1/2-y,1/2-z
1/2-x,y,1/2-z
-x,-y,-z
1/2+x,1/2+y,-z
-x,1/2+y,1/2+z
1/2+x,-y,1/2+z
loop_
_atom_site_type_symbol
_atom_site_label
_atom_site_fract_x
_atom_site_fract_y
_atom_site_fract_z
Si Si1 0.370155 0.579799 0.857638
Si Si2 0.585028 0.067556 0.859135
Si Si3 0.982562 0.177843 0.496108
Si Si4 0.250000 0.750000 0.750000
Si Si5 0.250000 0.750000 0.250000
O O1 0.626645 0.499215 0.873165
O O2 0.437169 0.677329 0.804755
O O3 0.120756 0.513504 0.819988
O O4 0.203247 0.627666 0.929885
O O5 0.441559 0.097296 0.938813
O O6 0.599136 0.168617 0.806370
O O7 0.750000 0.250000 0.536954
O O8 0.250000 0.250000 0.473062
#
# Coordination Sequence:
#
# PCOD9391901 Si02
#       5
#     8   8   8   2   2
#     4  12  27  48  75 110 148 198 250 309 378 448
#     4  12  27  48  75 110 148 198 250 309 378 448
#     4  12  24  48  78 109 147 198 248 313 374 440
#     4  12  28  48  76 104 160 188 256 302 384 454
#     4  12  28  48  76 104 160 188 256 302 384 454
#
# _framework density 26.084239
#
# number of rings (size 3 to 8) (size 9 to 14) (size 15 to 20)
#    0.000    0.000    2.857    6.857    0.000    2.286 
#    0.000    0.000    0.000    0.000    0.000    0.000 
#    0.000    0.000    0.000    0.000    0.000    0.000 
#
# Total GULP energy -156584.854634 kJ/mol
# GULP energy per Si atom -5592.316237 kJ/mol
# Density = 2.602487 g / cm^3
# Si number density = 26.084239 Si / 1000 Ang^3
#
#
#
# Elastic Constant Matrix: (Units=GPa)
#
#
# Indices 1 2 3 4 5 6 
#
# 1 149.8825 60.0207 36.2494 0.0000 0.0000 0.0000
# 2 60.0207 166.0426 73.2155 0.0000 0.0000 0.0000
# 3 36.2494 73.2155 174.4870 0.0000 0.0000 0.0000
# 4 0.0000 0.0000 0.0000 13.0890 0.0000 0.0000
# 5 0.0000 0.0000 0.0000 0.0000 18.6806 0.0000
# 6 0.0000 0.0000 0.0000 0.0000 0.0000 36.2170
#
#
#
# Elastic Compliance Matrix: (Units=1/GPa)
#
#
# Indices 1 2 3 4 5 6 
#
# 1 0.007842 -0.002597 -0.000540 0.000000 0.000000 0.000000
# 2 -0.002597 0.008250 -0.002922 0.000000 0.000000 0.000000
# 3 -0.000540 -0.002922 0.007069 0.000000 0.000000 0.000000
# 4 0.000000 0.000000 0.000000 0.076400 0.000000 0.000000
# 5 0.000000 0.000000 0.000000 0.000000 0.053532 0.000000
# 6 0.000000 0.000000 0.000000 0.000000 0.000000 0.027611
#
#
# Mechanical properties :
#
#
# Convention : Reuss Voigt Hill
#
# Bulk Modulus (GPa) = 90.54519 92.15372 91.34946
# Shear Modulus (GPa) = 25.44494 34.99243 30.21868
#
# Velocity S-wave (km/s) = 3.12667 3.66664 3.40737
# Velocity P-wave (km/s) = 6.91540 7.30285 7.11177
#
# Compressibility (1/GPa) = 0.01104421
#
# Stress axis : x y z
#
# Youngs Moduli (GPa) = 127.51320 121.21542 141.45635
#
# Poissons Ratio (x) = 0.31479 0.07632
# Poissons Ratio (y) = 0.33114 0.41335
# Poissons Ratio (z) = 0.06880 0.35421
#
# Static dielectric constant tensor:
#      x y z
#    x 2.011300 0.000000 0.000000 
#    y 0.000000 2.130900 0.000000 
#    z 0.000000 0.000000 2.040870 
# 
# From -- ./inp_files/32637.got.cif
#   From: 2010.05.17/outbox.cif.g08.bks.cpg/sg48_17_cif.got.tgz:32637.got - 2010.06.03 20:39:00.
