data_PCOD9391872
_publ_section_title
;
Structure prediction by ZEFSAII (Michael W. Deem and Ramdas Pophale) SiO2 
 PCOD9391872
Probable space group: P N N N
;
_chemical_formula_sum "Si O2"
_cell_formula_units_Z 32
_cell_length_a 5.183471
_cell_length_b 10.273153
_cell_length_c 30.983247
_cell_angle_alpha 90.000000
_cell_angle_beta 90.000000
_cell_angle_gamma 90.000000
_cell_volume 1649.876203
_symmetry_space_group_name_H-M "P N N N"
_symmetry_group_IT_number 48
_space_group.IT_coordinate_system_code '2'
_symmetry_cell_setting 'orthorhombic'
loop_
_space_group_symop_operation_xyz
x,y,z
1/2-x,1/2-y,z
x,1/2-y,1/2-z
1/2-x,y,1/2-z
-x,-y,-z
1/2+x,1/2+y,-z
-x,1/2+y,1/2+z
1/2+x,-y,1/2+z
loop_
_atom_site_type_symbol
_atom_site_label
_atom_site_fract_x
_atom_site_fract_y
_atom_site_fract_z
Si Si1 0.250000 0.750000 0.464281
Si Si2 0.224537 0.486629 0.088042
Si Si3 0.234235 0.594699 0.636465
Si Si4 0.750000 0.750000 0.977193
Si Si5 0.580231 0.643496 0.784361
O O1 0.302770 0.624572 0.434946
O O2 0.499867 0.777397 0.493713
O O3 0.509684 0.466463 0.107178
O O4 0.185951 0.372905 0.052942
O O5 0.007352 0.467689 0.124740
O O6 0.250000 0.750000 0.628256
O O7 0.129226 0.580139 0.685455
O O8 0.750000 0.750000 0.812726
O O9 0.486971 0.750000 0.750000
O O10 0.750000 0.559012 0.750000
#
# Coordination Sequence:
#
# PCOD9391872 Si02
#       5
#     4   8   8   4   8
#     4  12  26  44  60  88 127 164 217 258 324 370
#     4  12  25  39  64  90 124 167 208 262 311 374
#     4  12  20  38  59  92 132 158 200 251 315 366
#     4  12  22  44  64  90 115 164 219 276 312 364
#     4   6  16  32  52  89 131 159 180 247 314 358
#
# _framework density 19.395392999999999
#
# number of rings (size 3 to 8) (size 9 to 14) (size 15 to 20)
#    1.500    0.000    2.500    6.000    0.000    0.500 
#    0.000    0.000    0.000    0.000    0.000    0.875 
#    7.500    0.000    0.000    0.000    0.000    0.000 
#
# Total GULP energy -178198.771073 kJ/mol
# GULP energy per Si atom -5568.711596 kJ/mol
# Density = 1.935125 g / cm^3
# Si number density = 19.395393 Si / 1000 Ang^3
#
#
#
# Elastic Constant Matrix: (Units=GPa)
#
#
# Indices 1 2 3 4 5 6 
#
# 1 102.3697 5.8045 24.5141 0.0000 0.0000 0.0000
# 2 5.8045 84.7285 38.3122 0.0000 0.0000 0.0000
# 3 24.5141 38.3122 89.6084 0.0000 0.0000 0.0000
# 4 0.0000 0.0000 0.0000 -10.4581 0.0000 0.0000
# 5 0.0000 0.0000 0.0000 0.0000 76.3893 0.0000
# 6 0.0000 0.0000 0.0000 0.0000 0.0000 14.0527
#
#
#
# Elastic Compliance Matrix: (Units=1/GPa)
#
#
# Indices 1 2 3 4 5 6 
#
# 1 0.010488 0.000718 -0.003176 0.000000 0.000000 0.000000
# 2 0.000718 0.014680 -0.006473 0.000000 0.000000 0.000000
# 3 -0.003176 -0.006473 0.014796 0.000000 0.000000 0.000000
# 4 0.000000 0.000000 0.000000 -0.095620 0.000000 0.000000
# 5 0.000000 0.000000 0.000000 0.000000 0.013091 0.000000
# 6 0.000000 0.000000 0.000000 0.000000 0.000000 0.071161
#
#
# Mechanical properties :
#
#
# Convention : Reuss Voigt Hill
#
# Bulk Modulus (GPa) = 45.24500 45.99648 45.62074
# Shear Modulus (GPa) = 92.89169 29.86850 61.38009
#
# Velocity S-wave (km/s) = 6.92803 3.92851 5.63165
# Velocity P-wave (km/s) = 9.34747 6.65915 8.11540
#
# Compressibility (1/GPa) = 0.02210189
#
# Stress axis : x y z
#
# Youngs Moduli (GPa) = 95.34343 68.11948 67.58570
#
# Poissons Ratio (x) = -0.04889 0.21466
# Poissons Ratio (y) = -0.06842 0.43747
# Poissons Ratio (z) = 0.30282 0.44093
#
# Static dielectric constant tensor:
#      x y z
#    x 1.872230 0.000000 0.000000 
#    y 0.000000 1.659010 0.000000 
#    z 0.000000 0.000000 1.339720 
# 
# From -- ./inp_files/38182.got.cif
#   From: 2010.05.17/outbox.cif.g08.bks.cpg/sg48_20_cif.got.tgz:38182.got - 2010.06.03 20:39:00.
