data_PCOD9391590
_publ_section_title
;
Structure prediction by ZEFSAII (Michael W. Deem and Ramdas Pophale) SiO2 
 PCOD9391590
Probable space group: P N N N
;
_chemical_formula_sum "Si O2"
_cell_formula_units_Z 64
_cell_length_a 15.228656
_cell_length_b 11.771094
_cell_length_c 20.200550
_cell_angle_alpha 90.000000
_cell_angle_beta 90.000000
_cell_angle_gamma 90.000000
_cell_volume 3621.109006
_symmetry_space_group_name_H-M "P N N N"
_symmetry_group_IT_number 48
_space_group.IT_coordinate_system_code '2'
_symmetry_cell_setting 'orthorhombic'
loop_
_space_group_symop_operation_xyz
x,y,z
1/2-x,1/2-y,z
x,1/2-y,1/2-z
1/2-x,y,1/2-z
-x,-y,-z
1/2+x,1/2+y,-z
-x,1/2+y,1/2+z
1/2+x,-y,1/2+z
loop_
_atom_site_type_symbol
_atom_site_label
_atom_site_fract_x
_atom_site_fract_y
_atom_site_fract_z
Si Si1 0.059896 0.494802 0.566599
Si Si2 0.567461 0.480298 0.809345
Si Si3 0.349166 0.786175 0.520291
Si Si4 0.725784 0.622394 0.864060
Si Si5 0.659023 0.704246 0.006412
Si Si6 0.490298 0.117185 0.040025
Si Si7 0.590634 0.494212 0.658594
Si Si8 0.647524 0.259544 0.865738
O O1 0.124113 0.601293 0.559149
O O2 0.111017 0.377581 0.557380
O O3 0.000000 0.500000 0.500000
O O4 0.005910 0.500386 0.634561
O O5 0.646421 0.566252 0.825492
O O6 0.551481 0.495952 0.732022
O O7 0.601490 0.352098 0.820267
O O8 0.250000 0.750000 0.534652
O O9 0.421327 0.690236 0.535515
O O10 0.354850 0.806197 0.441006
O O11 0.750000 0.750000 0.843033
O O12 0.811202 0.545480 0.851584
O O13 0.691690 0.635837 0.940271
O O14 0.750000 0.750000 0.035005
O O15 0.590703 0.802800 0.984463
O O16 0.468328 0.073815 0.112914
O O17 0.500000 0.000000 0.000000
O O18 0.601098 0.362879 0.636376
O O19 0.750000 0.250000 0.846865
#
# Coordination Sequence:
#
# PCOD9391590 Si02
#       8
#     8   8   8   8   8   8   8   8
#     4  12  22  41  63  88 125 168 212 252 300 374
#     4  12  24  39  59  87 128 174 202 245 305 386
#     4  11  24  40  66  92 119 161 212 265 311 358
#     4  11  21  38  57  87 129 165 198 242 313 386
#     4  11  22  39  65  93 127 163 211 264 309 371
#     4  12  23  40  61  92 126 160 209 261 315 367
#     4  12  25  37  58  91 128 164 201 253 317 379
#     4  11  21  37  59  89 126 161 201 247 311 386
#
# _framework density 17.674143999999998
#
# number of rings (size 3 to 8) (size 9 to 14) (size 15 to 20)
#    0.000    0.500    8.750    0.750    3.500    1.500 
#    0.000    0.000    0.000    1.500    0.000    0.875 
#    0.000    0.000    0.000    0.000    0.000    0.000 
#
# Total GULP energy -357458.259794 kJ/mol
# GULP energy per Si atom -5585.285309 kJ/mol
# Density = 1.763392 g / cm^3
# Si number density = 17.674144 Si / 1000 Ang^3
#
#
#
# Elastic Constant Matrix: (Units=GPa)
#
#
# Indices 1 2 3 4 5 6 
#
# 1 108.3206 40.5421 52.0797 0.0000 0.0000 0.0000
# 2 40.5421 108.2486 36.6455 0.0000 0.0000 0.0000
# 3 52.0797 36.6455 102.0118 0.0000 0.0000 0.0000
# 4 0.0000 0.0000 0.0000 23.9934 0.0000 0.0000
# 5 0.0000 0.0000 0.0000 0.0000 15.9400 0.0000
# 6 0.0000 0.0000 0.0000 0.0000 0.0000 30.4355
#
#
#
# Elastic Compliance Matrix: (Units=1/GPa)
#
#
# Indices 1 2 3 4 5 6 
#
# 1 0.013035 -0.002993 -0.005579 0.000000 0.000000 0.000000
# 2 -0.002993 0.011204 -0.002497 0.000000 0.000000 0.000000
# 3 -0.005579 -0.002497 0.013548 0.000000 0.000000 0.000000
# 4 0.000000 0.000000 0.000000 0.041678 0.000000 0.000000
# 5 0.000000 0.000000 0.000000 0.000000 0.062735 0.000000
# 6 0.000000 0.000000 0.000000 0.000000 0.000000 0.032856
#
#
# Mechanical properties :
#
#
# Convention : Reuss Voigt Hill
#
# Bulk Modulus (GPa) = 63.90381 64.12396 64.01388
# Shear Modulus (GPa) = 24.70217 26.69469 25.69843
#
# Velocity S-wave (km/s) = 3.74256 3.89058 3.81729
# Velocity P-wave (km/s) = 7.41019 7.51945 7.46502
#
# Compressibility (1/GPa) = 0.01564852
#
# Stress axis : x y z
#
# Youngs Moduli (GPa) = 76.71907 89.25199 73.81106
#
# Poissons Ratio (x) = 0.26713 0.41181
# Poissons Ratio (y) = 0.22962 0.18429
# Poissons Ratio (z) = 0.42804 0.22285
#
# Static dielectric constant tensor:
#      x y z
#    x 1.607350 0.000000 0.000000 
#    y 0.000000 1.631990 0.000000 
#    z 0.000000 0.000000 1.634980 
# 
# From -- ./inp_files/31717.got.cif
#   From: 2010.05.17/outbox.cif.g08.bks.cpg/sg48_16_cif.got.tgz:31717.got - 2010.06.03 20:39:00.
