data_PCOD9391965
_publ_section_title
;
Structure prediction by ZEFSAII (Michael W. Deem and Ramdas Pophale) SiO2 
 PCOD9391965
Probable space group: P N N N
;
_chemical_formula_sum "Si O2"
_cell_formula_units_Z 36
_cell_length_a 24.000000
_cell_length_b 6.000000
_cell_length_c 12.000000
_cell_angle_alpha 90.000000
_cell_angle_beta 90.000000
_cell_angle_gamma 90.000000
_cell_volume 1728.000000
_symmetry_space_group_name_H-M "P N N N"
_symmetry_group_IT_number 48
_space_group.IT_coordinate_system_code '2'
_symmetry_cell_setting 'orthorhombic'
loop_
_space_group_symop_operation_xyz
x,y,z
1/2-x,1/2-y,z
x,1/2-y,1/2-z
1/2-x,y,1/2-z
-x,-y,-z
1/2+x,1/2+y,-z
-x,1/2+y,1/2+z
1/2+x,-y,1/2+z
loop_
_atom_site_type_symbol
_atom_site_label
_atom_site_fract_x
_atom_site_fract_y
_atom_site_fract_z
Si Si1 0.976239 0.107516 0.138418
Si Si2 0.402874 0.163282 0.375901
Si Si3 0.184254 0.702301 0.378068
Si Si4 0.900332 0.750000 0.250000
Si Si5 0.389192 0.541769 0.547657
O O1 0.986655 0.250000 0.250000
O O2 0.937199 0.278140 0.071162
O O3 0.038733 0.031978 0.107248
O O4 0.939174 0.897725 0.170680
O O5 0.397049 0.250000 0.250000
O O6 0.411734 0.363522 0.460416
O O7 0.345557 0.034174 0.402057
O O8 0.250000 0.750000 0.376136
O O9 0.164489 0.750000 0.250000
O O10 0.160618 0.850786 0.477930
O O11 0.871523 0.578362 0.163767
#
# Coordination Sequence:
#
# PCOD9391965 Si02
#       5
#     8   8   8   4   8
#     4   9  21  37  64  97 133 168 211 268 333 412
#     4  11  22  39  66  97 131 172 215 269 341 398
#     4  11  25  43  63  93 131 174 224 281 327 392
#     4  10  22  40  64  95 129 170 206 258 334 404
#     4  11  22  41  65  94 130 169 219 271 333 397
#
# _framework density 20.833333
#
# number of rings (size 3 to 8) (size 9 to 14) (size 15 to 20)
#    0.000    1.556    2.222    2.000    1.556    6.222 
#    0.000    0.000    0.000   27.333    0.000    0.000 
#    0.000    0.000    0.000    0.000    0.000    0.000 
#
# Total GULP energy -200514.669376 kJ/mol
# GULP energy per Si atom -5569.851927 kJ/mol
# Density = 2.078592 g / cm^3
# Si number density = 20.833333 Si / 1000 Ang^3
#
#
#
# Elastic Constant Matrix: (Units=GPa)
#
#
# Indices 1 2 3 4 5 6 
#
# 1 103.9957 38.7361 45.8246 0.0000 0.0000 0.0000
# 2 38.7361 93.0879 62.1633 0.0000 0.0000 0.0000
# 3 45.8246 62.1633 133.2536 0.0000 0.0000 0.0000
# 4 0.0000 0.0000 0.0000 29.4322 0.0000 0.0000
# 5 0.0000 0.0000 0.0000 0.0000 85.1258 0.0000
# 6 0.0000 0.0000 0.0000 0.0000 0.0000 -2.4999
#
#
#
# Elastic Compliance Matrix: (Units=1/GPa)
#
#
# Indices 1 2 3 4 5 6 
#
# 1 0.011971 -0.003242 -0.002604 0.000000 0.000000 0.000000
# 2 -0.003242 0.016482 -0.006574 0.000000 0.000000 0.000000
# 3 -0.002604 -0.006574 0.011467 0.000000 0.000000 0.000000
# 4 0.000000 0.000000 0.000000 0.033976 0.000000 0.000000
# 5 0.000000 0.000000 0.000000 0.000000 0.011747 0.000000
# 6 0.000000 0.000000 0.000000 0.000000 0.000000 -0.400015
#
#
# Mechanical properties :
#
#
# Convention : Reuss Voigt Hill
#
# Bulk Modulus (GPa) = 66.31810 69.30947 67.81379
# Shear Modulus (GPa) = -17.57438 34.65249 8.53905
#
# Velocity S-wave (km/s) = -2.90758 4.08281 2.02673
# Velocity P-wave (km/s) = 4.54200 7.45429 6.17237
#
# Compressibility (1/GPa) = 0.01507884
#
# Stress axis : x y z
#
# Youngs Moduli (GPa) = 83.53529 60.67354 87.20928
#
# Poissons Ratio (x) = 0.19673 0.22710
# Poissons Ratio (y) = 0.27086 0.57329
# Poissons Ratio (z) = 0.21753 0.39885
#
# Static dielectric constant tensor:
#      x y z
#    x 1.734640 0.000000 0.000000 
#    y 0.000000 1.941370 0.000000 
#    z 0.000000 0.000000 1.840890 
# 
# From -- ./inp_files/2203.got.cif
#   From: 2010.05.17/outbox.ucp.g08.bks.cvg/sg48_2_cif.got.tgz:2203.got - 2010.06.11 16:38:40.
