data_PCOD9391048
_publ_section_title
;
Structure prediction by ZEFSAII (Michael W. Deem and Ramdas Pophale) SiO2 
 PCOD9391048
Probable space group: P N N N
;
_chemical_formula_sum "Si O2"
_cell_formula_units_Z 38
_cell_length_a 27.620320
_cell_length_b 11.292022
_cell_length_c 6.017244
_cell_angle_alpha 90.000000
_cell_angle_beta 90.000000
_cell_angle_gamma 90.000000
_cell_volume 1876.713785
_symmetry_space_group_name_H-M "P N N N"
_symmetry_group_IT_number 48
_space_group.IT_coordinate_system_code '2'
_symmetry_cell_setting 'orthorhombic'
loop_
_space_group_symop_operation_xyz
x,y,z
1/2-x,1/2-y,z
x,1/2-y,1/2-z
1/2-x,y,1/2-z
-x,-y,-z
1/2+x,1/2+y,-z
-x,1/2+y,1/2+z
1/2+x,-y,1/2+z
loop_
_atom_site_type_symbol
_atom_site_label
_atom_site_fract_x
_atom_site_fract_y
_atom_site_fract_z
Si Si1 0.750000 0.750000 0.250000
Si Si2 0.407405 0.250000 0.750000
Si Si3 0.858638 0.389787 0.214642
Si Si4 0.123948 0.433151 0.404998
Si Si5 0.444399 0.032490 0.024539
Si Si6 0.207945 0.449244 0.070637
O O1 0.777346 0.841488 0.411947
O O2 0.377129 0.172287 0.579278
O O3 0.436879 0.155016 0.892579
O O4 0.857618 0.250000 0.250000
O O5 0.861018 0.452236 0.454791
O O6 0.906837 0.437497 0.084914
O O7 0.812614 0.442560 0.079142
O O8 0.162322 0.409309 0.215174
O O9 0.073110 0.450399 0.278524
O O10 0.500000 0.000000 0.000000
O O11 0.250000 0.477785 0.250000
#
# Coordination Sequence:
#
# PCOD9391048 Si02
#       6
#     2   4   8   8   8   8
#     4  12  26  42  66  98 124 156 210 266 322 382
#     4  10  22  39  64  93 126 160 205 256 309 374
#     4  10  24  44  64  91 129 172 216 262 319 387
#     4  10  23  42  63  91 125 164 204 257 317 372
#     4  10  23  39  63  96 128 167 211 261 318 378
#     4  11  25  42  64  93 125 162 207 263 320 377
#
# _framework density 20.248161
#
# number of rings (size 3 to 8) (size 9 to 14) (size 15 to 20)
#    0.000    1.684    0.000    2.211    0.000   30.316 
#    0.000    7.895    0.000    0.000    0.000    0.000 
#    0.000    0.000    0.000    0.000    0.000    0.000 
#
# Total GULP energy -212407.678130 kJ/mol
# GULP energy per Si atom -5589.675740 kJ/mol
# Density = 2.020208 g / cm^3
# Si number density = 20.248161 Si / 1000 Ang^3
#
#
#
# Elastic Constant Matrix: (Units=GPa)
#
#
# Indices 1 2 3 4 5 6 
#
# 1 115.6110 63.4474 53.0348 0.0000 0.0000 0.0000
# 2 63.4474 209.5472 82.4586 0.0000 0.0000 0.0000
# 3 53.0348 82.4586 143.6078 0.0000 0.0000 0.0000
# 4 0.0000 0.0000 0.0000 17.2661 0.0000 0.0000
# 5 0.0000 0.0000 0.0000 0.0000 23.0680 0.0000
# 6 0.0000 0.0000 0.0000 0.0000 0.0000 19.2351
#
#
#
# Elastic Compliance Matrix: (Units=1/GPa)
#
#
# Indices 1 2 3 4 5 6 
#
# 1 0.011197 -0.002278 -0.002827 0.000000 0.000000 0.000000
# 2 -0.002278 0.006629 -0.002965 0.000000 0.000000 0.000000
# 3 -0.002827 -0.002965 0.009710 0.000000 0.000000 0.000000
# 4 0.000000 0.000000 0.000000 0.057917 0.000000 0.000000
# 5 0.000000 0.000000 0.000000 0.000000 0.043350 0.000000
# 6 0.000000 0.000000 0.000000 0.000000 0.000000 0.051988
#
#
# Mechanical properties :
#
#
# Convention : Reuss Voigt Hill
#
# Bulk Modulus (GPa) = 87.75274 96.29417 92.02345
# Shear Modulus (GPa) = 24.90928 29.90218 27.40573
#
# Velocity S-wave (km/s) = 3.51122 3.84707 3.68298
# Velocity P-wave (km/s) = 7.73763 8.20935 7.97698
#
# Compressibility (1/GPa) = 0.01139566
#
# Stress axis : x y z
#
# Youngs Moduli (GPa) = 89.31309 150.86261 102.98750
#
# Poissons Ratio (x) = 0.34361 0.29116
# Poissons Ratio (y) = 0.20342 0.30535
# Poissons Ratio (z) = 0.25250 0.44730
#
# Static dielectric constant tensor:
#      x y z
#    x 1.759850 0.000000 0.000000 
#    y 0.000000 1.696300 0.000000 
#    z 0.000000 0.000000 1.770170 
# 
# From -- ./inp_files/2594.got.cif
#   From: 2010.05.17/outbox.cif.g08.bks.cpg/sg48_2_cif.got.tgz:2594.got - 2010.06.03 20:39:00.
