data_PCOD9391383
_publ_section_title
;
Structure prediction by ZEFSAII (Michael W. Deem and Ramdas Pophale) SiO2 
 PCOD9391383
Probable space group: P N N N
;
_chemical_formula_sum "Si O2"
_cell_formula_units_Z 48
_cell_length_a 9.099470
_cell_length_b 7.911979
_cell_length_c 28.061609
_cell_angle_alpha 90.000000
_cell_angle_beta 90.000000
_cell_angle_gamma 90.000000
_cell_volume 2020.290364
_symmetry_space_group_name_H-M "P N N N"
_symmetry_group_IT_number 48
_space_group.IT_coordinate_system_code '2'
_symmetry_cell_setting 'orthorhombic'
loop_
_space_group_symop_operation_xyz
x,y,z
1/2-x,1/2-y,z
x,1/2-y,1/2-z
1/2-x,y,1/2-z
-x,-y,-z
1/2+x,1/2+y,-z
-x,1/2+y,1/2+z
1/2+x,-y,1/2+z
loop_
_atom_site_type_symbol
_atom_site_label
_atom_site_fract_x
_atom_site_fract_y
_atom_site_fract_z
Si Si1 0.379796 0.889712 0.700988
Si Si2 0.578775 0.264935 0.543843
Si Si3 0.078481 0.622164 0.939616
Si Si4 0.095852 0.172076 0.348872
Si Si5 0.659233 0.924362 0.398556
Si Si6 0.910395 0.058105 0.731733
O O1 0.250000 0.750000 0.701883
O O2 0.529908 0.786559 0.692539
O O3 0.357761 0.009147 0.655217
O O4 0.432110 0.993455 0.747256
O O5 0.750000 0.250000 0.554552
O O6 0.519646 0.451957 0.555859
O O7 0.558662 0.265991 0.486546
O O8 0.487776 0.126302 0.573092
O O9 0.242024 0.555010 0.929072
O O10 0.016384 0.699847 0.891629
O O11 0.250000 0.250000 0.363347
O O12 0.094363 0.986323 0.324873
O O13 0.750000 0.750000 0.396578
O O14 0.908373 0.250000 0.750000
O O15 0.750000 0.989921 0.750000
#
# Coordination Sequence:
#
# PCOD9391383 Si02
#       6
#     8   8   8   8   8   8
#     4  12  26  47  76 108 144 195 242 300 378 436
#     4  10  24  42  73 102 142 189 249 296 363 434
#     4  10  24  46  67 104 144 192 237 301 365 438
#     4  12  26  46  74 106 150 189 246 300 370 440
#     4  10  24  47  70 102 151 188 241 308 365 441
#     4  11  27  49  76 110 150 193 245 307 371 450
#
# _framework density 23.758962
#
# number of rings (size 3 to 8) (size 9 to 14) (size 15 to 20)
#    0.000    1.167    3.333    0.500    9.333    5.333 
#    0.000    0.833    0.000    0.000    0.000    0.000 
#    0.000    0.000    0.000    0.000    0.000    0.000 
#
# Total GULP energy -268193.369673 kJ/mol
# GULP energy per Si atom -5587.361868 kJ/mol
# Density = 2.370489 g / cm^3
# Si number density = 23.758962 Si / 1000 Ang^3
#
#
#
# Elastic Constant Matrix: (Units=GPa)
#
#
# Indices 1 2 3 4 5 6 
#
# 1 178.8008 45.9571 52.3424 0.0000 0.0000 0.0000
# 2 45.9571 75.4901 39.1267 0.0000 0.0000 0.0000
# 3 52.3424 39.1267 134.0190 0.0000 0.0000 0.0000
# 4 0.0000 0.0000 0.0000 40.3239 0.0000 0.0000
# 5 0.0000 0.0000 0.0000 0.0000 138.1251 0.0000
# 6 0.0000 0.0000 0.0000 0.0000 0.0000 41.3787
#
#
#
# Elastic Compliance Matrix: (Units=1/GPa)
#
#
# Indices 1 2 3 4 5 6 
#
# 1 0.006960 -0.003333 -0.001745 0.000000 0.000000 0.000000
# 2 -0.003333 0.017204 -0.003721 0.000000 0.000000 0.000000
# 3 -0.001745 -0.003721 0.009230 0.000000 0.000000 0.000000
# 4 0.000000 0.000000 0.000000 0.024799 0.000000 0.000000
# 5 0.000000 0.000000 0.000000 0.000000 0.007240 0.000000
# 6 0.000000 0.000000 0.000000 0.000000 0.000000 0.024167
#
#
# Mechanical properties :
#
#
# Convention : Reuss Voigt Hill
#
# Bulk Modulus (GPa) = 63.30799 73.68471 68.49635
# Shear Modulus (GPa) = 44.45850 60.69112 52.57481
#
# Velocity S-wave (km/s) = 4.33047 5.05964 4.70919
# Velocity P-wave (km/s) = 7.19081 8.07552 7.64597
#
# Compressibility (1/GPa) = 0.01579579
#
# Stress axis : x y z
#
# Youngs Moduli (GPa) = 143.67014 58.12487 108.34549
#
# Poissons Ratio (x) = 0.19371 0.18911
# Poissons Ratio (y) = 0.47881 0.40317
# Poissons Ratio (z) = 0.25077 0.21629
#
# Static dielectric constant tensor:
#      x y z
#    x 1.912900 0.000000 0.000000 
#    y 0.000000 1.965150 0.000000 
#    z 0.000000 0.000000 1.936900 
# 
# From -- ./inp_files/9486.got.cif
#   From: 2010.05.17/outbox.cif.g08.bks.cpg/sg48_5_cif.got.tgz:9486.got - 2010.06.03 20:39:00.
