data_PCOD9391242
_publ_section_title
;
Structure prediction by ZEFSAII (Michael W. Deem and Ramdas Pophale) SiO2 
 PCOD9391242
Probable space group: P N N N
;
_chemical_formula_sum "Si O2"
_cell_formula_units_Z 58
_cell_length_a 24.245394
_cell_length_b 18.233851
_cell_length_c 5.500319
_cell_angle_alpha 90.000000
_cell_angle_beta 90.000000
_cell_angle_gamma 90.000000
_cell_volume 2431.618985
_symmetry_space_group_name_H-M "P N N N"
_symmetry_group_IT_number 48
_space_group.IT_coordinate_system_code '2'
_symmetry_cell_setting 'orthorhombic'
loop_
_space_group_symop_operation_xyz
x,y,z
1/2-x,1/2-y,z
x,1/2-y,1/2-z
1/2-x,y,1/2-z
-x,-y,-z
1/2+x,1/2+y,-z
-x,1/2+y,1/2+z
1/2+x,-y,1/2+z
loop_
_atom_site_type_symbol
_atom_site_label
_atom_site_fract_x
_atom_site_fract_y
_atom_site_fract_z
Si Si1 0.144326 0.974704 0.932032
Si Si2 0.250000 0.750000 0.750000
Si Si3 0.132359 0.170228 0.347338
Si Si4 0.937403 0.418380 0.096623
Si Si5 0.844877 0.182263 0.935693
Si Si6 0.950883 0.952225 0.781017
Si Si7 0.809392 0.873669 0.152569
Si Si8 0.961884 0.256582 0.999228
O O1 0.156376 0.906041 0.111973
O O2 0.090349 0.023273 0.006031
O O3 0.123034 0.932728 0.696123
O O4 0.187348 0.037304 0.865019
O O5 0.206711 0.697128 0.612333
O O6 0.117184 0.250000 0.250000
O O7 0.081045 0.115354 0.336233
O O8 0.153290 0.159458 0.625908
O O9 0.175228 0.148191 0.126199
O O10 0.939558 0.338678 0.985037
O O11 0.985853 0.426818 0.301881
O O12 0.950553 0.478107 0.894643
O O13 0.835566 0.250000 0.750000
O O14 0.908184 0.202990 0.016935
O O15 0.750000 0.850956 0.250000
O O16 0.993026 0.250000 0.250000
O O17 0.994603 0.250000 0.750000
#
# Coordination Sequence:
#
# PCOD9391242 Si02
#       8
#     8   2   8   8   8   8   8   8
#     4  11  22  43  68  94 138 177 229 290 340 406
#     4  12  22  40  56  98 128 180 232 280 342 408
#     4  11  24  46  70 101 145 176 222 294 355 415
#     4  11  21  40  67  93 136 183 229 277 339 407
#     4  11  23  40  62  91 137 178 231 282 344 401
#     4  10  23  40  65  99 133 180 227 279 342 415
#     4  11  25  45  72 107 131 179 236 282 350 429
#     4  11  22  40  62  92 127 177 224 273 326 395
#
# _framework density 23.852419999999999
#
# number of rings (size 3 to 8) (size 9 to 14) (size 15 to 20)
#    0.000    1.103    3.448    3.103    0.966    2.207 
#    0.000    4.138    0.000    0.000    0.000    0.000 
#    0.000    0.000    0.000    0.000    0.000    0.000 
#
# Total GULP energy -323098.300373 kJ/mol
# GULP energy per Si atom -5570.660351 kJ/mol
# Density = 2.379813 g / cm^3
# Si number density = 23.852420 Si / 1000 Ang^3
#
#
#
# Elastic Constant Matrix: (Units=GPa)
#
#
# Indices 1 2 3 4 5 6 
#
# 1 78.2693 -15.4808 3.5200 0.0000 0.0000 0.0000
# 2 -15.4808 85.2213 -0.2980 0.0000 0.0000 0.0000
# 3 3.5200 -0.2980 106.3286 0.0000 0.0000 0.0000
# 4 0.0000 0.0000 0.0000 25.5316 0.0000 0.0000
# 5 0.0000 0.0000 0.0000 0.0000 11.7744 0.0000
# 6 0.0000 0.0000 0.0000 0.0000 0.0000 -24.1191
#
#
#
# Elastic Compliance Matrix: (Units=1/GPa)
#
#
# Indices 1 2 3 4 5 6 
#
# 1 0.013272 0.002409 -0.000433 0.000000 0.000000 0.000000
# 2 0.002409 0.012172 -0.000046 0.000000 0.000000 0.000000
# 3 -0.000433 -0.000046 0.009419 0.000000 0.000000 0.000000
# 4 0.000000 0.000000 0.000000 0.039167 0.000000 0.000000
# 5 0.000000 0.000000 0.000000 0.000000 0.084930 0.000000
# 6 0.000000 0.000000 0.000000 0.000000 0.000000 -0.041461
#
#
# Mechanical properties :
#
#
# Convention : Reuss Voigt Hill
#
# Bulk Modulus (GPa) = 25.82279 27.25575 26.53927
# Shear Modulus (GPa) = 39.51145 21.44257 30.47701
#
# Velocity S-wave (km/s) = 4.07442 3.00153 3.57842
# Velocity P-wave (km/s) = 5.74318 4.84396 5.31263
#
# Compressibility (1/GPa) = 0.03872548
#
# Stress axis : x y z
#
# Youngs Moduli (GPa) = 75.34423 82.15793 106.16840
#
# Poissons Ratio (x) = -0.19796 0.04593
# Poissons Ratio (y) = -0.18154 0.00485
# Poissons Ratio (z) = 0.03260 0.00375
#
# Static dielectric constant tensor:
#      x y z
#    x 1.908930 0.000000 0.000000 
#    y 0.000000 1.988430 0.000000 
#    z 0.000000 0.000000 2.066230 
# 
# From -- ./inp_files/6608.got.cif
#   From: 2010.05.17/outbox.cif.g08.bks.cpg/sg48_4_cif.got.tgz:6608.got - 2010.06.03 20:39:00.
