data_PCOD9391251
_publ_section_title
;
Structure prediction by ZEFSAII (Michael W. Deem and Ramdas Pophale) SiO2 
 PCOD9391251
Probable space group: P N N N
;
_chemical_formula_sum "Si O2"
_cell_formula_units_Z 48
_cell_length_a 12.302858
_cell_length_b 18.857616
_cell_length_c 8.223265
_cell_angle_alpha 90.000000
_cell_angle_beta 90.000000
_cell_angle_gamma 90.000000
_cell_volume 1907.818629
_symmetry_space_group_name_H-M "P N N N"
_symmetry_group_IT_number 48
_space_group.IT_coordinate_system_code '2'
_symmetry_cell_setting 'orthorhombic'
loop_
_space_group_symop_operation_xyz
x,y,z
1/2-x,1/2-y,z
x,1/2-y,1/2-z
1/2-x,y,1/2-z
-x,-y,-z
1/2+x,1/2+y,-z
-x,1/2+y,1/2+z
1/2+x,-y,1/2+z
loop_
_atom_site_type_symbol
_atom_site_label
_atom_site_fract_x
_atom_site_fract_y
_atom_site_fract_z
Si Si1 0.051350 0.943984 0.875236
Si Si2 0.927180 0.827218 0.239164
Si Si3 0.888707 0.968271 0.422520
Si Si4 0.132422 0.788395 0.448421
Si Si5 0.545455 0.806957 0.627967
Si Si6 0.246455 0.579670 0.059716
O O1 0.980682 0.882641 0.789305
O O2 0.115653 0.990227 0.746809
O O3 0.138108 0.904399 0.985359
O O4 0.000000 0.000000 0.000000
O O5 0.874570 0.750000 0.250000
O O6 0.053004 0.814147 0.299358
O O7 0.887371 0.886974 0.364368
O O8 0.913241 0.839027 0.046385
O O9 0.792703 0.999449 0.531668
O O10 0.000000 0.000000 0.500000
O O11 0.250000 0.750000 0.419796
O O12 0.056231 0.741562 0.564776
O O13 0.165592 0.864267 0.522095
O O14 0.602583 0.750000 0.750000
O O15 0.250000 0.593423 0.250000
#
# Coordination Sequence:
#
# PCOD9391251 Si02
#       6
#     8   8   8   8   8   8
#     4  12  24  43  64  96 141 179 231 291 352 422
#     4  10  23  41  63  97 129 180 228 277 348 428
#     4  12  24  43  68  96 137 188 235 285 354 430
#     4  11  22  38  65  95 143 177 213 273 359 440
#     4  11  23  37  59  95 132 176 219 278 349 422
#     4  12  25  42  67 102 140 188 233 291 353 430
#
# _framework density 25.159625999999999
#
# number of rings (size 3 to 8) (size 9 to 14) (size 15 to 20)
#    0.000    0.667    5.000    3.500    7.000    0.333 
#    0.000    0.000    0.000    2.000    0.000    1.167 
#    0.000    0.000    0.000    0.000    0.000    0.000 
#
# Total GULP energy -267584.790623 kJ/mol
# GULP energy per Si atom -5574.683138 kJ/mol
# Density = 2.510236 g / cm^3
# Si number density = 25.159626 Si / 1000 Ang^3
#
#
#
# Elastic Constant Matrix: (Units=GPa)
#
#
# Indices 1 2 3 4 5 6 
#
# 1 32.8323 7.6950 5.8787 0.0000 0.0000 0.0000
# 2 7.6950 184.7021 13.0032 0.0000 0.0000 0.0000
# 3 5.8787 13.0032 63.1639 0.0000 0.0000 0.0000
# 4 0.0000 0.0000 0.0000 51.3863 0.0000 0.0000
# 5 0.0000 0.0000 0.0000 0.0000 15.2714 0.0000
# 6 0.0000 0.0000 0.0000 0.0000 0.0000 30.3926
#
#
#
# Elastic Compliance Matrix: (Units=1/GPa)
#
#
# Indices 1 2 3 4 5 6 
#
# 1 0.031197 -0.001111 -0.002675 0.000000 0.000000 0.000000
# 2 -0.001111 0.005533 -0.001036 0.000000 0.000000 0.000000
# 3 -0.002675 -0.001036 0.016294 0.000000 0.000000 0.000000
# 4 0.000000 0.000000 0.000000 0.019460 0.000000 0.000000
# 5 0.000000 0.000000 0.000000 0.000000 0.065482 0.000000
# 6 0.000000 0.000000 0.000000 0.000000 0.000000 0.032903
#
#
# Mechanical properties :
#
#
# Convention : Reuss Voigt Hill
#
# Bulk Modulus (GPa) = 23.05165 37.09468 30.07317
# Shear Modulus (GPa) = 25.64450 36.35148 30.99799
#
# Velocity S-wave (km/s) = 3.19607 3.80522 3.51387
# Velocity P-wave (km/s) = 4.77513 5.83798 5.33310
#
# Compressibility (1/GPa) = 0.04338084
#
# Stress axis : x y z
#
# Youngs Moduli (GPa) = 32.05416 180.72268 61.37243
#
# Poissons Ratio (x) = 0.20086 0.16415
# Poissons Ratio (y) = 0.03563 0.06356
# Poissons Ratio (z) = 0.08574 0.18717
#
# Static dielectric constant tensor:
#      x y z
#    x 2.034650 0.000000 0.000000 
#    y 0.000000 2.186030 0.000000 
#    z 0.000000 0.000000 2.131960 
# 
# From -- ./inp_files/12813.got.cif
#   From: 2010.05.17/outbox.cif.g08.bks.cpg/sg48_7_cif.got.tgz:12813.got - 2010.06.03 20:39:00.
