data_PCOD9391944
_publ_section_title
;
Structure prediction by ZEFSAII (Michael W. Deem and Ramdas Pophale) SiO2 
 PCOD9391944
Probable space group: P N N N
;
_chemical_formula_sum "Si O2"
_cell_formula_units_Z 64
_cell_length_a 21.000000
_cell_length_b 18.000000
_cell_length_c 9.000000
_cell_angle_alpha 90.000000
_cell_angle_beta 90.000000
_cell_angle_gamma 90.000000
_cell_volume 3402.000000
_symmetry_space_group_name_H-M "P N N N"
_symmetry_group_IT_number 48
_space_group.IT_coordinate_system_code '2'
_symmetry_cell_setting 'orthorhombic'
loop_
_space_group_symop_operation_xyz
x,y,z
1/2-x,1/2-y,z
x,1/2-y,1/2-z
1/2-x,y,1/2-z
-x,-y,-z
1/2+x,1/2+y,-z
-x,1/2+y,1/2+z
1/2+x,-y,1/2+z
loop_
_atom_site_type_symbol
_atom_site_label
_atom_site_fract_x
_atom_site_fract_y
_atom_site_fract_z
Si Si1 0.092793 0.394682 0.304993
Si Si2 0.287904 0.136682 0.110899
Si Si3 0.506126 0.819982 0.139777
Si Si4 0.030945 0.945955 0.165463
Si Si5 0.587225 0.453437 0.137343
Si Si6 0.820031 0.570830 0.432931
Si Si7 0.848413 0.673748 0.167146
Si Si8 0.964832 0.324960 0.192373
O O1 0.145853 0.389188 0.179269
O O2 0.068185 0.478783 0.303092
O O3 0.128339 0.385520 0.462537
O O4 0.032946 0.341882 0.273621
O O5 0.250000 0.167797 0.250000
O O6 0.243618 0.075205 0.031203
O O7 0.306441 0.188761 0.976934
O O8 0.504158 0.750000 0.250000
O O9 0.464788 0.884626 0.212080
O O10 0.579308 0.846454 0.127048
O O11 0.480753 0.808774 0.976633
O O12 0.056024 0.915926 0.008456
O O13 0.958347 0.974584 0.156667
O O14 0.654989 0.487977 0.098288
O O15 0.577571 0.397186 0.271773
O O16 0.819365 0.612655 0.276633
O O17 0.851802 0.750000 0.250000
O O18 0.933864 0.250000 0.250000
#
# Coordination Sequence:
#
# PCOD9391944 Si02
#       8
#     8   8   8   8   8   8   8   8
#     4   9  20  34  54  78 104 141 178 217 276 321
#     4  10  21  39  53  74 103 141 187 232 268 318
#     4  11  22  33  52  76 107 145 178 221 273 328
#     4   9  17  33  53  75 105 136 171 220 265 328
#     4   9  18  33  53  78 102 141 177 215 276 317
#     4  10  20  35  56  71 107 142 183 228 266 319
#     4  11  23  36  51  75 105 142 186 228 266 318
#     4  11  22  33  52  76 111 141 181 223 274 335
#
# _framework density 18.812463000000001
#
# number of rings (size 3 to 8) (size 9 to 14) (size 15 to 20)
#    0.000    2.000    2.500    1.875    3.500    4.000 
#    0.000    5.000    0.000    0.000    0.000    0.000 
#    0.000   40.500    0.000    0.250    0.000    0.000 
#
# Total GULP energy -356453.190081 kJ/mol
# GULP energy per Si atom -5569.581095 kJ/mol
# Density = 1.876965 g / cm^3
# Si number density = 18.812463 Si / 1000 Ang^3
#
#
#
# Elastic Constant Matrix: (Units=GPa)
#
#
# Indices 1 2 3 4 5 6 
#
# 1 27.3818 22.4519 14.2656 0.0000 0.0000 0.0000
# 2 22.4519 36.3573 32.4629 0.0000 0.0000 0.0000
# 3 14.2656 32.4629 113.8496 0.0000 0.0000 0.0000
# 4 0.0000 0.0000 0.0000 16.8021 0.0000 0.0000
# 5 0.0000 0.0000 0.0000 0.0000 41.3661 0.0000
# 6 0.0000 0.0000 0.0000 0.0000 0.0000 -97.0650
#
#
#
# Elastic Compliance Matrix: (Units=1/GPa)
#
#
# Indices 1 2 3 4 5 6 
#
# 1 0.076201 -0.051692 0.005191 0.000000 0.000000 0.000000
# 2 -0.051692 0.071965 -0.014043 0.000000 0.000000 0.000000
# 3 0.005191 -0.014043 0.012137 0.000000 0.000000 0.000000
# 4 0.000000 0.000000 0.000000 0.059516 0.000000 0.000000
# 5 0.000000 0.000000 0.000000 0.000000 0.024174 0.000000
# 6 0.000000 0.000000 0.000000 0.000000 0.000000 -0.010302
#
#
# Mechanical properties :
#
#
# Convention : Reuss Voigt Hill
#
# Bulk Modulus (GPa) = 25.49969 35.10549 30.30259
# Shear Modulus (GPa) = 13.59243 -0.55214 6.52014
#
# Velocity S-wave (km/s) = 2.69089 -0.54234 1.86370
# Velocity P-wave (km/s) = 4.82065 4.27891 4.55784
#
# Compressibility (1/GPa) = 0.03921616
#
# Stress axis : x y z
#
# Youngs Moduli (GPa) = 13.12311 13.89561 82.39108
#
# Poissons Ratio (x) = 0.71829 -0.42771
# Poissons Ratio (y) = 0.67836 1.15701
# Poissons Ratio (z) = -0.06813 0.19514
#
# Static dielectric constant tensor:
#      x y z
#    x 1.719220 0.000000 0.000000 
#    y 0.000000 1.639240 0.000000 
#    z 0.000000 0.000000 4.577020 
# 
# From -- ./inp_files/14558.got.cif
#   From: 2010.05.17/outbox.ucp.g08.bks.cvg/sg48_8_cif.got.tgz:14558.got - 2010.06.11 16:38:40.
