data_PCOD9391765
_publ_section_title
;
Structure prediction by ZEFSAII (Michael W. Deem and Ramdas Pophale) SiO2 
 PCOD9391765
Probable space group: P N N N
;
_chemical_formula_sum "Si O2"
_cell_formula_units_Z 40
_cell_length_a 7.384382
_cell_length_b 15.087827
_cell_length_c 15.102016
_cell_angle_alpha 90.000000
_cell_angle_beta 90.000000
_cell_angle_gamma 90.000000
_cell_volume 1682.580211
_symmetry_space_group_name_H-M "P N N N"
_symmetry_group_IT_number 48
_space_group.IT_coordinate_system_code '2'
_symmetry_cell_setting 'orthorhombic'
loop_
_space_group_symop_operation_xyz
x,y,z
1/2-x,1/2-y,z
x,1/2-y,1/2-z
1/2-x,y,1/2-z
-x,-y,-z
1/2+x,1/2+y,-z
-x,1/2+y,1/2+z
1/2+x,-y,1/2+z
loop_
_atom_site_type_symbol
_atom_site_label
_atom_site_fract_x
_atom_site_fract_y
_atom_site_fract_z
Si Si1 0.250000 0.588702 0.250000
Si Si2 0.536201 0.742690 0.650897
Si Si3 0.527982 0.357233 0.989490
Si Si4 0.750000 0.250000 0.621454
Si Si5 0.637599 0.553898 0.174926
Si Si6 0.122205 0.564541 0.938602
O O1 0.293884 0.661490 0.324998
O O2 0.432449 0.539532 0.214656
O O3 0.750000 0.750000 0.658746
O O4 0.458502 0.750000 0.750000
O O5 0.500444 0.828053 0.589479
O O6 0.475125 0.652979 0.600014
O O7 0.608637 0.596926 0.077581
O O8 0.710830 0.412853 0.996848
O O9 0.577589 0.267946 0.938306
O O10 0.750000 0.607383 0.250000
O O11 0.718847 0.478162 0.351863
O O12 0.000000 0.500000 0.000000
#
# Coordination Sequence:
#
# PCOD9391765 Si02
#       6
#     4   8   8   4   8   8
#     4   9  22  44  70 108 149 196 258 314 397 460
#     4  11  26  49  77 112 153 212 274 326 391 487
#     4  11  23  48  76 103 150 207 263 321 391 472
#     4   9  18  40  73  96 140 192 253 324 368 471
#     4  11  27  45  75 117 155 204 253 336 405 480
#     4  12  27  48  76 113 158 209 267 330 412 475
#
# _framework density 23.773012000000001
#
# number of rings (size 3 to 8) (size 9 to 14) (size 15 to 20)
#    0.000    1.200    2.000    1.800    8.400    2.400 
#    3.600   11.000    0.000    0.000    0.000    0.000 
#    0.000    0.000    0.000    0.000    0.000    0.000 
#
# Total GULP energy -222720.937306 kJ/mol
# GULP energy per Si atom -5568.023433 kJ/mol
# Density = 2.371890 g / cm^3
# Si number density = 23.773012 Si / 1000 Ang^3
#
#
#
# Elastic Constant Matrix: (Units=GPa)
#
#
# Indices 1 2 3 4 5 6 
#
# 1 122.9836 57.5384 56.5549 0.0000 0.0000 0.0000
# 2 57.5384 77.0494 53.1743 0.0000 0.0000 0.0000
# 3 56.5549 53.1743 168.4388 0.0000 0.0000 0.0000
# 4 0.0000 0.0000 0.0000 23.6266 0.0000 0.0000
# 5 0.0000 0.0000 0.0000 0.0000 49.9863 0.0000
# 6 0.0000 0.0000 0.0000 0.0000 0.0000 37.0274
#
#
#
# Elastic Compliance Matrix: (Units=1/GPa)
#
#
# Indices 1 2 3 4 5 6 
#
# 1 0.012843 -0.008458 -0.001642 0.000000 0.000000 0.000000
# 2 -0.008458 0.022164 -0.004157 0.000000 0.000000 0.000000
# 3 -0.001642 -0.004157 0.007801 0.000000 0.000000 0.000000
# 4 0.000000 0.000000 0.000000 0.042325 0.000000 0.000000
# 5 0.000000 0.000000 0.000000 0.000000 0.020005 0.000000
# 6 0.000000 0.000000 0.000000 0.000000 0.000000 0.027007
#
#
# Mechanical properties :
#
#
# Convention : Reuss Voigt Hill
#
# Bulk Modulus (GPa) = 69.96172 78.11186 74.03679
# Shear Modulus (GPa) = 30.22542 35.54167 32.88354
#
# Velocity S-wave (km/s) = 3.56956 3.87077 3.72321
# Velocity P-wave (km/s) = 6.81777 7.27364 7.04939
#
# Compressibility (1/GPa) = 0.01429353
#
# Stress axis : x y z
#
# Youngs Moduli (GPa) = 77.86143 45.11910 128.19488
#
# Poissons Ratio (x) = 0.38160 0.21053
# Poissons Ratio (y) = 0.65853 0.53291
# Poissons Ratio (z) = 0.12787 0.18756
#
# Static dielectric constant tensor:
#      x y z
#    x 2.111070 0.000000 0.000000 
#    y 0.000000 2.050890 0.000000 
#    z 0.000000 0.000000 2.351300 
# 
# From -- ./inp_files/25124.got.cif
#   From: 2010.05.17/outbox.cif.g08.bks.cpg/sg48_13_cif.got.tgz:25124.got - 2010.06.03 20:39:00.
