data_PCOD9391039
_publ_section_title
;
Structure prediction by ZEFSAII (Michael W. Deem and Ramdas Pophale) SiO2 
 PCOD9391039
Probable space group: P N N N
;
_chemical_formula_sum "Si O2"
_cell_formula_units_Z 48
_cell_length_a 13.712736
_cell_length_b 16.011723
_cell_length_c 11.754320
_cell_angle_alpha 90.000000
_cell_angle_beta 90.000000
_cell_angle_gamma 90.000000
_cell_volume 2580.831751
_symmetry_space_group_name_H-M "P N N N"
_symmetry_group_IT_number 48
_space_group.IT_coordinate_system_code '2'
_symmetry_cell_setting 'orthorhombic'
loop_
_space_group_symop_operation_xyz
x,y,z
1/2-x,1/2-y,z
x,1/2-y,1/2-z
1/2-x,y,1/2-z
-x,-y,-z
1/2+x,1/2+y,-z
-x,1/2+y,1/2+z
1/2+x,-y,1/2+z
loop_
_atom_site_type_symbol
_atom_site_label
_atom_site_fract_x
_atom_site_fract_y
_atom_site_fract_z
Si Si1 0.434970 0.622537 0.217182
Si Si2 0.004598 0.811547 0.638608
Si Si3 0.154573 0.344038 0.700806
Si Si4 0.367374 0.064453 0.268804
Si Si5 0.864532 0.270853 0.934385
Si Si6 0.843025 0.798231 0.946498
O O1 0.551663 0.614236 0.224480
O O2 0.389813 0.531386 0.207371
O O3 0.413771 0.684097 0.110386
O O4 0.391656 0.665923 0.331118
O O5 0.016450 0.750000 0.750000
O O6 0.098678 0.808455 0.555603
O O7 0.946638 0.895233 0.679932
O O8 0.926862 0.769671 0.553694
O O9 0.145666 0.250000 0.750000
O O10 0.250000 0.387647 0.750000
O O11 0.178774 0.331206 0.569831
O O12 0.250000 0.071840 0.250000
O O13 0.380861 0.124542 0.375474
O O14 0.750000 0.250000 0.938074
O O15 0.750000 0.750000 0.895199
#
# Coordination Sequence:
#
# PCOD9391039 Si02
#       6
#     8   8   8   8   8   8
#     4  11  22  40  61  94 120 161 211 254 311 372
#     4  10  22  39  61  91 117 164 209 255 305 370
#     4  11  20  35  64  92 119 159 204 255 315 367
#     4  11  23  36  62  93 124 158 209 260 308 366
#     4  11  22  41  64  83 125 166 208 252 302 376
#     4  11  19  36  62  89 123 153 200 256 310 362
#
# _framework density 18.598654
#
# number of rings (size 3 to 8) (size 9 to 14) (size 15 to 20)
#    0.000    1.167    6.667    2.000    0.000    1.667 
#    0.000    1.667    0.000    0.000    0.000    0.000 
#    0.000    0.000    0.000    0.000    0.000    0.000 
#
# Total GULP energy -267230.296039 kJ/mol
# GULP energy per Si atom -5567.297834 kJ/mol
# Density = 1.855632 g / cm^3
# Si number density = 18.598654 Si / 1000 Ang^3
#
#
#
# Elastic Constant Matrix: (Units=GPa)
#
#
# Indices 1 2 3 4 5 6 
#
# 1 119.5477 17.2128 23.5192 0.0000 0.0000 0.0000
# 2 17.2128 106.6660 28.0760 0.0000 0.0000 0.0000
# 3 23.5192 28.0760 83.7800 0.0000 0.0000 0.0000
# 4 0.0000 0.0000 0.0000 2.6403 0.0000 0.0000
# 5 0.0000 0.0000 0.0000 0.0000 24.0488 0.0000
# 6 0.0000 0.0000 0.0000 0.0000 0.0000 25.6697
#
#
#
# Elastic Compliance Matrix: (Units=1/GPa)
#
#
# Indices 1 2 3 4 5 6 
#
# 1 0.008925 -0.000856 -0.002218 0.000000 0.000000 0.000000
# 2 -0.000856 0.010364 -0.003233 0.000000 0.000000 0.000000
# 3 -0.002218 -0.003233 0.013642 0.000000 0.000000 0.000000
# 4 0.000000 0.000000 0.000000 0.378742 0.000000 0.000000
# 5 0.000000 0.000000 0.000000 0.000000 0.041582 0.000000
# 6 0.000000 0.000000 0.000000 0.000000 0.000000 0.038956
#
#
# Mechanical properties :
#
#
# Convention : Reuss Voigt Hill
#
# Bulk Modulus (GPa) = 49.22247 49.73441 49.47844
# Shear Modulus (GPa) = 9.77329 26.55082 18.16206
#
# Velocity S-wave (km/s) = 2.29483 3.78241 3.12833
# Velocity P-wave (km/s) = 5.79178 6.77307 6.30155
#
# Compressibility (1/GPa) = 0.02031592
#
# Stress axis : x y z
#
# Youngs Moduli (GPa) = 112.05005 96.48638 73.30216
#
# Poissons Ratio (x) = 0.08262 0.16261
# Poissons Ratio (y) = 0.09594 0.23697
# Poissons Ratio (z) = 0.24857 0.31192
#
# Static dielectric constant tensor:
#      x y z
#    x 1.746280 0.000000 0.000000 
#    y 0.000000 1.634340 0.000000 
#    z 0.000000 0.000000 1.673520 
# 
# From -- ./inp_files/20072.got.cif
#   From: 2010.05.17/outbox.cif.g08.bks.cpg/sg48_11_cif.got.tgz:20072.got - 2010.06.03 20:39:00.
