data_PCOD9391073
_publ_section_title
;
Structure prediction by ZEFSAII (Michael W. Deem and Ramdas Pophale) SiO2 
 PCOD9391073
Probable space group: P N N N
;
_chemical_formula_sum "Si O2"
_cell_formula_units_Z 18
_cell_length_a 12.820220
_cell_length_b 7.087800
_cell_length_c 7.164388
_cell_angle_alpha 90.000000
_cell_angle_beta 90.000000
_cell_angle_gamma 90.000000
_cell_volume 651.007557
_symmetry_space_group_name_H-M "P N N N"
_symmetry_group_IT_number 48
_space_group.IT_coordinate_system_code '2'
_symmetry_cell_setting 'orthorhombic'
loop_
_space_group_symop_operation_xyz
x,y,z
1/2-x,1/2-y,z
x,1/2-y,1/2-z
1/2-x,y,1/2-z
-x,-y,-z
1/2+x,1/2+y,-z
-x,1/2+y,1/2+z
1/2+x,-y,1/2+z
loop_
_atom_site_type_symbol
_atom_site_label
_atom_site_fract_x
_atom_site_fract_y
_atom_site_fract_z
Si Si1 0.587804 0.257488 0.526421
Si Si2 0.750000 0.250000 0.250000
Si Si3 0.362408 0.302438 0.533374
O O1 0.598868 0.250000 0.750000
O O2 0.671381 0.149671 0.397103
O O3 0.470273 0.209158 0.462996
O O4 0.614784 0.475573 0.483612
O O5 0.250000 0.250000 0.451831
O O6 0.359272 0.250000 0.750000
#
# Coordination Sequence:
#
# PCOD9391073 Si02
#       3
#     8   2   8
#     4  10  22  40  66 100 137 182 237 297 361 430
#     4  12  22  40  60  86 136 192 230 276 348 438
#     4   9  18  40  69  99 135 178 237 303 360 422
#
# _framework density 27.649448
#
# number of rings (size 3 to 8) (size 9 to 14) (size 15 to 20)
#    0.000    2.222    0.000    3.333    0.000    0.000 
#    0.000   45.556    0.000    2.667    0.000    0.000 
#    0.000    0.000    0.000    0.000    0.000    0.000 
#
# Total GULP energy -100726.900896 kJ/mol
# GULP energy per Si atom -5595.938939 kJ/mol
# Density = 2.758652 g / cm^3
# Si number density = 27.649448 Si / 1000 Ang^3
#
#
#
# Elastic Constant Matrix: (Units=GPa)
#
#
# Indices 1 2 3 4 5 6 
#
# 1 362.0956 22.4239 77.8856 0.0000 0.0000 0.0000
# 2 22.4239 114.5414 22.1070 0.0000 0.0000 0.0000
# 3 77.8856 22.1070 241.5442 0.0000 0.0000 0.0000
# 4 0.0000 0.0000 0.0000 31.1825 0.0000 0.0000
# 5 0.0000 0.0000 0.0000 0.0000 17.0241 0.0000
# 6 0.0000 0.0000 0.0000 0.0000 0.0000 39.1438
#
#
#
# Elastic Compliance Matrix: (Units=1/GPa)
#
#
# Indices 1 2 3 4 5 6 
#
# 1 0.002986 -0.000406 -0.000926 0.000000 0.000000 0.000000
# 2 -0.000406 0.008943 -0.000688 0.000000 0.000000 0.000000
# 3 -0.000926 -0.000688 0.004501 0.000000 0.000000 0.000000
# 4 0.000000 0.000000 0.000000 0.032069 0.000000 0.000000
# 5 0.000000 0.000000 0.000000 0.000000 0.058740 0.000000
# 6 0.000000 0.000000 0.000000 0.000000 0.000000 0.025547
#
#
# Mechanical properties :
#
#
# Convention : Reuss Voigt Hill
#
# Bulk Modulus (GPa) = 80.69903 107.00159 93.85031
# Shear Modulus (GPa) = 35.47223 57.18772 46.32998
#
# Velocity S-wave (km/s) = 3.58568 4.55281 4.09788
# Velocity P-wave (km/s) = 6.81122 8.14989 7.51044
#
# Compressibility (1/GPa) = 0.01239172
#
# Stress axis : x y z
#
# Youngs Moduli (GPa) = 334.90222 111.82387 222.15125
#
# Poissons Ratio (x) = 0.04539 0.20564
# Poissons Ratio (y) = 0.13594 0.15275
# Poissons Ratio (z) = 0.31001 0.07689
#
# Static dielectric constant tensor:
#      x y z
#    x 2.308220 0.000000 0.000000 
#    y 0.000000 2.248450 0.000000 
#    z 0.000000 0.000000 2.053000 
# 
# From -- ./inp_files/11615.got.cif
#   From: 2010.05.17/outbox.cif.g08.bks.cpg/sg48_6_cif.got.tgz:11615.got - 2010.06.03 20:39:00.
