data_PCOD9391025
_publ_section_title
;
Structure prediction by ZEFSAII (Michael W. Deem and Ramdas Pophale) SiO2 
 PCOD9391025
Probable space group: P N N N
;
_chemical_formula_sum "Si O2"
_cell_formula_units_Z 60
_cell_length_a 21.771557
_cell_length_b 10.429021
_cell_length_c 11.497397
_cell_angle_alpha 90.000000
_cell_angle_beta 90.000000
_cell_angle_gamma 90.000000
_cell_volume 2610.553262
_symmetry_space_group_name_H-M "P N N N"
_symmetry_group_IT_number 48
_space_group.IT_coordinate_system_code '2'
_symmetry_cell_setting 'orthorhombic'
loop_
_space_group_symop_operation_xyz
x,y,z
1/2-x,1/2-y,z
x,1/2-y,1/2-z
1/2-x,y,1/2-z
-x,-y,-z
1/2+x,1/2+y,-z
-x,1/2+y,1/2+z
1/2+x,-y,1/2+z
loop_
_atom_site_type_symbol
_atom_site_label
_atom_site_fract_x
_atom_site_fract_y
_atom_site_fract_z
Si Si1 0.704459 0.361703 0.027088
Si Si2 0.594611 0.615163 0.701910
Si Si3 0.477432 0.142461 0.969382
Si Si4 0.750000 0.978219 0.250000
Si Si5 0.321916 0.603495 0.224958
Si Si6 0.888981 0.561774 0.211349
Si Si7 0.484419 0.956248 0.630233
Si Si8 0.585608 0.210801 0.083309
O O1 0.750000 0.250000 0.983030
O O2 0.735812 0.441448 0.131206
O O3 0.648758 0.283914 0.081183
O O4 0.675830 0.429550 0.913378
O O5 0.619927 0.750000 0.750000
O O6 0.564463 0.663070 0.582336
O O7 0.644760 0.502835 0.696385
O O8 0.542234 0.547165 0.782701
O O9 0.431622 0.156415 0.863104
O O10 0.545392 0.204199 0.963725
O O11 0.500000 0.000000 0.000000
O O12 0.683390 0.911863 0.225922
O O13 0.343196 0.750000 0.250000
O O14 0.250000 0.598613 0.250000
O O15 0.926531 0.540563 0.329136
O O16 0.899367 0.425923 0.141164
O O17 0.459760 0.811628 0.643008
O O18 0.500000 0.000000 0.500000
#
# Coordination Sequence:
#
# PCOD9391025 Si02
#       8
#     8   8   8   4   8   8   8   8
#     4  12  23  38  63 103 137 180 226 285 366 432
#     4  12  24  45  72  97 136 191 241 285 352 433
#     4  10  22  38  66  93 130 182 234 287 345 414
#     4  12  25  36  66 100 141 188 227 296 361 444
#     4  11  27  46  67 101 145 178 227 301 365 421
#     4  11  23  39  63  96 135 176 232 289 356 431
#     4  12  23  40  60  97 140 180 227 296 349 414
#     4  11  21  39  64  92 134 172 227 282 349 422
#
# _framework density 22.983633999999999
#
# number of rings (size 3 to 8) (size 9 to 14) (size 15 to 20)
#    0.000    0.667    8.000    1.400    5.600    0.267 
#    0.000    0.667    0.000    0.000    0.000    3.733 
#    0.000    0.000    0.000    0.000    0.000    0.000 
#
# Total GULP energy -334295.270296 kJ/mol
# GULP energy per Si atom -5571.587838 kJ/mol
# Density = 2.293132 g / cm^3
# Si number density = 22.983634 Si / 1000 Ang^3
#
#
#
# Elastic Constant Matrix: (Units=GPa)
#
#
# Indices 1 2 3 4 5 6 
#
# 1 143.0508 22.2660 23.6431 0.0000 0.0000 0.0000
# 2 22.2660 70.8597 -4.5561 0.0000 0.0000 0.0000
# 3 23.6431 -4.5561 99.9810 0.0000 0.0000 0.0000
# 4 0.0000 0.0000 0.0000 20.4705 0.0000 0.0000
# 5 0.0000 0.0000 0.0000 0.0000 35.9762 0.0000
# 6 0.0000 0.0000 0.0000 0.0000 0.0000 14.6904
#
#
#
# Elastic Compliance Matrix: (Units=1/GPa)
#
#
# Indices 1 2 3 4 5 6 
#
# 1 0.007707 -0.002546 -0.001939 0.000000 0.000000 0.000000
# 2 -0.002546 0.014995 0.001286 0.000000 0.000000 0.000000
# 3 -0.001939 0.001286 0.010519 0.000000 0.000000 0.000000
# 4 0.000000 0.000000 0.000000 0.048851 0.000000 0.000000
# 5 0.000000 0.000000 0.000000 0.000000 0.027796 0.000000
# 6 0.000000 0.000000 0.000000 0.000000 0.000000 0.068072
#
#
# Mechanical properties :
#
#
# Convention : Reuss Voigt Hill
#
# Bulk Modulus (GPa) = 37.28253 44.06639 40.67446
# Shear Modulus (GPa) = 25.86920 32.39666 29.13293
#
# Velocity S-wave (km/s) = 3.35856 3.75847 3.56413
# Velocity P-wave (km/s) = 5.59432 6.16842 5.88837
#
# Compressibility (1/GPa) = 0.02682221
#
# Stress axis : x y z
#
# Youngs Moduli (GPa) = 129.74716 66.68794 95.06675
#
# Poissons Ratio (x) = 0.16982 0.18430
# Poissons Ratio (y) = 0.33040 -0.12221
# Poissons Ratio (z) = 0.25153 -0.08573
#
# Static dielectric constant tensor:
#      x y z
#    x 1.416930 0.000000 0.000000 
#    y 0.000000 7.661400 0.000000 
#    z 0.000000 0.000000 2.047130 
# 
# From -- ./inp_files/22937.got.cif
#   From: 2010.05.17/outbox.cif.g08.bks.cpg/sg48_12_cif.got.tgz:22937.got - 2010.06.03 20:39:00.
