data_PCOD9391187
_publ_section_title
;
Structure prediction by ZEFSAII (Michael W. Deem and Ramdas Pophale) SiO2 
 PCOD9391187
Probable space group: P N N N
;
_chemical_formula_sum "Si O2"
_cell_formula_units_Z 34
_cell_length_a 5.644573
_cell_length_b 11.806509
_cell_length_c 21.463990
_cell_angle_alpha 90.000000
_cell_angle_beta 90.000000
_cell_angle_gamma 90.000000
_cell_volume 1430.418288
_symmetry_space_group_name_H-M "P N N N"
_symmetry_group_IT_number 48
_space_group.IT_coordinate_system_code '2'
_symmetry_cell_setting 'orthorhombic'
loop_
_space_group_symop_operation_xyz
x,y,z
1/2-x,1/2-y,z
x,1/2-y,1/2-z
1/2-x,y,1/2-z
-x,-y,-z
1/2+x,1/2+y,-z
-x,1/2+y,1/2+z
1/2+x,-y,1/2+z
loop_
_atom_site_type_symbol
_atom_site_label
_atom_site_fract_x
_atom_site_fract_y
_atom_site_fract_z
Si Si1 0.501665 0.121158 0.727063
Si Si2 0.399783 0.451670 0.903408
Si Si3 0.693020 0.590389 0.525631
Si Si4 0.750000 0.750000 0.750000
Si Si5 0.562587 0.348256 0.358833
O O1 0.499790 0.250000 0.750000
O O2 0.750000 0.069751 0.750000
O O3 0.250000 0.070370 0.750000
O O4 0.502640 0.119202 0.652906
O O5 0.604197 0.529897 0.933129
O O6 0.198917 0.533459 0.872600
O O7 0.310434 0.375401 0.960517
O O8 0.500000 0.500000 0.500000
O O9 0.563572 0.671228 0.574302
O O10 0.604363 0.669684 0.701476
O O11 0.750000 0.250000 0.349691
#
# Coordination Sequence:
#
# PCOD9391187 Si02
#       5
#     8   8   8   2   8
#     4  10  24  45  69 103 145 183 235 290 358 437
#     4  10  22  44  73  98 135 188 235 295 362 436
#     4   9  21  42  70  97 132 179 236 290 357 434
#     4  12  26  44  64  94 154 188 240 312 362 452
#     4  11  24  43  65 101 140 184 240 298 371 437
#
# _framework density 23.769269999999999
#
# number of rings (size 3 to 8) (size 9 to 14) (size 15 to 20)
#    0.000    1.882    0.000    1.765    6.588    3.765 
#    2.118   16.471   10.353    0.000    0.000    0.000 
#    0.000    0.000    0.000    0.000    0.000    0.000 
#
# Total GULP energy -189771.655068 kJ/mol
# GULP energy per Si atom -5581.519267 kJ/mol
# Density = 2.371517 g / cm^3
# Si number density = 23.769270 Si / 1000 Ang^3
#
#
#
# Elastic Constant Matrix: (Units=GPa)
#
#
# Indices 1 2 3 4 5 6 
#
# 1 148.9368 21.6445 77.3373 0.0000 0.0000 0.0000
# 2 21.6445 68.8277 48.6244 0.0000 0.0000 0.0000
# 3 77.3373 48.6244 260.9597 0.0000 0.0000 0.0000
# 4 0.0000 0.0000 0.0000 1.0393 0.0000 0.0000
# 5 0.0000 0.0000 0.0000 0.0000 48.1941 0.0000
# 6 0.0000 0.0000 0.0000 0.0000 0.0000 2.6549
#
#
#
# Elastic Compliance Matrix: (Units=1/GPa)
#
#
# Indices 1 2 3 4 5 6 
#
# 1 0.007991 -0.000967 -0.002188 0.000000 0.000000 0.000000
# 2 -0.000967 0.016849 -0.002853 0.000000 0.000000 0.000000
# 3 -0.002188 -0.002853 0.005012 0.000000 0.000000 0.000000
# 4 0.000000 0.000000 0.000000 0.962170 0.000000 0.000000
# 5 0.000000 0.000000 0.000000 0.000000 0.020749 0.000000
# 6 0.000000 0.000000 0.000000 0.000000 0.000000 0.376659
#
#
# Mechanical properties :
#
#
# Convention : Reuss Voigt Hill
#
# Bulk Modulus (GPa) = 56.06747 85.99294 71.03021
# Shear Modulus (GPa) = 3.55267 32.45221 18.00244
#
# Velocity S-wave (km/s) = 1.22389 3.69901 2.75504
# Velocity P-wave (km/s) = 5.06326 7.38243 6.32996
#
# Compressibility (1/GPa) = 0.01783565
#
# Stress axis : x y z
#
# Youngs Moduli (GPa) = 125.14163 59.35230 199.52230
#
# Poissons Ratio (x) = 0.05741 0.43655
# Poissons Ratio (y) = 0.12104 0.56918
# Poissons Ratio (z) = 0.27380 0.16932
#
# Static dielectric constant tensor:
#      x y z
#    x 1.973420 0.000000 0.000000 
#    y 0.000000 1.915740 0.000000 
#    z 0.000000 0.000000 1.895720 
# 
# From -- ./inp_files/3246.got.cif
#   From: 2010.05.17/outbox.cif.g08.bks.cpg/sg48_2_cif.got.tgz:3246.got - 2010.06.03 20:39:00.
