data_PCOD9391001
_publ_section_title
;
Structure prediction by ZEFSAII (Michael W. Deem and Ramdas Pophale) SiO2 
 PCOD9391001
Probable space group: P N N N
;
_chemical_formula_sum "Si O2"
_cell_formula_units_Z 40
_cell_length_a 11.299239
_cell_length_b 17.295022
_cell_length_c 8.438775
_cell_angle_alpha 90.000000
_cell_angle_beta 90.000000
_cell_angle_gamma 90.000000
_cell_volume 1649.110365
_symmetry_space_group_name_H-M "P N N N"
_symmetry_group_IT_number 48
_space_group.IT_coordinate_system_code '2'
_symmetry_cell_setting 'orthorhombic'
loop_
_space_group_symop_operation_xyz
x,y,z
1/2-x,1/2-y,z
x,1/2-y,1/2-z
1/2-x,y,1/2-z
-x,-y,-z
1/2+x,1/2+y,-z
-x,1/2+y,1/2+z
1/2+x,-y,1/2+z
loop_
_atom_site_type_symbol
_atom_site_label
_atom_site_fract_x
_atom_site_fract_y
_atom_site_fract_z
Si Si1 0.696743 0.981191 0.977275
Si Si2 0.237158 0.855007 0.566535
Si Si3 0.444982 0.752266 0.435736
Si Si4 0.575433 0.614665 0.950637
Si Si5 0.996579 0.984086 0.254504
O O1 0.787813 0.912626 0.942304
O O2 0.762595 0.054733 0.049620
O O3 0.597730 0.963784 0.109881
O O4 0.626824 0.017164 0.829272
O O5 0.250000 0.833725 0.750000
O O6 0.334302 0.809911 0.464633
O O7 0.108018 0.827580 0.503815
O O8 0.473086 0.750000 0.250000
O O9 0.549387 0.794751 0.532047
O O10 0.528050 0.573378 0.111034
O O11 0.501524 0.572538 0.811248
#
# Coordination Sequence:
#
# PCOD9391001 Si02
#       5
#     8   8   8   8   8
#     4  11  22  39  65  98 126 165 222 281 332 392
#     4  11  21  37  62  90 126 172 224 279 333 390
#     4  11  23  36  56  89 128 170 214 266 331 401
#     4  11  21  38  62  93 131 169 215 276 336 393
#     4  10  22  37  62  94 128 165 217 274 332 393
#
# _framework density 24.255502
#
# number of rings (size 3 to 8) (size 9 to 14) (size 15 to 20)
#    0.000    1.200    0.000    9.600    0.000    1.600 
#    0.000    0.000    0.000   16.800    0.000   16.800 
#    0.000    0.000    0.000    0.000    0.000    0.000 
#
# Total GULP energy -223683.363457 kJ/mol
# GULP energy per Si atom -5592.084086 kJ/mol
# Density = 2.420029 g / cm^3
# Si number density = 24.255502 Si / 1000 Ang^3
#
#
#
# Elastic Constant Matrix: (Units=GPa)
#
#
# Indices 1 2 3 4 5 6 
#
# 1 136.5455 21.7758 12.0264 0.0000 0.0000 0.0000
# 2 21.7758 67.1392 -4.0244 0.0000 0.0000 0.0000
# 3 12.0264 -4.0244 63.9083 0.0000 0.0000 0.0000
# 4 0.0000 0.0000 0.0000 29.8090 0.0000 0.0000
# 5 0.0000 0.0000 0.0000 0.0000 29.2477 0.0000
# 6 0.0000 0.0000 0.0000 0.0000 0.0000 46.0625
#
#
#
# Elastic Compliance Matrix: (Units=1/GPa)
#
#
# Indices 1 2 3 4 5 6 
#
# 1 0.007893 -0.002659 -0.001653 0.000000 0.000000 0.000000
# 2 -0.002659 0.015847 0.001498 0.000000 0.000000 0.000000
# 3 -0.001653 0.001498 0.016053 0.000000 0.000000 0.000000
# 4 0.000000 0.000000 0.000000 0.033547 0.000000 0.000000
# 5 0.000000 0.000000 0.000000 0.000000 0.034191 0.000000
# 6 0.000000 0.000000 0.000000 0.000000 0.000000 0.021710
#
#
# Mechanical properties :
#
#
# Convention : Reuss Voigt Hill
#
# Bulk Modulus (GPa) = 29.26937 36.34983 32.80960
# Shear Modulus (GPa) = 34.18669 36.87819 35.53244
#
# Velocity S-wave (km/s) = 3.75832 3.90347 3.83158
# Velocity P-wave (km/s) = 5.56117 5.94431 5.75593
#
# Compressibility (1/GPa) = 0.03416541
#
# Stress axis : x y z
#
# Youngs Moduli (GPa) = 126.69122 63.10465 62.29442
#
# Poissons Ratio (x) = 0.16780 0.10296
# Poissons Ratio (y) = 0.33689 -0.09334
# Poissons Ratio (z) = 0.20940 -0.09455
#
# Static dielectric constant tensor:
#      x y z
#    x 1.999380 0.000000 0.000000 
#    y 0.000000 1.952530 0.000000 
#    z 0.000000 0.000000 1.966940 
# 
# From -- ./inp_files/10718.got.cif
#   From: 2010.05.17/outbox.cif.g08.bks.cpg/sg48_6_cif.got.tgz:10718.got - 2010.06.03 20:39:00.
