data_PCOD9391190
_publ_section_title
;
Structure prediction by ZEFSAII (Michael W. Deem and Ramdas Pophale) SiO2 
 PCOD9391190
Probable space group: P N N N
;
_chemical_formula_sum "Si O2"
_cell_formula_units_Z 34
_cell_length_a 7.204241
_cell_length_b 11.848958
_cell_length_c 18.529928
_cell_angle_alpha 90.000000
_cell_angle_beta 90.000000
_cell_angle_gamma 90.000000
_cell_volume 1581.765593
_symmetry_space_group_name_H-M "P N N N"
_symmetry_group_IT_number 48
_space_group.IT_coordinate_system_code '2'
_symmetry_cell_setting 'orthorhombic'
loop_
_space_group_symop_operation_xyz
x,y,z
1/2-x,1/2-y,z
x,1/2-y,1/2-z
1/2-x,y,1/2-z
-x,-y,-z
1/2+x,1/2+y,-z
-x,1/2+y,1/2+z
1/2+x,-y,1/2+z
loop_
_atom_site_type_symbol
_atom_site_label
_atom_site_fract_x
_atom_site_fract_y
_atom_site_fract_z
Si Si1 0.538884 0.131656 0.220445
Si Si2 0.250000 0.250000 0.750000
Si Si3 0.007366 0.935949 0.175995
Si Si4 0.164060 0.988705 0.585558
Si Si5 0.323985 0.873348 0.067218
O O1 0.460506 0.250000 0.250000
O O2 0.750000 0.131230 0.250000
O O3 0.454844 0.023845 0.260211
O O4 0.555696 0.104731 0.135132
O O5 0.110008 0.169254 0.793919
O O6 0.863486 0.993523 0.120641
O O7 0.191979 0.905960 0.133333
O O8 0.037630 0.101981 0.589059
O O9 0.193170 0.950476 0.503800
O O10 0.250000 0.750000 0.046573
#
# Coordination Sequence:
#
# PCOD9391190 Si02
#       5
#     8   2   8   8   8
#     4   9  19  38  68  89 122 168 218 268 325 379
#     4  12  20  40  68  96 144 162 226 274 334 404
#     4  11  22  41  65  95 126 176 207 273 328 393
#     4  10  22  45  60  96 129 166 226 267 321 404
#     4  11  25  39  66  94 133 172 214 268 336 398
#
# _framework density 21.494968
#
# number of rings (size 3 to 8) (size 9 to 14) (size 15 to 20)
#    0.000    1.647    3.529    2.118    6.588    0.941 
#    0.000    2.353    0.000    0.000    0.000    0.000 
#    0.000    0.000    0.000    0.000    0.000    0.000 
#
# Total GULP energy -189759.722499 kJ/mol
# GULP energy per Si atom -5581.168309 kJ/mol
# Density = 2.144604 g / cm^3
# Si number density = 21.494968 Si / 1000 Ang^3
#
#
#
# Elastic Constant Matrix: (Units=GPa)
#
#
# Indices 1 2 3 4 5 6 
#
# 1 93.2135 18.1829 12.3493 0.0000 0.0000 0.0000
# 2 18.1829 99.2011 15.0528 0.0000 0.0000 0.0000
# 3 12.3493 15.0528 75.4279 0.0000 0.0000 0.0000
# 4 0.0000 0.0000 0.0000 19.3891 0.0000 0.0000
# 5 0.0000 0.0000 0.0000 0.0000 21.1592 0.0000
# 6 0.0000 0.0000 0.0000 0.0000 0.0000 2.9121
#
#
#
# Elastic Compliance Matrix: (Units=1/GPa)
#
#
# Indices 1 2 3 4 5 6 
#
# 1 0.011284 -0.001844 -0.001479 0.000000 0.000000 0.000000
# 2 -0.001844 0.010697 -0.001833 0.000000 0.000000 0.000000
# 3 -0.001479 -0.001833 0.013866 0.000000 0.000000 0.000000
# 4 0.000000 0.000000 0.000000 0.051575 0.000000 0.000000
# 5 0.000000 0.000000 0.000000 0.000000 0.047261 0.000000
# 6 0.000000 0.000000 0.000000 0.000000 0.000000 0.343396
#
#
# Mechanical properties :
#
#
# Convention : Reuss Voigt Hill
#
# Bulk Modulus (GPa) = 39.16348 39.89026 39.52687
# Shear Modulus (GPa) = 10.06236 23.50924 16.78580
#
# Velocity S-wave (km/s) = 2.16597 3.31071 2.79752
# Velocity P-wave (km/s) = 4.95122 5.76304 5.37249
#
# Compressibility (1/GPa) = 0.02553399
#
# Stress axis : x y z
#
# Youngs Moduli (GPa) = 88.62323 93.48773 72.12052
#
# Poissons Ratio (x) = 0.17237 0.10670
# Poissons Ratio (y) = 0.16340 0.13218
# Poissons Ratio (z) = 0.13111 0.17134
#
# Static dielectric constant tensor:
#      x y z
#    x 1.793910 0.000000 0.000000 
#    y 0.000000 1.836610 0.000000 
#    z 0.000000 0.000000 1.823000 
# 
# From -- ./inp_files/29982.got.cif
#   From: 2010.05.17/outbox.cif.g08.bks.cpg/sg48_15_cif.got.tgz:29982.got - 2010.06.03 20:39:00.
