data_PCOD9391783
_publ_section_title
;
Structure prediction by ZEFSAII (Michael W. Deem and Ramdas Pophale) SiO2 
 PCOD9391783
Probable space group: P N N N
;
_chemical_formula_sum "Si O2"
_cell_formula_units_Z 32
_cell_length_a 6.714853
_cell_length_b 26.472858
_cell_length_c 7.851182
_cell_angle_alpha 90.000000
_cell_angle_beta 90.000000
_cell_angle_gamma 90.000000
_cell_volume 1395.636711
_symmetry_space_group_name_H-M "P N N N"
_symmetry_group_IT_number 48
_space_group.IT_coordinate_system_code '2'
_symmetry_cell_setting 'orthorhombic'
loop_
_space_group_symop_operation_xyz
x,y,z
1/2-x,1/2-y,z
x,1/2-y,1/2-z
1/2-x,y,1/2-z
-x,-y,-z
1/2+x,1/2+y,-z
-x,1/2+y,1/2+z
1/2+x,-y,1/2+z
loop_
_atom_site_type_symbol
_atom_site_label
_atom_site_fract_x
_atom_site_fract_y
_atom_site_fract_z
Si Si1 0.640224 0.696154 0.584208
Si Si2 0.750000 0.164706 0.250000
Si Si3 0.750000 0.633484 0.250000
Si Si4 0.992539 0.413920 0.483158
Si Si5 0.778197 0.997556 0.561513
O O1 0.750000 0.750000 0.563442
O O2 0.750000 0.672775 0.750000
O O3 0.408770 0.696295 0.638161
O O4 0.676714 0.665916 0.411504
O O5 0.618295 0.129557 0.377457
O O6 0.942702 0.604083 0.326817
O O7 0.852950 0.463063 0.455597
O O8 0.203170 0.439997 0.436061
O O9 0.750000 0.017505 0.750000
O O10 0.000000 0.000000 0.500000
#
# Coordination Sequence:
#
# PCOD9391783 Si02
#       5
#     8   4   4   8   8
#     4  11  27  52  80 111 151 190 246 324 400 457
#     4  12  26  48  84 110 150 204 258 313 385 476
#     4  12  25  49  80 112 152 194 254 319 375 474
#     4  11  26  42  70 115 145 203 260 307 378 447
#     4  11  24  42  68 100 160 201 250 314 369 444
#
# _framework density 22.928602999999999
#
# number of rings (size 3 to 8) (size 9 to 14) (size 15 to 20)
#    0.000    0.750    2.500    3.375   10.500    6.000 
#    0.000    0.000   11.000    0.000    0.000    0.000 
#    0.000    0.000    0.000    0.000    0.000    0.000 
#
# Total GULP energy -178519.561481 kJ/mol
# GULP energy per Si atom -5578.736296 kJ/mol
# Density = 2.287642 g / cm^3
# Si number density = 22.928603 Si / 1000 Ang^3
#
#
#
# Elastic Constant Matrix: (Units=GPa)
#
#
# Indices 1 2 3 4 5 6 
#
# 1 186.0409 77.2224 62.7541 0.0000 0.0000 0.0000
# 2 77.2224 122.9507 46.8724 0.0000 0.0000 0.0000
# 3 62.7541 46.8724 138.1956 0.0000 0.0000 0.0000
# 4 0.0000 0.0000 0.0000 37.2624 0.0000 0.0000
# 5 0.0000 0.0000 0.0000 0.0000 48.7661 0.0000
# 6 0.0000 0.0000 0.0000 0.0000 0.0000 24.2719
#
#
#
# Elastic Compliance Matrix: (Units=1/GPa)
#
#
# Indices 1 2 3 4 5 6 
#
# 1 0.007793 -0.004072 -0.002158 0.000000 0.000000 0.000000
# 2 -0.004072 0.011469 -0.002041 0.000000 0.000000 0.000000
# 3 -0.002158 -0.002041 0.008908 0.000000 0.000000 0.000000
# 4 0.000000 0.000000 0.000000 0.026837 0.000000 0.000000
# 5 0.000000 0.000000 0.000000 0.000000 0.020506 0.000000
# 6 0.000000 0.000000 0.000000 0.000000 0.000000 0.041200
#
#
# Mechanical properties :
#
#
# Convention : Reuss Voigt Hill
#
# Bulk Modulus (GPa) = 85.99230 91.20945 88.60088
# Shear Modulus (GPa) = 36.46150 39.41595 37.93873
#
# Velocity S-wave (km/s) = 3.99208 4.15067 4.07215
# Velocity P-wave (km/s) = 7.67038 7.92697 7.79973
#
# Compressibility (1/GPa) = 0.01162895
#
# Stress axis : x y z
#
# Youngs Moduli (GPa) = 128.31551 87.19143 112.25708
#
# Poissons Ratio (x) = 0.35506 0.24222
# Poissons Ratio (y) = 0.52253 0.22910
# Poissons Ratio (z) = 0.27687 0.17794
#
# Static dielectric constant tensor:
#      x y z
#    x 1.913970 0.000000 0.000000 
#    y 0.000000 1.957930 0.000000 
#    z 0.000000 0.000000 1.934010 
# 
# From -- ./inp_files/1153.got.cif
#   From: 2010.05.17/outbox.cif.g08.bks.cpg/sg48_1_cif.got.tgz:1153.got - 2010.06.03 20:39:00.
