data_PCOD9391281
_publ_section_title
;
Structure prediction by ZEFSAII (Michael W. Deem and Ramdas Pophale) SiO2 
 PCOD9391281
Probable space group: P N N N
;
_chemical_formula_sum "Si O2"
_cell_formula_units_Z 48
_cell_length_a 5.709425
_cell_length_b 27.282155
_cell_length_c 14.126567
_cell_angle_alpha 90.000000
_cell_angle_beta 90.000000
_cell_angle_gamma 90.000000
_cell_volume 2200.430611
_symmetry_space_group_name_H-M "P N N N"
_symmetry_group_IT_number 48
_space_group.IT_coordinate_system_code '2'
_symmetry_cell_setting 'orthorhombic'
loop_
_space_group_symop_operation_xyz
x,y,z
1/2-x,1/2-y,z
x,1/2-y,1/2-z
1/2-x,y,1/2-z
-x,-y,-z
1/2+x,1/2+y,-z
-x,1/2+y,1/2+z
1/2+x,-y,1/2+z
loop_
_atom_site_type_symbol
_atom_site_label
_atom_site_fract_x
_atom_site_fract_y
_atom_site_fract_z
Si Si1 0.580620 0.296505 0.097370
Si Si2 0.599326 0.298437 0.888730
Si Si3 0.424328 0.894108 0.103477
Si Si4 0.404388 0.892409 0.889842
Si Si5 0.250000 0.970213 0.250000
Si Si6 0.750000 0.845680 0.250000
Si Si7 0.250000 0.526983 0.750000
Si Si8 0.250000 0.337458 0.250000
O O1 0.750000 0.250000 0.109318
O O2 0.731142 0.346235 0.101885
O O3 0.400450 0.303140 0.181467
O O4 0.474317 0.293489 0.991397
O O5 0.750000 0.250000 0.874448
O O6 0.771109 0.344741 0.896589
O O7 0.432480 0.310999 0.802756
O O8 0.279543 0.935950 0.157360
O O9 0.641791 0.880504 0.169843
O O10 0.488834 0.905436 0.995370
O O11 0.276031 0.937765 0.840980
O O12 0.602816 0.872802 0.819023
O O13 0.499775 0.998685 0.256386
#
# Coordination Sequence:
#
# PCOD9391281 Si02
#       8
#     8   8   8   8   4   4   4   4
#     4  10  23  42  68 106 146 189 240 296 367 448
#     4  10  23  42  68 106 146 189 240 296 367 448
#     4  11  25  45  70 106 146 189 243 308 376 448
#     4  11  25  45  70 106 146 189 243 308 376 448
#     4  12  27  50  76 110 149 195 258 321 386 456
#     4  12  21  43  71 102 144 199 242 301 359 448
#     4  12  27  50  76 110 149 195 258 321 386 456
#     4  12  21  43  71 102 144 199 242 301 359 448
#
# _framework density 21.813911999999998
#
# number of rings (size 3 to 8) (size 9 to 14) (size 15 to 20)
#    0.000    1.000    3.333    2.000    0.000    6.667 
#    0.000    5.000    0.000    3.000    0.000    0.000 
#    0.000    0.000    0.000    0.000    0.000    0.000 
#
# Total GULP energy -268583.529485 kJ/mol
# GULP energy per Si atom -5595.490198 kJ/mol
# Density = 2.176426 g / cm^3
# Si number density = 21.813912 Si / 1000 Ang^3
#
#
#
# Elastic Constant Matrix: (Units=GPa)
#
#
# Indices 1 2 3 4 5 6 
#
# 1 55.5870 35.7217 31.9756 0.0000 0.0000 0.0000
# 2 35.7217 123.2668 34.7241 0.0000 0.0000 0.0000
# 3 31.9756 34.7241 157.7751 0.0000 0.0000 0.0000
# 4 0.0000 0.0000 0.0000 34.7204 0.0000 0.0000
# 5 0.0000 0.0000 0.0000 0.0000 99.8821 0.0000
# 6 0.0000 0.0000 0.0000 0.0000 0.0000 29.6136
#
#
#
# Elastic Compliance Matrix: (Units=1/GPa)
#
#
# Indices 1 2 3 4 5 6 
#
# 1 0.023815 -0.005908 -0.003526 0.000000 0.000000 0.000000
# 2 -0.005908 0.010114 -0.001029 0.000000 0.000000 0.000000
# 3 -0.003526 -0.001029 0.007279 0.000000 0.000000 0.000000
# 4 0.000000 0.000000 0.000000 0.028802 0.000000 0.000000
# 5 0.000000 0.000000 0.000000 0.000000 0.010012 0.000000
# 6 0.000000 0.000000 0.000000 0.000000 0.000000 0.033768
#
#
# Mechanical properties :
#
#
# Convention : Reuss Voigt Hill
#
# Bulk Modulus (GPa) = 49.30330 60.16353 54.73342
# Shear Modulus (GPa) = 35.34151 48.45705 41.89928
#
# Velocity S-wave (km/s) = 4.02946 4.71827 4.38740
# Velocity P-wave (km/s) = 6.65579 7.57119 7.12820
#
# Compressibility (1/GPa) = 0.02028262
#
# Stress axis : x y z
#
# Youngs Moduli (GPa) = 41.99053 98.86929 137.37830
#
# Poissons Ratio (x) = 0.58412 0.48442
# Poissons Ratio (y) = 0.24808 0.14132
# Poissons Ratio (z) = 0.14807 0.10170
#
# Static dielectric constant tensor:
#      x y z
#    x 1.825690 0.000000 0.000000 
#    y 0.000000 1.791140 0.000000 
#    z 0.000000 0.000000 1.816820 
# 
# From -- ./inp_files/24474.got.cif
#   From: 2010.05.17/outbox.cif.g08.bks.cpg/sg48_13_cif.got.tgz:24474.got - 2010.06.03 20:39:00.
