data_PCOD9391217
_publ_section_title
;
Structure prediction by ZEFSAII (Michael W. Deem and Ramdas Pophale) SiO2 
 PCOD9391217
Probable space group: P N N N
;
_chemical_formula_sum "Si O2"
_cell_formula_units_Z 56
_cell_length_a 14.011592
_cell_length_b 5.554051
_cell_length_c 36.084982
_cell_angle_alpha 90.000000
_cell_angle_beta 90.000000
_cell_angle_gamma 90.000000
_cell_volume 2808.172869
_symmetry_space_group_name_H-M "P N N N"
_symmetry_group_IT_number 48
_space_group.IT_coordinate_system_code '2'
_symmetry_cell_setting 'orthorhombic'
loop_
_space_group_symop_operation_xyz
x,y,z
1/2-x,1/2-y,z
x,1/2-y,1/2-z
1/2-x,y,1/2-z
-x,-y,-z
1/2+x,1/2+y,-z
-x,1/2+y,1/2+z
1/2+x,-y,1/2+z
loop_
_atom_site_type_symbol
_atom_site_label
_atom_site_fract_x
_atom_site_fract_y
_atom_site_fract_z
Si Si1 0.498242 0.843750 0.596635
Si Si2 0.296556 0.003007 0.392977
Si Si3 0.364849 0.253923 0.792069
Si Si4 0.634213 0.243550 0.165009
Si Si5 0.646235 0.677790 0.052544
Si Si6 0.522115 0.454249 0.542290
Si Si7 0.175984 0.933859 0.024025
O O1 0.588176 0.997340 0.612330
O O2 0.436720 0.738133 0.630084
O O3 0.555940 0.666776 0.568420
O O4 0.415990 0.973405 0.572218
O O5 0.250000 0.250000 0.377561
O O6 0.250000 0.750000 0.380047
O O7 0.276342 0.008529 0.437592
O O8 0.250000 0.250000 0.789812
O O9 0.402823 0.250000 0.750000
O O10 0.387343 0.504882 0.813207
O O11 0.387147 0.001890 0.812446
O O12 0.750000 0.250000 0.156518
O O13 0.750000 0.750000 0.066091
O O14 0.580674 0.905622 0.059498
O O15 0.651078 0.619643 0.008334
O O16 0.500000 0.500000 0.500000
O O17 0.586612 0.219079 0.538708
O O18 0.250000 0.750000 0.004766
#
# Coordination Sequence:
#
# PCOD9391217 Si02
#       7
#     8   8   8   8   8   8   8
#     4  12  26  40  60  86 124 160 203 266 326 391
#     4  11  24  43  64  84 108 151 209 273 320 360
#     4   9  18  37  62  92 129 177 218 245 279 348
#     4  10  23  36  61  93 136 172 207 249 303 371
#     4  12  26  37  56  80 113 157 201 256 331 401
#     4  12  23  40  59  76 111 154 214 263 319 378
#     4  11  21  40  58  79 100 144 214 276 324 367
#
# _framework density 19.941790999999998
#
# number of rings (size 3 to 8) (size 9 to 14) (size 15 to 20)
#    0.000    1.000    2.857    4.714    4.000    2.286 
#    0.000    0.000    0.000    0.000    0.000    0.000 
#    0.000    8.571    0.000    0.000    0.000    0.000 
#
# Total GULP energy -312085.072263 kJ/mol
# GULP energy per Si atom -5572.947719 kJ/mol
# Density = 1.989640 g / cm^3
# Si number density = 19.941791 Si / 1000 Ang^3
#
#
#
# Elastic Constant Matrix: (Units=GPa)
#
#
# Indices 1 2 3 4 5 6 
#
# 1 110.6544 42.1616 19.1967 0.0000 0.0000 0.0000
# 2 42.1616 128.4516 39.8710 0.0000 0.0000 0.0000
# 3 19.1967 39.8710 88.3755 0.0000 0.0000 0.0000
# 4 0.0000 0.0000 0.0000 18.7201 0.0000 0.0000
# 5 0.0000 0.0000 0.0000 0.0000 17.7121 0.0000
# 6 0.0000 0.0000 0.0000 0.0000 0.0000 33.9051
#
#
#
# Elastic Compliance Matrix: (Units=1/GPa)
#
#
# Indices 1 2 3 4 5 6 
#
# 1 0.010382 -0.003148 -0.000835 0.000000 0.000000 0.000000
# 2 -0.003148 0.010008 -0.003831 0.000000 0.000000 0.000000
# 3 -0.000835 -0.003831 0.013225 0.000000 0.000000 0.000000
# 4 0.000000 0.000000 0.000000 0.053418 0.000000 0.000000
# 5 0.000000 0.000000 0.000000 0.000000 0.056459 0.000000
# 6 0.000000 0.000000 0.000000 0.000000 0.000000 0.029494
#
#
# Mechanical properties :
#
#
# Convention : Reuss Voigt Hill
#
# Bulk Modulus (GPa) = 55.59904 58.88221 57.24063
# Shear Modulus (GPa) = 25.69257 29.15097 27.42177
#
# Velocity S-wave (km/s) = 3.59329 3.82750 3.71224
# Velocity P-wave (km/s) = 6.71989 7.00886 6.86589
#
# Compressibility (1/GPa) = 0.01798592
#
# Stress axis : x y z
#
# Youngs Moduli (GPa) = 96.32452 99.92404 75.61411
#
# Poissons Ratio (x) = 0.31461 0.06311
# Poissons Ratio (y) = 0.30328 0.28968
# Poissons Ratio (z) = 0.08039 0.38282
#
# Static dielectric constant tensor:
#      x y z
#    x 1.732600 0.000000 0.000000 
#    y 0.000000 1.821840 0.000000 
#    z 0.000000 0.000000 1.680590 
# 
# From -- ./inp_files/39079.got.cif
#   From: 2010.05.17/outbox.cif.g08.bks.cpg/sg48_20_cif.got.tgz:39079.got - 2010.06.03 20:39:00.
