data_PCOD9391135
_publ_section_title
;
Structure prediction by ZEFSAII (Michael W. Deem and Ramdas Pophale) SiO2 
 PCOD9391135
Probable space group: P N N N
;
_chemical_formula_sum "Si O2"
_cell_formula_units_Z 32
_cell_length_a 9.363143
_cell_length_b 16.096610
_cell_length_c 9.902175
_cell_angle_alpha 90.000000
_cell_angle_beta 90.000000
_cell_angle_gamma 90.000000
_cell_volume 1492.404931
_symmetry_space_group_name_H-M "P N N N"
_symmetry_group_IT_number 48
_space_group.IT_coordinate_system_code '2'
_symmetry_cell_setting 'orthorhombic'
loop_
_space_group_symop_operation_xyz
x,y,z
1/2-x,1/2-y,z
x,1/2-y,1/2-z
1/2-x,y,1/2-z
-x,-y,-z
1/2+x,1/2+y,-z
-x,1/2+y,1/2+z
1/2+x,-y,1/2+z
loop_
_atom_site_type_symbol
_atom_site_label
_atom_site_fract_x
_atom_site_fract_y
_atom_site_fract_z
Si Si1 0.073445 0.590221 0.020354
Si Si2 0.898481 0.496716 0.712753
Si Si3 0.884816 0.403239 0.432369
Si Si4 0.081904 0.247217 0.411729
O O1 0.098918 0.579340 0.181571
O O2 0.215417 0.611858 0.933202
O O3 0.000000 0.500000 0.000000
O O4 0.968457 0.662932 0.981013
O O5 0.750000 0.544201 0.750000
O O6 0.885436 0.463438 0.561964
O O7 0.039985 0.552826 0.696977
O O8 0.983861 0.323687 0.462335
O O9 0.250000 0.250000 0.438360
O O10 0.061070 0.250000 0.250000
#
# Coordination Sequence:
#
# PCOD9391135 Si02
#       4
#     8   8   8   8
#     4  11  24  41  65  99 129 169 224 272 328 401
#     4   9  21  39  68  94 129 170 216 267 332 400
#     4  10  22  42  67  92 131 174 215 268 336 394
#     4  11  26  42  64  93 132 172 219 278 336 398
#
# _framework density 21.441901999999999
#
# number of rings (size 3 to 8) (size 9 to 14) (size 15 to 20)
#    0.000    1.750    0.000    2.250   14.000    6.000 
#    0.000    5.000    0.000    0.000    0.000    0.000 
#    0.000    0.000    0.000    0.000    0.000    0.000 
#
# Total GULP energy -178293.009159 kJ/mol
# GULP energy per Si atom -5571.656536 kJ/mol
# Density = 2.139310 g / cm^3
# Si number density = 21.441902 Si / 1000 Ang^3
#
#
#
# Elastic Constant Matrix: (Units=GPa)
#
#
# Indices 1 2 3 4 5 6 
#
# 1 129.8703 18.6283 46.6858 0.0000 0.0000 0.0000
# 2 18.6283 41.7706 -0.2026 0.0000 0.0000 0.0000
# 3 46.6858 -0.2026 67.6853 0.0000 0.0000 0.0000
# 4 0.0000 0.0000 0.0000 28.7351 0.0000 0.0000
# 5 0.0000 0.0000 0.0000 0.0000 47.2055 0.0000
# 6 0.0000 0.0000 0.0000 0.0000 0.0000 42.6300
#
#
#
# Elastic Compliance Matrix: (Units=1/GPa)
#
#
# Indices 1 2 3 4 5 6 
#
# 1 0.011206 -0.005035 -0.007745 0.000000 0.000000 0.000000
# 2 -0.005035 0.026203 0.003551 0.000000 0.000000 0.000000
# 3 -0.007745 0.003551 0.020127 0.000000 0.000000 0.000000
# 4 0.000000 0.000000 0.000000 0.034801 0.000000 0.000000
# 5 0.000000 0.000000 0.000000 0.000000 0.021184 0.000000
# 6 0.000000 0.000000 0.000000 0.000000 0.000000 0.023458
#
#
# Mechanical properties :
#
#
# Convention : Reuss Voigt Hill
#
# Bulk Modulus (GPa) = 25.58897 41.06104 33.32501
# Shear Modulus (GPa) = 29.68040 35.32842 32.50441
#
# Velocity S-wave (km/s) = 3.72455 4.06351 3.89772
# Velocity P-wave (km/s) = 5.51873 6.41932 5.98598
#
# Compressibility (1/GPa) = 0.03907934
#
# Stress axis : x y z
#
# Youngs Moduli (GPa) = 89.23604 38.16353 49.68528
#
# Poissons Ratio (x) = 0.19216 0.38479
# Poissons Ratio (y) = 0.44932 -0.17645
# Poissons Ratio (z) = 0.69109 -0.13553
#
# Static dielectric constant tensor:
#      x y z
#    x 2.246300 0.000000 0.000000 
#    y 0.000000 1.772520 0.000000 
#    z 0.000000 0.000000 1.965650 
# 
# From -- ./inp_files/11878.got.cif
#   From: 2010.05.17/outbox.cif.g08.bks.cpg/sg48_6_cif.got.tgz:11878.got - 2010.06.03 20:39:00.
