data_PCOD9391166
_publ_section_title
;
Structure prediction by ZEFSAII (Michael W. Deem and Ramdas Pophale) SiO2 
 PCOD9391166
Probable space group: P N N N
;
_chemical_formula_sum "Si O2"
_cell_formula_units_Z 24
_cell_length_a 8.223278
_cell_length_b 23.785612
_cell_length_c 4.204321
_cell_angle_alpha 90.000000
_cell_angle_beta 90.000000
_cell_angle_gamma 90.000000
_cell_volume 822.347108
_symmetry_space_group_name_H-M "P N N N"
_symmetry_group_IT_number 48
_space_group.IT_coordinate_system_code '2'
_symmetry_cell_setting 'orthorhombic'
loop_
_space_group_symop_operation_xyz
x,y,z
1/2-x,1/2-y,z
x,1/2-y,1/2-z
1/2-x,y,1/2-z
-x,-y,-z
1/2+x,1/2+y,-z
-x,1/2+y,1/2+z
1/2+x,-y,1/2+z
loop_
_atom_site_type_symbol
_atom_site_label
_atom_site_fract_x
_atom_site_fract_y
_atom_site_fract_z
Si Si1 0.503259 0.664103 0.806556
Si Si2 0.250000 0.008048 0.250000
Si Si3 0.750000 0.077617 0.250000
Si Si4 0.250000 0.405024 0.750000
Si Si5 0.750000 0.750000 0.750000
Si Si6 0.250000 0.750000 0.750000
O O1 0.390354 0.619121 0.629425
O O2 0.623397 0.704979 0.603769
O O3 0.370251 0.708179 0.940165
O O4 0.617706 0.630932 0.053915
O O5 0.169507 0.051739 0.495426
O O6 0.330446 0.963216 0.489117
#
# Coordination Sequence:
#
# PCOD9391166 Si02
#       6
#     8   4   4   4   2   2
#     4  10  22  43  74 107 146 192 245 307 372 444
#     4  10  25  44  70 106 146 192 243 300 366 440
#     4  10  24  45  72 104 146 191 242 298 368 442
#     4  11  24  42  72 108 148 190 244 303 368 438
#     4  10  22  44  72 104 140 184 242 304 368 434
#     4   8  20  48  76 108 148 198 252 310 380 450
#
# _framework density 29.184757999999999
#
# number of rings (size 3 to 8) (size 9 to 14) (size 15 to 20)
#    0.000    2.000    0.000    1.000    0.000   14.000 
#    0.000    6.667    0.000   19.000    0.000    0.000 
#    0.000    0.000    0.000    0.000    0.000    0.000 
#
# Total GULP energy -133633.333734 kJ/mol
# GULP energy per Si atom -5568.055572 kJ/mol
# Density = 2.911833 g / cm^3
# Si number density = 29.184758 Si / 1000 Ang^3
#
#
#
# Elastic Constant Matrix: (Units=GPa)
#
#
# Indices 1 2 3 4 5 6 
#
# 1 161.3173 129.2129 31.9486 0.0000 0.0000 0.0000
# 2 129.2129 236.7995 82.4885 0.0000 0.0000 0.0000
# 3 31.9486 82.4885 91.1482 0.0000 0.0000 0.0000
# 4 0.0000 0.0000 0.0000 37.1447 0.0000 0.0000
# 5 0.0000 0.0000 0.0000 0.0000 44.4771 0.0000
# 6 0.0000 0.0000 0.0000 0.0000 0.0000 57.5861
#
#
#
# Elastic Compliance Matrix: (Units=1/GPa)
#
#
# Indices 1 2 3 4 5 6 
#
# 1 0.011354 -0.007023 0.002376 0.000000 0.000000 0.000000
# 2 -0.007023 0.010511 -0.007051 0.000000 0.000000 0.000000
# 3 0.002376 -0.007051 0.016519 0.000000 0.000000 0.000000
# 4 0.000000 0.000000 0.000000 0.026922 0.000000 0.000000
# 5 0.000000 0.000000 0.000000 0.000000 0.022483 0.000000
# 6 0.000000 0.000000 0.000000 0.000000 0.000000 0.017365
#
#
# Mechanical properties :
#
#
# Convention : Reuss Voigt Hill
#
# Bulk Modulus (GPa) = 66.71700 108.50723 87.61212
# Shear Modulus (GPa) = 37.43988 44.21590 40.82789
#
# Velocity S-wave (km/s) = 3.58559 3.89657 3.74431
# Velocity P-wave (km/s) = 6.32864 7.58317 6.98413
#
# Compressibility (1/GPa) = 0.01498868
#
# Stress axis : x y z
#
# Youngs Moduli (GPa) = 88.07670 95.13427 60.53461
#
# Poissons Ratio (x) = 0.66813 -0.14384
# Poissons Ratio (y) = 0.61857 0.42684
# Poissons Ratio (z) = -0.20929 0.67080
#
# Static dielectric constant tensor:
#      x y z
#    x 2.205450 0.000000 0.000000 
#    y 0.000000 2.230920 0.000000 
#    z 0.000000 0.000000 2.374600 
# 
# From -- ./inp_files/788.got.cif
#   From: 2010.05.17/outbox.cif.g08.bks.cpg/sg48_1_cif.got.tgz:788.got - 2010.06.03 20:39:00.
