data_PCOD9391591
_publ_section_title
;
Structure prediction by ZEFSAII (Michael W. Deem and Ramdas Pophale) SiO2 
 PCOD9391591
Probable space group: P N N N
;
_chemical_formula_sum "Si O2"
_cell_formula_units_Z 40
_cell_length_a 10.835528
_cell_length_b 9.412213
_cell_length_c 18.557562
_cell_angle_alpha 90.000000
_cell_angle_beta 90.000000
_cell_angle_gamma 90.000000
_cell_volume 1892.617039
_symmetry_space_group_name_H-M "P N N N"
_symmetry_group_IT_number 48
_space_group.IT_coordinate_system_code '2'
_symmetry_cell_setting 'orthorhombic'
loop_
_space_group_symop_operation_xyz
x,y,z
1/2-x,1/2-y,z
x,1/2-y,1/2-z
1/2-x,y,1/2-z
-x,-y,-z
1/2+x,1/2+y,-z
-x,1/2+y,1/2+z
1/2+x,-y,1/2+z
loop_
_atom_site_type_symbol
_atom_site_label
_atom_site_fract_x
_atom_site_fract_y
_atom_site_fract_z
Si Si1 0.810524 0.905897 0.485102
Si Si2 0.104672 0.787496 0.330632
Si Si3 0.989785 0.442080 0.105247
Si Si4 0.409899 0.952637 0.435635
Si Si5 0.386999 0.206193 0.332235
O O1 0.750000 0.750000 0.474662
O O2 0.931799 0.896389 0.534815
O O3 0.721153 0.016511 0.526381
O O4 0.862928 0.981282 0.413698
O O5 0.250000 0.750000 0.329716
O O6 0.057703 0.750000 0.250000
O O7 0.058781 0.699178 0.400789
O O8 0.072702 0.949828 0.347735
O O9 0.991632 0.293328 0.144840
O O10 0.500000 0.000000 0.500000
O O11 0.407897 0.051074 0.364036
O O12 0.250000 0.250000 0.363333
O O13 0.375576 0.250000 0.250000
#
# Coordination Sequence:
#
# PCOD9391591 Si02
#       5
#     8   8   8   8   8
#     4  11  21  38  58  89 120 157 207 245 312 368
#     4  11  22  36  56  90 126 155 195 256 318 367
#     4  11  21  37  63  83 124 161 195 255 306 380
#     4  12  23  37  61  90 127 156 208 266 306 369
#     4  11  21  39  64  92 125 163 207 261 323 382
#
# _framework density 21.134755999999999
#
# number of rings (size 3 to 8) (size 9 to 14) (size 15 to 20)
#    0.000    0.800    6.000    2.400    2.800    3.200 
#    0.000    0.000    0.000   12.600    0.000    0.000 
#    0.000    0.000    0.000    0.000    0.000    0.000 
#
# Total GULP energy -222769.420607 kJ/mol
# GULP energy per Si atom -5569.235515 kJ/mol
# Density = 2.108665 g / cm^3
# Si number density = 21.134756 Si / 1000 Ang^3
#
#
#
# Elastic Constant Matrix: (Units=GPa)
#
#
# Indices 1 2 3 4 5 6 
#
# 1 43.8072 12.2977 26.0827 0.0000 0.0000 0.0000
# 2 12.2977 50.2443 -8.0431 0.0000 0.0000 0.0000
# 3 26.0827 -8.0431 71.0499 0.0000 0.0000 0.0000
# 4 0.0000 0.0000 0.0000 25.4954 0.0000 0.0000
# 5 0.0000 0.0000 0.0000 0.0000 19.6091 0.0000
# 6 0.0000 0.0000 0.0000 0.0000 0.0000 14.4654
#
#
#
# Elastic Compliance Matrix: (Units=1/GPa)
#
#
# Indices 1 2 3 4 5 6 
#
# 1 0.033878 -0.010473 -0.013622 0.000000 0.000000 0.000000
# 2 -0.010473 0.023507 0.006506 0.000000 0.000000 0.000000
# 3 -0.013622 0.006506 0.019812 0.000000 0.000000 0.000000
# 4 0.000000 0.000000 0.000000 0.039223 0.000000 0.000000
# 5 0.000000 0.000000 0.000000 0.000000 0.050997 0.000000
# 6 0.000000 0.000000 0.000000 0.000000 0.000000 0.069130
#
#
# Mechanical properties :
#
#
# Convention : Reuss Voigt Hill
#
# Bulk Modulus (GPa) = 23.79885 25.08624 24.44254
# Shear Modulus (GPa) = 17.49896 20.89825 19.19861
#
# Velocity S-wave (km/s) = 2.88057 3.14795 3.01722
# Velocity P-wave (km/s) = 4.72743 5.01081 4.87118
#
# Compressibility (1/GPa) = 0.04201884
#
# Stress axis : x y z
#
# Youngs Moduli (GPa) = 29.51792 42.53977 50.47496
#
# Poissons Ratio (x) = 0.44550 0.68758
# Poissons Ratio (y) = 0.30913 -0.32837
# Poissons Ratio (z) = 0.40210 -0.27675
#
# Static dielectric constant tensor:
#      x y z
#    x 1.961420 0.000000 0.000000 
#    y 0.000000 1.777960 0.000000 
#    z 0.000000 0.000000 -0.748770 
# 
# From -- ./inp_files/22723.got.cif
#   From: 2010.05.17/outbox.cif.g08.bks.cpg/sg48_12_cif.got.tgz:22723.got - 2010.06.03 20:39:00.
