data_PCOD9391164
_publ_section_title
;
Structure prediction by ZEFSAII (Michael W. Deem and Ramdas Pophale) SiO2 
 PCOD9391164
Probable space group: P N N N
;
_chemical_formula_sum "Si O2"
_cell_formula_units_Z 48
_cell_length_a 24.595896
_cell_length_b 6.212016
_cell_length_c 14.549353
_cell_angle_alpha 90.000000
_cell_angle_beta 90.000000
_cell_angle_gamma 90.000000
_cell_volume 2222.997092
_symmetry_space_group_name_H-M "P N N N"
_symmetry_group_IT_number 48
_space_group.IT_coordinate_system_code '2'
_symmetry_cell_setting 'orthorhombic'
loop_
_space_group_symop_operation_xyz
x,y,z
1/2-x,1/2-y,z
x,1/2-y,1/2-z
1/2-x,y,1/2-z
-x,-y,-z
1/2+x,1/2+y,-z
-x,1/2+y,1/2+z
1/2+x,-y,1/2+z
loop_
_atom_site_type_symbol
_atom_site_label
_atom_site_fract_x
_atom_site_fract_y
_atom_site_fract_z
Si Si1 0.398336 0.147013 0.649932
Si Si2 0.508482 0.907052 0.661498
Si Si3 0.750000 0.250000 0.902196
Si Si4 0.805661 0.621479 0.496549
Si Si5 0.922299 0.250000 0.750000
Si Si6 0.349347 0.022322 0.131841
Si Si7 0.558055 0.597075 0.512375
O O1 0.389095 0.250000 0.750000
O O2 0.344167 0.095140 0.591561
O O3 0.423192 0.333050 0.586939
O O4 0.444409 0.959819 0.647836
O O5 0.512634 0.750000 0.750000
O O6 0.543409 0.794506 0.581193
O O7 0.536767 0.137454 0.679098
O O8 0.708283 0.092649 0.852124
O O9 0.711289 0.392840 0.965076
O O10 0.750000 0.750000 0.473960
O O11 0.833319 0.751608 0.582658
O O12 0.883971 0.451053 0.779487
O O13 0.394519 0.950874 0.056018
O O14 0.500000 0.500000 0.500000
#
# Coordination Sequence:
#
# PCOD9391164 Si02
#       7
#     8   8   4   8   4   8   8
#     4  11  23  41  67  97 136 178 228 287 346 414
#     4  12  24  42  63 103 144 181 230 283 346 441
#     4  10  22  43  72  95 128 176 242 278 345 425
#     4   9  22  45  68  97 129 179 230 293 348 413
#     4  12  24  41  68 102 143 182 222 282 358 422
#     4  10  23  40  67  96 134 176 224 284 343 410
#     4  11  23  41  67  98 137 184 223 280 358 416
#
# _framework density 21.592471
#
# number of rings (size 3 to 8) (size 9 to 14) (size 15 to 20)
#    0.000    1.333    2.500    2.500    7.000    0.667 
#    3.000    0.000    3.667    1.000    0.000    0.000 
#    0.000    0.000    0.000    0.000    0.000    0.000 
#
# Total GULP energy -267341.916836 kJ/mol
# GULP energy per Si atom -5569.623267 kJ/mol
# Density = 2.154333 g / cm^3
# Si number density = 21.592471 Si / 1000 Ang^3
#
#
#
# Elastic Constant Matrix: (Units=GPa)
#
#
# Indices 1 2 3 4 5 6 
#
# 1 131.5802 27.4101 14.4962 0.0000 0.0000 0.0000
# 2 27.4101 37.4149 14.2712 0.0000 0.0000 0.0000
# 3 14.4962 14.2712 61.3504 0.0000 0.0000 0.0000
# 4 0.0000 0.0000 0.0000 26.6895 0.0000 0.0000
# 5 0.0000 0.0000 0.0000 0.0000 44.3817 0.0000
# 6 0.0000 0.0000 0.0000 0.0000 0.0000 48.4906
#
#
#
# Elastic Compliance Matrix: (Units=1/GPa)
#
#
# Indices 1 2 3 4 5 6 
#
# 1 0.008992 -0.006340 -0.000650 0.000000 0.000000 0.000000
# 2 -0.006340 0.033799 -0.006364 0.000000 0.000000 0.000000
# 3 -0.000650 -0.006364 0.017934 0.000000 0.000000 0.000000
# 4 0.000000 0.000000 0.000000 0.037468 0.000000 0.000000
# 5 0.000000 0.000000 0.000000 0.000000 0.022532 0.000000
# 6 0.000000 0.000000 0.000000 0.000000 0.000000 0.020623
#
#
# Mechanical properties :
#
#
# Convention : Reuss Voigt Hill
#
# Bulk Modulus (GPa) = 29.39688 38.07783 33.73735
# Shear Modulus (GPa) = 27.87148 35.52356 31.69752
#
# Velocity S-wave (km/s) = 3.59666 4.06049 3.83559
# Velocity P-wave (km/s) = 5.55805 6.29734 5.93921
#
# Compressibility (1/GPa) = 0.03401722
#
# Stress axis : x y z
#
# Youngs Moduli (GPa) = 111.20754 29.58639 55.76045
#
# Poissons Ratio (x) = 0.18757 0.03624
# Poissons Ratio (y) = 0.70503 0.35488
# Poissons Ratio (z) = 0.07228 0.18830
#
# Static dielectric constant tensor:
#      x y z
#    x 1.797780 0.000000 0.000000 
#    y 0.000000 1.763200 0.000000 
#    z 0.000000 0.000000 1.931780 
# 
# From -- ./inp_files/28773.got.cif
#   From: 2010.05.17/outbox.cif.g08.bks.cpg/sg48_15_cif.got.tgz:28773.got - 2010.06.03 20:39:00.
