data_PCOD9391096
_publ_section_title
;
Structure prediction by ZEFSAII (Michael W. Deem and Ramdas Pophale) SiO2 
 PCOD9391096
Probable space group: P N N N
;
_chemical_formula_sum "Si O2"
_cell_formula_units_Z 52
_cell_length_a 17.428470
_cell_length_b 5.624550
_cell_length_c 21.895083
_cell_angle_alpha 90.000000
_cell_angle_beta 90.000000
_cell_angle_gamma 90.000000
_cell_volume 2146.315890
_symmetry_space_group_name_H-M "P N N N"
_symmetry_group_IT_number 48
_space_group.IT_coordinate_system_code '2'
_symmetry_cell_setting 'orthorhombic'
loop_
_space_group_symop_operation_xyz
x,y,z
1/2-x,1/2-y,z
x,1/2-y,1/2-z
1/2-x,y,1/2-z
-x,-y,-z
1/2+x,1/2+y,-z
-x,1/2+y,1/2+z
1/2+x,-y,1/2+z
loop_
_atom_site_type_symbol
_atom_site_label
_atom_site_fract_x
_atom_site_fract_y
_atom_site_fract_z
Si Si1 0.843631 0.851427 0.817512
Si Si2 0.599765 0.045324 0.909771
Si Si3 0.750000 0.250000 0.871197
Si Si4 0.656803 0.000887 0.287649
Si Si5 0.351209 0.494236 0.540743
Si Si6 0.504746 0.162199 0.680421
Si Si7 0.181941 0.994540 0.916596
O O1 0.839046 0.750000 0.750000
O O2 0.864207 0.666912 0.870521
O O3 0.771105 0.021250 0.830442
O O4 0.919578 0.008384 0.818839
O O5 0.672433 0.226608 0.909612
O O6 0.526548 0.145274 0.872314
O O7 0.597040 0.978991 0.980224
O O8 0.660813 0.250000 0.250000
O O9 0.665517 0.750000 0.250000
O O10 0.573913 0.983966 0.321332
O O11 0.712017 0.007782 0.346542
O O12 0.256783 0.499923 0.538766
O O13 0.361990 0.242461 0.574084
O O14 0.364552 0.752261 0.570840
O O15 0.501147 0.250000 0.750000
#
# Coordination Sequence:
#
# PCOD9391096 Si02
#       7
#     8   8   4   8   8   8   8
#     4  11  22  37  55  84 128 169 226 290 335 396
#     4  11  23  38  62  87 127 181 227 268 340 397
#     4  10  24  33  50  84 118 162 227 270 338 388
#     4  11  24  44  76 104 133 172 218 280 354 410
#     4  10  23  41  66  94 136 181 216 275 331 404
#     4  10  22  41  62  94 129 172 226 286 336 398
#     4  10  22  44  68 100 136 173 224 274 337 409
#
# _framework density 24.227564000000001
#
# number of rings (size 3 to 8) (size 9 to 14) (size 15 to 20)
#    0.000    1.538    1.538    2.769   10.769    1.846 
#    0.000   10.769    0.000    0.000    0.000    0.000 
#    0.000    0.000    0.000    0.000    0.000    0.000 
#
# Total GULP energy -289851.640806 kJ/mol
# GULP energy per Si atom -5574.070016 kJ/mol
# Density = 2.417242 g / cm^3
# Si number density = 24.227564 Si / 1000 Ang^3
#
#
#
# Elastic Constant Matrix: (Units=GPa)
#
#
# Indices 1 2 3 4 5 6 
#
# 1 89.9665 7.6341 10.9174 0.0000 0.0000 0.0000
# 2 7.6341 180.3499 74.4245 0.0000 0.0000 0.0000
# 3 10.9174 74.4245 143.2292 0.0000 0.0000 0.0000
# 4 0.0000 0.0000 0.0000 42.3205 0.0000 0.0000
# 5 0.0000 0.0000 0.0000 0.0000 29.8972 0.0000
# 6 0.0000 0.0000 0.0000 0.0000 0.0000 7.3483
#
#
#
# Elastic Compliance Matrix: (Units=1/GPa)
#
#
# Indices 1 2 3 4 5 6 
#
# 1 0.011222 -0.000155 -0.000775 0.000000 0.000000 0.000000
# 2 -0.000155 0.007060 -0.003657 0.000000 0.000000 0.000000
# 3 -0.000775 -0.003657 0.008941 0.000000 0.000000 0.000000
# 4 0.000000 0.000000 0.000000 0.023629 0.000000 0.000000
# 5 0.000000 0.000000 0.000000 0.000000 0.033448 0.000000
# 6 0.000000 0.000000 0.000000 0.000000 0.000000 0.136086
#
#
# Mechanical properties :
#
#
# Convention : Reuss Voigt Hill
#
# Bulk Modulus (GPa) = 55.40147 66.61086 61.00616
# Shear Modulus (GPa) = 21.22439 37.28449 29.25444
#
# Velocity S-wave (km/s) = 2.96301 3.92717 3.47866
# Velocity P-wave (km/s) = 5.88411 6.93665 6.43194
#
# Compressibility (1/GPa) = 0.01805006
#
# Stress axis : x y z
#
# Youngs Moduli (GPa) = 89.10720 141.63452 111.84372
#
# Poissons Ratio (x) = 0.02200 0.08664
# Poissons Ratio (y) = 0.01384 0.40900
# Poissons Ratio (z) = 0.06903 0.51794
#
# Static dielectric constant tensor:
#      x y z
#    x 2.159140 0.000000 0.000000 
#    y 0.000000 2.179100 0.000000 
#    z 0.000000 0.000000 2.145430 
# 
# From -- ./inp_files/34813.got.cif
#   From: 2010.05.17/outbox.cif.g08.bks.cpg/sg48_18_cif.got.tgz:34813.got - 2010.06.03 20:39:00.
