data_PCOD9391371
_publ_section_title
;
Structure prediction by ZEFSAII (Michael W. Deem and Ramdas Pophale) SiO2 
 PCOD9391371
Probable space group: P N N N
;
_chemical_formula_sum "Si O2"
_cell_formula_units_Z 52
_cell_length_a 8.954938
_cell_length_b 13.292279
_cell_length_c 20.113931
_cell_angle_alpha 90.000000
_cell_angle_beta 90.000000
_cell_angle_gamma 90.000000
_cell_volume 2394.192068
_symmetry_space_group_name_H-M "P N N N"
_symmetry_group_IT_number 48
_space_group.IT_coordinate_system_code '2'
_symmetry_cell_setting 'orthorhombic'
loop_
_space_group_symop_operation_xyz
x,y,z
1/2-x,1/2-y,z
x,1/2-y,1/2-z
1/2-x,y,1/2-z
-x,-y,-z
1/2+x,1/2+y,-z
-x,1/2+y,1/2+z
1/2+x,-y,1/2+z
loop_
_atom_site_type_symbol
_atom_site_label
_atom_site_fract_x
_atom_site_fract_y
_atom_site_fract_z
Si Si1 0.573272 0.254903 0.114175
Si Si2 0.819550 0.593940 0.366037
Si Si3 0.750000 0.750000 0.250000
Si Si4 0.493239 0.568459 0.433848
Si Si5 0.894756 0.923327 0.662763
Si Si6 0.750000 0.750000 0.750000
Si Si7 0.590704 0.411661 0.216527
Si Si8 0.924342 0.779557 0.015410
O O1 0.750000 0.250000 0.106621
O O2 0.507642 0.143611 0.118337
O O3 0.538228 0.307973 0.184368
O O4 0.496560 0.311917 0.053524
O O5 0.822998 0.671863 0.303474
O O6 0.650203 0.574728 0.392334
O O7 0.884591 0.489592 0.341815
O O8 0.912262 0.640248 0.426325
O O9 0.500000 0.500000 0.500000
O O10 0.369049 0.519377 0.384507
O O11 0.481480 0.683277 0.458925
O O12 0.787098 0.838562 0.693113
O O13 0.983357 0.957162 0.728430
O O14 0.750000 0.392895 0.250000
O O15 0.750000 0.750000 0.002882
#
# Coordination Sequence:
#
# PCOD9391371 Si02
#       8
#     8   8   2   8   8   2   8   8
#     4  12  23  38  63  91 132 177 214 270 327 399
#     4  11  22  38  66 100 126 163 220 279 326 388
#     4  12  16  36  66  96 132 152 218 280 322 380
#     4  11  20  38  62  89 123 171 213 264 325 400
#     4  12  24  40  62  91 127 166 218 266 330 394
#     4  12  28  40  60  96 134 172 210 282 336 396
#     4  12  22  38  63  94 123 158 214 271 329 386
#     4  10  24  42  63  97 131 170 220 272 330 394
#
# _framework density 21.719225999999999
#
# number of rings (size 3 to 8) (size 9 to 14) (size 15 to 20)
#    0.000    0.615    9.231    0.000    1.077    0.615 
#    0.000    1.538    0.000    0.000    0.000    0.000 
#    0.000    0.000    0.000    0.000    0.000    0.000 
#
# Total GULP energy -289823.845693 kJ/mol
# GULP energy per Si atom -5573.535494 kJ/mol
# Density = 2.166979 g / cm^3
# Si number density = 21.719226 Si / 1000 Ang^3
#
#
#
# Elastic Constant Matrix: (Units=GPa)
#
#
# Indices 1 2 3 4 5 6 
#
# 1 38.2384 6.1007 17.7763 0.0000 0.0000 0.0000
# 2 6.1007 77.4616 36.8142 0.0000 0.0000 0.0000
# 3 17.7763 36.8142 152.6213 0.0000 0.0000 0.0000
# 4 0.0000 0.0000 0.0000 48.5770 0.0000 0.0000
# 5 0.0000 0.0000 0.0000 0.0000 21.4957 0.0000
# 6 0.0000 0.0000 0.0000 0.0000 0.0000 11.1375
#
#
#
# Elastic Compliance Matrix: (Units=1/GPa)
#
#
# Indices 1 2 3 4 5 6 
#
# 1 0.027686 -0.000732 -0.003048 0.000000 0.000000 0.000000
# 2 -0.000732 0.014601 -0.003437 0.000000 0.000000 0.000000
# 3 -0.003048 -0.003437 0.007736 0.000000 0.000000 0.000000
# 4 0.000000 0.000000 0.000000 0.020586 0.000000 0.000000
# 5 0.000000 0.000000 0.000000 0.000000 0.046521 0.000000
# 6 0.000000 0.000000 0.000000 0.000000 0.000000 0.089787
#
#
# Mechanical properties :
#
#
# Convention : Reuss Voigt Hill
#
# Bulk Modulus (GPa) = 28.09847 43.30043 35.69945
# Shear Modulus (GPa) = 21.43974 30.08403 25.76189
#
# Velocity S-wave (km/s) = 3.14527 3.72578 3.44776
# Velocity P-wave (km/s) = 5.11425 6.20389 5.68524
#
# Compressibility (1/GPa) = 0.03558912
#
# Stress axis : x y z
#
# Youngs Moduli (GPa) = 36.11999 68.49065 129.26343
#
# Poissons Ratio (x) = 0.05012 0.39401
# Poissons Ratio (y) = 0.02643 0.44423
# Poissons Ratio (z) = 0.11010 0.23537
#
# Static dielectric constant tensor:
#      x y z
#    x 1.898590 0.000000 0.000000 
#    y 0.000000 1.812260 0.000000 
#    z 0.000000 0.000000 1.791390 
# 
# From -- ./inp_files/33570.got.cif
#   From: 2010.05.17/outbox.cif.g08.bks.cpg/sg48_17_cif.got.tgz:33570.got - 2010.06.03 20:39:00.
