data_PCOD9391215
_publ_section_title
;
Structure prediction by ZEFSAII (Michael W. Deem and Ramdas Pophale) SiO2 
 PCOD9391215
Probable space group: P N N N
;
_chemical_formula_sum "Si O2"
_cell_formula_units_Z 28
_cell_length_a 14.716776
_cell_length_b 5.263299
_cell_length_c 15.956907
_cell_angle_alpha 90.000000
_cell_angle_beta 90.000000
_cell_angle_gamma 90.000000
_cell_volume 1236.002747
_symmetry_space_group_name_H-M "P N N N"
_symmetry_group_IT_number 48
_space_group.IT_coordinate_system_code '2'
_symmetry_cell_setting 'orthorhombic'
loop_
_space_group_symop_operation_xyz
x,y,z
1/2-x,1/2-y,z
x,1/2-y,1/2-z
1/2-x,y,1/2-z
-x,-y,-z
1/2+x,1/2+y,-z
-x,1/2+y,1/2+z
1/2+x,-y,1/2+z
loop_
_atom_site_type_symbol
_atom_site_label
_atom_site_fract_x
_atom_site_fract_y
_atom_site_fract_z
Si Si1 0.959787 0.250000 0.750000
Si Si2 0.190643 0.503898 0.354119
Si Si3 0.392543 0.806397 0.524606
Si Si4 0.431305 0.299701 0.588379
O O1 0.896687 0.463398 0.705421
O O2 0.018133 0.132370 0.674434
O O3 0.250000 0.750000 0.334835
O O4 0.160415 0.558157 0.449223
O O5 0.250000 0.250000 0.346227
O O6 0.366664 0.526693 0.557285
O O7 0.491730 0.748667 0.483407
O O8 0.391730 0.016976 0.596786
#
# Coordination Sequence:
#
# PCOD9391215 Si02
#       4
#     4   8   8   8
#     4  10  23  36  56  88 121 148 184 240 310 350
#     4  11  23  37  55  82 121 160 187 223 283 363
#     4   9  18  34  53  75 105 150 196 226 267 327
#     4   9  18  33  54  77 107 143 188 241 278 323
#
# _framework density 22.653673000000001
#
# number of rings (size 3 to 8) (size 9 to 14) (size 15 to 20)
#    0.000    2.286    0.000    2.143    0.000   12.571 
#    0.000    0.000    0.000    0.000    0.000   15.000 
#    0.000    0.000    0.000    0.000    0.000    0.000 
#
# Total GULP energy -156136.578726 kJ/mol
# GULP energy per Si atom -5576.306383 kJ/mol
# Density = 2.260211 g / cm^3
# Si number density = 22.653673 Si / 1000 Ang^3
#
#
#
# Elastic Constant Matrix: (Units=GPa)
#
#
# Indices 1 2 3 4 5 6 
#
# 1 32.8729 33.9788 37.2598 0.0000 0.0000 0.0000
# 2 33.9788 193.1722 62.5190 0.0000 0.0000 0.0000
# 3 37.2598 62.5190 95.8361 0.0000 0.0000 0.0000
# 4 0.0000 0.0000 0.0000 28.3166 0.0000 0.0000
# 5 0.0000 0.0000 0.0000 0.0000 24.2125 0.0000
# 6 0.0000 0.0000 0.0000 0.0000 0.0000 18.2447
#
#
#
# Elastic Compliance Matrix: (Units=1/GPa)
#
#
# Indices 1 2 3 4 5 6 
#
# 1 0.056266 -0.003571 -0.019546 0.000000 0.000000 0.000000
# 2 -0.003571 0.006789 -0.003040 0.000000 0.000000 0.000000
# 3 -0.019546 -0.003040 0.020017 0.000000 0.000000 0.000000
# 4 0.000000 0.000000 0.000000 0.035315 0.000000 0.000000
# 5 0.000000 0.000000 0.000000 0.000000 0.041301 0.000000
# 6 0.000000 0.000000 0.000000 0.000000 0.000000 0.054810
#
#
# Mechanical properties :
#
#
# Convention : Reuss Voigt Hill
#
# Bulk Modulus (GPa) = 32.51282 65.48849 49.00065
# Shear Modulus (GPa) = 18.04633 26.69634 22.37134
#
# Velocity S-wave (km/s) = 2.82550 3.43659 3.14592
# Velocity P-wave (km/s) = 5.00279 6.68716 5.90534
#
# Compressibility (1/GPa) = 0.03075710
#
# Stress axis : x y z
#
# Youngs Moduli (GPa) = 17.77282 147.29970 49.95772
#
# Poissons Ratio (x) = 0.52604 0.97646
# Poissons Ratio (y) = 0.06347 0.15189
# Poissons Ratio (z) = 0.34738 0.44784
#
# Static dielectric constant tensor:
#      x y z
#    x 1.910150 0.000000 0.000000 
#    y 0.000000 1.927810 0.000000 
#    z 0.000000 0.000000 1.916070 
# 
# From -- ./inp_files/2909.got.cif
#   From: 2010.05.17/outbox.cif.g08.bks.cpg/sg48_2_cif.got.tgz:2909.got - 2010.06.03 20:39:00.
