data_PCOD9391837
_publ_section_title
;
Structure prediction by ZEFSAII (Michael W. Deem and Ramdas Pophale) SiO2 
 PCOD9391837
Probable space group: P N N N
;
_chemical_formula_sum "Si O2"
_cell_formula_units_Z 32
_cell_length_a 15.608919
_cell_length_b 10.624021
_cell_length_c 8.523446
_cell_angle_alpha 90.000000
_cell_angle_beta 90.000000
_cell_angle_gamma 90.000000
_cell_volume 1413.438646
_symmetry_space_group_name_H-M "P N N N"
_symmetry_group_IT_number 48
_space_group.IT_coordinate_system_code '2'
_symmetry_cell_setting 'orthorhombic'
loop_
_space_group_symop_operation_xyz
x,y,z
1/2-x,1/2-y,z
x,1/2-y,1/2-z
1/2-x,y,1/2-z
-x,-y,-z
1/2+x,1/2+y,-z
-x,1/2+y,1/2+z
1/2+x,-y,1/2+z
loop_
_atom_site_type_symbol
_atom_site_label
_atom_site_fract_x
_atom_site_fract_y
_atom_site_fract_z
Si Si1 0.100488 0.750000 0.250000
Si Si2 0.147973 0.225217 0.070203
Si Si3 0.750000 0.250000 0.997902
Si Si4 0.040550 0.077080 0.639142
Si Si5 0.820381 0.997400 0.142097
O O1 0.165272 0.730133 0.106640
O O2 0.034743 0.865774 0.253889
O O3 0.250000 0.250000 0.069283
O O4 0.118373 0.250000 0.250000
O O5 0.096457 0.312483 0.946274
O O6 0.146098 0.082979 0.005046
O O7 0.726356 0.376197 0.089399
O O8 0.099848 0.988042 0.743362
O O9 0.000000 0.000000 0.500000
O O10 0.750000 0.925329 0.250000
#
# Coordination Sequence:
#
# PCOD9391837 Si02
#       5
#     4   8   4   8   8
#     4  11  26  48  69 112 154 200 255 320 386 447
#     4  11  25  44  76 110 145 195 251 310 382 460
#     4  11  29  46  76 106 154 214 256 306 386 468
#     4  12  26  45  77 113 155 195 255 326 388 457
#     4  12  24  48  77 107 153 204 256 307 382 467
#
# _framework density 22.639823
#
# number of rings (size 3 to 8) (size 9 to 14) (size 15 to 20)
#    0.000    0.500    5.000    1.875    3.500    5.000 
#    0.000    0.000    0.000    0.000    0.000    0.000 
#    0.000    0.000    0.000    0.000    0.000    0.000 
#
# Total GULP energy -178789.310562 kJ/mol
# GULP energy per Si atom -5587.165955 kJ/mol
# Density = 2.258829 g / cm^3
# Si number density = 22.639823 Si / 1000 Ang^3
#
#
#
# Elastic Constant Matrix: (Units=GPa)
#
#
# Indices 1 2 3 4 5 6 
#
# 1 144.5055 49.9842 61.2932 0.0000 0.0000 0.0000
# 2 49.9842 128.1833 71.6919 0.0000 0.0000 0.0000
# 3 61.2932 71.6919 143.4494 0.0000 0.0000 0.0000
# 4 0.0000 0.0000 0.0000 36.5266 0.0000 0.0000
# 5 0.0000 0.0000 0.0000 0.0000 8.8917 0.0000
# 6 0.0000 0.0000 0.0000 0.0000 0.0000 28.9048
#
#
#
# Elastic Compliance Matrix: (Units=1/GPa)
#
#
# Indices 1 2 3 4 5 6 
#
# 1 0.008752 -0.001834 -0.002823 0.000000 0.000000 0.000000
# 2 -0.001834 0.011212 -0.004820 0.000000 0.000000 0.000000
# 3 -0.002823 -0.004820 0.010586 0.000000 0.000000 0.000000
# 4 0.000000 0.000000 0.000000 0.027377 0.000000 0.000000
# 5 0.000000 0.000000 0.000000 0.000000 0.112465 0.000000
# 6 0.000000 0.000000 0.000000 0.000000 0.000000 0.034596
#
#
# Mechanical properties :
#
#
# Convention : Reuss Voigt Hill
#
# Bulk Modulus (GPa) = 86.23196 86.89743 86.56470
# Shear Modulus (GPa) = 21.94829 30.40919 26.17874
#
# Velocity S-wave (km/s) = 3.11699 3.66891 3.40415
# Velocity P-wave (km/s) = 7.15021 7.51091 7.33277
#
# Compressibility (1/GPa) = 0.01159663
#
# Stress axis : x y z
#
# Youngs Moduli (GPa) = 114.26117 89.18864 94.46264
#
# Poissons Ratio (x) = 0.16356 0.26667
# Poissons Ratio (y) = 0.20954 0.45531
# Poissons Ratio (z) = 0.32256 0.42989
#
# Static dielectric constant tensor:
#      x y z
#    x 1.891830 0.000000 0.000000 
#    y 0.000000 1.869750 0.000000 
#    z 0.000000 0.000000 1.877720 
# 
# From -- ./inp_files/10309.got.cif
#   From: 2010.05.17/outbox.cif.g08.bks.cpg/sg48_6_cif.got.tgz:10309.got - 2010.06.03 20:39:00.
