data_PCOD9391297
_publ_section_title
;
Structure prediction by ZEFSAII (Michael W. Deem and Ramdas Pophale) SiO2 
 PCOD9391297
Probable space group: P N N N
;
_chemical_formula_sum "Si O2"
_cell_formula_units_Z 64
_cell_length_a 8.276713
_cell_length_b 26.104783
_cell_length_c 15.531763
_cell_angle_alpha 90.000000
_cell_angle_beta 90.000000
_cell_angle_gamma 90.000000
_cell_volume 3355.820622
_symmetry_space_group_name_H-M "P N N N"
_symmetry_group_IT_number 48
_space_group.IT_coordinate_system_code '2'
_symmetry_cell_setting 'orthorhombic'
loop_
_space_group_symop_operation_xyz
x,y,z
1/2-x,1/2-y,z
x,1/2-y,1/2-z
1/2-x,y,1/2-z
-x,-y,-z
1/2+x,1/2+y,-z
-x,1/2+y,1/2+z
1/2+x,-y,1/2+z
loop_
_atom_site_type_symbol
_atom_site_label
_atom_site_fract_x
_atom_site_fract_y
_atom_site_fract_z
Si Si1 0.438486 0.860081 0.595359
Si Si2 0.442084 0.624790 0.397925
Si Si3 0.942414 0.750000 0.849702
Si Si4 0.058835 0.070546 0.250000
Si Si5 0.250000 0.193005 0.646933
Si Si6 0.061514 0.639919 0.904641
Si Si7 0.057916 0.875210 0.102075
Si Si8 0.055827 0.955682 0.250000
O O1 0.505458 0.802363 0.603832
O O2 0.513099 0.896885 0.666508
O O3 0.250000 0.856151 0.614110
O O4 0.457252 0.883323 0.500050
O O5 0.581871 0.665844 0.378059
O O6 0.457252 0.616677 0.500050
O O7 0.250000 0.638707 0.381754
O O8 0.482860 0.577188 0.335376
O O9 0.750000 0.750000 0.845557
O O10 0.003917 0.750000 0.750000
O O11 0.994542 0.697637 0.896168
O O12 0.250000 0.065489 0.250000
O O13 0.013099 0.103115 0.333492
O O14 0.987329 0.013065 0.250000
O O15 0.250000 0.250000 0.609846
O O16 0.250000 0.194872 0.750000
O O17 0.418129 0.165844 0.621941
O O18 0.017140 0.922812 0.164624
O O19 0.250000 0.959369 0.250000
#
# Coordination Sequence:
#
# PCOD9391297 Si02
#       8
#     8   8   8   8   8   8   8   8
#     4  11  24  40  61  93 127 163 207 256 312 381
#     4  10  23  43  65  92 130 169 210 257 317 373
#     4  11  23  39  63  88 122 167 204 250 315 372
#     4  11  23  40  64  91 122 163 212 263 315 367
#     4  11  24  40  64  99 129 165 215 258 310 376
#     4  11  24  40  61  93 127 163 207 256 312 381
#     4  10  23  43  65  92 130 169 210 257 317 373
#     4   9  20  44  67  86 123 167 206 262 317 367
#
# _framework density 19.071341
#
# number of rings (size 3 to 8) (size 9 to 14) (size 15 to 20)
#    0.000    1.500    2.500    1.500    5.250    2.000 
#    4.500    1.250    0.000    0.000    0.000    0.000 
#    0.000    0.000    0.000    0.000    0.000    0.000 
#
# Total GULP energy -357003.210157 kJ/mol
# GULP energy per Si atom -5578.175159 kJ/mol
# Density = 1.902793 g / cm^3
# Si number density = 19.071341 Si / 1000 Ang^3
#
#
#
# Elastic Constant Matrix: (Units=GPa)
#
#
# Indices 1 2 3 4 5 6 
#
# 1 87.3565 57.6383 49.0942 0.0000 0.0000 0.0000
# 2 57.6383 174.6042 76.4323 0.0000 0.0000 0.0000
# 3 49.0942 76.4323 122.6772 0.0000 0.0000 0.0000
# 4 0.0000 0.0000 0.0000 -3.3995 0.0000 0.0000
# 5 0.0000 0.0000 0.0000 0.0000 27.7927 0.0000
# 6 0.0000 0.0000 0.0000 0.0000 0.0000 12.7298
#
#
#
# Elastic Compliance Matrix: (Units=1/GPa)
#
#
# Indices 1 2 3 4 5 6 
#
# 1 0.016143 -0.003439 -0.004318 0.000000 0.000000 0.000000
# 2 -0.003439 0.008608 -0.003987 0.000000 0.000000 0.000000
# 3 -0.004318 -0.003987 0.012363 0.000000 0.000000 0.000000
# 4 0.000000 0.000000 0.000000 -0.294162 0.000000 0.000000
# 5 0.000000 0.000000 0.000000 0.000000 0.035981 0.000000
# 6 0.000000 0.000000 0.000000 0.000000 0.000000 0.078556
#
#
# Mechanical properties :
#
#
# Convention : Reuss Voigt Hill
#
# Bulk Modulus (GPa) = 73.38224 83.44085 78.41154
# Shear Modulus (GPa) = -43.67473 20.85614 -11.40929
#
# Velocity S-wave (km/s) = -4.79066 3.31053 -2.44855
# Velocity P-wave (km/s) = 2.82147 7.64590 5.76283
#
# Compressibility (1/GPa) = 0.01362727
#
# Stress axis : x y z
#
# Youngs Moduli (GPa) = 61.94695 116.17687 80.88533
#
# Poissons Ratio (x) = 0.39951 0.34924
# Poissons Ratio (y) = 0.21303 0.32246
# Poissons Ratio (z) = 0.26747 0.46315
#
# Static dielectric constant tensor:
#      x y z
#    x 1.669750 0.000000 0.000000 
#    y 0.000000 1.748840 0.000000 
#    z 0.000000 0.000000 1.674280 
# 
# From -- ./inp_files/25753.got.cif
#   From: 2010.05.17/outbox.cif.g08.bks.cpg/sg48_13_cif.got.tgz:25753.got - 2010.06.03 20:39:00.
