data_PCOD9391148
_publ_section_title
;
Structure prediction by ZEFSAII (Michael W. Deem and Ramdas Pophale) SiO2 
 PCOD9391148
Probable space group: P N N N
;
_chemical_formula_sum "Si O2"
_cell_formula_units_Z 48
_cell_length_a 25.505487
_cell_length_b 5.147662
_cell_length_c 15.116990
_cell_angle_alpha 90.000000
_cell_angle_beta 90.000000
_cell_angle_gamma 90.000000
_cell_volume 1984.764435
_symmetry_space_group_name_H-M "P N N N"
_symmetry_group_IT_number 48
_space_group.IT_coordinate_system_code '2'
_symmetry_cell_setting 'orthorhombic'
loop_
_space_group_symop_operation_xyz
x,y,z
1/2-x,1/2-y,z
x,1/2-y,1/2-z
1/2-x,y,1/2-z
-x,-y,-z
1/2+x,1/2+y,-z
-x,1/2+y,1/2+z
1/2+x,-y,1/2+z
loop_
_atom_site_type_symbol
_atom_site_label
_atom_site_fract_x
_atom_site_fract_y
_atom_site_fract_z
Si Si1 0.833836 0.253976 0.055879
Si Si2 0.854109 0.250000 0.250000
Si Si3 0.064003 0.127370 0.341677
Si Si4 0.368081 0.750000 0.250000
Si Si5 0.394301 0.275873 0.975303
Si Si6 0.714556 0.011854 0.623982
Si Si7 0.453929 0.051345 0.820573
O O1 0.819404 0.223260 0.160462
O O2 0.847557 0.555883 0.035990
O O3 0.884653 0.069725 0.054556
O O4 0.802968 0.103964 0.976581
O O5 0.897981 0.464761 0.221565
O O6 0.078482 0.250000 0.250000
O O7 0.088546 0.262864 0.425013
O O8 0.094118 0.854018 0.328817
O O9 0.001067 0.140025 0.343093
O O10 0.331175 0.959470 0.302463
O O11 0.439728 0.176968 0.912671
O O12 0.750000 0.250000 0.650982
O O13 0.750000 0.750000 0.622878
O O14 0.477396 0.250000 0.750000
#
# Coordination Sequence:
#
# PCOD9391148 Si02
#       7
#     8   4   8   4   8   8   8
#     4  11  23  46  74 103 135 183 230 293 363 421
#     4  10  22  42  71 102 142 184 233 278 354 422
#     4  12  25  41  67 100 150 193 245 286 335 416
#     4  12  27  46  68 102 138 200 232 298 361 424
#     4  11  24  42  69 100 146 189 237 281 345 415
#     4  12  28  50  74 102 138 179 240 304 368 439
#     4  11  21  41  63 105 142 192 235 287 332 406
#
# _framework density 24.184231
#
# number of rings (size 3 to 8) (size 9 to 14) (size 15 to 20)
#    0.000    0.667    5.000    2.750    2.333    0.667 
#    0.000    3.750    0.000    1.000    0.000    0.000 
#    0.000    0.000    0.000    0.000    0.000    0.000 
#
# Total GULP energy -267450.994930 kJ/mol
# GULP energy per Si atom -5571.895728 kJ/mol
# Density = 2.412919 g / cm^3
# Si number density = 24.184231 Si / 1000 Ang^3
#
#
#
# Elastic Constant Matrix: (Units=GPa)
#
#
# Indices 1 2 3 4 5 6 
#
# 1 74.1616 14.7134 21.6167 0.0000 0.0000 0.0000
# 2 14.7134 74.2650 2.9654 0.0000 0.0000 0.0000
# 3 21.6167 2.9654 171.6094 0.0000 0.0000 0.0000
# 4 0.0000 0.0000 0.0000 35.9636 0.0000 0.0000
# 5 0.0000 0.0000 0.0000 0.0000 43.8244 0.0000
# 6 0.0000 0.0000 0.0000 0.0000 0.0000 57.1337
#
#
#
# Elastic Compliance Matrix: (Units=1/GPa)
#
#
# Indices 1 2 3 4 5 6 
#
# 1 0.014563 -0.002814 -0.001786 0.000000 0.000000 0.000000
# 2 -0.002814 0.014018 0.000112 0.000000 0.000000 0.000000
# 3 -0.001786 0.000112 0.006050 0.000000 0.000000 0.000000
# 4 0.000000 0.000000 0.000000 0.027806 0.000000 0.000000
# 5 0.000000 0.000000 0.000000 0.000000 0.022818 0.000000
# 6 0.000000 0.000000 0.000000 0.000000 0.000000 0.017503
#
#
# Mechanical properties :
#
#
# Convention : Reuss Voigt Hill
#
# Bulk Modulus (GPa) = 38.97659 44.29191 41.63425
# Shear Modulus (GPa) = 41.56779 46.10038 43.83408
#
# Velocity S-wave (km/s) = 4.15034 4.37076 4.26197
# Velocity P-wave (km/s) = 6.25448 6.62009 6.43988
#
# Compressibility (1/GPa) = 0.02565643
#
# Stress axis : x y z
#
# Youngs Moduli (GPa) = 68.66785 71.33528 165.28402
#
# Poissons Ratio (x) = 0.20073 0.29516
# Poissons Ratio (y) = 0.19322 -0.01855
# Poissons Ratio (z) = 0.12263 -0.00800
#
# Static dielectric constant tensor:
#      x y z
#    x 1.924020 0.000000 0.000000 
#    y 0.000000 1.358510 0.000000 
#    z 0.000000 0.000000 1.933230 
# 
# From -- ./inp_files/28774.got.cif
#   From: 2010.05.17/outbox.cif.g08.bks.cpg/sg48_15_cif.got.tgz:28774.got - 2010.06.03 20:39:00.
