data_PCOD9391461
_publ_section_title
;
Structure prediction by ZEFSAII (Michael W. Deem and Ramdas Pophale) SiO2 
 PCOD9391461
Probable space group: P N N N
;
_chemical_formula_sum "Si O2"
_cell_formula_units_Z 48
_cell_length_a 14.470834
_cell_length_b 5.263695
_cell_length_c 27.850184
_cell_angle_alpha 90.000000
_cell_angle_beta 90.000000
_cell_angle_gamma 90.000000
_cell_volume 2121.350091
_symmetry_space_group_name_H-M "P N N N"
_symmetry_group_IT_number 48
_space_group.IT_coordinate_system_code '2'
_symmetry_cell_setting 'orthorhombic'
loop_
_space_group_symop_operation_xyz
x,y,z
1/2-x,1/2-y,z
x,1/2-y,1/2-z
1/2-x,y,1/2-z
-x,-y,-z
1/2+x,1/2+y,-z
-x,1/2+y,1/2+z
1/2+x,-y,1/2+z
loop_
_atom_site_type_symbol
_atom_site_label
_atom_site_fract_x
_atom_site_fract_y
_atom_site_fract_z
Si Si1 0.564652 0.292341 0.474074
Si Si2 0.750000 0.750000 0.879622
Si Si3 0.415894 0.539062 0.345384
Si Si4 0.095161 0.934713 0.067509
Si Si5 0.153966 0.123728 0.816328
Si Si6 0.398965 0.636101 0.629340
Si Si7 0.996194 0.750000 0.250000
O O1 0.500000 0.500000 0.500000
O O2 0.626419 0.194655 0.517675
O O3 0.616632 0.391354 0.427273
O O4 0.497225 0.079241 0.450443
O O5 0.812117 0.563650 0.847712
O O6 0.675786 0.611022 0.912880
O O7 0.424798 0.736479 0.389734
O O8 0.492018 0.322832 0.357935
O O9 0.442378 0.645498 0.293293
O O10 0.250000 0.250000 0.799872
O O11 0.117024 0.362003 0.847068
O O12 0.079051 0.063125 0.774916
O O13 0.157109 0.870209 0.848138
#
# Coordination Sequence:
#
# PCOD9391461 Si02
#       7
#     8   4   8   8   8   8   4
#     4  11  21  39  72 100 135 197 243 284 363 441
#     4  12  24  44  71  96 150 190 256 317 364 432
#     4  11  24  45  71 102 142 195 243 313 370 445
#     4  11  23  42  67 100 144 186 249 301 365 425
#     4  11  25  47  73 109 145 183 233 307 373 451
#     4  11  23  44  75 104 148 187 240 293 371 444
#     4  10  25  46  79  98 140 182 246 293 385 446
#
# _framework density 22.627101
#
# number of rings (size 3 to 8) (size 9 to 14) (size 15 to 20)
#    0.000    1.000    3.333    3.250    2.333    2.667 
#    1.500    9.167    0.000    0.000    0.000    0.000 
#    0.000    0.000    0.000    0.000    0.000    0.000 
#
# Total GULP energy -267991.565144 kJ/mol
# GULP energy per Si atom -5583.157607 kJ/mol
# Density = 2.257560 g / cm^3
# Si number density = 22.627101 Si / 1000 Ang^3
#
#
#
# Elastic Constant Matrix: (Units=GPa)
#
#
# Indices 1 2 3 4 5 6 
#
# 1 110.1035 38.5228 59.4446 0.0000 0.0000 0.0000
# 2 38.5228 98.6702 54.2162 0.0000 0.0000 0.0000
# 3 59.4446 54.2162 208.8961 0.0000 0.0000 0.0000
# 4 0.0000 0.0000 0.0000 13.9532 0.0000 0.0000
# 5 0.0000 0.0000 0.0000 0.0000 10.4907 0.0000
# 6 0.0000 0.0000 0.0000 0.0000 0.0000 38.4510
#
#
#
# Elastic Compliance Matrix: (Units=1/GPa)
#
#
# Indices 1 2 3 4 5 6 
#
# 1 0.011510 -0.003142 -0.002460 0.000000 0.000000 0.000000
# 2 -0.003142 0.012678 -0.002396 0.000000 0.000000 0.000000
# 3 -0.002460 -0.002396 0.006109 0.000000 0.000000 0.000000
# 4 0.000000 0.000000 0.000000 0.071668 0.000000 0.000000
# 5 0.000000 0.000000 0.000000 0.000000 0.095323 0.000000
# 6 0.000000 0.000000 0.000000 0.000000 0.000000 0.026007
#
#
# Mechanical properties :
#
#
# Convention : Reuss Voigt Hill
#
# Bulk Modulus (GPa) = 69.92737 80.22633 75.07685
# Shear Modulus (GPa) = 20.48692 30.27805 25.38248
#
# Velocity S-wave (km/s) = 3.01228 3.66202 3.35292
# Velocity P-wave (km/s) = 6.56275 7.30844 6.94561
#
# Compressibility (1/GPa) = 0.01430055
#
# Stress axis : x y z
#
# Youngs Moduli (GPa) = 86.88294 78.87551 163.69346
#
# Poissons Ratio (x) = 0.24783 0.40265
# Poissons Ratio (y) = 0.27299 0.39227
# Poissons Ratio (z) = 0.21371 0.18901
#
# Static dielectric constant tensor:
#      x y z
#    x 1.960800 0.000000 0.000000 
#    y 0.000000 1.930840 0.000000 
#    z 0.000000 0.000000 1.889100 
# 
# From -- ./inp_files/37904.got.cif
#   From: 2010.05.17/outbox.cif.g08.bks.cpg/sg48_19_cif.got.tgz:37904.got - 2010.06.03 20:39:00.
