data_PCOD9391785
_publ_section_title
;
Structure prediction by ZEFSAII (Michael W. Deem and Ramdas Pophale) SiO2 
 PCOD9391785
Probable space group: P N N N
;
_chemical_formula_sum "Si O2"
_cell_formula_units_Z 54
_cell_length_a 5.393906
_cell_length_b 28.692407
_cell_length_c 14.060633
_cell_angle_alpha 90.000000
_cell_angle_beta 90.000000
_cell_angle_gamma 90.000000
_cell_volume 2176.081862
_symmetry_space_group_name_H-M "P N N N"
_symmetry_group_IT_number 48
_space_group.IT_coordinate_system_code '2'
_symmetry_cell_setting 'orthorhombic'
loop_
_space_group_symop_operation_xyz
x,y,z
1/2-x,1/2-y,z
x,1/2-y,1/2-z
1/2-x,y,1/2-z
-x,-y,-z
1/2+x,1/2+y,-z
-x,1/2+y,1/2+z
1/2+x,-y,1/2+z
loop_
_atom_site_type_symbol
_atom_site_label
_atom_site_fract_x
_atom_site_fract_y
_atom_site_fract_z
Si Si1 0.854174 0.825880 0.624418
Si Si2 0.000399 0.376685 0.809373
Si Si3 0.797189 0.952425 0.437531
Si Si4 0.750000 0.116275 0.250000
Si Si5 0.852906 0.199477 0.558360
Si Si6 0.584313 0.450928 0.371425
Si Si7 0.750000 0.750000 0.750000
Si Si8 0.541039 0.115284 0.482020
O O1 0.668187 0.788973 0.673450
O O2 0.689412 0.867110 0.581146
O O3 0.070840 0.845163 0.693776
O O4 0.984865 0.800038 0.536892
O O5 0.250000 0.383264 0.750000
O O6 0.011066 0.416330 0.890562
O O7 0.750000 0.380587 0.750000
O O8 0.004420 0.325999 0.858639
O O9 0.545924 0.923590 0.444633
O O10 0.875908 0.960061 0.547838
O O11 0.782555 0.999125 0.376860
O O12 0.959926 0.073065 0.270245
O O13 0.750000 0.250000 0.581909
O O14 0.642775 0.160988 0.533584
O O15 0.765719 0.409826 0.412304
#
# Coordination Sequence:
#
# PCOD9391785 Si02
#       8
#     8   8   8   4   8   8   2   8
#     4  12  26  45  71 107 153 196 248 313 380 458
#     4  12  27  52  80 112 152 194 262 338 382 450
#     4  11  24  47  71 108 144 198 246 299 392 455
#     4  12  22  45  62 106 152 186 237 314 368 440
#     4  12  27  49  76 104 148 205 249 309 401 464
#     4  11  24  42  73 103 153 193 245 297 378 464
#     4  12  28  42  72 112 136 192 252 298 360 460
#     4  12  20  49  72 103 144 203 246 301 375 463
#
# _framework density 24.815242000000001
#
# number of rings (size 3 to 8) (size 9 to 14) (size 15 to 20)
#    0.000    0.296    5.926    3.111    3.111    0.296 
#    0.000    2.222    0.000    0.000    0.000    0.000 
#    0.000    0.000    0.000    0.000    0.000    0.000 
#
# Total GULP energy -300719.560368 kJ/mol
# GULP energy per Si atom -5568.880748 kJ/mol
# Density = 2.475876 g / cm^3
# Si number density = 24.815242 Si / 1000 Ang^3
#
#
#
# Elastic Constant Matrix: (Units=GPa)
#
#
# Indices 1 2 3 4 5 6 
#
# 1 82.8223 2.3280 23.2458 0.0000 0.0000 0.0000
# 2 2.3280 113.8633 15.3848 0.0000 0.0000 0.0000
# 3 23.2458 15.3848 65.4007 0.0000 0.0000 0.0000
# 4 0.0000 0.0000 0.0000 32.6130 0.0000 0.0000
# 5 0.0000 0.0000 0.0000 0.0000 20.8203 0.0000
# 6 0.0000 0.0000 0.0000 0.0000 0.0000 23.4045
#
#
#
# Elastic Compliance Matrix: (Units=1/GPa)
#
#
# Indices 1 2 3 4 5 6 
#
# 1 0.013428 0.000383 -0.004863 0.000000 0.000000 0.000000
# 2 0.000383 0.009082 -0.002272 0.000000 0.000000 0.000000
# 3 -0.004863 -0.002272 0.017553 0.000000 0.000000 0.000000
# 4 0.000000 0.000000 0.000000 0.030663 0.000000 0.000000
# 5 0.000000 0.000000 0.000000 0.000000 0.048030 0.000000
# 6 0.000000 0.000000 0.000000 0.000000 0.000000 0.042727
#
#
# Mechanical properties :
#
#
# Convention : Reuss Voigt Hill
#
# Bulk Modulus (GPa) = 37.65363 38.22257 37.93810
# Shear Modulus (GPa) = 27.19746 30.10939 28.65342
#
# Velocity S-wave (km/s) = 3.31418 3.48709 3.40173
# Velocity P-wave (km/s) = 5.46366 5.62577 5.54531
#
# Compressibility (1/GPa) = 0.02655787
#
# Stress axis : x y z
#
# Youngs Moduli (GPa) = 74.47045 110.11191 56.96926
#
# Poissons Ratio (x) = -0.04212 0.27703
# Poissons Ratio (y) = -0.02849 0.12945
# Poissons Ratio (z) = 0.36214 0.25021
#
# Static dielectric constant tensor:
#      x y z
#    x 2.027880 0.000000 0.000000 
#    y 0.000000 1.934070 0.000000 
#    z 0.000000 0.000000 1.246270 
# 
# From -- ./inp_files/24565.got.cif
#   From: 2010.05.17/outbox.cif.g08.bks.cpg/sg48_13_cif.got.tgz:24565.got - 2010.06.03 20:39:00.
