data_PCOD9391663
_publ_section_title
;
Structure prediction by ZEFSAII (Michael W. Deem and Ramdas Pophale) SiO2 
 PCOD9391663
Probable space group: P N N N
;
_chemical_formula_sum "Si O2"
_cell_formula_units_Z 34
_cell_length_a 16.886981
_cell_length_b 14.645904
_cell_length_c 6.704764
_cell_angle_alpha 90.000000
_cell_angle_beta 90.000000
_cell_angle_gamma 90.000000
_cell_volume 1658.256444
_symmetry_space_group_name_H-M "P N N N"
_symmetry_group_IT_number 48
_space_group.IT_coordinate_system_code '2'
_symmetry_cell_setting 'orthorhombic'
loop_
_space_group_symop_operation_xyz
x,y,z
1/2-x,1/2-y,z
x,1/2-y,1/2-z
1/2-x,y,1/2-z
-x,-y,-z
1/2+x,1/2+y,-z
-x,1/2+y,1/2+z
1/2+x,-y,1/2+z
loop_
_atom_site_type_symbol
_atom_site_label
_atom_site_fract_x
_atom_site_fract_y
_atom_site_fract_z
Si Si1 0.250000 0.250000 0.750000
Si Si2 0.637994 0.250000 0.250000
Si Si3 0.750000 0.404516 0.250000
Si Si4 0.464438 0.833735 0.099097
Si Si5 0.635016 0.831596 0.914421
Si Si6 0.172830 0.969970 0.361115
O O1 0.306243 0.304925 0.595538
O O2 0.690031 0.330856 0.152293
O O3 0.585307 0.295926 0.414915
O O4 0.699445 0.461617 0.407084
O O5 0.473256 0.750000 0.250000
O O6 0.408397 0.915271 0.178534
O O7 0.550930 0.856317 0.015717
O O8 0.629678 0.750000 0.750000
O O9 0.662408 0.924338 0.807912
O O10 0.250000 0.931166 0.250000
#
# Coordination Sequence:
#
# PCOD9391663 Si02
#       6
#     2   4   4   8   8   8
#     4  12  24  44  70  86 126 174 216 256 318 366
#     4   9  18  36  62  91 130 162 198 255 316 368
#     4   9  19  36  61  93 126 164 203 253 311 377
#     4  11  22  41  65  94 127 166 207 259 317 376
#     4  12  25  44  65  92 127 169 215 265 310 372
#     4  11  23  40  64  96 128 166 212 259 313 375
#
# _framework density 20.503461999999999
#
# number of rings (size 3 to 8) (size 9 to 14) (size 15 to 20)
#    0.000    1.176    2.353    4.588    0.000    2.353 
#    0.000    1.176    0.000    0.000    0.000    0.000 
#    0.000    0.000    0.000    0.000    0.000    0.000 
#
# Total GULP energy -189634.320637 kJ/mol
# GULP energy per Si atom -5577.480019 kJ/mol
# Density = 2.045680 g / cm^3
# Si number density = 20.503462 Si / 1000 Ang^3
#
#
#
# Elastic Constant Matrix: (Units=GPa)
#
#
# Indices 1 2 3 4 5 6 
#
# 1 140.5941 27.7747 15.8228 0.0000 0.0000 0.0000
# 2 27.7747 76.8305 10.4713 0.0000 0.0000 0.0000
# 3 15.8228 10.4713 39.7882 0.0000 0.0000 0.0000
# 4 0.0000 0.0000 0.0000 24.0569 0.0000 0.0000
# 5 0.0000 0.0000 0.0000 0.0000 41.3222 0.0000
# 6 0.0000 0.0000 0.0000 0.0000 0.0000 13.8494
#
#
#
# Elastic Compliance Matrix: (Units=1/GPa)
#
#
# Indices 1 2 3 4 5 6 
#
# 1 0.007888 -0.002514 -0.002475 0.000000 0.000000 0.000000
# 2 -0.002514 0.014301 -0.002764 0.000000 0.000000 0.000000
# 3 -0.002475 -0.002764 0.026845 0.000000 0.000000 0.000000
# 4 0.000000 0.000000 0.000000 0.041568 0.000000 0.000000
# 5 0.000000 0.000000 0.000000 0.000000 0.024200 0.000000
# 6 0.000000 0.000000 0.000000 0.000000 0.000000 0.072205
#
#
# Mechanical properties :
#
#
# Convention : Reuss Voigt Hill
#
# Bulk Modulus (GPa) = 29.82632 40.59449 35.21041
# Shear Modulus (GPa) = 23.39842 29.38866 26.39354
#
# Velocity S-wave (km/s) = 3.38182 3.79007 3.59175
# Velocity P-wave (km/s) = 5.46146 6.24457 5.86610
#
# Compressibility (1/GPa) = 0.03352743
#
# Stress axis : x y z
#
# Youngs Moduli (GPa) = 126.77619 69.92399 37.25121
#
# Poissons Ratio (x) = 0.17580 0.09220
# Poissons Ratio (y) = 0.31874 0.10296
# Poissons Ratio (z) = 0.31379 0.19326
#
# Static dielectric constant tensor:
#      x y z
#    x 1.791490 0.000000 0.000000 
#    y 0.000000 1.641830 0.000000 
#    z 0.000000 0.000000 1.690190 
# 
# From -- ./inp_files/4070.got.cif
#   From: 2010.05.17/outbox.cif.g08.bks.cpg/sg48_3_cif.got.tgz:4070.got - 2010.06.03 20:39:00.
