data_PCOD9391819
_publ_section_title
;
Structure prediction by ZEFSAII (Michael W. Deem and Ramdas Pophale) SiO2 
 PCOD9391819
Probable space group: P N N N
;
_chemical_formula_sum "Si O2"
_cell_formula_units_Z 30
_cell_length_a 10.292948
_cell_length_b 11.379811
_cell_length_c 9.463231
_cell_angle_alpha 90.000000
_cell_angle_beta 90.000000
_cell_angle_gamma 90.000000
_cell_volume 1108.445308
_symmetry_space_group_name_H-M "P N N N"
_symmetry_group_IT_number 48
_space_group.IT_coordinate_system_code '2'
_symmetry_cell_setting 'orthorhombic'
loop_
_space_group_symop_operation_xyz
x,y,z
1/2-x,1/2-y,z
x,1/2-y,1/2-z
1/2-x,y,1/2-z
-x,-y,-z
1/2+x,1/2+y,-z
-x,1/2+y,1/2+z
1/2+x,-y,1/2+z
loop_
_atom_site_type_symbol
_atom_site_label
_atom_site_fract_x
_atom_site_fract_y
_atom_site_fract_z
Si Si1 0.750000 0.750000 0.250000
Si Si2 0.020621 0.876884 0.695427
Si Si3 0.820195 0.134692 0.902330
Si Si4 0.000000 0.500000 0.500000
Si Si5 0.181173 0.436431 0.977223
O O1 0.816773 0.658604 0.143016
O O2 0.063011 0.750000 0.750000
O O3 0.015355 0.952162 0.835229
O O4 0.882572 0.881014 0.615479
O O5 0.108923 0.947359 0.582295
O O6 0.750000 0.250000 0.960623
O O7 0.750000 0.120231 0.750000
O O8 0.971512 0.142973 0.928294
O O9 0.815824 0.002562 0.977740
#
# Coordination Sequence:
#
# PCOD9391819 Si02
#       5
#     2   8   8   4   8
#     4  12  28  44  76 104 164 198 254 346 404 480
#     4  11  26  46  75 110 150 209 269 326 407 496
#     4  11  24  47  76 115 160 209 273 342 410 504
#     4  12  24  46  78 112 152 214 258 338 410 482
#     4  11  26  48  67 115 151 204 268 331 405 493
#
# _framework density 27.064934000000001
#
# number of rings (size 3 to 8) (size 9 to 14) (size 15 to 20)
#    0.000    0.800    2.667    3.200    7.467    0.000 
#    0.000    2.667    0.000    0.000    0.000    0.000 
#    0.000    0.000    0.000    0.000    0.000    0.000 
#
# Total GULP energy -167055.235501 kJ/mol
# GULP energy per Si atom -5568.507850 kJ/mol
# Density = 2.700333 g / cm^3
# Si number density = 27.064934 Si / 1000 Ang^3
#
#
#
# Elastic Constant Matrix: (Units=GPa)
#
#
# Indices 1 2 3 4 5 6 
#
# 1 95.1585 47.2527 30.0599 0.0000 0.0000 0.0000
# 2 47.2527 185.5591 30.3723 0.0000 0.0000 0.0000
# 3 30.0599 30.3723 136.1599 0.0000 0.0000 0.0000
# 4 0.0000 0.0000 0.0000 9526.6131 0.0000 0.0000
# 5 0.0000 0.0000 0.0000 0.0000 51.3648 0.0000
# 6 0.0000 0.0000 0.0000 0.0000 0.0000 335.0237
#
#
#
# Elastic Compliance Matrix: (Units=1/GPa)
#
#
# Indices 1 2 3 4 5 6 
#
# 1 0.012606 -0.002859 -0.002145 0.000000 0.000000 0.000000
# 2 -0.002859 0.006242 -0.000761 0.000000 0.000000 0.000000
# 3 -0.002145 -0.000761 0.007988 0.000000 0.000000 0.000000
# 4 0.000000 0.000000 0.000000 0.000105 0.000000 0.000000
# 5 0.000000 0.000000 0.000000 0.000000 0.019469 0.000000
# 6 0.000000 0.000000 0.000000 0.000000 0.000000 0.002985
#
#
# Mechanical properties :
#
#
# Convention : Reuss Voigt Hill
#
# Bulk Modulus (GPa) = 65.33936 70.24971 67.79453
# Shear Modulus (GPa) = 75.72714 2003.21316 1039.47015
#
# Velocity S-wave (km/s) = 5.29533 27.23523 19.61884
# Velocity P-wave (km/s) = 7.84739 31.85942 23.20134
#
# Compressibility (1/GPa) = 0.01530471
#
# Stress axis : x y z
#
# Youngs Moduli (GPa) = 79.32626 160.21150 125.19242
#
# Poissons Ratio (x) = 0.45805 0.26858
# Poissons Ratio (y) = 0.22680 0.09529
# Poissons Ratio (z) = 0.17018 0.12194
#
# Static dielectric constant tensor:
#      x y z
#    x 3.038400 0.000000 0.000000 
#    y 0.000000 2.215770 0.000000 
#    z 0.000000 0.000000 2.199010 
# 
# From -- ./inp_files/11923.got.cif
#   From: 2010.05.17/outbox.cif.g08.bks.cpg/sg48_6_cif.got.tgz:11923.got - 2010.06.03 20:39:00.
