data_PCOD9391667
_publ_section_title
;
Structure prediction by ZEFSAII (Michael W. Deem and Ramdas Pophale) SiO2 
 PCOD9391667
Probable space group: P N N N
;
_chemical_formula_sum "Si O2"
_cell_formula_units_Z 58
_cell_length_a 9.260158
_cell_length_b 24.877695
_cell_length_c 11.189933
_cell_angle_alpha 90.000000
_cell_angle_beta 90.000000
_cell_angle_gamma 90.000000
_cell_volume 2577.840379
_symmetry_space_group_name_H-M "P N N N"
_symmetry_group_IT_number 48
_space_group.IT_coordinate_system_code '2'
_symmetry_cell_setting 'orthorhombic'
loop_
_space_group_symop_operation_xyz
x,y,z
1/2-x,1/2-y,z
x,1/2-y,1/2-z
1/2-x,y,1/2-z
-x,-y,-z
1/2+x,1/2+y,-z
-x,1/2+y,1/2+z
1/2+x,-y,1/2+z
loop_
_atom_site_type_symbol
_atom_site_label
_atom_site_fract_x
_atom_site_fract_y
_atom_site_fract_z
Si Si1 0.682107 0.825159 0.059270
Si Si2 0.023974 0.991158 0.682123
Si Si3 0.664165 0.493490 0.065873
Si Si4 0.283058 0.418303 0.389670
Si Si5 0.441411 0.892775 0.168609
Si Si6 0.348329 0.878353 0.441930
Si Si7 0.750000 0.250000 0.750000
Si Si8 0.989265 0.783354 0.074176
O O1 0.595078 0.868263 0.137061
O O2 0.834275 0.807271 0.117347
O O3 0.573165 0.775002 0.035866
O O4 0.719883 0.858292 0.940099
O O5 0.049336 0.995435 0.825106
O O6 0.181701 0.994001 0.629001
O O7 0.945096 0.942021 0.617054
O O8 0.933340 0.043808 0.648706
O O9 0.683977 0.543509 0.973973
O O10 0.642866 0.435868 0.004196
O O11 0.250000 0.422023 0.250000
O O12 0.411662 0.884249 0.308020
O O13 0.319688 0.865814 0.085666
O O14 0.439670 0.831025 0.505648
O O15 0.627279 0.274977 0.838385
#
# Coordination Sequence:
#
# PCOD9391667 Si02
#       8
#     8   8   8   8   8   8   2   8
#     4  11  26  46  71 101 142 192 247 296 369 442
#     4  11  24  42  69 102 151 193 237 299 370 445
#     4  11  24  42  67 108 145 193 248 292 368 451
#     4  12  25  45  71 104 146 195 241 307 360 444
#     4  11  22  41  68 102 144 194 227 297 371 434
#     4  11  23  38  67 102 145 186 240 299 359 431
#     4  12  24  50  72 108 142 186 236 316 388 422
#     4  11  26  46  69 104 143 188 246 307 360 440
#
# _framework density 22.499454
#
# number of rings (size 3 to 8) (size 9 to 14) (size 15 to 20)
#    0.000    0.828    2.759    4.552    3.862    4.966 
#    0.000    1.379    0.000    0.000    0.000    0.000 
#    0.000    0.000    0.000    0.000    0.000    0.000 
#
# Total GULP energy -323506.078245 kJ/mol
# GULP energy per Si atom -5577.691004 kJ/mol
# Density = 2.244824 g / cm^3
# Si number density = 22.499454 Si / 1000 Ang^3
#
#
#
# Elastic Constant Matrix: (Units=GPa)
#
#
# Indices 1 2 3 4 5 6 
#
# 1 136.2167 32.7739 32.3911 0.0000 0.0000 0.0000
# 2 32.7739 126.0775 31.6489 0.0000 0.0000 0.0000
# 3 32.3911 31.6489 96.9192 0.0000 0.0000 0.0000
# 4 0.0000 0.0000 0.0000 2.7545 0.0000 0.0000
# 5 0.0000 0.0000 0.0000 0.0000 27.9142 0.0000
# 6 0.0000 0.0000 0.0000 0.0000 0.0000 40.4414
#
#
#
# Elastic Compliance Matrix: (Units=1/GPa)
#
#
# Indices 1 2 3 4 5 6 
#
# 1 0.008255 -0.001583 -0.002242 0.000000 0.000000 0.000000
# 2 -0.001583 0.008943 -0.002391 0.000000 0.000000 0.000000
# 3 -0.002242 -0.002391 0.011848 0.000000 0.000000 0.000000
# 4 0.000000 0.000000 0.000000 0.363045 0.000000 0.000000
# 5 0.000000 0.000000 0.000000 0.000000 0.035824 0.000000
# 6 0.000000 0.000000 0.000000 0.000000 0.000000 0.024727
#
#
# Mechanical properties :
#
#
# Convention : Reuss Voigt Hill
#
# Bulk Modulus (GPa) = 60.19111 61.42679 60.80895
# Shear Modulus (GPa) = 10.62443 31.71532 21.16987
#
# Velocity S-wave (km/s) = 2.17539 3.75854 3.07075
# Velocity P-wave (km/s) = 5.75501 6.79678 6.29747
#
# Compressibility (1/GPa) = 0.01661375
#
# Stress axis : x y z
#
# Youngs Moduli (GPa) = 121.13460 111.81336 84.40195
#
# Poissons Ratio (x) = 0.17702 0.18923
# Poissons Ratio (y) = 0.19178 0.20184
# Poissons Ratio (z) = 0.27158 0.26739
#
# Static dielectric constant tensor:
#      x y z
#    x 1.900640 0.000000 0.000000 
#    y 0.000000 1.903110 0.000000 
#    z 0.000000 0.000000 1.874490 
# 
# From -- ./inp_files/18969.got.cif
#   From: 2010.05.17/outbox.cif.g08.bks.cpg/sg48_10_cif.got.tgz:18969.got - 2010.06.03 20:39:00.
