data_PCOD9391131
_publ_section_title
;
Structure prediction by ZEFSAII (Michael W. Deem and Ramdas Pophale) SiO2 
 PCOD9391131
Probable space group: P N N N
;
_chemical_formula_sum "Si O2"
_cell_formula_units_Z 32
_cell_length_a 12.697225
_cell_length_b 4.939104
_cell_length_c 22.768271
_cell_angle_alpha 90.000000
_cell_angle_beta 90.000000
_cell_angle_gamma 90.000000
_cell_volume 1427.864639
_symmetry_space_group_name_H-M "P N N N"
_symmetry_group_IT_number 48
_space_group.IT_coordinate_system_code '2'
_symmetry_cell_setting 'orthorhombic'
loop_
_space_group_symop_operation_xyz
x,y,z
1/2-x,1/2-y,z
x,1/2-y,1/2-z
1/2-x,y,1/2-z
-x,-y,-z
1/2+x,1/2+y,-z
-x,1/2+y,1/2+z
1/2+x,-y,1/2+z
loop_
_atom_site_type_symbol
_atom_site_label
_atom_site_fract_x
_atom_site_fract_y
_atom_site_fract_z
Si Si1 0.673528 0.004870 0.597442
Si Si2 0.998511 0.775853 0.813622
Si Si3 0.174578 0.996205 0.966460
Si Si4 0.623620 0.732716 0.151572
O O1 0.750000 0.250000 0.616429
O O2 0.750000 0.750000 0.593475
O O3 0.583988 0.911729 0.641992
O O4 0.631570 0.073347 0.531241
O O5 0.945808 0.750000 0.750000
O O6 0.055676 0.505368 0.838590
O O7 0.087609 0.002819 0.803572
O O8 0.250000 0.250000 0.975892
O O9 0.250000 0.750000 0.946614
O O10 0.103413 0.098364 0.913072
O O11 0.750000 0.750000 0.155376
#
# Coordination Sequence:
#
# PCOD9391131 Si02
#       4
#     8   8   8   8
#     4  10  22  42  66  92 126 162 204 268 326 373
#     4  12  26  41  61  93 125 168 225 255 302 391
#     4   9  18  36  63  94 123 157 206 257 322 392
#     4  11  23  41  64  90 127 166 205 265 321 370
#
# _framework density 22.411089
#
# number of rings (size 3 to 8) (size 9 to 14) (size 15 to 20)
#    0.000    1.500    0.000    6.000    0.000    5.500 
#    0.000    1.250    0.000    0.000    0.000    0.000 
#    0.000    0.000    0.000    0.000    0.000    0.000 
#
# Total GULP energy -178475.161018 kJ/mol
# GULP energy per Si atom -5577.348782 kJ/mol
# Density = 2.236008 g / cm^3
# Si number density = 22.411089 Si / 1000 Ang^3
#
#
#
# Elastic Constant Matrix: (Units=GPa)
#
#
# Indices 1 2 3 4 5 6 
#
# 1 76.9647 44.9460 54.8957 0.0000 0.0000 0.0000
# 2 44.9460 180.8710 36.1541 0.0000 0.0000 0.0000
# 3 54.8957 36.1541 134.0652 0.0000 0.0000 0.0000
# 4 0.0000 0.0000 0.0000 25.1507 0.0000 0.0000
# 5 0.0000 0.0000 0.0000 0.0000 32.3022 0.0000
# 6 0.0000 0.0000 0.0000 0.0000 0.0000 32.6243
#
#
#
# Elastic Compliance Matrix: (Units=1/GPa)
#
#
# Indices 1 2 3 4 5 6 
#
# 1 0.020335 -0.003582 -0.007360 0.000000 0.000000 0.000000
# 2 -0.003582 0.006475 -0.000279 0.000000 0.000000 0.000000
# 3 -0.007360 -0.000279 0.010548 0.000000 0.000000 0.000000
# 4 0.000000 0.000000 0.000000 0.039760 0.000000 0.000000
# 5 0.000000 0.000000 0.000000 0.000000 0.030958 0.000000
# 6 0.000000 0.000000 0.000000 0.000000 0.000000 0.030652
#
#
# Mechanical properties :
#
#
# Convention : Reuss Voigt Hill
#
# Bulk Modulus (GPa) = 67.05024 73.76581 70.40802
# Shear Modulus (GPa) = 30.09465 35.07578 32.58522
#
# Velocity S-wave (km/s) = 3.66846 3.96044 3.81724
# Velocity P-wave (km/s) = 6.92292 7.34164 7.13535
#
# Compressibility (1/GPa) = 0.01491419
#
# Stress axis : x y z
#
# Youngs Moduli (GPa) = 49.17718 154.44655 94.80191
#
# Poissons Ratio (x) = 0.55320 0.69779
# Poissons Ratio (y) = 0.17614 0.02649
# Poissons Ratio (z) = 0.36197 0.04316
#
# Static dielectric constant tensor:
#      x y z
#    x 1.799890 0.000000 0.000000 
#    y 0.000000 1.781600 0.000000 
#    z 0.000000 0.000000 1.968720 
# 
# From -- ./inp_files/33881.got.cif
#   From: 2010.05.17/outbox.cif.g08.bks.cpg/sg48_17_cif.got.tgz:33881.got - 2010.06.03 20:39:00.
