data_PCOD9391817
_publ_section_title
;
Structure prediction by ZEFSAII (Michael W. Deem and Ramdas Pophale) SiO2 
 PCOD9391817
Probable space group: P N N N
;
_chemical_formula_sum "Si O2"
_cell_formula_units_Z 38
_cell_length_a 14.542384
_cell_length_b 11.150907
_cell_length_c 10.748190
_cell_angle_alpha 90.000000
_cell_angle_beta 90.000000
_cell_angle_gamma 90.000000
_cell_volume 1742.934783
_symmetry_space_group_name_H-M "P N N N"
_symmetry_group_IT_number 48
_space_group.IT_coordinate_system_code '2'
_symmetry_cell_setting 'orthorhombic'
loop_
_space_group_symop_operation_xyz
x,y,z
1/2-x,1/2-y,z
x,1/2-y,1/2-z
1/2-x,y,1/2-z
-x,-y,-z
1/2+x,1/2+y,-z
-x,1/2+y,1/2+z
1/2+x,-y,1/2+z
loop_
_atom_site_type_symbol
_atom_site_label
_atom_site_fract_x
_atom_site_fract_y
_atom_site_fract_z
Si Si1 0.750000 0.061247 0.750000
Si Si2 0.462308 0.994208 0.297648
Si Si3 0.498000 0.199747 0.485490
Si Si4 0.391964 0.408276 0.597527
Si Si5 0.250000 0.250000 0.750000
Si Si6 0.314751 0.657786 0.508872
O O1 0.648220 0.003114 0.725228
O O2 0.768451 0.133091 0.624094
O O3 0.496589 0.893685 0.398318
O O4 0.519039 0.956563 0.174514
O O5 0.488546 0.120450 0.361494
O O6 0.423961 0.306621 0.499397
O O7 0.838685 0.026064 0.444899
O O8 0.318826 0.335980 0.677685
O O9 0.591973 0.270149 0.497199
O O10 0.250000 0.750000 0.583217
#
# Coordination Sequence:
#
# PCOD9391817 Si02
#       6
#     4   8   8   8   2   8
#     4  12  25  46  79 108 136 195 255 312 374 446
#     4  11  25  46  76 107 146 202 253 313 380 456
#     4  11  24  47  72 105 150 192 251 314 381 453
#     4  12  27  48  71 106 155 204 241 321 387 454
#     4  12  28  44  74  96 148 208 248 286 388 472
#     4  12  27  45  76 110 144 187 258 312 377 454
#
# _framework density 21.802306000000002
#
# number of rings (size 3 to 8) (size 9 to 14) (size 15 to 20)
#    0.000    0.421    6.316    0.947    5.895    0.842 
#    0.000    1.053    0.000    0.000    0.000    0.000 
#    0.000    0.000    0.000    0.000    0.000    0.000 
#
# Total GULP energy -212030.581715 kJ/mol
# GULP energy per Si atom -5579.752150 kJ/mol
# Density = 2.175268 g / cm^3
# Si number density = 21.802306 Si / 1000 Ang^3
#
#
#
# Elastic Constant Matrix: (Units=GPa)
#
#
# Indices 1 2 3 4 5 6 
#
# 1 127.5447 60.0232 30.2543 0.0000 0.0000 0.0000
# 2 60.0232 202.2717 62.2070 0.0000 0.0000 0.0000
# 3 30.2543 62.2070 52.5448 0.0000 0.0000 0.0000
# 4 0.0000 0.0000 0.0000 11.5848 0.0000 0.0000
# 5 0.0000 0.0000 0.0000 0.0000 18.8194 0.0000
# 6 0.0000 0.0000 0.0000 0.0000 0.0000 52.9729
#
#
#
# Elastic Compliance Matrix: (Units=1/GPa)
#
#
# Indices 1 2 3 4 5 6 
#
# 1 0.009472 -0.001783 -0.003344 0.000000 0.000000 0.000000
# 2 -0.001783 0.008110 -0.008575 0.000000 0.000000 0.000000
# 3 -0.003344 -0.008575 0.031108 0.000000 0.000000 0.000000
# 4 0.000000 0.000000 0.000000 0.086320 0.000000 0.000000
# 5 0.000000 0.000000 0.000000 0.000000 0.053137 0.000000
# 6 0.000000 0.000000 0.000000 0.000000 0.000000 0.018878
#
#
# Mechanical properties :
#
#
# Convention : Reuss Voigt Hill
#
# Bulk Modulus (GPa) = 46.97395 76.37002 61.67198
# Shear Modulus (GPa) = 20.70193 32.00052 26.35122
#
# Velocity S-wave (km/s) = 3.08479 3.83529 3.48033
# Velocity P-wave (km/s) = 5.85492 7.39710 6.67072
#
# Compressibility (1/GPa) = 0.02128840
#
# Stress axis : x y z
#
# Youngs Moduli (GPa) = 105.56965 123.30530 32.14578
#
# Poissons Ratio (x) = 0.21980 0.10748
# Poissons Ratio (y) = 0.18819 0.27565
# Poissons Ratio (z) = 0.35299 1.05733
#
# Static dielectric constant tensor:
#      x y z
#    x 1.729870 0.000000 0.000000 
#    y 0.000000 1.664630 0.000000 
#    z 0.000000 0.000000 1.831650 
# 
# From -- ./inp_files/26338.got.cif
#   From: 2010.05.17/outbox.cif.g08.bks.cpg/sg48_14_cif.got.tgz:26338.got - 2010.06.03 20:39:00.
