data_PCOD9391771
_publ_section_title
;
Structure prediction by ZEFSAII (Michael W. Deem and Ramdas Pophale) SiO2 
 PCOD9391771
Probable space group: P N N N
;
_chemical_formula_sum "Si O2"
_cell_formula_units_Z 64
_cell_length_a 14.023820
_cell_length_b 11.748787
_cell_length_c 20.173940
_cell_angle_alpha 90.000000
_cell_angle_beta 90.000000
_cell_angle_gamma 90.000000
_cell_volume 3323.916336
_symmetry_space_group_name_H-M "P N N N"
_symmetry_group_IT_number 48
_space_group.IT_coordinate_system_code '2'
_symmetry_cell_setting 'orthorhombic'
loop_
_space_group_symop_operation_xyz
x,y,z
1/2-x,1/2-y,z
x,1/2-y,1/2-z
1/2-x,y,1/2-z
-x,-y,-z
1/2+x,1/2+y,-z
-x,1/2+y,1/2+z
1/2+x,-y,1/2+z
loop_
_atom_site_type_symbol
_atom_site_label
_atom_site_fract_x
_atom_site_fract_y
_atom_site_fract_z
Si Si1 0.643594 0.196796 0.314970
Si Si2 0.631650 0.576703 0.393778
Si Si3 0.149054 0.220118 0.472975
Si Si4 0.492802 0.239926 0.674036
Si Si5 0.110615 0.022216 0.990394
Si Si6 0.647056 0.199878 0.562983
Si Si7 0.168566 0.448698 0.658956
Si Si8 0.942275 0.327069 0.064966
O O1 0.750000 0.250000 0.322629
O O2 0.597619 0.250000 0.250000
O O3 0.650630 0.063224 0.301065
O O4 0.587015 0.235527 0.379580
O O5 0.662935 0.646061 0.460003
O O6 0.545539 0.643181 0.358580
O O7 0.720403 0.581330 0.343272
O O8 0.603412 0.448844 0.415403
O O9 0.250000 0.250000 0.438342
O O10 0.119108 0.346334 0.492840
O O11 0.057243 0.164770 0.438194
O O12 0.524957 0.250000 0.750000
O O13 0.574875 0.196376 0.624678
O O14 0.402711 0.153435 0.674217
O O15 0.161780 0.927410 0.034592
O O16 0.146106 0.010811 0.915929
O O17 0.000000 0.000000 0.000000
O O18 0.750000 0.250000 0.580033
O O19 0.598843 0.277485 0.504577
#
# Coordination Sequence:
#
# PCOD9391771 Si02
#       8
#     8   8   8   8   8   8   8   8
#     4  11  24  40  61  95 127 168 213 261 317 388
#     4  12  23  40  62  96 133 168 206 269 328 394
#     4  12  23  37  63  98 130 164 207 269 326 381
#     4  12  28  43  62  92 131 177 217 265 326 390
#     4  12  19  39  66  93 123 163 211 259 319 382
#     4  12  25  42  69  95 122 173 224 274 322 382
#     4  12  21  40  66  91 130 169 214 255 321 401
#     4  12  23  40  64  97 131 166 212 266 331 381
#
# _framework density 19.254394000000001
#
# number of rings (size 3 to 8) (size 9 to 14) (size 15 to 20)
#    0.000    0.125    8.750    1.875    1.750    1.250 
#    0.000    0.000    0.000    0.375    0.000    0.000 
#    0.000    0.000    0.000    0.000    0.000    0.000 
#
# Total GULP energy -357549.296640 kJ/mol
# GULP energy per Si atom -5586.707760 kJ/mol
# Density = 1.921057 g / cm^3
# Si number density = 19.254394 Si / 1000 Ang^3
#
#
#
# Elastic Constant Matrix: (Units=GPa)
#
#
# Indices 1 2 3 4 5 6 
#
# 1 74.1358 0.5997 1.3921 0.0000 0.0000 0.0000
# 2 0.5997 109.4452 2.0249 0.0000 0.0000 0.0000
# 3 1.3921 2.0249 76.3507 0.0000 0.0000 0.0000
# 4 0.0000 0.0000 0.0000 17.0317 0.0000 0.0000
# 5 0.0000 0.0000 0.0000 0.0000 102.9948 0.0000
# 6 0.0000 0.0000 0.0000 0.0000 0.0000 27.8134
#
#
#
# Elastic Compliance Matrix: (Units=1/GPa)
#
#
# Indices 1 2 3 4 5 6 
#
# 1 0.013494 -0.000069 -0.000244 0.000000 0.000000 0.000000
# 2 -0.000069 0.009142 -0.000241 0.000000 0.000000 0.000000
# 3 -0.000244 -0.000241 0.013108 0.000000 0.000000 0.000000
# 4 0.000000 0.000000 0.000000 0.058714 0.000000 0.000000
# 5 0.000000 0.000000 0.000000 0.000000 0.009709 0.000000
# 6 0.000000 0.000000 0.000000 0.000000 0.000000 0.035954
#
#
# Mechanical properties :
#
#
# Convention : Reuss Voigt Hill
#
# Bulk Modulus (GPa) = 28.87299 29.77390 29.32345
# Shear Modulus (GPa) = 32.72775 46.62899 39.67837
#
# Velocity S-wave (km/s) = 4.12728 4.92645 4.54447
# Velocity P-wave (km/s) = 6.14334 6.91787 6.54208
#
# Compressibility (1/GPa) = 0.03463445
#
# Stress axis : x y z
#
# Youngs Moduli (GPa) = 74.10753 109.38723 76.28750
#
# Poissons Ratio (x) = 0.00759 0.01863
# Poissons Ratio (y) = 0.00514 0.01840
# Poissons Ratio (z) = 0.01810 0.02638
#
# Static dielectric constant tensor:
#      x y z
#    x 1.720740 0.000000 0.000000 
#    y 0.000000 1.968140 0.000000 
#    z 0.000000 0.000000 1.684410 
# 
# From -- ./inp_files/31708.got.cif
#   From: 2010.05.17/outbox.cif.g08.bks.cpg/sg48_16_cif.got.tgz:31708.got - 2010.06.03 20:39:00.
