data_PCOD9391551
_publ_section_title
;
Structure prediction by ZEFSAII (Michael W. Deem and Ramdas Pophale) SiO2 
 PCOD9391551
Probable space group: P N N N
;
_chemical_formula_sum "Si O2"
_cell_formula_units_Z 64
_cell_length_a 13.420665
_cell_length_b 13.420678
_cell_length_c 20.509505
_cell_angle_alpha 90.000000
_cell_angle_beta 90.000000
_cell_angle_gamma 90.000000
_cell_volume 3694.057670
_symmetry_space_group_name_H-M "P N N N"
_symmetry_group_IT_number 48
_space_group.IT_coordinate_system_code '2'
_symmetry_cell_setting 'orthorhombic'
loop_
_space_group_symop_operation_xyz
x,y,z
1/2-x,1/2-y,z
x,1/2-y,1/2-z
1/2-x,y,1/2-z
-x,-y,-z
1/2+x,1/2+y,-z
-x,1/2+y,1/2+z
1/2+x,-y,1/2+z
loop_
_atom_site_type_symbol
_atom_site_label
_atom_site_fract_x
_atom_site_fract_y
_atom_site_fract_z
Si Si1 0.154418 0.011047 0.917347
Si Si2 0.321442 0.989023 0.186058
Si Si3 0.489023 0.821442 0.186058
Si Si4 0.011045 0.345583 0.417346
Si Si5 0.678768 0.015781 0.562812
Si Si6 0.716268 0.861149 0.175590
Si Si7 0.361148 0.216268 0.175590
Si Si8 0.484219 0.678769 0.062811
O O1 0.231173 0.051247 0.864366
O O2 0.071713 0.098958 0.922315
O O3 0.089576 0.910425 0.904593
O O4 0.208340 0.001526 0.987594
O O5 0.250000 0.990050 0.250000
O O6 0.402676 0.902675 0.193583
O O7 0.258690 0.977307 0.119638
O O8 0.369003 0.097764 0.177739
O O9 0.490050 0.750000 0.250000
O O10 0.597764 0.869003 0.177739
O O11 0.477308 0.758690 0.119637
O O12 0.098957 0.428288 0.422314
O O13 0.051246 0.268828 0.364365
O O14 0.001525 0.291661 0.487593
O O15 0.617375 0.117376 0.563414
O O16 0.750000 0.750000 0.150595
O O17 0.750000 0.865173 0.250000
O O18 0.250000 0.250000 0.150594
O O19 0.365171 0.250000 0.250000
#
# Coordination Sequence:
#
# PCOD9391551 Si02
#       8
#     8   8   8   8   8   8   8   8
#     4   9  18  35  61  84 110 152 199 243 289 341
#     4  12  24  38  58  88 123 159 196 239 301 365
#     4  12  24  38  58  88 123 159 196 239 301 365
#     4   9  18  35  61  84 110 152 199 243 289 341
#     4   9  18  34  55  85 116 151 199 240 283 351
#     4  11  20  37  58  85 120 152 195 247 293 345
#     4  11  20  37  58  85 120 152 195 247 293 345
#     4   9  18  34  55  85 116 151 199 240 283 351
#
# _framework density 17.325122
#
# number of rings (size 3 to 8) (size 9 to 14) (size 15 to 20)
#    0.000    1.750    5.000    2.250    0.000    5.750 
#    0.000    2.500    0.000    2.250    0.000    1.750 
#    0.000    0.000    0.000    0.000    0.000    0.000 
#
# Total GULP energy -356715.935213 kJ/mol
# GULP energy per Si atom -5573.686488 kJ/mol
# Density = 1.728569 g / cm^3
# Si number density = 17.325122 Si / 1000 Ang^3
#
#
#
# Elastic Constant Matrix: (Units=GPa)
#
#
# Indices 1 2 3 4 5 6 
#
# 1 78.5610 52.6681 65.7706 0.0000 0.0000 0.0000
# 2 52.6681 78.5603 65.7707 0.0000 0.0000 0.0000
# 3 65.7706 65.7707 118.2565 0.0000 0.0000 0.0000
# 4 0.0000 0.0000 0.0000 21.2600 0.0000 0.0000
# 5 0.0000 0.0000 0.0000 0.0000 21.2609 0.0000
# 6 0.0000 0.0000 0.0000 0.0000 0.0000 41.7771
#
#
#
# Elastic Compliance Matrix: (Units=1/GPa)
#
#
# Indices 1 2 3 4 5 6 
#
# 1 0.027921 -0.010700 -0.009578 0.000000 0.000000 0.000000
# 2 -0.010700 0.027921 -0.009578 0.000000 0.000000 0.000000
# 3 -0.009578 -0.009578 0.019110 0.000000 0.000000 0.000000
# 4 0.000000 0.000000 0.000000 0.047037 0.000000 0.000000
# 5 0.000000 0.000000 0.000000 0.000000 0.047035 0.000000
# 6 0.000000 0.000000 0.000000 0.000000 0.000000 0.023937
#
#
# Mechanical properties :
#
#
# Convention : Reuss Voigt Hill
#
# Bulk Modulus (GPa) = 65.61389 71.53295 68.57342
# Shear Modulus (GPa) = 19.39858 22.93750 21.16804
#
# Velocity S-wave (km/s) = 3.34979 3.64255 3.49923
# Velocity P-wave (km/s) = 7.27432 7.68564 7.48281
#
# Compressibility (1/GPa) = 0.01524068
#
# Stress axis : x y z
#
# Youngs Moduli (GPa) = 35.81572 35.81509 52.32918
#
# Poissons Ratio (x) = 0.38323 0.50118
# Poissons Ratio (y) = 0.38324 0.50120
# Poissons Ratio (z) = 0.34303 0.34303
#
# Static dielectric constant tensor:
#      x y z
#    x 1.595300 0.000000 0.000000 
#    y 0.000000 1.595300 0.000000 
#    z 0.000000 0.000000 1.623330 
# 
# From -- ./inp_files/31700.got.cif
#   From: 2010.05.17/outbox.cif.g08.bks.cpg/sg48_16_cif.got.tgz:31700.got - 2010.06.03 20:39:00.
