data_PCOD9391419
_publ_section_title
;
Structure prediction by ZEFSAII (Michael W. Deem and Ramdas Pophale) SiO2 
 PCOD9391419
Probable space group: P N N N
;
_chemical_formula_sum "Si O2"
_cell_formula_units_Z 28
_cell_length_a 11.383454
_cell_length_b 4.848934
_cell_length_c 21.599404
_cell_angle_alpha 90.000000
_cell_angle_beta 90.000000
_cell_angle_gamma 90.000000
_cell_volume 1192.235632
_symmetry_space_group_name_H-M "P N N N"
_symmetry_group_IT_number 48
_space_group.IT_coordinate_system_code '2'
_symmetry_cell_setting 'orthorhombic'
loop_
_space_group_symop_operation_xyz
x,y,z
1/2-x,1/2-y,z
x,1/2-y,1/2-z
1/2-x,y,1/2-z
-x,-y,-z
1/2+x,1/2+y,-z
-x,1/2+y,1/2+z
1/2+x,-y,1/2+z
loop_
_atom_site_type_symbol
_atom_site_label
_atom_site_fract_x
_atom_site_fract_y
_atom_site_fract_z
Si Si1 0.250000 0.250000 0.045794
Si Si2 0.417572 0.002870 0.653460
Si Si3 0.750000 0.250000 0.450140
Si Si4 0.750000 0.250000 0.750000
Si Si5 0.578822 0.966127 0.847443
Si Si6 0.750000 0.250000 0.250000
O O1 0.353059 0.142887 0.091595
O O2 0.254220 0.499467 0.997854
O O3 0.357331 0.844907 0.595047
O O4 0.521827 0.811515 0.676770
O O5 0.322210 0.958791 0.706489
O O6 0.476359 0.301251 0.641273
O O7 0.831529 0.418873 0.797247
#
# Coordination Sequence:
#
# PCOD9391419 Si02
#       6
#     4   8   4   2   8   2
#     4  12  26  45  68 101 142 184 236 288 340 416
#     4  11  25  44  71 103 138 184 230 287 355 416
#     4  11  25  45  70 101 141 183 232 288 342 415
#     4  12  26  46  70 100 138 174 228 288 348 416
#     4  12  26  44  70 101 137 182 230 287 353 417
#     4  10  24  46  70 104 144 176 236 296 352 430
#
# _framework density 23.485289000000002
#
# number of rings (size 3 to 8) (size 9 to 14) (size 15 to 20)
#    0.000    0.571    0.000    7.714    0.000   15.429 
#    0.000    0.000    0.000    0.000    0.000    0.000 
#    0.000    0.000    0.000    0.000    0.000    0.000 
#
# Total GULP energy -156264.577686 kJ/mol
# GULP energy per Si atom -5580.877774 kJ/mol
# Density = 2.343184 g / cm^3
# Si number density = 23.485289 Si / 1000 Ang^3
#
#
#
# Elastic Constant Matrix: (Units=GPa)
#
#
# Indices 1 2 3 4 5 6 
#
# 1 72.1505 25.8842 50.8226 0.0000 0.0000 0.0000
# 2 25.8842 168.8889 45.2155 0.0000 0.0000 0.0000
# 3 50.8226 45.2155 155.5446 0.0000 0.0000 0.0000
# 4 0.0000 0.0000 0.0000 -0.3966 0.0000 0.0000
# 5 0.0000 0.0000 0.0000 0.0000 0.9038 0.0000
# 6 0.0000 0.0000 0.0000 0.0000 0.0000 28.7094
#
#
#
# Elastic Compliance Matrix: (Units=1/GPa)
#
#
# Indices 1 2 3 4 5 6 
#
# 1 0.018264 -0.001303 -0.005589 0.000000 0.000000 0.000000
# 2 -0.001303 0.006514 -0.001468 0.000000 0.000000 0.000000
# 3 -0.005589 -0.001468 0.008682 0.000000 0.000000 0.000000
# 4 0.000000 0.000000 0.000000 -2.521578 0.000000 0.000000
# 5 0.000000 0.000000 0.000000 0.000000 1.106483 0.000000
# 6 0.000000 0.000000 0.000000 0.000000 0.000000 0.034832
#
#
# Mechanical properties :
#
#
# Convention : Reuss Voigt Hill
#
# Bulk Modulus (GPa) = 59.73530 71.15874 65.44702
# Shear Modulus (GPa) = -3.77500 24.15408 10.18954
#
# Velocity S-wave (km/s) = -1.26920 3.21047 2.08521
# Velocity P-wave (km/s) = 4.83142 6.64137 5.80734
#
# Compressibility (1/GPa) = 0.01674052
#
# Stress axis : x y z
#
# Youngs Moduli (GPa) = 54.75207 153.52274 115.18346
#
# Poissons Ratio (x) = 0.20003 0.64375
# Poissons Ratio (y) = 0.07134 0.16906
# Poissons Ratio (z) = 0.30600 0.22533
#
# Static dielectric constant tensor:
#      x y z
#    x 2.051420 0.000000 0.000000 
#    y 0.000000 1.809680 0.000000 
#    z 0.000000 0.000000 0.640640 
# 
# From -- ./inp_files/22536.got.cif
#   From: 2010.05.17/outbox.cif.g08.bks.cpg/sg48_12_cif.got.tgz:22536.got - 2010.06.03 20:39:00.
