data_PCOD9391454
_publ_section_title
;
Structure prediction by ZEFSAII (Michael W. Deem and Ramdas Pophale) SiO2 
 PCOD9391454
Probable space group: P N N N
;
_chemical_formula_sum "Si O2"
_cell_formula_units_Z 40
_cell_length_a 14.700167
_cell_length_b 10.472979
_cell_length_c 10.804001
_cell_angle_alpha 90.000000
_cell_angle_beta 90.000000
_cell_angle_gamma 90.000000
_cell_volume 1663.325007
_symmetry_space_group_name_H-M "P N N N"
_symmetry_group_IT_number 48
_space_group.IT_coordinate_system_code '2'
_symmetry_cell_setting 'orthorhombic'
loop_
_space_group_symop_operation_xyz
x,y,z
1/2-x,1/2-y,z
x,1/2-y,1/2-z
1/2-x,y,1/2-z
-x,-y,-z
1/2+x,1/2+y,-z
-x,1/2+y,1/2+z
1/2+x,-y,1/2+z
loop_
_atom_site_type_symbol
_atom_site_label
_atom_site_fract_x
_atom_site_fract_y
_atom_site_fract_z
Si Si1 0.467292 0.976373 0.302481
Si Si2 0.199708 0.378666 0.415704
Si Si3 0.076318 0.233163 0.896958
Si Si4 0.116903 0.497755 0.042085
Si Si5 0.148973 0.602105 0.778394
O O1 0.389224 0.072877 0.345499
O O2 0.565708 0.041393 0.296446
O O3 0.484447 0.854048 0.391437
O O4 0.438666 0.950102 0.159616
O O5 0.250000 0.250000 0.373641
O O6 0.160771 0.347170 0.550398
O O7 0.279375 0.480746 0.414148
O O8 0.091977 0.250000 0.750000
O O9 0.082262 0.358916 0.986760
O O10 0.122617 0.583753 0.921442
O O11 0.151360 0.750000 0.750000
O O12 0.250000 0.549062 0.750000
#
# Coordination Sequence:
#
# PCOD9391454 Si02
#       5
#     8   8   8   8   8
#     4  12  25  47  76 108 154 191 253 317 387 451
#     4  10  25  44  75 113 150 194 254 311 380 457
#     4  11  24  42  73 110 147 196 253 306 375 450
#     4  11  25  46  73 107 152 196 250 317 383 449
#     4  11  26  45  71 105 146 199 249 307 377 459
#
# _framework density 24.048217999999999
#
# number of rings (size 3 to 8) (size 9 to 14) (size 15 to 20)
#    0.000    1.000    2.000    3.000    5.600    5.200 
#    3.600    0.000    0.000    1.200    0.000    0.000 
#    0.000    0.000    0.000    0.000    0.000    0.000 
#
# Total GULP energy -223431.227954 kJ/mol
# GULP energy per Si atom -5585.780699 kJ/mol
# Density = 2.399348 g / cm^3
# Si number density = 24.048218 Si / 1000 Ang^3
#
#
#
# Elastic Constant Matrix: (Units=GPa)
#
#
# Indices 1 2 3 4 5 6 
#
# 1 178.3338 46.5072 42.3830 0.0000 0.0000 0.0000
# 2 46.5072 94.0233 36.0847 0.0000 0.0000 0.0000
# 3 42.3830 36.0847 92.3183 0.0000 0.0000 0.0000
# 4 0.0000 0.0000 0.0000 11.2920 0.0000 0.0000
# 5 0.0000 0.0000 0.0000 0.0000 -260.8838 0.0000
# 6 0.0000 0.0000 0.0000 0.0000 0.0000 43.4958
#
#
#
# Elastic Compliance Matrix: (Units=1/GPa)
#
#
# Indices 1 2 3 4 5 6 
#
# 1 0.006772 -0.002537 -0.002117 0.000000 0.000000 0.000000
# 2 -0.002537 0.013463 -0.004098 0.000000 0.000000 0.000000
# 3 -0.002117 -0.004098 0.013406 0.000000 0.000000 0.000000
# 4 0.000000 0.000000 0.000000 0.088558 0.000000 0.000000
# 5 0.000000 0.000000 0.000000 0.000000 -0.003833 0.000000
# 6 0.000000 0.000000 0.000000 0.000000 0.000000 0.022991
#
#
# Mechanical properties :
#
#
# Convention : Reuss Voigt Hill
#
# Bulk Modulus (GPa) = 61.96952 68.29169 65.13060
# Shear Modulus (GPa) = 30.44318 -25.23916 2.60201
#
# Velocity S-wave (km/s) = 3.56184 -3.24315 1.04132
# Velocity P-wave (km/s) = 6.53762 3.79940 5.34677
#
# Compressibility (1/GPa) = 0.01613696
#
# Stress axis : x y z
#
# Youngs Moduli (GPa) = 147.65882 74.27628 74.59439
#
# Poissons Ratio (x) = 0.18845 0.15795
# Poissons Ratio (y) = 0.37464 0.30566
# Poissons Ratio (z) = 0.31266 0.30435
#
# Static dielectric constant tensor:
#      x y z
#    x 1.932340 0.000000 0.000000 
#    y 0.000000 2.037210 0.000000 
#    z 0.000000 0.000000 1.966370 
# 
# From -- ./inp_files/20965.got.cif
#   From: 2010.05.17/outbox.cif.g08.bks.cpg/sg48_11_cif.got.tgz:20965.got - 2010.06.03 20:39:00.
