data_PCOD9391776
_publ_section_title
;
Structure prediction by ZEFSAII (Michael W. Deem and Ramdas Pophale) SiO2 
 PCOD9391776
Probable space group: P N N N
;
_chemical_formula_sum "Si O2"
_cell_formula_units_Z 20
_cell_length_a 11.050415
_cell_length_b 7.172993
_cell_length_c 11.023239
_cell_angle_alpha 90.000000
_cell_angle_beta 90.000000
_cell_angle_gamma 90.000000
_cell_volume 873.752073
_symmetry_space_group_name_H-M "P N N N"
_symmetry_group_IT_number 48
_space_group.IT_coordinate_system_code '2'
_symmetry_cell_setting 'orthorhombic'
loop_
_space_group_symop_operation_xyz
x,y,z
1/2-x,1/2-y,z
x,1/2-y,1/2-z
1/2-x,y,1/2-z
-x,-y,-z
1/2+x,1/2+y,-z
-x,1/2+y,1/2+z
1/2+x,-y,1/2+z
loop_
_atom_site_type_symbol
_atom_site_label
_atom_site_fract_x
_atom_site_fract_y
_atom_site_fract_z
Si Si1 0.461536 0.250000 0.250000
Si Si2 0.373888 0.098811 0.011034
Si Si3 0.838084 0.522675 0.366252
O O1 0.376433 0.159047 0.149652
O O2 0.552040 0.390865 0.175756
O O3 0.259739 0.973885 0.971329
O O4 0.380149 0.277915 0.919989
O O5 0.500000 0.000000 0.000000
O O6 0.750000 0.533938 0.250000
#
# Coordination Sequence:
#
# PCOD9391776 Si02
#       3
#     4   8   8
#     4  12  25  45  74  98 142 197 226 305 376 414
#     4  11  24  40  71 104 137 185 239 294 359 442
#     4  11  24  45  69 101 141 183 243 294 355 441
#
# _framework density 22.889786999999998
#
# number of rings (size 3 to 8) (size 9 to 14) (size 15 to 20)
#    0.000    0.800    4.000    4.200    0.000    3.200 
#    0.000    0.000    0.000    0.000    0.000    0.000 
#    0.000    0.000    0.000    0.000    0.000    0.000 
#
# Total GULP energy -111535.021562 kJ/mol
# GULP energy per Si atom -5576.751078 kJ/mol
# Density = 2.283769 g / cm^3
# Si number density = 22.889787 Si / 1000 Ang^3
#
#
#
# Elastic Constant Matrix: (Units=GPa)
#
#
# Indices 1 2 3 4 5 6 
#
# 1 128.3429 41.1910 49.6961 0.0000 0.0000 0.0000
# 2 41.1910 74.8124 25.9232 0.0000 0.0000 0.0000
# 3 49.6961 25.9232 176.3340 0.0000 0.0000 0.0000
# 4 0.0000 0.0000 0.0000 26.1018 0.0000 0.0000
# 5 0.0000 0.0000 0.0000 0.0000 59.5392 0.0000
# 6 0.0000 0.0000 0.0000 0.0000 0.0000 49.2908
#
#
#
# Elastic Compliance Matrix: (Units=1/GPa)
#
#
# Indices 1 2 3 4 5 6 
#
# 1 0.010187 -0.004862 -0.002156 0.000000 0.000000 0.000000
# 2 -0.004862 0.016404 -0.001041 0.000000 0.000000 0.000000
# 3 -0.002156 -0.001041 0.006432 0.000000 0.000000 0.000000
# 4 0.000000 0.000000 0.000000 0.038311 0.000000 0.000000
# 5 0.000000 0.000000 0.000000 0.000000 0.016796 0.000000
# 6 0.000000 0.000000 0.000000 0.000000 0.000000 0.020288
#
#
# Mechanical properties :
#
#
# Convention : Reuss Voigt Hill
#
# Bulk Modulus (GPa) = 59.15613 68.12330 63.63972
# Shear Modulus (GPa) = 38.41085 44.49831 41.45458
#
# Velocity S-wave (km/s) = 4.10088 4.41389 4.26026
# Velocity P-wave (km/s) = 6.95147 7.47012 7.21546
#
# Compressibility (1/GPa) = 0.01690442
#
# Stress axis : x y z
#
# Youngs Moduli (GPa) = 98.16567 60.95918 155.47601
#
# Poissons Ratio (x) = 0.29636 0.33524
# Poissons Ratio (y) = 0.47725 0.16193
# Poissons Ratio (z) = 0.21167 0.06349
#
# Static dielectric constant tensor:
#      x y z
#    x 1.862100 0.000000 0.000000 
#    y 0.000000 1.951790 0.000000 
#    z 0.000000 0.000000 1.904600 
# 
# From -- ./inp_files/7824.got.cif
#   From: 2010.05.17/outbox.cif.g08.bks.cpg/sg48_4_cif.got.tgz:7824.got - 2010.06.03 20:39:00.
