data_PCOD9391760
_publ_section_title
;
Structure prediction by ZEFSAII (Michael W. Deem and Ramdas Pophale) SiO2 
 PCOD9391760
Probable space group: P N N N
;
_chemical_formula_sum "Si O2"
_cell_formula_units_Z 34
_cell_length_a 8.698351
_cell_length_b 16.316748
_cell_length_c 10.434076
_cell_angle_alpha 90.000000
_cell_angle_beta 90.000000
_cell_angle_gamma 90.000000
_cell_volume 1480.895899
_symmetry_space_group_name_H-M "P N N N"
_symmetry_group_IT_number 48
_space_group.IT_coordinate_system_code '2'
_symmetry_cell_setting 'orthorhombic'
loop_
_space_group_symop_operation_xyz
x,y,z
1/2-x,1/2-y,z
x,1/2-y,1/2-z
1/2-x,y,1/2-z
-x,-y,-z
1/2+x,1/2+y,-z
-x,1/2+y,1/2+z
1/2+x,-y,1/2+z
loop_
_atom_site_type_symbol
_atom_site_label
_atom_site_fract_x
_atom_site_fract_y
_atom_site_fract_z
Si Si1 0.333847 0.552989 0.614821
Si Si2 0.042448 0.290844 0.116442
Si Si3 0.250000 0.750000 0.250000
Si Si4 0.263692 0.374597 0.599865
Si Si5 0.415475 0.852723 0.461020
O O1 0.250000 0.549022 0.750000
O O2 0.461683 0.621826 0.636817
O O3 0.366225 0.457454 0.589726
O O4 0.213580 0.584914 0.508787
O O5 0.095548 0.250000 0.250000
O O6 0.343374 0.187203 0.999247
O O7 0.928550 0.221624 0.062122
O O8 0.357866 0.808794 0.333106
O O9 0.250000 0.349780 0.750000
O O10 0.086908 0.388821 0.555415
#
# Coordination Sequence:
#
# PCOD9391760 Si02
#       5
#     8   8   2   8   8
#     4  11  23  47  73 103 147 199 241 300 375 450
#     4  12  24  46  76 108 144 194 254 311 369 447
#     4  12  24  40  72  96 144 192 252 310 376 440
#     4  11  27  46  70 108 155 191 240 310 384 445
#     4  12  24  43  70 101 138 192 253 302 363 453
#
# _framework density 22.959074000000001
#
# number of rings (size 3 to 8) (size 9 to 14) (size 15 to 20)
#    0.000    0.471    4.706    3.529    0.000    2.824 
#    0.000    0.000    0.000    0.000    0.000    0.000 
#    0.000    0.000    0.000    0.000    0.000    0.000 
#
# Total GULP energy -189967.450366 kJ/mol
# GULP energy per Si atom -5587.277952 kJ/mol
# Density = 2.290682 g / cm^3
# Si number density = 22.959074 Si / 1000 Ang^3
#
#
#
# Elastic Constant Matrix: (Units=GPa)
#
#
# Indices 1 2 3 4 5 6 
#
# 1 48.8049 17.3356 11.3305 0.0000 0.0000 0.0000
# 2 17.3356 134.0127 43.1412 0.0000 0.0000 0.0000
# 3 11.3305 43.1412 135.1307 0.0000 0.0000 0.0000
# 4 0.0000 0.0000 0.0000 37.5979 0.0000 0.0000
# 5 0.0000 0.0000 0.0000 0.0000 -16.6848 0.0000
# 6 0.0000 0.0000 0.0000 0.0000 0.0000 26.6447
#
#
#
# Elastic Compliance Matrix: (Units=1/GPa)
#
#
# Indices 1 2 3 4 5 6 
#
# 1 0.021603 -0.002465 -0.001025 0.000000 0.000000 0.000000
# 2 -0.002465 0.008598 -0.002538 0.000000 0.000000 0.000000
# 3 -0.001025 -0.002538 0.008297 0.000000 0.000000 0.000000
# 4 0.000000 0.000000 0.000000 0.026597 0.000000 0.000000
# 5 0.000000 0.000000 0.000000 0.000000 -0.059935 0.000000
# 6 0.000000 0.000000 0.000000 0.000000 0.000000 0.037531
#
#
# Mechanical properties :
#
#
# Convention : Reuss Voigt Hill
#
# Bulk Modulus (GPa) = 37.81793 51.28477 44.55135
# Shear Modulus (GPa) = 78.66588 25.92097 52.29343
#
# Velocity S-wave (km/s) = 5.85986 3.36372 4.77768
# Velocity P-wave (km/s) = 7.89250 6.12144 7.06271
#
# Compressibility (1/GPa) = 0.02644249
#
# Stress axis : x y z
#
# Youngs Moduli (GPa) = 46.28977 116.30712 120.53275
#
# Poissons Ratio (x) = 0.28666 0.12349
# Poissons Ratio (y) = 0.11409 0.30594
# Poissons Ratio (z) = 0.04742 0.29522
#
# Static dielectric constant tensor:
#      x y z
#    x 1.899000 0.000000 0.000000 
#    y 0.000000 1.927860 0.000000 
#    z 0.000000 0.000000 1.846300 
# 
# From -- ./inp_files/19699.got.cif
#   From: 2010.05.17/outbox.cif.g08.bks.cpg/sg48_10_cif.got.tgz:19699.got - 2010.06.03 20:39:00.
