data_PCOD9391952
_publ_section_title
;
Structure prediction by ZEFSAII (Michael W. Deem and Ramdas Pophale) SiO2 
 PCOD9391952
Probable space group: P N N N
;
_chemical_formula_sum "Si O2"
_cell_formula_units_Z 50
_cell_length_a 18.000000
_cell_length_b 9.000000
_cell_length_c 15.000000
_cell_angle_alpha 90.000000
_cell_angle_beta 90.000000
_cell_angle_gamma 90.000000
_cell_volume 2430.000000
_symmetry_space_group_name_H-M "P N N N"
_symmetry_group_IT_number 48
_space_group.IT_coordinate_system_code '2'
_symmetry_cell_setting 'orthorhombic'
loop_
_space_group_symop_operation_xyz
x,y,z
1/2-x,1/2-y,z
x,1/2-y,1/2-z
1/2-x,y,1/2-z
-x,-y,-z
1/2+x,1/2+y,-z
-x,1/2+y,1/2+z
1/2+x,-y,1/2+z
loop_
_atom_site_type_symbol
_atom_site_label
_atom_site_fract_x
_atom_site_fract_y
_atom_site_fract_z
Si Si1 0.250000 0.250000 0.250000
Si Si2 0.812409 0.381280 0.436275
Si Si3 0.950806 0.074703 0.771461
Si Si4 0.419800 0.097333 0.093842
Si Si5 0.903920 0.393080 0.063845
Si Si6 0.154984 0.416052 0.399444
Si Si7 0.610528 0.426489 0.241885
O O1 0.208939 0.360832 0.319778
O O2 0.750000 0.250000 0.437801
O O3 0.884541 0.277907 0.452170
O O4 0.808469 0.505789 0.513444
O O5 0.828227 0.442189 0.335948
O O6 0.949075 0.250000 0.750000
O O7 0.914332 0.976815 0.691307
O O8 0.903336 0.032854 0.857897
O O9 0.036108 0.018449 0.780132
O O10 0.508055 0.097734 0.077656
O O11 0.388548 0.262216 0.081621
O O12 0.382990 0.990959 0.020784
O O13 0.867300 0.456520 0.155152
O O14 0.590954 0.250000 0.250000
#
# Coordination Sequence:
#
# PCOD9391952 Si02
#       7
#     2   8   8   8   8   8   8
#     4  12  28  44  66  84 130 180 216 260 336 412
#     4  11  25  40  62  93 126 170 226 272 324 398
#     4  11  21  37  67  99 136 165 219 277 332 394
#     4  10  20  40  65  96 132 170 212 270 330 387
#     4   9  20  38  65  98 131 165 213 271 324 387
#     4  12  25  42  65  88 127 175 216 271 334 404
#     4   9  20  40  64  94 129 171 213 265 328 390
#
# _framework density 20.576132000000001
#
# number of rings (size 3 to 8) (size 9 to 14) (size 15 to 20)
#    0.000    1.600    1.600    3.840    2.240   10.560 
#    0.000    0.000    0.000    0.000    0.000    0.000 
#    0.000    0.000    0.000    0.000    0.000    0.000 
#
# Total GULP energy -278918.331642 kJ/mol
# GULP energy per Si atom -5578.366633 kJ/mol
# Density = 2.052930 g / cm^3
# Si number density = 20.576132 Si / 1000 Ang^3
#
#
#
# Elastic Constant Matrix: (Units=GPa)
#
#
# Indices 1 2 3 4 5 6 
#
# 1 43.6321 17.2456 40.9203 0.0000 0.0000 0.0000
# 2 17.2456 77.4565 33.4230 0.0000 0.0000 0.0000
# 3 40.9203 33.4230 147.3835 0.0000 0.0000 0.0000
# 4 0.0000 0.0000 0.0000 41.0993 0.0000 0.0000
# 5 0.0000 0.0000 0.0000 0.0000 10.1957 0.0000
# 6 0.0000 0.0000 0.0000 0.0000 0.0000 22.8937
#
#
#
# Elastic Compliance Matrix: (Units=1/GPa)
#
#
# Indices 1 2 3 4 5 6 
#
# 1 0.031885 -0.003635 -0.008028 0.000000 0.000000 0.000000
# 2 -0.003635 0.014725 -0.002330 0.000000 0.000000 0.000000
# 3 -0.008028 -0.002330 0.009542 0.000000 0.000000 0.000000
# 4 0.000000 0.000000 0.000000 0.024331 0.000000 0.000000
# 5 0.000000 0.000000 0.000000 0.000000 0.098081 0.000000
# 6 0.000000 0.000000 0.000000 0.000000 0.000000 0.043680
#
#
# Mechanical properties :
#
#
# Convention : Reuss Voigt Hill
#
# Bulk Modulus (GPa) = 35.50385 50.18333 42.84359
# Shear Modulus (GPa) = 19.25886 26.62993 22.94440
#
# Velocity S-wave (km/s) = 3.06270 3.60142 3.34293
# Velocity P-wave (km/s) = 5.45886 6.46032 5.98059
#
# Compressibility (1/GPa) = 0.02816596
#
# Stress axis : x y z
#
# Youngs Moduli (GPa) = 31.36264 67.91058 104.79441
#
# Poissons Ratio (x) = 0.24685 0.84134
# Poissons Ratio (y) = 0.11400 0.24418
# Poissons Ratio (z) = 0.25179 0.15824
#
# Static dielectric constant tensor:
#      x y z
#    x 1.802290 0.000000 0.000000 
#    y 0.000000 1.696700 0.000000 
#    z 0.000000 0.000000 1.794410 
# 
# From -- ./inp_files/27913.got.cif
#   From: 2010.05.17/outbox.ucp.g08.bks.cvg/sg48_14_cif.got.tgz:27913.got - 2010.06.11 16:38:40.
