data_PCOD9391743
_publ_section_title
;
Structure prediction by ZEFSAII (Michael W. Deem and Ramdas Pophale) SiO2 
 PCOD9391743
Probable space group: P N N N
;
_chemical_formula_sum "Si O2"
_cell_formula_units_Z 32
_cell_length_a 17.018658
_cell_length_b 9.555051
_cell_length_c 8.244195
_cell_angle_alpha 90.000000
_cell_angle_beta 90.000000
_cell_angle_gamma 90.000000
_cell_volume 1340.622722
_symmetry_space_group_name_H-M "P N N N"
_symmetry_group_IT_number 48
_space_group.IT_coordinate_system_code '2'
_symmetry_cell_setting 'orthorhombic'
loop_
_space_group_symop_operation_xyz
x,y,z
1/2-x,1/2-y,z
x,1/2-y,1/2-z
1/2-x,y,1/2-z
-x,-y,-z
1/2+x,1/2+y,-z
-x,1/2+y,1/2+z
1/2+x,-y,1/2+z
loop_
_atom_site_type_symbol
_atom_site_label
_atom_site_fract_x
_atom_site_fract_y
_atom_site_fract_z
Si Si1 0.584258 0.553665 0.447358
Si Si2 0.832783 0.696417 0.563809
Si Si3 0.333497 0.564176 0.853345
Si Si4 0.159094 0.797014 0.418614
O O1 0.500000 0.500000 0.500000
O O2 0.598506 0.715887 0.478979
O O3 0.606742 0.511516 0.266560
O O4 0.644832 0.460176 0.555218
O O5 0.750000 0.750000 0.492433
O O6 0.835155 0.750000 0.750000
O O7 0.831050 0.534554 0.514129
O O8 0.250000 0.574517 0.750000
O O9 0.365919 0.710735 0.922452
O O10 0.250000 0.750000 0.412765
O O11 0.121255 0.750000 0.250000
#
# Coordination Sequence:
#
# PCOD9391743 Si02
#       4
#     8   8   8   8
#     4  12  27  43  67 109 149 183 244 311 373 424
#     4  11  23  43  71 103 140 191 252 301 359 439
#     4  12  23  43  75 105 139 194 256 300 359 448
#     4  11  23  43  71 103 140 191 252 301 359 439
#
# _framework density 23.869503000000002
#
# number of rings (size 3 to 8) (size 9 to 14) (size 15 to 20)
#    0.000    0.500    5.000    3.000    0.000    8.000 
#    0.000    3.750    0.000    0.000    0.000    0.000 
#    0.000    0.000    0.000    0.000    0.000    0.000 
#
# Total GULP energy -178731.267439 kJ/mol
# GULP energy per Si atom -5585.352107 kJ/mol
# Density = 2.381518 g / cm^3
# Si number density = 23.869503 Si / 1000 Ang^3
#
#
#
# Elastic Constant Matrix: (Units=GPa)
#
#
# Indices 1 2 3 4 5 6 
#
# 1 84.6279 5.4381 3.4333 0.0000 0.0000 0.0000
# 2 5.4381 111.7550 18.9884 0.0000 0.0000 0.0000
# 3 3.4333 18.9884 133.6631 0.0000 0.0000 0.0000
# 4 0.0000 0.0000 0.0000 39.3542 0.0000 0.0000
# 5 0.0000 0.0000 0.0000 0.0000 16.3195 0.0000
# 6 0.0000 0.0000 0.0000 0.0000 0.0000 24.1096
#
#
#
# Elastic Compliance Matrix: (Units=1/GPa)
#
#
# Indices 1 2 3 4 5 6 
#
# 1 0.011860 -0.000538 -0.000228 0.000000 0.000000 0.000000
# 2 -0.000538 0.009194 -0.001292 0.000000 0.000000 0.000000
# 3 -0.000228 -0.001292 0.007671 0.000000 0.000000 0.000000
# 4 0.000000 0.000000 0.000000 0.025410 0.000000 0.000000
# 5 0.000000 0.000000 0.000000 0.000000 0.061276 0.000000
# 6 0.000000 0.000000 0.000000 0.000000 0.000000 0.041477
#
#
# Mechanical properties :
#
#
# Convention : Reuss Voigt Hill
#
# Bulk Modulus (GPa) = 40.63795 42.86284 41.75039
# Shear Modulus (GPa) = 29.54924 36.10240 32.82582
#
# Velocity S-wave (km/s) = 3.52227 3.89329 3.71242
# Velocity P-wave (km/s) = 5.79688 6.18114 5.99209
#
# Compressibility (1/GPa) = 0.02460754
#
# Stress axis : x y z
#
# Youngs Moduli (GPa) = 84.31496 108.76755 130.36211
#
# Poissons Ratio (x) = 0.05856 0.02974
# Poissons Ratio (y) = 0.04539 0.16846
# Poissons Ratio (z) = 0.01924 0.14056
#
# Static dielectric constant tensor:
#      x y z
#    x 1.935240 0.000000 0.000000 
#    y 0.000000 1.931580 0.000000 
#    z 0.000000 0.000000 2.013890 
# 
# From -- ./inp_files/14746.got.cif
#   From: 2010.05.17/outbox.cif.g08.bks.cpg/sg48_8_cif.got.tgz:14746.got - 2010.06.03 20:39:00.
