data_PCOD9391658
_publ_section_title
;
Structure prediction by ZEFSAII (Michael W. Deem and Ramdas Pophale) SiO2 
 PCOD9391658
Probable space group: P N N N
;
_chemical_formula_sum "Si O2"
_cell_formula_units_Z 42
_cell_length_a 11.300673
_cell_length_b 10.032843
_cell_length_c 16.133815
_cell_angle_alpha 90.000000
_cell_angle_beta 90.000000
_cell_angle_gamma 90.000000
_cell_volume 1829.217709
_symmetry_space_group_name_H-M "P N N N"
_symmetry_group_IT_number 48
_space_group.IT_coordinate_system_code '2'
_symmetry_cell_setting 'orthorhombic'
loop_
_space_group_symop_operation_xyz
x,y,z
1/2-x,1/2-y,z
x,1/2-y,1/2-z
1/2-x,y,1/2-z
-x,-y,-z
1/2+x,1/2+y,-z
-x,1/2+y,1/2+z
1/2+x,-y,1/2+z
loop_
_atom_site_type_symbol
_atom_site_label
_atom_site_fract_x
_atom_site_fract_y
_atom_site_fract_z
Si Si1 0.750000 0.529803 0.250000
Si Si2 0.987708 0.731963 0.482709
Si Si3 0.750000 0.250000 0.750000
Si Si4 0.404406 0.475442 0.105846
Si Si5 0.002464 0.402348 0.225038
Si Si6 0.355266 0.934449 0.104937
Si Si7 0.250000 0.250000 0.889003
O O1 0.633465 0.444932 0.267257
O O2 0.726316 0.625468 0.171530
O O3 0.960715 0.660026 0.569540
O O4 0.864473 0.779926 0.443890
O O5 0.029429 0.604000 0.429322
O O6 0.086017 0.844851 0.466968
O O7 0.673964 0.163598 0.816689
O O8 0.421176 0.474455 0.203516
O O9 0.267741 0.495278 0.081592
O O10 0.015269 0.250000 0.250000
O O11 0.054981 0.454222 0.138713
#
# Coordination Sequence:
#
# PCOD9391658 Si02
#       7
#     4   8   2   8   8   8   4
#     4  11  23  42  68 104 133 181 236 294 358 415
#     4  11  23  43  68 102 139 180 232 297 358 427
#     4  12  20  36  74 102 128 168 246 290 350 424
#     4  11  24  43  67 102 143 179 229 297 367 422
#     4  12  25  44  68 101 143 184 234 298 355 430
#     4  12  22  42  72 105 136 190 239 297 361 430
#     4  11  22  40  74  96 133 176 242 294 343 432
#
# _framework density 22.960636000000001
#
# number of rings (size 3 to 8) (size 9 to 14) (size 15 to 20)
#    0.000    0.571    7.619    0.286    0.000    3.048 
#    3.429    3.810    0.000    0.000    0.000    0.000 
#    0.000    0.000    0.000    0.000    0.000    0.000 
#
# Total GULP energy -234977.776539 kJ/mol
# GULP energy per Si atom -5594.708965 kJ/mol
# Density = 2.290838 g / cm^3
# Si number density = 22.960636 Si / 1000 Ang^3
#
#
#
# Elastic Constant Matrix: (Units=GPa)
#
#
# Indices 1 2 3 4 5 6 
#
# 1 129.2360 25.5784 8.1750 0.0000 0.0000 0.0000
# 2 25.5784 98.9595 18.0494 0.0000 0.0000 0.0000
# 3 8.1750 18.0494 57.5560 0.0000 0.0000 0.0000
# 4 0.0000 0.0000 0.0000 2.2148 0.0000 0.0000
# 5 0.0000 0.0000 0.0000 0.0000 29.8316 0.0000
# 6 0.0000 0.0000 0.0000 0.0000 0.0000 7.6880
#
#
#
# Elastic Compliance Matrix: (Units=1/GPa)
#
#
# Indices 1 2 3 4 5 6 
#
# 1 0.008170 -0.002015 -0.000528 0.000000 0.000000 0.000000
# 2 -0.002015 0.011215 -0.003231 0.000000 0.000000 0.000000
# 3 -0.000528 -0.003231 0.018463 0.000000 0.000000 0.000000
# 4 0.000000 0.000000 0.000000 0.451509 0.000000 0.000000
# 5 0.000000 0.000000 0.000000 0.000000 0.033521 0.000000
# 6 0.000000 0.000000 0.000000 0.000000 0.000000 0.130073
#
#
# Mechanical properties :
#
#
# Convention : Reuss Voigt Hill
#
# Bulk Modulus (GPa) = 38.02461 43.26192 40.64326
# Shear Modulus (GPa) = 7.42646 23.54346 15.48496
#
# Velocity S-wave (km/s) = 1.80040 3.20564 2.59976
# Velocity P-wave (km/s) = 4.57369 5.70825 5.17218
#
# Compressibility (1/GPa) = 0.02629876
#
# Stress axis : x y z
#
# Youngs Moduli (GPa) = 122.39768 89.16357 54.16348
#
# Poissons Ratio (x) = 0.17970 0.02862
# Poissons Ratio (y) = 0.24668 0.17499
# Poissons Ratio (z) = 0.06468 0.28807
#
# Static dielectric constant tensor:
#      x y z
#    x 1.819860 0.000000 0.000000 
#    y 0.000000 1.866080 0.000000 
#    z 0.000000 0.000000 1.869550 
# 
# From -- ./inp_files/30994.got.cif
#   From: 2010.05.17/outbox.cif.g08.bks.cpg/sg48_16_cif.got.tgz:30994.got - 2010.06.03 20:39:00.
