data_PCOD9391754
_publ_section_title
;
Structure prediction by ZEFSAII (Michael W. Deem and Ramdas Pophale) SiO2 
 PCOD9391754
Probable space group: P N N N
;
_chemical_formula_sum "Si O2"
_cell_formula_units_Z 22
_cell_length_a 13.196851
_cell_length_b 12.776351
_cell_length_c 5.352686
_cell_angle_alpha 90.000000
_cell_angle_beta 90.000000
_cell_angle_gamma 90.000000
_cell_volume 902.503543
_symmetry_space_group_name_H-M "P N N N"
_symmetry_group_IT_number 48
_space_group.IT_coordinate_system_code '2'
_symmetry_cell_setting 'orthorhombic'
loop_
_space_group_symop_operation_xyz
x,y,z
1/2-x,1/2-y,z
x,1/2-y,1/2-z
1/2-x,y,1/2-z
-x,-y,-z
1/2+x,1/2+y,-z
-x,1/2+y,1/2+z
1/2+x,-y,1/2+z
loop_
_atom_site_type_symbol
_atom_site_label
_atom_site_fract_x
_atom_site_fract_y
_atom_site_fract_z
Si Si1 0.124347 0.820305 0.996818
Si Si2 0.750000 0.750000 0.250000
Si Si3 0.250000 0.981301 0.250000
Si Si4 0.404024 0.140043 0.388663
O O1 0.121116 0.750000 0.250000
O O2 0.213859 0.903749 0.032144
O O3 0.134580 0.750000 0.750000
O O4 0.017110 0.881275 0.980734
O O5 0.676732 0.828292 0.400539
O O6 0.348071 0.055038 0.216151
O O7 0.414792 0.250000 0.250000
#
# Coordination Sequence:
#
# PCOD9391754 Si02
#       4
#     8   2   4   8
#     4  11  27  49  71 107 157 199 244 308 372 444
#     4  12  18  40  76  96 150 192 242 300 378 422
#     4  12  24  46  76 110 144 198 254 304 374 444
#     4  11  23  45  70 110 150 192 250 310 369 447
#
# _framework density 24.376636000000001
#
# number of rings (size 3 to 8) (size 9 to 14) (size 15 to 20)
#    0.000    0.727    5.455    1.636    0.000    5.818 
#    0.000    7.273    0.000    0.000    0.000    0.000 
#    0.000    0.000    0.000    0.000    0.000    0.000 
#
# Total GULP energy -122987.614368 kJ/mol
# GULP energy per Si atom -5590.346108 kJ/mol
# Density = 2.432115 g / cm^3
# Si number density = 24.376636 Si / 1000 Ang^3
#
#
#
# Elastic Constant Matrix: (Units=GPa)
#
#
# Indices 1 2 3 4 5 6 
#
# 1 202.0835 73.1929 57.8137 0.0000 0.0000 0.0000
# 2 73.1929 141.9112 57.3848 0.0000 0.0000 0.0000
# 3 57.8137 57.3848 115.1868 0.0000 0.0000 0.0000
# 4 0.0000 0.0000 0.0000 19.6886 0.0000 0.0000
# 5 0.0000 0.0000 0.0000 0.0000 41.8073 0.0000
# 6 0.0000 0.0000 0.0000 0.0000 0.0000 -252.5147
#
#
#
# Elastic Compliance Matrix: (Units=1/GPa)
#
#
# Indices 1 2 3 4 5 6 
#
# 1 0.006424 -0.002516 -0.001970 0.000000 0.000000 0.000000
# 2 -0.002516 0.009810 -0.003624 0.000000 0.000000 0.000000
# 3 -0.001970 -0.003624 0.011476 0.000000 0.000000 0.000000
# 4 0.000000 0.000000 0.000000 0.050791 0.000000 0.000000
# 5 0.000000 0.000000 0.000000 0.000000 0.023919 0.000000
# 6 0.000000 0.000000 0.000000 0.000000 0.000000 -0.003960
#
#
# Mechanical properties :
#
#
# Convention : Reuss Voigt Hill
#
# Bulk Modulus (GPa) = 87.05013 92.88492 89.96752
# Shear Modulus (GPa) = 42.19015 -20.15111 11.01952
#
# Velocity S-wave (km/s) = 4.16476 -2.87828 2.12846
# Velocity P-wave (km/s) = 7.67561 5.20968 6.55956
#
# Compressibility (1/GPa) = 0.01148763
#
# Stress axis : x y z
#
# Youngs Moduli (GPa) = 155.67733 101.93660 87.13713
#
# Poissons Ratio (x) = 0.25650 0.17170
# Poissons Ratio (y) = 0.39172 0.31581
# Poissons Ratio (z) = 0.30676 0.36945
#
# Static dielectric constant tensor:
#      x y z
#    x 2.013680 0.000000 0.000000 
#    y 0.000000 1.984230 0.000000 
#    z 0.000000 0.000000 1.978350 
# 
# From -- ./inp_files/1481.got.cif
#   From: 2010.05.17/outbox.cif.g08.bks.cpg/sg48_1_cif.got.tgz:1481.got - 2010.06.03 20:39:00.
