data_PCOD9391079
_publ_section_title
;
Structure prediction by ZEFSAII (Michael W. Deem and Ramdas Pophale) SiO2 
 PCOD9391079
Probable space group: P N N N
;
_chemical_formula_sum "Si O2"
_cell_formula_units_Z 34
_cell_length_a 9.758452
_cell_length_b 7.986522
_cell_length_c 19.412281
_cell_angle_alpha 90.000000
_cell_angle_beta 90.000000
_cell_angle_gamma 90.000000
_cell_volume 1512.917310
_symmetry_space_group_name_H-M "P N N N"
_symmetry_group_IT_number 48
_space_group.IT_coordinate_system_code '2'
_symmetry_cell_setting 'orthorhombic'
loop_
_space_group_symop_operation_xyz
x,y,z
1/2-x,1/2-y,z
x,1/2-y,1/2-z
1/2-x,y,1/2-z
-x,-y,-z
1/2+x,1/2+y,-z
-x,1/2+y,1/2+z
1/2+x,-y,1/2+z
loop_
_atom_site_type_symbol
_atom_site_label
_atom_site_fract_x
_atom_site_fract_y
_atom_site_fract_z
Si Si1 0.995431 0.377113 0.839787
Si Si2 0.750000 0.250000 0.250000
Si Si3 0.750000 0.750000 0.250000
Si Si4 0.959294 0.238023 0.134289
Si Si5 0.250000 0.750000 0.511604
Si Si6 0.921824 0.441715 0.569029
Si Si7 0.750000 0.250000 0.750000
O O1 0.140277 0.346633 0.799029
O O2 0.994239 0.574063 0.854005
O O3 0.985056 0.229129 0.898010
O O4 0.857245 0.349675 0.796426
O O5 0.857057 0.172846 0.194732
O O6 0.875024 0.257841 0.063397
O O7 0.068085 0.091561 0.122849
O O8 0.228586 0.596494 0.459912
O O9 0.000000 0.500000 0.500000
#
# Coordination Sequence:
#
# PCOD9391079 Si02
#       7
#     8   2   2   8   4   8   2
#     4  11  24  45  68 102 139 180 226 286 348 414
#     4  10  22  40  68 108 136 160 246 296 330 408
#     4  10  26  38  74 108 128 180 238 288 350 408
#     4  10  23  40  70 100 131 183 227 289 343 404
#     4   9  21  43  64  99 143 171 230 290 334 409
#     4  10  23  42  64  98 137 177 223 282 340 406
#     4  10  26  46  64  98 150 176 216 284 350 410
#
# _framework density 22.473139
#
# number of rings (size 3 to 8) (size 9 to 14) (size 15 to 20)
#    0.000    1.882    0.000    1.412   16.471    3.765 
#    0.000   12.941    0.000    0.000    0.000    0.000 
#    0.000    0.000    0.000    0.000    0.000    0.000 
#
# Total GULP energy -189270.515132 kJ/mol
# GULP energy per Si atom -5566.779857 kJ/mol
# Density = 2.242199 g / cm^3
# Si number density = 22.473139 Si / 1000 Ang^3
#
#
#
# Elastic Constant Matrix: (Units=GPa)
#
#
# Indices 1 2 3 4 5 6 
#
# 1 116.8198 59.4080 56.7811 0.0000 0.0000 0.0000
# 2 59.4080 158.0141 69.7036 0.0000 0.0000 0.0000
# 3 56.7811 69.7036 124.2846 0.0000 0.0000 0.0000
# 4 0.0000 0.0000 0.0000 -23.2398 0.0000 0.0000
# 5 0.0000 0.0000 0.0000 0.0000 13.3590 0.0000
# 6 0.0000 0.0000 0.0000 0.0000 0.0000 16.0620
#
#
#
# Elastic Compliance Matrix: (Units=1/GPa)
#
#
# Indices 1 2 3 4 5 6 
#
# 1 0.011836 -0.002743 -0.003869 0.000000 0.000000 0.000000
# 2 -0.002743 0.009045 -0.003819 0.000000 0.000000 0.000000
# 3 -0.003869 -0.003819 0.011956 0.000000 0.000000 0.000000
# 4 0.000000 0.000000 0.000000 -0.043030 0.000000 0.000000
# 5 0.000000 0.000000 0.000000 0.000000 0.074856 0.000000
# 6 0.000000 0.000000 0.000000 0.000000 0.000000 0.062259
#
#
# Mechanical properties :
#
#
# Convention : Reuss Voigt Hill
#
# Bulk Modulus (GPa) = 83.51927 85.65600 84.58764
# Shear Modulus (GPa) = 32.94360 15.45129 24.19745
#
# Velocity S-wave (km/s) = 3.83287 2.62495 3.28491
# Velocity P-wave (km/s) = 7.53874 6.88366 7.21863
#
# Compressibility (1/GPa) = 0.01197328
#
# Stress axis : x y z
#
# Youngs Moduli (GPa) = 84.49020 110.56185 83.64273
#
# Poissons Ratio (x) = 0.30329 0.32360
# Poissons Ratio (y) = 0.23177 0.31946
# Poissons Ratio (z) = 0.32688 0.42227
#
# Static dielectric constant tensor:
#      x y z
#    x 1.798130 0.000000 0.000000 
#    y 0.000000 2.007290 0.000000 
#    z 0.000000 0.000000 2.059440 
# 
# From -- ./inp_files/33268.got.cif
#   From: 2010.05.17/outbox.cif.g08.bks.cpg/sg48_17_cif.got.tgz:33268.got - 2010.06.03 20:39:00.
