data_PCOD9391757
_publ_section_title
;
Structure prediction by ZEFSAII (Michael W. Deem and Ramdas Pophale) SiO2 
 PCOD9391757
Probable space group: P N N N
;
_chemical_formula_sum "Si O2"
_cell_formula_units_Z 38
_cell_length_a 11.251919
_cell_length_b 28.826902
_cell_length_c 5.210085
_cell_angle_alpha 90.000000
_cell_angle_beta 90.000000
_cell_angle_gamma 90.000000
_cell_volume 1689.932575
_symmetry_space_group_name_H-M "P N N N"
_symmetry_group_IT_number 48
_space_group.IT_coordinate_system_code '2'
_symmetry_cell_setting 'orthorhombic'
loop_
_space_group_symop_operation_xyz
x,y,z
1/2-x,1/2-y,z
x,1/2-y,1/2-z
1/2-x,y,1/2-z
-x,-y,-z
1/2+x,1/2+y,-z
-x,1/2+y,1/2+z
1/2+x,-y,1/2+z
loop_
_atom_site_type_symbol
_atom_site_label
_atom_site_fract_x
_atom_site_fract_y
_atom_site_fract_z
Si Si1 0.750000 0.750000 0.250000
Si Si2 0.603815 0.422407 0.632893
Si Si3 0.379403 0.640736 0.850352
Si Si4 0.630317 0.565090 0.104675
Si Si5 0.367152 0.170794 0.431181
Si Si6 0.750000 0.502364 0.750000
O O1 0.665719 0.784334 0.406590
O O2 0.583280 0.394961 0.372794
O O3 0.485927 0.446271 0.739479
O O4 0.694559 0.463551 0.563247
O O5 0.633776 0.386364 0.873731
O O6 0.250000 0.658292 0.750000
O O7 0.493939 0.674780 0.849983
O O8 0.750000 0.552928 0.250000
O O9 0.630949 0.620587 0.067450
O O10 0.646596 0.535944 0.847553
O O11 0.250000 0.167054 0.250000
#
# Coordination Sequence:
#
# PCOD9391757 Si02
#       6
#     2   8   8   8   8   4
#     4  12  26  48  80 116 136 184 234 314 378 468
#     4  11  25  42  66 101 146 197 250 288 346 413
#     4  11  23  46  75 106 147 195 240 293 357 433
#     4  11  24  40  65  98 145 190 242 302 356 414
#     4  11  24  46  75 108 143 183 239 302 378 436
#     4  12  24  40  62 101 148 199 248 298 334 426
#
# _framework density 22.486104999999998
#
# number of rings (size 3 to 8) (size 9 to 14) (size 15 to 20)
#    0.000    0.842    4.211    2.211    8.842    0.842 
#    0.000    0.000    0.000    3.789    0.000    0.000 
#    0.000    0.000    0.000    0.000    0.000    0.000 
#
# Total GULP energy -211753.940051 kJ/mol
# GULP energy per Si atom -5572.472107 kJ/mol
# Density = 2.243493 g / cm^3
# Si number density = 22.486105 Si / 1000 Ang^3
#
#
#
# Elastic Constant Matrix: (Units=GPa)
#
#
# Indices 1 2 3 4 5 6 
#
# 1 174.6287 38.5121 17.3470 0.0000 0.0000 0.0000
# 2 38.5121 119.8599 28.1209 0.0000 0.0000 0.0000
# 3 17.3470 28.1209 77.7832 0.0000 0.0000 0.0000
# 4 0.0000 0.0000 0.0000 28.8519 0.0000 0.0000
# 5 0.0000 0.0000 0.0000 0.0000 72.1183 0.0000
# 6 0.0000 0.0000 0.0000 0.0000 0.0000 -4.6207
#
#
#
# Elastic Compliance Matrix: (Units=1/GPa)
#
#
# Indices 1 2 3 4 5 6 
#
# 1 0.006200 -0.001822 -0.000724 0.000000 0.000000 0.000000
# 2 -0.001822 0.009652 -0.003083 0.000000 0.000000 0.000000
# 3 -0.000724 -0.003083 0.014132 0.000000 0.000000 0.000000
# 4 0.000000 0.000000 0.000000 0.034660 0.000000 0.000000
# 5 0.000000 0.000000 0.000000 0.000000 0.013866 0.000000
# 6 0.000000 0.000000 0.000000 0.000000 0.000000 -0.216419
#
#
# Mechanical properties :
#
#
# Convention : Reuss Voigt Hill
#
# Bulk Modulus (GPa) = 53.40213 60.02575 56.71394
# Shear Modulus (GPa) = -41.52562 38.48936 -1.51813
#
# Velocity S-wave (km/s) = -4.30201 4.14175 -0.82256
# Velocity P-wave (km/s) = 0.93591 7.04448 4.93704
#
# Compressibility (1/GPa) = 0.01872584
#
# Stress axis : x y z
#
# Youngs Moduli (GPa) = 161.28395 103.60609 70.75986
#
# Poissons Ratio (x) = 0.18881 0.05122
# Poissons Ratio (y) = 0.29392 0.21816
# Poissons Ratio (z) = 0.11676 0.31942
#
# Static dielectric constant tensor:
#      x y z
#    x 2.043880 0.000000 0.000000 
#    y 0.000000 1.827670 0.000000 
#    z 0.000000 0.000000 1.999990 
# 
# From -- ./inp_files/2426.got.cif
#   From: 2010.05.17/outbox.cif.g08.bks.cpg/sg48_2_cif.got.tgz:2426.got - 2010.06.03 20:39:00.
