data_PCOD9391028
_publ_section_title
;
Structure prediction by ZEFSAII (Michael W. Deem and Ramdas Pophale) SiO2 
 PCOD9391028
Probable space group: P N N N
;
_chemical_formula_sum "Si O2"
_cell_formula_units_Z 56
_cell_length_a 14.567733
_cell_length_b 14.105368
_cell_length_c 13.058807
_cell_angle_alpha 90.000000
_cell_angle_beta 90.000000
_cell_angle_gamma 90.000000
_cell_volume 2683.365906
_symmetry_space_group_name_H-M "P N N N"
_symmetry_group_IT_number 48
_space_group.IT_coordinate_system_code '2'
_symmetry_cell_setting 'orthorhombic'
loop_
_space_group_symop_operation_xyz
x,y,z
1/2-x,1/2-y,z
x,1/2-y,1/2-z
1/2-x,y,1/2-z
-x,-y,-z
1/2+x,1/2+y,-z
-x,1/2+y,1/2+z
1/2+x,-y,1/2+z
loop_
_atom_site_type_symbol
_atom_site_label
_atom_site_fract_x
_atom_site_fract_y
_atom_site_fract_z
Si Si1 0.162207 0.350826 0.191680
Si Si2 0.701810 0.449408 0.405263
Si Si3 0.304665 0.342861 0.548415
Si Si4 0.477572 0.542770 0.739054
Si Si5 0.870902 0.183424 0.149042
Si Si6 0.156295 0.698664 0.056259
Si Si7 0.020602 0.334714 0.816468
O O1 0.145434 0.250000 0.250000
O O2 0.250000 0.394611 0.250000
O O3 0.070595 0.412697 0.196316
O O4 0.189283 0.338001 0.073937
O O5 0.737349 0.556864 0.413890
O O6 0.610053 0.446274 0.336849
O O7 0.777699 0.377401 0.361797
O O8 0.677403 0.407443 0.516536
O O9 0.250000 0.250000 0.584790
O O10 0.408139 0.348059 0.591162
O O11 0.450404 0.605705 0.836961
O O12 0.487894 0.430534 0.748910
O O13 0.872253 0.250000 0.250000
O O14 0.877215 0.245606 0.046430
O O15 0.250000 0.750000 0.089438
O O16 0.077267 0.695062 0.138845
O O17 0.059390 0.250000 0.750000
#
# Coordination Sequence:
#
# PCOD9391028 Si02
#       7
#     8   8   8   8   8   8   8
#     4  11  23  42  67 103 132 174 223 272 334 385
#     4  10  22  38  68 102 131 168 214 271 343 387
#     4  11  24  44  69  92 140 177 220 274 324 406
#     4  11  23  39  67  95 132 171 215 271 328 396
#     4  11  22  37  69 109 132 162 219 290 338 389
#     4  10  22  41  67  98 130 169 218 281 337 389
#     4  11  27  48  62  93 133 185 231 261 332 412
#
# _framework density 20.869311
#
# number of rings (size 3 to 8) (size 9 to 14) (size 15 to 20)
#    0.000    1.286    2.857    2.571    8.000    2.857 
#    7.714    0.714    0.000    0.000    0.000    0.000 
#    0.000    0.000    0.000    0.000    0.000    0.000 
#
# Total GULP energy -312883.548250 kJ/mol
# GULP energy per Si atom -5587.206219 kJ/mol
# Density = 2.082181 g / cm^3
# Si number density = 20.869311 Si / 1000 Ang^3
#
#
#
# Elastic Constant Matrix: (Units=GPa)
#
#
# Indices 1 2 3 4 5 6 
#
# 1 58.6941 24.5935 9.1961 0.0000 0.0000 0.0000
# 2 24.5935 144.7612 22.1650 0.0000 0.0000 0.0000
# 3 9.1961 22.1650 47.7990 0.0000 0.0000 0.0000
# 4 0.0000 0.0000 0.0000 4.4974 0.0000 0.0000
# 5 0.0000 0.0000 0.0000 0.0000 12.1144 0.0000
# 6 0.0000 0.0000 0.0000 0.0000 0.0000 25.5000
#
#
#
# Elastic Compliance Matrix: (Units=1/GPa)
#
#
# Indices 1 2 3 4 5 6 
#
# 1 0.018569 -0.002807 -0.002271 0.000000 0.000000 0.000000
# 2 -0.002807 0.007860 -0.003105 0.000000 0.000000 0.000000
# 3 -0.002271 -0.003105 0.022798 0.000000 0.000000 0.000000
# 4 0.000000 0.000000 0.000000 0.222350 0.000000 0.000000
# 5 0.000000 0.000000 0.000000 0.000000 0.082546 0.000000
# 6 0.000000 0.000000 0.000000 0.000000 0.000000 0.039216
#
#
# Mechanical properties :
#
#
# Convention : Reuss Voigt Hill
#
# Bulk Modulus (GPa) = 30.43060 40.35149 35.39105
# Shear Modulus (GPa) = 11.88611 21.44234 16.66422
#
# Velocity S-wave (km/s) = 2.38911 3.20888 2.82885
# Velocity P-wave (km/s) = 4.71420 5.75382 5.25976
#
# Compressibility (1/GPa) = 0.03286166
#
# Stress axis : x y z
#
# Youngs Moduli (GPa) = 53.85176 127.22301 43.86431
#
# Poissons Ratio (x) = 0.35712 0.09961
# Poissons Ratio (y) = 0.15117 0.13619
# Poissons Ratio (z) = 0.12229 0.39500
#
# Static dielectric constant tensor:
#      x y z
#    x 1.757240 0.000000 0.000000 
#    y 0.000000 1.756940 0.000000 
#    z 0.000000 0.000000 1.763870 
# 
# From -- ./inp_files/27322.got.cif
#   From: 2010.05.17/outbox.cif.g08.bks.cpg/sg48_14_cif.got.tgz:27322.got - 2010.06.03 20:39:00.
