data_PCOD9391871
_publ_section_title
;
Structure prediction by ZEFSAII (Michael W. Deem and Ramdas Pophale) SiO2 
 PCOD9391871
Probable space group: P N N N
;
_chemical_formula_sum "Si O2"
_cell_formula_units_Z 38
_cell_length_a 16.715831
_cell_length_b 8.829953
_cell_length_c 11.784233
_cell_angle_alpha 90.000000
_cell_angle_beta 90.000000
_cell_angle_gamma 90.000000
_cell_volume 1739.352815
_symmetry_space_group_name_H-M "P N N N"
_symmetry_group_IT_number 48
_space_group.IT_coordinate_system_code '2'
_symmetry_cell_setting 'orthorhombic'
loop_
_space_group_symop_operation_xyz
x,y,z
1/2-x,1/2-y,z
x,1/2-y,1/2-z
1/2-x,y,1/2-z
-x,-y,-z
1/2+x,1/2+y,-z
-x,1/2+y,1/2+z
1/2+x,-y,1/2+z
loop_
_atom_site_type_symbol
_atom_site_label
_atom_site_fract_x
_atom_site_fract_y
_atom_site_fract_z
Si Si1 0.541474 0.817079 0.866940
Si Si2 0.250000 0.750000 0.750000
Si Si3 0.879108 0.343415 0.433875
Si Si4 0.250000 0.021587 0.250000
Si Si5 0.906126 0.141600 0.655034
Si Si6 0.178106 0.163262 0.019399
O O1 0.576370 0.750000 0.750000
O O2 0.463300 0.714585 0.884006
O O3 0.607963 0.782403 0.960004
O O4 0.535304 0.998482 0.865180
O O5 0.188974 0.673389 0.661311
O O6 0.876861 0.234909 0.545097
O O7 0.866984 0.515898 0.471929
O O8 0.174162 0.925790 0.290158
O O9 0.219610 0.107575 0.137216
O O10 0.943664 0.250000 0.750000
O O11 0.250000 0.250000 0.954783
#
# Coordination Sequence:
#
# PCOD9391871 Si02
#       6
#     8   2   8   4   8   8
#     4  12  23  45  69 105 148 189 240 300 374 434
#     4  12  28  48  72  88 146 204 238 278 348 460
#     4  12  27  47  69  98 146 199 242 288 366 450
#     4  12  20  36  68 104 140 162 224 316 374 418
#     4  12  24  40  73 110 138 182 244 312 368 428
#     4  12  23  41  74 107 138 180 236 312 371 429
#
# _framework density 21.847207999999998
#
# number of rings (size 3 to 8) (size 9 to 14) (size 15 to 20)
#    0.000    0.000    7.368    3.158    0.000    0.000 
#    0.000    0.526    0.000    0.000    0.000    0.000 
#    0.000    0.000    0.000    0.000    0.000    0.000 
#
# Total GULP energy -212036.232620 kJ/mol
# GULP energy per Si atom -5579.900858 kJ/mol
# Density = 2.179748 g / cm^3
# Si number density = 21.847208 Si / 1000 Ang^3
#
#
#
# Elastic Constant Matrix: (Units=GPa)
#
#
# Indices 1 2 3 4 5 6 
#
# 1 110.8838 45.5072 -3.6820 0.0000 0.0000 0.0000
# 2 45.5072 164.2853 36.9270 0.0000 0.0000 0.0000
# 3 -3.6820 36.9270 64.5059 0.0000 0.0000 0.0000
# 4 0.0000 0.0000 0.0000 349.8217 0.0000 0.0000
# 5 0.0000 0.0000 0.0000 0.0000 200.5012 0.0000
# 6 0.0000 0.0000 0.0000 0.0000 0.0000 40.5049
#
#
#
# Elastic Compliance Matrix: (Units=1/GPa)
#
#
# Indices 1 2 3 4 5 6 
#
# 1 0.010545 -0.003507 0.002610 0.000000 0.000000 0.000000
# 2 -0.003507 0.008153 -0.004867 0.000000 0.000000 0.000000
# 3 0.002610 -0.004867 0.018438 0.000000 0.000000 0.000000
# 4 0.000000 0.000000 0.000000 0.002859 0.000000 0.000000
# 5 0.000000 0.000000 0.000000 0.000000 0.004988 0.000000
# 6 0.000000 0.000000 0.000000 0.000000 0.000000 0.024688
#
#
# Mechanical properties :
#
#
# Convention : Reuss Voigt Hill
#
# Bulk Modulus (GPa) = 39.05481 55.24215 47.14848
# Shear Modulus (GPa) = 55.72015 135.56042 95.64028
#
# Velocity S-wave (km/s) = 5.05567 7.88568 6.62359
# Velocity P-wave (km/s) = 7.21075 10.40445 8.95119
#
# Compressibility (1/GPa) = 0.02560504
#
# Stress axis : x y z
#
# Youngs Moduli (GPa) = 94.83533 122.66079 54.23668
#
# Poissons Ratio (x) = 0.43023 -0.14155
# Poissons Ratio (y) = 0.33263 0.26398
# Poissons Ratio (z) = -0.24750 0.59702
#
# Static dielectric constant tensor:
#      x y z
#    x 1.810200 0.000000 0.000000 
#    y 0.000000 1.847670 0.000000 
#    z 0.000000 0.000000 1.852230 
# 
# From -- ./inp_files/10730.got.cif
#   From: 2010.05.17/outbox.cif.g08.bks.cpg/sg48_6_cif.got.tgz:10730.got - 2010.06.03 20:39:00.
