data_PCOD9391575
_publ_section_title
;
Structure prediction by ZEFSAII (Michael W. Deem and Ramdas Pophale) SiO2 
 PCOD9391575
Probable space group: P N N N
;
_chemical_formula_sum "Si O2"
_cell_formula_units_Z 60
_cell_length_a 11.888472
_cell_length_b 22.214866
_cell_length_c 12.065012
_cell_angle_alpha 90.000000
_cell_angle_beta 90.000000
_cell_angle_gamma 90.000000
_cell_volume 3186.379471
_symmetry_space_group_name_H-M "P N N N"
_symmetry_group_IT_number 48
_space_group.IT_coordinate_system_code '2'
_symmetry_cell_setting 'orthorhombic'
loop_
_space_group_symop_operation_xyz
x,y,z
1/2-x,1/2-y,z
x,1/2-y,1/2-z
1/2-x,y,1/2-z
-x,-y,-z
1/2+x,1/2+y,-z
-x,1/2+y,1/2+z
1/2+x,-y,1/2+z
loop_
_atom_site_type_symbol
_atom_site_label
_atom_site_fract_x
_atom_site_fract_y
_atom_site_fract_z
Si Si1 0.059310 0.053069 0.119995
Si Si2 0.235349 0.439707 0.961521
Si Si3 0.078875 0.587616 0.424737
Si Si4 0.250000 0.354666 0.750000
Si Si5 0.001424 0.680993 0.248858
Si Si6 0.157714 0.898630 0.408233
Si Si7 0.566586 0.532457 0.639759
Si Si8 0.687435 0.062270 0.138264
O O1 0.095084 0.065479 0.246003
O O2 0.044541 0.979950 0.114756
O O3 0.166107 0.070837 0.047616
O O4 0.955757 0.085386 0.055558
O O5 0.249281 0.397329 0.857517
O O6 0.254640 0.507842 0.918799
O O7 0.117937 0.436240 0.030017
O O8 0.208116 0.599212 0.389140
O O9 0.016946 0.640929 0.359869
O O10 0.133295 0.319650 0.766173
O O11 0.039743 0.750000 0.250000
O O12 0.078069 0.647115 0.156843
O O13 0.157492 0.890493 0.541987
O O14 0.113948 0.965059 0.373434
O O15 0.432840 0.530494 0.655560
O O16 0.750000 0.081354 0.250000
#
# Coordination Sequence:
#
# PCOD9391575 Si02
#       8
#     8   8   8   4   8   8   8   8
#     4  11  21  35  55  88 124 165 191 239 319 384
#     4  11  21  33  56  86 123 162 194 242 312 379
#     4  11  22  36  56  85 121 161 198 249 308 381
#     4  12  23  44  60  88 126 160 207 264 310 384
#     4  12  26  42  62  85 118 166 216 265 315 362
#     4  11  22  37  56  84 123 163 202 251 301 361
#     4  11  21  33  53  87 127 161 196 236 303 382
#     4  11  21  33  51  86 123 165 197 234 301 379
#
# _framework density 18.830151000000001
#
# number of rings (size 3 to 8) (size 9 to 14) (size 15 to 20)
#    0.000    0.800    6.000    5.000    1.867    1.067 
#    0.000    0.000    0.000    0.000    0.000   11.200 
#    0.000    0.000    0.000    0.000    0.000    0.000 
#
# Total GULP energy -334343.516716 kJ/mol
# GULP energy per Si atom -5572.391945 kJ/mol
# Density = 1.878729 g / cm^3
# Si number density = 18.830151 Si / 1000 Ang^3
#
#
#
# Elastic Constant Matrix: (Units=GPa)
#
#
# Indices 1 2 3 4 5 6 
#
# 1 125.3277 27.9311 39.9919 0.0000 0.0000 0.0000
# 2 27.9311 66.6852 38.5845 0.0000 0.0000 0.0000
# 3 39.9919 38.5845 154.3519 0.0000 0.0000 0.0000
# 4 0.0000 0.0000 0.0000 8.7229 0.0000 0.0000
# 5 0.0000 0.0000 0.0000 0.0000 37.5165 0.0000
# 6 0.0000 0.0000 0.0000 0.0000 0.0000 13.0832
#
#
#
# Elastic Compliance Matrix: (Units=1/GPa)
#
#
# Indices 1 2 3 4 5 6 
#
# 1 0.009147 -0.002876 -0.001651 0.000000 0.000000 0.000000
# 2 -0.002876 0.018436 -0.003863 0.000000 0.000000 0.000000
# 3 -0.001651 -0.003863 0.007872 0.000000 0.000000 0.000000
# 4 0.000000 0.000000 0.000000 0.114640 0.000000 0.000000
# 5 0.000000 0.000000 0.000000 0.000000 0.026655 0.000000
# 6 0.000000 0.000000 0.000000 0.000000 0.000000 0.076434
#
#
# Mechanical properties :
#
#
# Convention : Reuss Voigt Hill
#
# Bulk Modulus (GPa) = 53.54955 62.15331 57.85143
# Shear Modulus (GPa) = 18.10351 27.85501 22.97926
#
# Velocity S-wave (km/s) = 3.10403 3.85031 3.49713
# Velocity P-wave (km/s) = 6.43013 7.26949 6.86266
#
# Compressibility (1/GPa) = 0.01867429
#
# Stress axis : x y z
#
# Youngs Moduli (GPa) = 109.32736 54.24240 127.02884
#
# Poissons Ratio (x) = 0.15599 0.20972
# Poissons Ratio (y) = 0.31441 0.49076
# Poissons Ratio (z) = 0.18050 0.20956
#
# Static dielectric constant tensor:
#      x y z
#    x 1.795400 0.000000 0.000000 
#    y 0.000000 1.610330 0.000000 
#    z 0.000000 0.000000 1.782890 
# 
# From -- ./inp_files/20330.got.cif
#   From: 2010.05.17/outbox.cif.g08.bks.cpg/sg48_11_cif.got.tgz:20330.got - 2010.06.03 20:39:00.
