data_PCOD9391081
_publ_section_title
;
Structure prediction by ZEFSAII (Michael W. Deem and Ramdas Pophale) SiO2 
 PCOD9391081
Probable space group: P N N N
;
_chemical_formula_sum "Si O2"
_cell_formula_units_Z 54
_cell_length_a 14.984439
_cell_length_b 11.591887
_cell_length_c 14.799967
_cell_angle_alpha 90.000000
_cell_angle_beta 90.000000
_cell_angle_gamma 90.000000
_cell_volume 2570.723538
_symmetry_space_group_name_H-M "P N N N"
_symmetry_group_IT_number 48
_space_group.IT_coordinate_system_code '2'
_symmetry_cell_setting 'orthorhombic'
loop_
_space_group_symop_operation_xyz
x,y,z
1/2-x,1/2-y,z
x,1/2-y,1/2-z
1/2-x,y,1/2-z
-x,-y,-z
1/2+x,1/2+y,-z
-x,1/2+y,1/2+z
1/2+x,-y,1/2+z
loop_
_atom_site_type_symbol
_atom_site_label
_atom_site_fract_x
_atom_site_fract_y
_atom_site_fract_z
Si Si1 0.528196 0.154604 0.513140
Si Si2 0.571652 0.757048 0.852730
Si Si3 0.694492 0.490609 0.018443
Si Si4 0.608872 0.917667 0.329790
Si Si5 0.978340 0.008484 0.353102
Si Si6 0.250000 0.250000 0.037449
Si Si7 0.750000 0.750000 0.250000
Si Si8 0.882397 0.093272 0.524339
O O1 0.477990 0.160753 0.415049
O O2 0.459206 0.134448 0.595611
O O3 0.577410 0.278542 0.516759
O O4 0.603558 0.057432 0.524906
O O5 0.604147 0.750000 0.750000
O O6 0.499511 0.857898 0.841211
O O7 0.660563 0.784948 0.908778
O O8 0.665989 0.480025 0.123587
O O9 0.720349 0.625611 0.004669
O O10 0.776589 0.415583 0.983025
O O11 0.683387 0.824519 0.308386
O O12 0.561961 0.953295 0.236492
O O13 0.915531 0.008924 0.442079
O O14 0.071686 0.953017 0.384544
#
# Coordination Sequence:
#
# PCOD9391081 Si02
#       8
#     8   8   8   8   8   4   2   8
#     4  11  25  42  69  95 139 178 229 281 352 411
#     4  11  23  42  65  97 133 182 226 287 342 423
#     4  12  24  42  67 100 134 177 227 290 341 417
#     4  12  24  41  68 101 138 174 229 290 345 416
#     4  10  22  40  68  97 132 181 227 285 350 421
#     4  12  24  40  67  97 130 178 230 288 346 409
#     4  12  26  40  66 100 130 172 220 274 348 412
#     4  10  22  44  66  93 137 184 228 275 352 421
#
# _framework density 21.005759999999999
#
# number of rings (size 3 to 8) (size 9 to 14) (size 15 to 20)
#    0.000    0.889    2.963    4.222    2.074    0.000 
#    0.000    0.741    0.000    4.444    0.000    0.000 
#    0.000    0.000    0.000    0.000    0.000    0.000 
#
# Total GULP energy -300799.585218 kJ/mol
# GULP energy per Si atom -5570.362689 kJ/mol
# Density = 2.095795 g / cm^3
# Si number density = 21.005760 Si / 1000 Ang^3
#
#
#
# Elastic Constant Matrix: (Units=GPa)
#
#
# Indices 1 2 3 4 5 6 
#
# 1 155.8393 40.8609 67.7969 0.0000 0.0000 0.0000
# 2 40.8609 87.7542 43.8265 0.0000 0.0000 0.0000
# 3 67.7969 43.8265 126.7872 0.0000 0.0000 0.0000
# 4 0.0000 0.0000 0.0000 139.4058 0.0000 0.0000
# 5 0.0000 0.0000 0.0000 0.0000 -32.0199 0.0000
# 6 0.0000 0.0000 0.0000 0.0000 0.0000 45.9996
#
#
#
# Elastic Compliance Matrix: (Units=1/GPa)
#
#
# Indices 1 2 3 4 5 6 
#
# 1 0.008665 -0.002080 -0.003915 0.000000 0.000000 0.000000
# 2 -0.002080 0.014272 -0.003821 0.000000 0.000000 0.000000
# 3 -0.003915 -0.003821 0.011301 0.000000 0.000000 0.000000
# 4 0.000000 0.000000 0.000000 0.007173 0.000000 0.000000
# 5 0.000000 0.000000 0.000000 0.000000 -0.031231 0.000000
# 6 0.000000 0.000000 0.000000 0.000000 0.000000 0.021739
#
#
# Mechanical properties :
#
#
# Convention : Reuss Voigt Hill
#
# Bulk Modulus (GPa) = 68.45829 75.03880 71.74855
# Shear Modulus (GPa) = 88.61819 45.20353 66.91086
#
# Velocity S-wave (km/s) = 6.50224 4.64395 5.65002
# Velocity P-wave (km/s) = 9.43574 8.03465 8.76324
#
# Compressibility (1/GPa) = 0.01460743
#
# Stress axis : x y z
#
# Youngs Moduli (GPa) = 115.40406 70.06557 88.48401
#
# Poissons Ratio (x) = 0.14572 0.34638
# Poissons Ratio (y) = 0.24001 0.33814
# Poissons Ratio (z) = 0.45177 0.26775
#
# Static dielectric constant tensor:
#      x y z
#    x 1.598280 0.000000 0.000000 
#    y 0.000000 1.835500 0.000000 
#    z 0.000000 0.000000 1.848440 
# 
# From -- ./inp_files/27340.got.cif
#   From: 2010.05.17/outbox.cif.g08.bks.cpg/sg48_14_cif.got.tgz:27340.got - 2010.06.03 20:39:00.
