data_PCOD9391234
_publ_section_title
;
Structure prediction by ZEFSAII (Michael W. Deem and Ramdas Pophale) SiO2 
 PCOD9391234
Probable space group: P N N N
;
_chemical_formula_sum "Si O2"
_cell_formula_units_Z 64
_cell_length_a 9.105973
_cell_length_b 12.830681
_cell_length_c 24.433154
_cell_angle_alpha 90.000000
_cell_angle_beta 90.000000
_cell_angle_gamma 90.000000
_cell_volume 2854.667943
_symmetry_space_group_name_H-M "P N N N"
_symmetry_group_IT_number 48
_space_group.IT_coordinate_system_code '2'
_symmetry_cell_setting 'orthorhombic'
loop_
_space_group_symop_operation_xyz
x,y,z
1/2-x,1/2-y,z
x,1/2-y,1/2-z
1/2-x,y,1/2-z
-x,-y,-z
1/2+x,1/2+y,-z
-x,1/2+y,1/2+z
1/2+x,-y,1/2+z
loop_
_atom_site_type_symbol
_atom_site_label
_atom_site_fract_x
_atom_site_fract_y
_atom_site_fract_z
Si Si1 0.402181 0.349154 0.388293
Si Si2 0.458227 0.063360 0.883869
Si Si3 0.100296 0.070998 0.072484
Si Si4 0.572209 0.736091 0.187171
Si Si5 0.629650 0.507151 0.152825
Si Si6 0.406326 0.706854 0.810228
Si Si7 0.613759 0.371463 0.981855
Si Si8 0.067736 0.858132 0.496929
O O1 0.448830 0.463034 0.365505
O O2 0.269498 0.138244 0.403136
O O3 0.469875 0.261936 0.348367
O O4 0.477074 0.339139 0.448182
O O5 0.488260 0.171638 0.851729
O O6 0.290214 0.034999 0.869267
O O7 0.489167 0.074719 0.949537
O O8 0.146305 0.950712 0.066731
O O9 0.955850 0.061080 0.108059
O O10 0.038366 0.102758 0.013123
O O11 0.750000 0.750000 0.187037
O O12 0.522505 0.750000 0.250000
O O13 0.552786 0.616527 0.167759
O O14 0.618545 0.417888 0.198644
O O15 0.250000 0.750000 0.832094
O O16 0.432573 0.750000 0.750000
O O17 0.766136 0.386655 0.014769
O O18 0.592161 0.252570 0.967293
#
# Coordination Sequence:
#
# PCOD9391234 Si02
#       8
#     8   8   8   8   8   8   8   8
#     4  12  25  42  68 100 140 183 227 286 350 422
#     4  11  22  40  68 100 140 178 232 283 347 416
#     4  11  24  42  61  97 136 183 228 281 346 411
#     4   9  21  39  69 102 133 177 229 298 346 397
#     4  11  23  42  67  97 139 175 232 285 352 412
#     4  11  26  45  74 104 132 181 240 300 348 411
#     4  10  23  39  63  91 140 185 230 275 334 422
#     4  11  23  40  64 101 137 187 225 281 350 417
#
# _framework density 22.419419999999999
#
# number of rings (size 3 to 8) (size 9 to 14) (size 15 to 20)
#    0.000    1.250    2.500    2.625    7.000    3.000 
#    0.000    1.250    0.000    0.750    0.000    0.000 
#    0.000    0.000    0.000    0.000    0.000    0.000 
#
# Total GULP energy -356730.128212 kJ/mol
# GULP energy per Si atom -5573.908253 kJ/mol
# Density = 2.236839 g / cm^3
# Si number density = 22.419420 Si / 1000 Ang^3
#
#
#
# Elastic Constant Matrix: (Units=GPa)
#
#
# Indices 1 2 3 4 5 6 
#
# 1 122.0730 37.3658 44.2516 0.0000 0.0000 0.0000
# 2 37.3658 162.3414 34.1928 0.0000 0.0000 0.0000
# 3 44.2516 34.1928 90.8839 0.0000 0.0000 0.0000
# 4 0.0000 0.0000 0.0000 25.8894 0.0000 0.0000
# 5 0.0000 0.0000 0.0000 0.0000 20.5279 0.0000
# 6 0.0000 0.0000 0.0000 0.0000 0.0000 28.4176
#
#
#
# Elastic Compliance Matrix: (Units=1/GPa)
#
#
# Indices 1 2 3 4 5 6 
#
# 1 0.010240 -0.001419 -0.004452 0.000000 0.000000 0.000000
# 2 -0.001419 0.006887 -0.001900 0.000000 0.000000 0.000000
# 3 -0.004452 -0.001900 0.013886 0.000000 0.000000 0.000000
# 4 0.000000 0.000000 0.000000 0.038626 0.000000 0.000000
# 5 0.000000 0.000000 0.000000 0.000000 0.048714 0.000000
# 6 0.000000 0.000000 0.000000 0.000000 0.000000 0.035189
#
#
# Mechanical properties :
#
#
# Convention : Reuss Voigt Hill
#
# Bulk Modulus (GPa) = 64.64110 67.43543 66.03827
# Shear Modulus (GPa) = 28.69594 32.26619 30.48107
#
# Velocity S-wave (km/s) = 3.58153 3.79780 3.69125
# Velocity P-wave (km/s) = 6.78221 7.02676 6.90557
#
# Compressibility (1/GPa) = 0.01547003
#
# Stress axis : x y z
#
# Youngs Moduli (GPa) = 97.65540 145.20761 72.01748
#
# Poissons Ratio (x) = 0.20609 0.32062
# Poissons Ratio (y) = 0.13860 0.13683
# Poissons Ratio (z) = 0.43476 0.27588
#
# Static dielectric constant tensor:
#      x y z
#    x 1.904030 0.000000 0.000000 
#    y 0.000000 2.004370 0.000000 
#    z 0.000000 0.000000 2.005410 
# 
# From -- ./inp_files/37812.got.cif
#   From: 2010.05.17/outbox.cif.g08.bks.cpg/sg48_19_cif.got.tgz:37812.got - 2010.06.03 20:39:00.
