data_PCOD9391129
_publ_section_title
;
Structure prediction by ZEFSAII (Michael W. Deem and Ramdas Pophale) SiO2 
 PCOD9391129
Probable space group: P N N N
;
_chemical_formula_sum "Si O2"
_cell_formula_units_Z 56
_cell_length_a 10.427791
_cell_length_b 20.384028
_cell_length_c 11.819095
_cell_angle_alpha 90.000000
_cell_angle_beta 90.000000
_cell_angle_gamma 90.000000
_cell_volume 2512.271368
_symmetry_space_group_name_H-M "P N N N"
_symmetry_group_IT_number 48
_space_group.IT_coordinate_system_code '2'
_symmetry_cell_setting 'orthorhombic'
loop_
_space_group_symop_operation_xyz
x,y,z
1/2-x,1/2-y,z
x,1/2-y,1/2-z
1/2-x,y,1/2-z
-x,-y,-z
1/2+x,1/2+y,-z
-x,1/2+y,1/2+z
1/2+x,-y,1/2+z
loop_
_atom_site_type_symbol
_atom_site_label
_atom_site_fract_x
_atom_site_fract_y
_atom_site_fract_z
Si Si1 0.549876 0.537134 0.292839
Si Si2 0.543747 0.435156 0.938862
Si Si3 0.104936 0.092815 0.279923
Si Si4 0.197116 0.611880 0.129245
Si Si5 0.495153 0.677768 0.516248
Si Si6 0.930335 0.678029 0.564363
Si Si7 0.716592 0.858150 0.124005
O O1 0.546512 0.572538 0.170755
O O2 0.506429 0.462695 0.266829
O O3 0.426086 0.566261 0.354306
O O4 0.672131 0.563998 0.362565
O O5 0.689785 0.437126 0.903455
O O6 0.500000 0.500000 0.000000
O O7 0.534591 0.371599 0.015291
O O8 0.250000 0.066081 0.250000
O O9 0.064402 0.125206 0.399931
O O10 0.100125 0.150875 0.187922
O O11 0.250000 0.641167 0.250000
O O12 0.146744 0.660008 0.029866
O O13 0.516058 0.749181 0.567747
O O14 0.583309 0.677453 0.405143
O O15 0.812240 0.664402 0.476490
O O16 0.750000 0.836725 0.250000
#
# Coordination Sequence:
#
# PCOD9391129 Si02
#       7
#     8   8   8   8   8   8   8
#     4  10  22  42  66 101 135 179 230 294 366 412
#     4  11  21  40  69  97 132 176 233 297 357 418
#     4  12  24  43  69 101 143 189 233 290 353 439
#     4   9  22  45  67  98 138 180 238 293 357 432
#     4  11  26  44  67 101 140 192 235 286 356 439
#     4  12  25  41  68 102 140 185 235 289 358 434
#     4  11  23  43  65 102 140 176 233 303 362 419
#
# _framework density 22.290586000000001
#
# number of rings (size 3 to 8) (size 9 to 14) (size 15 to 20)
#    0.000    1.143    4.286    2.143    0.000    5.714 
#    0.000    2.857    0.000    1.714    0.000    0.000 
#    0.000    0.000    0.000    0.000    0.000    0.000 
#
# Total GULP energy -311877.821535 kJ/mol
# GULP energy per Si atom -5569.246813 kJ/mol
# Density = 2.223985 g / cm^3
# Si number density = 22.290586 Si / 1000 Ang^3
#
#
#
# Elastic Constant Matrix: (Units=GPa)
#
#
# Indices 1 2 3 4 5 6 
#
# 1 103.3730 12.3171 30.9753 0.0000 0.0000 0.0000
# 2 12.3171 71.6091 9.2149 0.0000 0.0000 0.0000
# 3 30.9753 9.2149 89.0474 0.0000 0.0000 0.0000
# 4 0.0000 0.0000 0.0000 29.6538 0.0000 0.0000
# 5 0.0000 0.0000 0.0000 0.0000 30.9268 0.0000
# 6 0.0000 0.0000 0.0000 0.0000 0.0000 16.8553
#
#
#
# Elastic Compliance Matrix: (Units=1/GPa)
#
#
# Indices 1 2 3 4 5 6 
#
# 1 0.010938 -0.001411 -0.003659 0.000000 0.000000 0.000000
# 2 -0.001411 0.014335 -0.000993 0.000000 0.000000 0.000000
# 3 -0.003659 -0.000993 0.012605 0.000000 0.000000 0.000000
# 4 0.000000 0.000000 0.000000 0.033723 0.000000 0.000000
# 5 0.000000 0.000000 0.000000 0.000000 0.032334 0.000000
# 6 0.000000 0.000000 0.000000 0.000000 0.000000 0.059329
#
#
# Mechanical properties :
#
#
# Convention : Reuss Voigt Hill
#
# Bulk Modulus (GPa) = 38.82858 41.00491 39.91674
# Shear Modulus (GPa) = 27.17782 29.58864 28.38323
#
# Velocity S-wave (km/s) = 3.49557 3.64731 3.57224
# Velocity P-wave (km/s) = 5.80939 6.01438 5.91277
#
# Compressibility (1/GPa) = 0.02575423
#
# Stress axis : x y z
#
# Youngs Moduli (GPa) = 91.42310 69.75895 79.33065
#
# Poissons Ratio (x) = 0.09840 0.29026
# Poissons Ratio (y) = 0.12896 0.07876
# Poissons Ratio (z) = 0.33451 0.06925
#
# Static dielectric constant tensor:
#      x y z
#    x 1.739680 0.000000 0.000000 
#    y 0.000000 1.873380 0.000000 
#    z 0.000000 0.000000 1.874070 
# 
# From -- ./inp_files/20247.got.cif
#   From: 2010.05.17/outbox.cif.g08.bks.cpg/sg48_11_cif.got.tgz:20247.got - 2010.06.03 20:39:00.
