data_PCOD9391171
_publ_section_title
;
Structure prediction by ZEFSAII (Michael W. Deem and Ramdas Pophale) SiO2 
 PCOD9391171
Probable space group: P N N N
;
_chemical_formula_sum "Si O2"
_cell_formula_units_Z 34
_cell_length_a 18.773692
_cell_length_b 11.855884
_cell_length_c 6.705826
_cell_angle_alpha 90.000000
_cell_angle_beta 90.000000
_cell_angle_gamma 90.000000
_cell_volume 1492.574131
_symmetry_space_group_name_H-M "P N N N"
_symmetry_group_IT_number 48
_space_group.IT_coordinate_system_code '2'
_symmetry_cell_setting 'orthorhombic'
loop_
_space_group_symop_operation_xyz
x,y,z
1/2-x,1/2-y,z
x,1/2-y,1/2-z
1/2-x,y,1/2-z
-x,-y,-z
1/2+x,1/2+y,-z
-x,1/2+y,1/2+z
1/2+x,-y,1/2+z
loop_
_atom_site_type_symbol
_atom_site_label
_atom_site_fract_x
_atom_site_fract_y
_atom_site_fract_z
Si Si1 0.143450 0.091238 0.498060
Si Si2 0.750000 0.750000 0.250000
Si Si3 0.896669 0.964387 0.905261
Si Si4 0.334609 0.623008 0.757387
Si Si5 0.987807 0.630752 0.253049
O O1 0.200146 0.168363 0.615794
O O2 0.064002 0.126388 0.564516
O O3 0.151741 0.093171 0.260715
O O4 0.147359 0.962009 0.577520
O O5 0.958684 0.028858 0.784814
O O6 0.858384 0.056707 0.043954
O O7 0.933968 0.879532 0.058605
O O8 0.365318 0.750000 0.750000
O O9 0.250000 0.632323 0.750000
O O10 0.026754 0.750000 0.250000
#
# Coordination Sequence:
#
# PCOD9391171 Si02
#       5
#     8   2   8   8   8
#     4  11  23  45  68  98 141 182 226 281 346 410
#     4  12  24  48  68 104 150 180 228 298 332 420
#     4  10  24  43  69 101 130 187 227 275 359 410
#     4  10  23  44  65  97 138 171 229 289 332 412
#     4  10  22  44  65 100 140 170 233 289 334 412
#
# _framework density 22.779440000000001
#
# number of rings (size 3 to 8) (size 9 to 14) (size 15 to 20)
#    0.000    1.647    2.353    0.706    3.294    1.882 
#    0.000    9.412    0.000    0.000    0.000    0.000 
#    0.000    0.000    0.000    0.000    0.000    0.000 
#
# Total GULP energy -190067.731714 kJ/mol
# GULP energy per Si atom -5590.227403 kJ/mol
# Density = 2.272759 g / cm^3
# Si number density = 22.779440 Si / 1000 Ang^3
#
#
#
# Elastic Constant Matrix: (Units=GPa)
#
#
# Indices 1 2 3 4 5 6 
#
# 1 52.4082 8.4059 26.2304 0.0000 0.0000 0.0000
# 2 8.4059 131.4716 42.0607 0.0000 0.0000 0.0000
# 3 26.2304 42.0607 145.6678 0.0000 0.0000 0.0000
# 4 0.0000 0.0000 0.0000 5.9147 0.0000 0.0000
# 5 0.0000 0.0000 0.0000 0.0000 5.4773 0.0000
# 6 0.0000 0.0000 0.0000 0.0000 0.0000 2.7117
#
#
#
# Elastic Compliance Matrix: (Units=1/GPa)
#
#
# Indices 1 2 3 4 5 6 
#
# 1 0.020974 -0.000146 -0.003734 0.000000 0.000000 0.000000
# 2 -0.000146 0.008381 -0.002394 0.000000 0.000000 0.000000
# 3 -0.003734 -0.002394 0.008229 0.000000 0.000000 0.000000
# 4 0.000000 0.000000 0.000000 0.169070 0.000000 0.000000
# 5 0.000000 0.000000 0.000000 0.000000 0.182571 0.000000
# 6 0.000000 0.000000 0.000000 0.000000 0.000000 0.368772
#
#
# Mechanical properties :
#
#
# Convention : Reuss Voigt Hill
#
# Bulk Modulus (GPa) = 39.94473 53.66017 46.80245
# Shear Modulus (GPa) = 6.41939 19.67745 13.04842
#
# Velocity S-wave (km/s) = 1.68053 2.94228 2.39595
# Velocity P-wave (km/s) = 4.61942 5.92876 5.31457
#
# Compressibility (1/GPa) = 0.02503459
#
# Stress axis : x y z
#
# Youngs Moduli (GPa) = 47.67905 119.31237 121.52764
#
# Poissons Ratio (x) = 0.01745 0.45384
# Poissons Ratio (y) = 0.00697 0.29090
# Poissons Ratio (z) = 0.17806 0.28560
#
# Static dielectric constant tensor:
#      x y z
#    x 1.834570 0.000000 0.000000 
#    y 0.000000 1.885020 0.000000 
#    z 0.000000 0.000000 1.865290 
# 
# From -- ./inp_files/2224.got.cif
#   From: 2010.05.17/outbox.cif.g08.bks.cpg/sg48_2_cif.got.tgz:2224.got - 2010.06.03 20:39:00.
