data_PCOD9391342
_publ_section_title
;
Structure prediction by ZEFSAII (Michael W. Deem and Ramdas Pophale) SiO2 
 PCOD9391342
Probable space group: P N N N
;
_chemical_formula_sum "Si O2"
_cell_formula_units_Z 28
_cell_length_a 11.641529
_cell_length_b 5.077353
_cell_length_c 19.275582
_cell_angle_alpha 90.000000
_cell_angle_beta 90.000000
_cell_angle_gamma 90.000000
_cell_volume 1139.344034
_symmetry_space_group_name_H-M "P N N N"
_symmetry_group_IT_number 48
_space_group.IT_coordinate_system_code '2'
_symmetry_cell_setting 'orthorhombic'
loop_
_space_group_symop_operation_xyz
x,y,z
1/2-x,1/2-y,z
x,1/2-y,1/2-z
1/2-x,y,1/2-z
-x,-y,-z
1/2+x,1/2+y,-z
-x,1/2+y,1/2+z
1/2+x,-y,1/2+z
loop_
_atom_site_type_symbol
_atom_site_label
_atom_site_fract_x
_atom_site_fract_y
_atom_site_fract_z
Si Si1 0.913127 0.411788 0.899257
Si Si2 0.861620 0.631444 0.366251
Si Si3 0.582332 0.913512 0.682798
Si Si4 0.750000 0.250000 0.021514
O O1 0.848858 0.351117 0.969704
O O2 0.049149 0.346058 0.897641
O O3 0.893001 0.711733 0.879143
O O4 0.872939 0.200703 0.839530
O O5 0.750000 0.750000 0.330880
O O6 0.944795 0.463793 0.316538
O O7 0.810241 0.461837 0.428946
O O8 0.617804 0.750000 0.750000
#
# Coordination Sequence:
#
# PCOD9391342 Si02
#       4
#     8   8   8   4
#     4  10  25  42  71 100 132 184 219 281 341 393
#     4  10  24  40  70  99 135 180 217 282 338 397
#     4  10  23  48  68  97 136 176 229 277 333 403
#     4  12  24  44  66 106 140 172 232 276 342 404
#
# _framework density 24.575547
#
# number of rings (size 3 to 8) (size 9 to 14) (size 15 to 20)
#    1.714    0.000    0.000    3.429    4.000    2.286 
#    0.000   15.000    0.000    0.000    0.000    0.000 
#    0.000    0.000    0.000    0.000    0.000    0.000 
#
# Total GULP energy -156395.088376 kJ/mol
# GULP energy per Si atom -5585.538871 kJ/mol
# Density = 2.451961 g / cm^3
# Si number density = 24.575547 Si / 1000 Ang^3
#
#
#
# Elastic Constant Matrix: (Units=GPa)
#
#
# Indices 1 2 3 4 5 6 
#
# 1 158.3205 21.1667 19.9703 0.0000 0.0000 0.0000
# 2 21.1667 51.1372 -22.9721 0.0000 0.0000 0.0000
# 3 19.9703 -22.9721 49.2309 0.0000 0.0000 0.0000
# 4 0.0000 0.0000 0.0000 9.7618 0.0000 0.0000
# 5 0.0000 0.0000 0.0000 0.0000 20.8144 0.0000
# 6 0.0000 0.0000 0.0000 0.0000 0.0000 -16.1458
#
#
#
# Elastic Compliance Matrix: (Units=1/GPa)
#
#
# Indices 1 2 3 4 5 6 
#
# 1 0.007860 -0.005928 -0.005955 0.000000 0.000000 0.000000
# 2 -0.005928 0.029213 0.016036 0.000000 0.000000 0.000000
# 3 -0.005955 0.016036 0.030211 0.000000 0.000000 0.000000
# 4 0.000000 0.000000 0.000000 0.102440 0.000000 0.000000
# 5 0.000000 0.000000 0.000000 0.000000 0.048044 0.000000
# 6 0.000000 0.000000 0.000000 0.000000 0.000000 -0.061936
#
#
# Mechanical properties :
#
#
# Convention : Reuss Voigt Hill
#
# Bulk Modulus (GPa) = 13.22930 32.77984 23.00457
# Shear Modulus (GPa) = 28.94823 18.92101 23.93462
#
# Velocity S-wave (km/s) = 3.43582 2.77774 3.12416
# Velocity P-wave (km/s) = 4.59724 4.86365 4.73232
#
# Compressibility (1/GPa) = 0.07558976
#
# Stress axis : x y z
#
# Youngs Moduli (GPa) = 127.22623 34.23140 33.10086
#
# Poissons Ratio (x) = 0.20294 0.19711
# Poissons Ratio (y) = 0.75425 -0.53081
# Poissons Ratio (z) = 0.75759 -0.54894
#
# Static dielectric constant tensor:
#      x y z
#    x 2.044380 0.000000 0.000000 
#    y 0.000000 1.933990 0.000000 
#    z 0.000000 0.000000 1.957570 
# 
# From -- ./inp_files/36076.got.cif
#   From: 2010.05.17/outbox.cif.g08.bks.cpg/sg48_19_cif.got.tgz:36076.got - 2010.06.03 20:39:00.
