data_PCOD9391015
_publ_section_title
;
Structure prediction by ZEFSAII (Michael W. Deem and Ramdas Pophale) SiO2 
 PCOD9391015
Probable space group: P N N N
;
_chemical_formula_sum "Si O2"
_cell_formula_units_Z 64
_cell_length_a 8.303311
_cell_length_b 12.133957
_cell_length_c 25.537577
_cell_angle_alpha 90.000000
_cell_angle_beta 90.000000
_cell_angle_gamma 90.000000
_cell_volume 2572.962434
_symmetry_space_group_name_H-M "P N N N"
_symmetry_group_IT_number 48
_space_group.IT_coordinate_system_code '2'
_symmetry_cell_setting 'orthorhombic'
loop_
_space_group_symop_operation_xyz
x,y,z
1/2-x,1/2-y,z
x,1/2-y,1/2-z
1/2-x,y,1/2-z
-x,-y,-z
1/2+x,1/2+y,-z
-x,1/2+y,1/2+z
1/2+x,-y,1/2+z
loop_
_atom_site_type_symbol
_atom_site_label
_atom_site_fract_x
_atom_site_fract_y
_atom_site_fract_z
Si Si1 0.497289 0.350824 0.621812
Si Si2 0.804576 0.401202 0.690336
Si Si3 0.677575 0.633720 0.862815
Si Si4 0.188597 0.104638 0.807534
Si Si5 0.296884 0.121571 0.483980
Si Si6 0.806571 0.361437 0.346934
Si Si7 0.440998 0.750112 0.483064
Si Si8 0.612678 0.448607 0.443911
O O1 0.660106 0.349222 0.655701
O O2 0.330018 0.351993 0.653862
O O3 0.500348 0.259997 0.576585
O O4 0.494451 0.464598 0.588427
O O5 0.750000 0.383909 0.750000
O O6 0.792426 0.530458 0.674733
O O7 0.996456 0.369704 0.683917
O O8 0.750000 0.750000 0.845499
O O9 0.488289 0.652049 0.864340
O O10 0.730093 0.608123 0.922293
O O11 0.250000 0.133985 0.750000
O O12 0.202290 0.972479 0.813790
O O13 0.250000 0.250000 0.498701
O O14 0.487908 0.138782 0.493147
O O15 0.227615 0.026907 0.521047
O O16 0.750000 0.250000 0.319705
O O17 0.703197 0.380700 0.399213
O O18 0.250000 0.750000 0.480958
O O19 0.473028 0.641202 0.519010
#
# Coordination Sequence:
#
# PCOD9391015 Si02
#       8
#     8   8   8   8   8   8   8   8
#     4  11  24  42  71 101 140 188 236 301 362 436
#     4  11  23  41  68 102 133 184 248 298 367 437
#     4  10  23  35  57  93 139 182 230 294 352 430
#     4  10  22  42  67 100 138 185 236 297 370 437
#     4  11  23  41  66  99 143 191 240 287 364 447
#     4  10  22  38  61  95 133 187 235 290 355 436
#     4  12  26  42  70 110 146 193 247 301 367 451
#     4  11  23  42  69 100 146 191 241 294 374 436
#
# _framework density 24.874051000000001
#
# number of rings (size 3 to 8) (size 9 to 14) (size 15 to 20)
#    0.000    1.250    2.500    3.000    7.000    5.500 
#    0.000    2.500    0.000    1.125    3.250    0.000 
#    0.000    0.000    0.000    0.000    0.000    0.000 
#
# Total GULP energy -358282.303218 kJ/mol
# GULP energy per Si atom -5598.160988 kJ/mol
# Density = 2.481744 g / cm^3
# Si number density = 24.874051 Si / 1000 Ang^3
#
#
#
# Elastic Constant Matrix: (Units=GPa)
#
#
# Indices 1 2 3 4 5 6 
#
# 1 128.6176 65.1151 51.0020 0.0000 0.0000 0.0000
# 2 65.1151 135.2627 40.5864 0.0000 0.0000 0.0000
# 3 51.0020 40.5864 126.5334 0.0000 0.0000 0.0000
# 4 0.0000 0.0000 0.0000 -76.5632 0.0000 0.0000
# 5 0.0000 0.0000 0.0000 0.0000 2.0219 0.0000
# 6 0.0000 0.0000 0.0000 0.0000 0.0000 58.8346
#
#
#
# Elastic Compliance Matrix: (Units=1/GPa)
#
#
# Indices 1 2 3 4 5 6 
#
# 1 0.011285 -0.004501 -0.003105 0.000000 0.000000 0.000000
# 2 -0.004501 0.009975 -0.001386 0.000000 0.000000 0.000000
# 3 -0.003105 -0.001386 0.009599 0.000000 0.000000 0.000000
# 4 0.000000 0.000000 0.000000 -0.013061 0.000000 0.000000
# 5 0.000000 0.000000 0.000000 0.000000 0.494580 0.000000
# 6 0.000000 0.000000 0.000000 0.000000 0.000000 0.016997
#
#
# Mechanical properties :
#
#
# Convention : Reuss Voigt Hill
#
# Bulk Modulus (GPa) = 77.65977 78.20230 77.93104
# Shear Modulus (GPa) = 9.06372 12.43934 10.75153
#
# Velocity S-wave (km/s) = 1.91096 2.23870 2.08129
# Velocity P-wave (km/s) = 6.01315 6.17980 6.09705
#
# Compressibility (1/GPa) = 0.01287668
#
# Stress axis : x y z
#
# Youngs Moduli (GPa) = 88.61432 100.24610 104.17779
#
# Poissons Ratio (x) = 0.45119 0.32346
# Poissons Ratio (y) = 0.39884 0.14434
# Poissons Ratio (z) = 0.27514 0.13889
#
# Static dielectric constant tensor:
#      x y z
#    x 2.177160 0.000000 0.000000 
#    y 0.000000 2.196210 0.000000 
#    z 0.000000 0.000000 1.914150 
# 
# From -- ./inp_files/36000.got.cif
#   From: 2010.05.17/outbox.cif.g08.bks.cpg/sg48_18_cif.got.tgz:36000.got - 2010.06.03 20:39:00.
