data_PCOD9391758
_publ_section_title
;
Structure prediction by ZEFSAII (Michael W. Deem and Ramdas Pophale) SiO2 
 PCOD9391758
Probable space group: P N N N
;
_chemical_formula_sum "Si O2"
_cell_formula_units_Z 48
_cell_length_a 9.512640
_cell_length_b 25.306630
_cell_length_c 9.713557
_cell_angle_alpha 90.000000
_cell_angle_beta 90.000000
_cell_angle_gamma 90.000000
_cell_volume 2338.372365
_symmetry_space_group_name_H-M "P N N N"
_symmetry_group_IT_number 48
_space_group.IT_coordinate_system_code '2'
_symmetry_cell_setting 'orthorhombic'
loop_
_space_group_symop_operation_xyz
x,y,z
1/2-x,1/2-y,z
x,1/2-y,1/2-z
1/2-x,y,1/2-z
-x,-y,-z
1/2+x,1/2+y,-z
-x,1/2+y,1/2+z
1/2+x,-y,1/2+z
loop_
_atom_site_type_symbol
_atom_site_label
_atom_site_fract_x
_atom_site_fract_y
_atom_site_fract_z
Si Si1 0.430308 0.676405 0.884100
Si Si2 0.250000 0.454065 0.250000
Si Si3 0.238094 0.360887 0.457982
Si Si4 0.984963 0.199974 0.416603
Si Si5 0.750000 0.587836 0.250000
Si Si6 0.798503 0.364584 0.902479
Si Si7 0.529500 0.470394 0.644186
O O1 0.584519 0.654617 0.910720
O O2 0.412364 0.674217 0.718852
O O3 0.442149 0.738982 0.915948
O O4 0.322705 0.646484 0.984526
O O5 0.272263 0.415175 0.378535
O O6 0.387086 0.491158 0.251343
O O7 0.351094 0.316000 0.416479
O O8 0.232907 0.374849 0.617870
O O9 0.924273 0.172965 0.551149
O O10 0.611712 0.552700 0.285443
O O11 0.750000 0.350743 0.750000
O O12 0.863517 0.422998 0.894433
O O13 0.500000 0.500000 0.500000
#
# Coordination Sequence:
#
# PCOD9391758 Si02
#       7
#     8   4   8   8   4   8   8
#     4  11  25  42  75 103 134 192 232 287 353 420
#     4  12  24  46  73  98 135 190 234 282 352 404
#     4  12  24  45  69 105 140 180 234 290 352 421
#     4  11  23  47  69 102 143 180 240 288 345 425
#     4  12  26  46  69  96 146 176 229 296 360 412
#     4  12  25  46  67 102 146 179 233 293 351 420
#     4  12  26  47  69 102 139 183 237 297 344 426
#
# _framework density 20.527099
#
# number of rings (size 3 to 8) (size 9 to 14) (size 15 to 20)
#    0.000    0.333    5.833    2.500    0.000    6.000 
#    0.000    0.833    0.000    0.000    0.000    0.000 
#    0.000    0.000    0.000    0.000    0.000    0.000 
#
# Total GULP energy -268182.086001 kJ/mol
# GULP energy per Si atom -5587.126792 kJ/mol
# Density = 2.048038 g / cm^3
# Si number density = 20.527099 Si / 1000 Ang^3
#
#
#
# Elastic Constant Matrix: (Units=GPa)
#
#
# Indices 1 2 3 4 5 6 
#
# 1 117.6544 30.6415 21.5356 0.0000 0.0000 0.0000
# 2 30.6415 69.4792 48.1868 0.0000 0.0000 0.0000
# 3 21.5356 48.1868 117.7725 0.0000 0.0000 0.0000
# 4 0.0000 0.0000 0.0000 65.4427 0.0000 0.0000
# 5 0.0000 0.0000 0.0000 0.0000 38.5812 0.0000
# 6 0.0000 0.0000 0.0000 0.0000 0.0000 97.7241
#
#
#
# Elastic Compliance Matrix: (Units=1/GPa)
#
#
# Indices 1 2 3 4 5 6 
#
# 1 0.009602 -0.004212 -0.000032 0.000000 0.000000 0.000000
# 2 -0.004212 0.021943 -0.008208 0.000000 0.000000 0.000000
# 3 -0.000032 -0.008208 0.011855 0.000000 0.000000 0.000000
# 4 0.000000 0.000000 0.000000 0.015281 0.000000 0.000000
# 5 0.000000 0.000000 0.000000 0.000000 0.025919 0.000000
# 6 0.000000 0.000000 0.000000 0.000000 0.000000 0.010233
#
#
# Mechanical properties :
#
#
# Convention : Reuss Voigt Hill
#
# Bulk Modulus (GPa) = 54.06722 56.18154 55.12438
# Shear Modulus (GPa) = 39.71297 53.98573 46.84935
#
# Velocity S-wave (km/s) = 4.40325 5.13389 4.78254
# Velocity P-wave (km/s) = 7.22828 7.91020 7.57692
#
# Compressibility (1/GPa) = 0.01849550
#
# Stress axis : x y z
#
# Youngs Moduli (GPa) = 104.14001 45.57271 84.35207
#
# Poissons Ratio (x) = 0.19197 0.00273
# Poissons Ratio (y) = 0.43868 0.69234
# Poissons Ratio (z) = 0.00337 0.37405
#
# Static dielectric constant tensor:
#      x y z
#    x 1.746150 0.000000 0.000000 
#    y 0.000000 1.771630 0.000000 
#    z 0.000000 0.000000 1.724680 
# 
# From -- ./inp_files/9528.got.cif
#   From: 2010.05.17/outbox.cif.g08.bks.cpg/sg48_5_cif.got.tgz:9528.got - 2010.06.03 20:39:00.
