data_PCOD9391341
_publ_section_title
;
Structure prediction by ZEFSAII (Michael W. Deem and Ramdas Pophale) SiO2 
 PCOD9391341
Probable space group: P N N N
;
_chemical_formula_sum "Si O2"
_cell_formula_units_Z 48
_cell_length_a 10.078800
_cell_length_b 8.758849
_cell_length_c 23.452379
_cell_angle_alpha 90.000000
_cell_angle_beta 90.000000
_cell_angle_gamma 90.000000
_cell_volume 2070.345232
_symmetry_space_group_name_H-M "P N N N"
_symmetry_group_IT_number 48
_space_group.IT_coordinate_system_code '2'
_symmetry_cell_setting 'orthorhombic'
loop_
_space_group_symop_operation_xyz
x,y,z
1/2-x,1/2-y,z
x,1/2-y,1/2-z
1/2-x,y,1/2-z
-x,-y,-z
1/2+x,1/2+y,-z
-x,1/2+y,1/2+z
1/2+x,-y,1/2+z
loop_
_atom_site_type_symbol
_atom_site_label
_atom_site_fract_x
_atom_site_fract_y
_atom_site_fract_z
Si Si1 0.777571 0.568301 0.154074
Si Si2 0.621466 0.858211 0.038220
Si Si3 0.884482 0.344108 0.590661
Si Si4 0.542372 0.577165 0.686935
Si Si5 0.298895 0.081602 0.077143
Si Si6 0.498494 0.065592 0.313812
O O1 0.750000 0.750000 0.157188
O O2 0.820082 0.533402 0.088220
O O3 0.654158 0.477652 0.180427
O O4 0.910202 0.523709 0.186180
O O5 0.750000 0.750000 0.028623
O O6 0.500185 0.758072 0.063535
O O7 0.596324 0.916692 0.974081
O O8 0.750000 0.250000 0.600472
O O9 0.824515 0.483000 0.553446
O O10 0.936056 0.438212 0.644974
O O11 0.639668 0.524650 0.636834
O O12 0.511226 0.754234 0.671674
O O13 0.577973 0.562479 0.753248
O O14 0.250000 0.250000 0.090746
#
# Coordination Sequence:
#
# PCOD9391341 Si02
#       6
#     8   8   8   8   8   8
#     4  11  22  43  70 106 139 183 241 301 363 428
#     4  10  23  46  76 103 147 187 241 306 365 435
#     4  12  25  46  72 109 147 184 244 303 367 440
#     4  11  25  44  70  98 144 191 239 298 362 443
#     4  11  25  45  74 104 141 192 243 294 373 440
#     4  11  24  46  67 102 143 190 243 294 362 444
#
# _framework density 23.184538
#
# number of rings (size 3 to 8) (size 9 to 14) (size 15 to 20)
#    0.000    1.000    5.000    2.000    0.000   10.000 
#    0.000    2.500    0.000    0.000    0.000    0.000 
#    0.000    0.000    0.000    0.000    0.000    0.000 
#
# Total GULP energy -267695.244197 kJ/mol
# GULP energy per Si atom -5576.984254 kJ/mol
# Density = 2.313177 g / cm^3
# Si number density = 23.184538 Si / 1000 Ang^3
#
#
#
# Elastic Constant Matrix: (Units=GPa)
#
#
# Indices 1 2 3 4 5 6 
#
# 1 123.5582 37.9581 38.0388 0.0000 0.0000 0.0000
# 2 37.9581 72.6799 35.6950 0.0000 0.0000 0.0000
# 3 38.0388 35.6950 121.8352 0.0000 0.0000 0.0000
# 4 0.0000 0.0000 0.0000 -39.2597 0.0000 0.0000
# 5 0.0000 0.0000 0.0000 0.0000 25.9595 0.0000
# 6 0.0000 0.0000 0.0000 0.0000 0.0000 37.3179
#
#
#
# Elastic Compliance Matrix: (Units=1/GPa)
#
#
# Indices 1 2 3 4 5 6 
#
# 1 0.009987 -0.004304 -0.001857 0.000000 0.000000 0.000000
# 2 -0.004304 0.017926 -0.003908 0.000000 0.000000 0.000000
# 3 -0.001857 -0.003908 0.009933 0.000000 0.000000 0.000000
# 4 0.000000 0.000000 0.000000 -0.025471 0.000000 0.000000
# 5 0.000000 0.000000 0.000000 0.000000 0.038522 0.000000
# 6 0.000000 0.000000 0.000000 0.000000 0.000000 0.026797
#
#
# Mechanical properties :
#
#
# Convention : Reuss Voigt Hill
#
# Bulk Modulus (GPa) = 56.47337 60.16188 58.31762
# Shear Modulus (GPa) = 48.20009 18.56231 33.38120
#
# Velocity S-wave (km/s) = 4.56453 2.83262 3.79859
# Velocity P-wave (km/s) = 7.22433 6.05836 6.66688
#
# Compressibility (1/GPa) = 0.01770746
#
# Stress axis : x y z
#
# Youngs Moduli (GPa) = 100.12704 55.78440 100.67761
#
# Poissons Ratio (x) = 0.24009 0.18698
# Poissons Ratio (y) = 0.43093 0.39347
# Poissons Ratio (z) = 0.18596 0.21802
#
# Static dielectric constant tensor:
#      x y z
#    x 1.995310 0.000000 0.000000 
#    y 0.000000 1.996650 0.000000 
#    z 0.000000 0.000000 1.988890 
# 
# From -- ./inp_files/36250.got.cif
#   From: 2010.05.17/outbox.cif.g08.bks.cpg/sg48_19_cif.got.tgz:36250.got - 2010.06.03 20:39:00.
