data_PCOD9391074
_publ_section_title
;
Structure prediction by ZEFSAII (Michael W. Deem and Ramdas Pophale) SiO2 
 PCOD9391074
Probable space group: P N N N
;
_chemical_formula_sum "Si O2"
_cell_formula_units_Z 56
_cell_length_a 14.530659
_cell_length_b 21.109238
_cell_length_c 9.972466
_cell_angle_alpha 90.000000
_cell_angle_beta 90.000000
_cell_angle_gamma 90.000000
_cell_volume 3058.865856
_symmetry_space_group_name_H-M "P N N N"
_symmetry_group_IT_number 48
_space_group.IT_coordinate_system_code '2'
_symmetry_cell_setting 'orthorhombic'
loop_
_space_group_symop_operation_xyz
x,y,z
1/2-x,1/2-y,z
x,1/2-y,1/2-z
1/2-x,y,1/2-z
-x,-y,-z
1/2+x,1/2+y,-z
-x,1/2+y,1/2+z
1/2+x,-y,1/2+z
loop_
_atom_site_type_symbol
_atom_site_label
_atom_site_fract_x
_atom_site_fract_y
_atom_site_fract_z
Si Si1 0.737462 0.179922 0.407321
Si Si2 0.524992 0.746095 0.092132
Si Si3 0.862205 0.448951 0.738380
Si Si4 0.346802 0.286373 0.368212
Si Si5 0.452247 0.883078 0.515398
Si Si6 0.080642 0.631810 0.013840
Si Si7 0.935715 0.912116 0.712345
O O1 0.750000 0.250000 0.468408
O O2 0.750000 0.185457 0.250000
O O3 0.638099 0.152423 0.432676
O O4 0.816301 0.133431 0.458578
O O5 0.532484 0.750000 0.250000
O O6 0.509549 0.673186 0.054559
O O7 0.447511 0.795086 0.039470
O O8 0.611145 0.774223 0.012457
O O9 0.750000 0.439587 0.750000
O O10 0.910076 0.432456 0.594170
O O11 0.913201 0.403466 0.844899
O O12 0.887623 0.519948 0.782945
O O13 0.250000 0.250000 0.373441
O O14 0.403324 0.250000 0.250000
O O15 0.358491 0.358429 0.320422
O O16 0.511658 0.905210 0.644195
O O17 0.010999 0.600131 0.906411
#
# Coordination Sequence:
#
# PCOD9391074 Si02
#       7
#     8   8   8   8   8   8   8
#     4  11  21  33  61  95 128 151 191 252 312 365
#     4  11  22  37  63  92 126 157 191 253 315 358
#     4  12  26  40  61  87 124 169 200 249 307 364
#     4  10  22  40  66  93 116 152 210 261 298 346
#     4  12  22  39  61  93 124 157 205 249 305 372
#     4  11  22  40  61  91 122 162 201 247 305 368
#     4  11  25  42  64  86 124 163 213 250 299 365
#
# _framework density 18.307438999999999
#
# number of rings (size 3 to 8) (size 9 to 14) (size 15 to 20)
#    0.000    0.857    7.143    0.857    2.000    0.286 
#    0.000    2.143    0.000    0.000    0.000    0.000 
#    0.000    0.000    0.000    0.000    0.000    0.000 
#
# Total GULP energy -311902.676193 kJ/mol
# GULP energy per Si atom -5569.690646 kJ/mol
# Density = 1.826577 g / cm^3
# Si number density = 18.307439 Si / 1000 Ang^3
#
#
#
# Elastic Constant Matrix: (Units=GPa)
#
#
# Indices 1 2 3 4 5 6 
#
# 1 73.4450 14.6647 21.5044 0.0000 0.0000 0.0000
# 2 14.6647 67.7873 -8.5515 0.0000 0.0000 0.0000
# 3 21.5044 -8.5515 81.7129 0.0000 0.0000 0.0000
# 4 0.0000 0.0000 0.0000 46.7230 0.0000 0.0000
# 5 0.0000 0.0000 0.0000 0.0000 11.5232 0.0000
# 6 0.0000 0.0000 0.0000 0.0000 0.0000 28.4313
#
#
#
# Elastic Compliance Matrix: (Units=1/GPa)
#
#
# Indices 1 2 3 4 5 6 
#
# 1 0.015746 -0.003982 -0.004561 0.000000 0.000000 0.000000
# 2 -0.003982 0.015956 0.002718 0.000000 0.000000 0.000000
# 3 -0.004561 0.002718 0.013723 0.000000 0.000000 0.000000
# 4 0.000000 0.000000 0.000000 0.021403 0.000000 0.000000
# 5 0.000000 0.000000 0.000000 0.000000 0.086781 0.000000
# 6 0.000000 0.000000 0.000000 0.000000 0.000000 0.035172
#
#
# Mechanical properties :
#
#
# Convention : Reuss Voigt Hill
#
# Bulk Modulus (GPa) = 29.60706 30.90893 30.25800
# Shear Modulus (GPa) = 23.61958 30.35736 26.98847
#
# Velocity S-wave (km/s) = 3.59578 4.07652 3.84367
# Velocity P-wave (km/s) = 5.78332 6.25118 6.02179
#
# Compressibility (1/GPa) = 0.03377573
#
# Stress axis : x y z
#
# Youngs Moduli (GPa) = 63.50833 62.67133 72.87259
#
# Poissons Ratio (x) = 0.24954 0.33234
# Poissons Ratio (y) = 0.25287 -0.19805
# Poissons Ratio (z) = 0.28963 -0.17032
#
# Static dielectric constant tensor:
#      x y z
#    x 1.757730 0.000000 0.000000 
#    y 0.000000 1.653330 0.000000 
#    z 0.000000 0.000000 1.642540 
# 
# From -- ./inp_files/13133.got.cif
#   From: 2010.05.17/outbox.cif.g08.bks.cpg/sg48_7_cif.got.tgz:13133.got - 2010.06.03 20:39:00.
