data_PCOD9391244
_publ_section_title
;
Structure prediction by ZEFSAII (Michael W. Deem and Ramdas Pophale) SiO2 
 PCOD9391244
Probable space group: P N N N
;
_chemical_formula_sum "Si O2"
_cell_formula_units_Z 40
_cell_length_a 14.491257
_cell_length_b 8.290121
_cell_length_c 16.250947
_cell_angle_alpha 90.000000
_cell_angle_beta 90.000000
_cell_angle_gamma 90.000000
_cell_volume 1952.295719
_symmetry_space_group_name_H-M "P N N N"
_symmetry_group_IT_number 48
_space_group.IT_coordinate_system_code '2'
_symmetry_cell_setting 'orthorhombic'
loop_
_space_group_symop_operation_xyz
x,y,z
1/2-x,1/2-y,z
x,1/2-y,1/2-z
1/2-x,y,1/2-z
-x,-y,-z
1/2+x,1/2+y,-z
-x,1/2+y,1/2+z
1/2+x,-y,1/2+z
loop_
_atom_site_type_symbol
_atom_site_label
_atom_site_fract_x
_atom_site_fract_y
_atom_site_fract_z
Si Si1 0.158702 0.475544 0.508434
Si Si2 0.750000 0.750000 0.613060
Si Si3 0.517080 0.036533 0.135609
Si Si4 0.272775 0.441593 0.658713
Si Si5 0.592284 0.750000 0.750000
Si Si6 0.518311 0.246691 0.524678
O O1 0.235832 0.400406 0.448200
O O2 0.210604 0.527541 0.590659
O O3 0.099178 0.616774 0.468722
O O4 0.081241 0.340891 0.531594
O O5 0.661249 0.763260 0.672168
O O6 0.472388 0.102724 0.219861
O O7 0.620588 0.976428 0.146369
O O8 0.467056 0.886233 0.091649
O O9 0.518076 0.176423 0.066555
O O10 0.250000 0.250000 0.651424
O O11 0.250000 0.495100 0.750000
#
# Coordination Sequence:
#
# PCOD9391244 Si02
#       6
#     8   4   8   8   4   8
#     4  11  21  44  68 101 135 188 230 290 360 426
#     4  11  22  46  69  94 134 184 239 278 358 425
#     4  11  23  46  64 102 139 180 238 293 353 433
#     4  11  24  41  65  99 139 182 226 290 356 418
#     4  11  26  42  71  96 134 188 227 298 352 407
#     4  10  23  40  72 100 132 181 241 285 355 431
#
# _framework density 20.488699
#
# number of rings (size 3 to 8) (size 9 to 14) (size 15 to 20)
#    0.000    1.200    5.000    0.000    5.600    0.800 
#    0.000    0.000    0.000    2.400    0.000    0.000 
#    0.000    0.000    0.000    0.000    0.000    0.000 
#
# Total GULP energy -223364.652308 kJ/mol
# GULP energy per Si atom -5584.116308 kJ/mol
# Density = 2.044207 g / cm^3
# Si number density = 20.488699 Si / 1000 Ang^3
#
#
#
# Elastic Constant Matrix: (Units=GPa)
#
#
# Indices 1 2 3 4 5 6 
#
# 1 120.7287 43.9460 58.6826 0.0000 0.0000 0.0000
# 2 43.9460 77.2188 33.4781 0.0000 0.0000 0.0000
# 3 58.6826 33.4781 108.4080 0.0000 0.0000 0.0000
# 4 0.0000 0.0000 0.0000 5.8649 0.0000 0.0000
# 5 0.0000 0.0000 0.0000 0.0000 38.1803 0.0000
# 6 0.0000 0.0000 0.0000 0.0000 0.0000 34.6949
#
#
#
# Elastic Compliance Matrix: (Units=1/GPa)
#
#
# Indices 1 2 3 4 5 6 
#
# 1 0.012660 -0.004888 -0.005343 0.000000 0.000000 0.000000
# 2 -0.004888 0.016839 -0.002554 0.000000 0.000000 0.000000
# 3 -0.005343 -0.002554 0.012906 0.000000 0.000000 0.000000
# 4 0.000000 0.000000 0.000000 0.170505 0.000000 0.000000
# 5 0.000000 0.000000 0.000000 0.000000 0.026191 0.000000
# 6 0.000000 0.000000 0.000000 0.000000 0.000000 0.028823
#
#
# Mechanical properties :
#
#
# Convention : Reuss Voigt Hill
#
# Bulk Modulus (GPa) = 59.40606 64.28544 61.84575
# Shear Modulus (GPa) = 16.71646 27.09795 21.90721
#
# Velocity S-wave (km/s) = 2.85947 3.64068 3.27346
# Velocity P-wave (km/s) = 6.32136 7.00834 6.67370
#
# Compressibility (1/GPa) = 0.01683330
#
# Stress axis : x y z
#
# Youngs Moduli (GPa) = 78.99196 59.38419 77.48590
#
# Poissons Ratio (x) = 0.29028 0.41402
# Poissons Ratio (y) = 0.38612 0.19792
# Poissons Ratio (z) = 0.42207 0.15169
#
# Static dielectric constant tensor:
#      x y z
#    x 1.690300 0.000000 0.000000 
#    y 0.000000 1.747970 0.000000 
#    z 0.000000 0.000000 1.730860 
# 
# From -- ./inp_files/25106.got.cif
#   From: 2010.05.17/outbox.cif.g08.bks.cpg/sg48_13_cif.got.tgz:25106.got - 2010.06.03 20:39:00.
