data_PCOD9391715
_publ_section_title
;
Structure prediction by ZEFSAII (Michael W. Deem and Ramdas Pophale) SiO2 
 PCOD9391715
Probable space group: P N N N
;
_chemical_formula_sum "Si O2"
_cell_formula_units_Z 40
_cell_length_a 10.342378
_cell_length_b 22.495021
_cell_length_c 8.745545
_cell_angle_alpha 90.000000
_cell_angle_beta 90.000000
_cell_angle_gamma 90.000000
_cell_volume 2034.668625
_symmetry_space_group_name_H-M "P N N N"
_symmetry_group_IT_number 48
_space_group.IT_coordinate_system_code '2'
_symmetry_cell_setting 'orthorhombic'
loop_
_space_group_symop_operation_xyz
x,y,z
1/2-x,1/2-y,z
x,1/2-y,1/2-z
1/2-x,y,1/2-z
-x,-y,-z
1/2+x,1/2+y,-z
-x,1/2+y,1/2+z
1/2+x,-y,1/2+z
loop_
_atom_site_type_symbol
_atom_site_label
_atom_site_fract_x
_atom_site_fract_y
_atom_site_fract_z
Si Si1 0.899160 0.190589 0.561616
Si Si2 0.045266 0.437658 0.426653
Si Si3 0.201103 0.031577 0.578882
Si Si4 0.956812 0.075654 0.416791
Si Si5 0.088194 0.824252 0.085596
O O1 0.942093 0.172398 0.733166
O O2 0.948272 0.257361 0.533452
O O3 0.743770 0.181144 0.568188
O O4 0.943054 0.145510 0.432808
O O5 0.197629 0.438879 0.463922
O O6 0.011070 0.440438 0.248766
O O7 0.000000 0.500000 0.500000
O O8 0.975670 0.379971 0.500316
O O9 0.250000 0.042100 0.750000
O O10 0.059304 0.056706 0.545687
O O11 0.176556 0.960688 0.557983
#
# Coordination Sequence:
#
# PCOD9391715 Si02
#       5
#     8   8   8   8   8
#     4   9  19  39  61  90 121 162 210 248 305 361
#     4  12  23  38  59  91 124 161 200 252 311 361
#     4  11  23  41  59  88 125 162 204 252 308 373
#     4  11  24  39  61  90 125 163 203 257 308 368
#     4   9  20  37  63  89 123 162 203 257 301 368
#
# _framework density 19.659219
#
# number of rings (size 3 to 8) (size 9 to 14) (size 15 to 20)
#    0.000    1.600    2.000    4.200    2.800    0.800 
#    0.000    3.000    0.000    6.000    0.000    0.000 
#    0.000    0.000    0.000    0.000    0.000    0.000 
#
# Total GULP energy -223088.026417 kJ/mol
# GULP energy per Si atom -5577.200660 kJ/mol
# Density = 1.961447 g / cm^3
# Si number density = 19.659219 Si / 1000 Ang^3
#
#
#
# Elastic Constant Matrix: (Units=GPa)
#
#
# Indices 1 2 3 4 5 6 
#
# 1 56.8336 34.3928 31.8549 0.0000 0.0000 0.0000
# 2 34.3928 145.2242 62.0016 0.0000 0.0000 0.0000
# 3 31.8549 62.0016 93.2637 0.0000 0.0000 0.0000
# 4 0.0000 0.0000 0.0000 39.7596 0.0000 0.0000
# 5 0.0000 0.0000 0.0000 0.0000 21.5518 0.0000
# 6 0.0000 0.0000 0.0000 0.0000 0.0000 27.3218
#
#
#
# Elastic Compliance Matrix: (Units=1/GPa)
#
#
# Indices 1 2 3 4 5 6 
#
# 1 0.022587 -0.002870 -0.005807 0.000000 0.000000 0.000000
# 2 -0.002870 0.009980 -0.005654 0.000000 0.000000 0.000000
# 3 -0.005807 -0.005654 0.016464 0.000000 0.000000 0.000000
# 4 0.000000 0.000000 0.000000 0.025151 0.000000 0.000000
# 5 0.000000 0.000000 0.000000 0.000000 0.046400 0.000000
# 6 0.000000 0.000000 0.000000 0.000000 0.000000 0.036601
#
#
# Mechanical properties :
#
#
# Convention : Reuss Voigt Hill
#
# Bulk Modulus (GPa) = 49.09409 61.31335 55.20372
# Shear Modulus (GPa) = 25.95601 28.86478 27.41040
#
# Velocity S-wave (km/s) = 3.63753 3.83594 3.73805
# Velocity P-wave (km/s) = 6.53215 7.13267 6.83901
#
# Compressibility (1/GPa) = 0.02036905
#
# Stress axis : x y z
#
# Youngs Moduli (GPa) = 44.27404 100.20485 60.73700
#
# Poissons Ratio (x) = 0.28759 0.35268
# Poissons Ratio (y) = 0.12707 0.34341
# Poissons Ratio (z) = 0.25708 0.56657
#
# Static dielectric constant tensor:
#      x y z
#    x 1.732920 0.000000 0.000000 
#    y 0.000000 1.744690 0.000000 
#    z 0.000000 0.000000 1.683320 
# 
# From -- ./inp_files/10989.got.cif
#   From: 2010.05.17/outbox.cif.g08.bks.cpg/sg48_6_cif.got.tgz:10989.got - 2010.06.03 20:39:00.
