data_PCOD9391676
_publ_section_title
;
Structure prediction by ZEFSAII (Michael W. Deem and Ramdas Pophale) SiO2 
 PCOD9391676
Probable space group: P N N N
;
_chemical_formula_sum "Si O2"
_cell_formula_units_Z 38
_cell_length_a 11.341771
_cell_length_b 11.872430
_cell_length_c 13.552915
_cell_angle_alpha 90.000000
_cell_angle_beta 90.000000
_cell_angle_gamma 90.000000
_cell_volume 1824.959397
_symmetry_space_group_name_H-M "P N N N"
_symmetry_group_IT_number 48
_space_group.IT_coordinate_system_code '2'
_symmetry_cell_setting 'orthorhombic'
loop_
_space_group_symop_operation_xyz
x,y,z
1/2-x,1/2-y,z
x,1/2-y,1/2-z
1/2-x,y,1/2-z
-x,-y,-z
1/2+x,1/2+y,-z
-x,1/2+y,1/2+z
1/2+x,-y,1/2+z
loop_
_atom_site_type_symbol
_atom_site_label
_atom_site_fract_x
_atom_site_fract_y
_atom_site_fract_z
Si Si1 0.750000 0.250000 0.035961
Si Si2 0.081003 0.861637 0.815759
Si Si3 0.410193 0.055307 0.841969
Si Si4 0.851772 0.451691 0.942978
Si Si5 0.806442 0.634643 0.640769
Si Si6 0.250000 0.250000 0.750000
O O1 0.823114 0.160980 0.100537
O O2 0.836434 0.322469 0.970566
O O3 0.087099 0.750000 0.750000
O O4 0.947433 0.863986 0.855712
O O5 0.111234 0.966418 0.746102
O O6 0.552161 0.051196 0.855618
O O7 0.337016 0.167609 0.813658
O O8 0.380930 0.012855 0.952795
O O9 0.738634 0.520704 0.908293
O O10 0.750000 0.750000 0.595149
O O11 0.750000 0.633100 0.750000
#
# Coordination Sequence:
#
# PCOD9391676 Si02
#       6
#     4   8   8   8   8   2
#     4  12  27  40  71 104 134 182 227 288 340 405
#     4  12  22  44  73  96 132 183 234 274 332 416
#     4  11  25  44  66  94 139 177 224 280 338 410
#     4  11  25  43  65 101 136 173 224 286 338 401
#     4  11  22  42  69 101 131 183 227 274 341 413
#     4  12  28  44  66 102 134 192 220 282 362 408
#
# _framework density 20.822381
#
# number of rings (size 3 to 8) (size 9 to 14) (size 15 to 20)
#    0.000    0.632    6.316    1.579    4.421    2.526 
#    0.000    0.000    0.000    0.000    0.000    0.000 
#    0.000    0.000    0.000    0.000    0.000    0.000 
#
# Total GULP energy -211983.860631 kJ/mol
# GULP energy per Si atom -5578.522648 kJ/mol
# Density = 2.077499 g / cm^3
# Si number density = 20.822381 Si / 1000 Ang^3
#
#
#
# Elastic Constant Matrix: (Units=GPa)
#
#
# Indices 1 2 3 4 5 6 
#
# 1 100.4918 25.1196 16.0281 0.0000 0.0000 0.0000
# 2 25.1196 112.5687 39.4768 0.0000 0.0000 0.0000
# 3 16.0281 39.4768 46.1842 0.0000 0.0000 0.0000
# 4 0.0000 0.0000 0.0000 2594.2292 0.0000 0.0000
# 5 0.0000 0.0000 0.0000 0.0000 26.3266 0.0000
# 6 0.0000 0.0000 0.0000 0.0000 0.0000 34.5216
#
#
#
# Elastic Compliance Matrix: (Units=1/GPa)
#
#
# Indices 1 2 3 4 5 6 
#
# 1 0.010721 -0.001553 -0.002393 0.000000 0.000000 0.000000
# 2 -0.001553 0.012911 -0.010497 0.000000 0.000000 0.000000
# 3 -0.002393 -0.010497 0.031456 0.000000 0.000000 0.000000
# 4 0.000000 0.000000 0.000000 0.000385 0.000000 0.000000
# 5 0.000000 0.000000 0.000000 0.000000 0.037984 0.000000
# 6 0.000000 0.000000 0.000000 0.000000 0.000000 0.028967
#
#
# Mechanical properties :
#
#
# Convention : Reuss Voigt Hill
#
# Bulk Modulus (GPa) = 38.16640 46.72152 42.44396
# Shear Modulus (GPa) = 31.24111 542.92350 287.08230
#
# Velocity S-wave (km/s) = 3.87765 16.16497 11.75463
# Velocity P-wave (km/s) = 6.19819 19.25864 14.30582
#
# Compressibility (1/GPa) = 0.02620105
#
# Stress axis : x y z
#
# Youngs Moduli (GPa) = 93.27504 77.45162 31.79089
#
# Poissons Ratio (x) = 0.12029 0.07608
# Poissons Ratio (y) = 0.14487 0.33371
# Poissons Ratio (z) = 0.22322 0.81302
#
# Static dielectric constant tensor:
#      x y z
#    x 1.887570 0.000000 0.000000 
#    y 0.000000 1.743390 0.000000 
#    z 0.000000 0.000000 1.735190 
# 
# From -- ./inp_files/26290.got.cif
#   From: 2010.05.17/outbox.cif.g08.bks.cpg/sg48_14_cif.got.tgz:26290.got - 2010.06.03 20:39:00.
