data_PCOD9391138
_publ_section_title
;
Structure prediction by ZEFSAII (Michael W. Deem and Ramdas Pophale) SiO2 
 PCOD9391138
Probable space group: P N N N
;
_chemical_formula_sum "Si O2"
_cell_formula_units_Z 64
_cell_length_a 10.880984
_cell_length_b 19.649943
_cell_length_c 13.837182
_cell_angle_alpha 90.000000
_cell_angle_beta 90.000000
_cell_angle_gamma 90.000000
_cell_volume 2958.537782
_symmetry_space_group_name_H-M "P N N N"
_symmetry_group_IT_number 48
_space_group.IT_coordinate_system_code '2'
_symmetry_cell_setting 'orthorhombic'
loop_
_space_group_symop_operation_xyz
x,y,z
1/2-x,1/2-y,z
x,1/2-y,1/2-z
1/2-x,y,1/2-z
-x,-y,-z
1/2+x,1/2+y,-z
-x,1/2+y,1/2+z
1/2+x,-y,1/2+z
loop_
_atom_site_type_symbol
_atom_site_label
_atom_site_fract_x
_atom_site_fract_y
_atom_site_fract_z
Si Si1 0.142433 0.425840 0.823325
Si Si2 0.266128 0.675580 0.087869
Si Si3 0.049906 0.165539 0.147165
Si Si4 0.822139 0.436717 0.151996
Si Si5 0.052076 0.821415 0.269263
Si Si6 0.596666 0.057800 0.465600
Si Si7 0.226921 0.326163 0.991733
Si Si8 0.502326 0.682725 0.633376
O O1 0.250000 0.442879 0.750000
O O2 0.083774 0.500152 0.843621
O O3 0.044564 0.380873 0.766511
O O4 0.203645 0.381371 0.908735
O O5 0.250000 0.750000 0.038411
O O6 0.350550 0.684236 0.182872
O O7 0.129979 0.664060 0.132558
O O8 0.342194 0.615847 0.035081
O O9 0.165646 0.164664 0.073152
O O10 0.067381 0.165711 0.262899
O O11 0.976680 0.236527 0.132014
O O12 0.972312 0.100835 0.116321
O O13 0.750000 0.418547 0.250000
O O14 0.720805 0.469749 0.081162
O O15 0.888481 0.367827 0.119427
O O16 0.983211 0.750000 0.250000
O O17 0.500000 0.000000 0.500000
O O18 0.250000 0.250000 0.951206
O O19 0.100996 0.327465 0.050684
#
# Coordination Sequence:
#
# PCOD9391138 Si02
#       8
#     8   8   8   8   8   8   8   8
#     4  11  26  40  63  92 137 175 215 275 344 418
#     4   9  22  42  67  97 129 167 223 283 331 403
#     4  10  22  42  67  98 127 177 223 283 346 406
#     4  11  25  45  61  92 135 172 220 280 345 408
#     4   9  21  42  67  95 127 169 219 274 337 401
#     4  12  26  41  69  95 137 179 223 277 354 428
#     4  10  23  40  66  98 132 170 224 275 346 412
#     4  10  22  43  69  94 130 170 229 289 335 407
#
# _framework density 21.632307999999998
#
# number of rings (size 3 to 8) (size 9 to 14) (size 15 to 20)
#    0.000    1.750    1.250    1.875   10.500    4.000 
#    2.250    0.000    0.000    0.000    0.000    0.000 
#    0.000    0.000    0.000    0.000    0.000    0.000 
#
# Total GULP energy -356367.792678 kJ/mol
# GULP energy per Si atom -5568.246761 kJ/mol
# Density = 2.158307 g / cm^3
# Si number density = 21.632308 Si / 1000 Ang^3
#
#
#
# Elastic Constant Matrix: (Units=GPa)
#
#
# Indices 1 2 3 4 5 6 
#
# 1 61.1339 41.0340 -1.5624 0.0000 0.0000 0.0000
# 2 41.0340 144.3187 34.7503 0.0000 0.0000 0.0000
# 3 -1.5624 34.7503 69.8685 0.0000 0.0000 0.0000
# 4 0.0000 0.0000 0.0000 26.6962 0.0000 0.0000
# 5 0.0000 0.0000 0.0000 0.0000 -413.8566 0.0000
# 6 0.0000 0.0000 0.0000 0.0000 0.0000 38.4668
#
#
#
# Elastic Compliance Matrix: (Units=1/GPa)
#
#
# Indices 1 2 3 4 5 6 
#
# 1 0.021125 -0.006953 0.003930 0.000000 0.000000 0.000000
# 2 -0.006953 0.010160 -0.005209 0.000000 0.000000 0.000000
# 3 0.003930 -0.005209 0.016991 0.000000 0.000000 0.000000
# 4 0.000000 0.000000 0.000000 0.037458 0.000000 0.000000
# 5 0.000000 0.000000 0.000000 0.000000 -0.002416 0.000000
# 6 0.000000 0.000000 0.000000 0.000000 0.000000 0.025996
#
#
# Mechanical properties :
#
#
# Convention : Reuss Voigt Hill
#
# Bulk Modulus (GPa) = 31.43278 47.08500 39.25889
# Shear Modulus (GPa) = 36.66176 -56.33212 -9.83518
#
# Velocity S-wave (km/s) = 4.12122 -5.10855 -2.13457
# Velocity P-wave (km/s) = 6.09984 3.60320 3.48030
#
# Compressibility (1/GPa) = 0.03181392
#
# Stress axis : x y z
#
# Youngs Moduli (GPa) = 47.33765 98.42301 58.85398
#
# Poissons Ratio (x) = 0.68432 -0.23132
# Poissons Ratio (y) = 0.32913 0.30656
# Poissons Ratio (z) = -0.18606 0.51267
#
# Static dielectric constant tensor:
#      x y z
#    x 1.799330 0.000000 0.000000 
#    y 0.000000 1.152190 0.000000 
#    z 0.000000 0.000000 1.866540 
# 
# From -- ./inp_files/26736.got.cif
#   From: 2010.05.17/outbox.cif.g08.bks.cpg/sg48_14_cif.got.tgz:26736.got - 2010.06.03 20:39:00.
