data_PCOD9391655
_publ_section_title
;
Structure prediction by ZEFSAII (Michael W. Deem and Ramdas Pophale) SiO2 
 PCOD9391655
Probable space group: P N N N
;
_chemical_formula_sum "Si O2"
_cell_formula_units_Z 48
_cell_length_a 13.987783
_cell_length_b 10.656942
_cell_length_c 14.295555
_cell_angle_alpha 90.000000
_cell_angle_beta 90.000000
_cell_angle_gamma 90.000000
_cell_volume 2130.995385
_symmetry_space_group_name_H-M "P N N N"
_symmetry_group_IT_number 48
_space_group.IT_coordinate_system_code '2'
_symmetry_cell_setting 'orthorhombic'
loop_
_space_group_symop_operation_xyz
x,y,z
1/2-x,1/2-y,z
x,1/2-y,1/2-z
1/2-x,y,1/2-z
-x,-y,-z
1/2+x,1/2+y,-z
-x,1/2+y,1/2+z
1/2+x,-y,1/2+z
loop_
_atom_site_type_symbol
_atom_site_label
_atom_site_fract_x
_atom_site_fract_y
_atom_site_fract_z
Si Si1 0.397206 0.380137 0.297268
Si Si2 0.883666 0.603759 0.416168
Si Si3 0.100689 0.639112 0.826513
Si Si4 0.750000 0.250000 0.608377
Si Si5 0.750000 0.953616 0.250000
Si Si6 0.250000 0.551516 0.250000
Si Si7 0.250000 0.250000 0.059477
Si Si8 0.576270 0.169793 0.491395
O O1 0.423072 0.250000 0.250000
O O2 0.500849 0.436633 0.315399
O O3 0.337161 0.462046 0.224424
O O4 0.324101 0.335316 0.378918
O O5 0.827243 0.615368 0.317373
O O6 0.811098 0.656528 0.494492
O O7 0.914285 0.458153 0.431515
O O8 0.983524 0.672185 0.441955
O O9 0.118356 0.750000 0.750000
O O10 0.188345 0.543889 0.818543
O O11 0.082894 0.712734 0.922309
O O12 0.706092 0.358058 0.672858
O O13 0.670839 0.179407 0.551500
#
# Coordination Sequence:
#
# PCOD9391655 Si02
#       8
#     8   8   8   4   4   4   4   8
#     4  11  22  39  72  98 131 175 239 303 349 418
#     4  11  26  41  72  97 144 186 238 290 358 427
#     4  11  23  40  69 103 132 176 241 291 348 426
#     4  11  26  40  69  94 148 184 227 298 362 431
#     4  12  25  45  66 102 144 191 222 297 366 428
#     4  11  23  44  62 102 131 179 228 294 372 421
#     4  12  21  45  62 102 132 176 238 291 351 418
#     4  11  23  45  68 104 135 188 240 296 350 430
#
# _framework density 22.524685000000002
#
# number of rings (size 3 to 8) (size 9 to 14) (size 15 to 20)
#    0.000    0.833    5.000    2.250    2.333    0.333 
#    3.000    1.667    0.000    0.000    0.000    0.000 
#    0.000    0.000    0.000    0.000    0.000    0.000 
#
# Total GULP energy -267810.995847 kJ/mol
# GULP energy per Si atom -5579.395747 kJ/mol
# Density = 2.247342 g / cm^3
# Si number density = 22.524685 Si / 1000 Ang^3
#
#
#
# Elastic Constant Matrix: (Units=GPa)
#
#
# Indices 1 2 3 4 5 6 
#
# 1 117.3933 11.3885 29.0603 0.0000 0.0000 0.0000
# 2 11.3885 32.3667 8.4257 0.0000 0.0000 0.0000
# 3 29.0603 8.4257 76.1710 0.0000 0.0000 0.0000
# 4 0.0000 0.0000 0.0000 40.4632 0.0000 0.0000
# 5 0.0000 0.0000 0.0000 0.0000 34.4421 0.0000
# 6 0.0000 0.0000 0.0000 0.0000 0.0000 40.7207
#
#
#
# Elastic Compliance Matrix: (Units=1/GPa)
#
#
# Indices 1 2 3 4 5 6 
#
# 1 0.009599 -0.002496 -0.003386 0.000000 0.000000 0.000000
# 2 -0.002496 0.032461 -0.002638 0.000000 0.000000 0.000000
# 3 -0.003386 -0.002638 0.014712 0.000000 0.000000 0.000000
# 4 0.000000 0.000000 0.000000 0.024714 0.000000 0.000000
# 5 0.000000 0.000000 0.000000 0.000000 0.029034 0.000000
# 6 0.000000 0.000000 0.000000 0.000000 0.000000 0.024558
#
#
# Mechanical properties :
#
#
# Convention : Reuss Voigt Hill
#
# Bulk Modulus (GPa) = 25.16929 35.96445 30.56687
# Shear Modulus (GPa) = 30.23676 34.92896 32.58286
#
# Velocity S-wave (km/s) = 3.66783 3.94216 3.80747
# Velocity P-wave (km/s) = 5.39775 6.05988 5.73837
#
# Compressibility (1/GPa) = 0.03973096
#
# Stress axis : x y z
#
# Youngs Moduli (GPa) = 104.18095 30.80623 67.97176
#
# Poissons Ratio (x) = 0.07689 0.23015
# Poissons Ratio (y) = 0.26003 0.17934
# Poissons Ratio (z) = 0.35275 0.08128
#
# Static dielectric constant tensor:
#      x y z
#    x 6.157030 0.000000 0.000000 
#    y 0.000000 1.882260 0.000000 
#    z 0.000000 0.000000 1.955260 
# 
# From -- ./inp_files/27280.got.cif
#   From: 2010.05.17/outbox.cif.g08.bks.cpg/sg48_14_cif.got.tgz:27280.got - 2010.06.03 20:39:00.
