data_PCOD9391585
_publ_section_title
;
Structure prediction by ZEFSAII (Michael W. Deem and Ramdas Pophale) SiO2 
 PCOD9391585
Probable space group: P N N N
;
_chemical_formula_sum "Si O2"
_cell_formula_units_Z 58
_cell_length_a 30.405750
_cell_length_b 8.379018
_cell_length_c 10.947377
_cell_angle_alpha 90.000000
_cell_angle_beta 90.000000
_cell_angle_gamma 90.000000
_cell_volume 2789.066813
_symmetry_space_group_name_H-M "P N N N"
_symmetry_group_IT_number 48
_space_group.IT_coordinate_system_code '2'
_symmetry_cell_setting 'orthorhombic'
loop_
_space_group_symop_operation_xyz
x,y,z
1/2-x,1/2-y,z
x,1/2-y,1/2-z
1/2-x,y,1/2-z
-x,-y,-z
1/2+x,1/2+y,-z
-x,1/2+y,1/2+z
1/2+x,-y,1/2+z
loop_
_atom_site_type_symbol
_atom_site_label
_atom_site_fract_x
_atom_site_fract_y
_atom_site_fract_z
Si Si1 0.602694 0.671754 0.138324
Si Si2 0.382668 0.012436 0.000807
Si Si3 0.959434 0.137593 0.367797
Si Si4 0.700566 0.190551 0.056657
Si Si5 0.954451 0.434918 0.794328
Si Si6 0.250000 0.250000 0.750000
Si Si7 0.812702 0.494784 0.307681
Si Si8 0.547765 0.438665 0.976425
O O1 0.575121 0.750000 0.250000
O O2 0.643277 0.592024 0.207886
O O3 0.618662 0.801270 0.037538
O O4 0.578538 0.528918 0.071006
O O5 0.412298 0.942987 0.889103
O O6 0.335815 0.919162 0.012445
O O7 0.413403 0.978660 0.118293
O O8 0.959616 0.250000 0.250000
O O9 0.958786 0.253198 0.487020
O O10 0.001458 0.020267 0.349320
O O11 0.750000 0.250000 0.015711
O O12 0.679563 0.360548 0.091563
O O13 0.703714 0.093728 0.184940
O O14 0.961623 0.250000 0.750000
O O15 0.941240 0.496997 0.659318
O O16 0.221836 0.366245 0.665130
O O17 0.500000 0.500000 0.000000
#
# Coordination Sequence:
#
# PCOD9391585 Si02
#       8
#     8   8   8   8   8   2   8   8
#     4  12  25  41  66 102 141 179 226 296 359 434
#     4  12  26  42  68 101 139 187 244 293 365 441
#     4  12  25  43  68  99 136 184 239 293 366 434
#     4  11  22  41  65 100 139 187 229 292 366 434
#     4  12  28  47  68  95 141 192 250 297 350 437
#     4  12  16  34  56  96 136 180 204 272 368 430
#     4  11  21  36  61  97 141 176 216 282 369 437
#     4  12  26  44  67  97 136 189 233 293 362 419
#
# _framework density 20.795484999999999
#
# number of rings (size 3 to 8) (size 9 to 14) (size 15 to 20)
#    0.000    0.276    6.207    3.310    3.862    0.000 
#    0.000    0.000    0.000    0.414    0.000    0.000 
#    0.000    0.000    0.000    0.000    0.000    0.000 
#
# Total GULP energy -322978.897901 kJ/mol
# GULP energy per Si atom -5568.601688 kJ/mol
# Density = 2.074815 g / cm^3
# Si number density = 20.795485 Si / 1000 Ang^3
#
#
#
# Elastic Constant Matrix: (Units=GPa)
#
#
# Indices 1 2 3 4 5 6 
#
# 1 125.5006 50.1887 39.5434 0.0000 0.0000 0.0000
# 2 50.1887 116.4068 26.6115 0.0000 0.0000 0.0000
# 3 39.5434 26.6115 105.7882 0.0000 0.0000 0.0000
# 4 0.0000 0.0000 0.0000 27.9630 0.0000 0.0000
# 5 0.0000 0.0000 0.0000 0.0000 21.3142 0.0000
# 6 0.0000 0.0000 0.0000 0.0000 0.0000 45.2418
#
#
#
# Elastic Compliance Matrix: (Units=1/GPa)
#
#
# Indices 1 2 3 4 5 6 
#
# 1 0.010421 -0.003822 -0.002934 0.000000 0.000000 0.000000
# 2 -0.003822 0.010517 -0.001217 0.000000 0.000000 0.000000
# 3 -0.002934 -0.001217 0.010856 0.000000 0.000000 0.000000
# 4 0.000000 0.000000 0.000000 0.035762 0.000000 0.000000
# 5 0.000000 0.000000 0.000000 0.000000 0.046917 0.000000
# 6 0.000000 0.000000 0.000000 0.000000 0.000000 0.022103
#
#
# Mechanical properties :
#
#
# Convention : Reuss Voigt Hill
#
# Bulk Modulus (GPa) = 63.10134 64.48697 63.79415
# Shear Modulus (GPa) = 31.68491 34.32727 33.00609
#
# Velocity S-wave (km/s) = 3.90762 4.06730 3.98826
# Velocity P-wave (km/s) = 7.12524 7.28935 7.20776
#
# Compressibility (1/GPa) = 0.01584753
#
# Stress axis : x y z
#
# Youngs Moduli (GPa) = 95.95921 95.08666 92.11837
#
# Poissons Ratio (x) = 0.36345 0.27026
# Poissons Ratio (y) = 0.36679 0.11208
# Poissons Ratio (z) = 0.28153 0.11570
#
# Static dielectric constant tensor:
#      x y z
#    x 1.767950 0.000000 0.000000 
#    y 0.000000 1.861630 0.000000 
#    z 0.000000 0.000000 1.836640 
# 
# From -- ./inp_files/23672.got.cif
#   From: 2010.05.17/outbox.cif.g08.bks.cpg/sg48_12_cif.got.tgz:23672.got - 2010.06.03 20:39:00.
