data_PCOD9391888
_publ_section_title
;
Structure prediction by ZEFSAII (Michael W. Deem and Ramdas Pophale) SiO2 
 PCOD9391888
Probable space group: P N N N
;
_chemical_formula_sum "Si O2"
_cell_formula_units_Z 34
_cell_length_a 14.526057
_cell_length_b 20.915626
_cell_length_c 4.909964
_cell_angle_alpha 90.000000
_cell_angle_beta 90.000000
_cell_angle_gamma 90.000000
_cell_volume 1491.752998
_symmetry_space_group_name_H-M "P N N N"
_symmetry_group_IT_number 48
_space_group.IT_coordinate_system_code '2'
_symmetry_cell_setting 'orthorhombic'
loop_
_space_group_symop_operation_xyz
x,y,z
1/2-x,1/2-y,z
x,1/2-y,1/2-z
1/2-x,y,1/2-z
-x,-y,-z
1/2+x,1/2+y,-z
-x,1/2+y,1/2+z
1/2+x,-y,1/2+z
loop_
_atom_site_type_symbol
_atom_site_label
_atom_site_fract_x
_atom_site_fract_y
_atom_site_fract_z
Si Si1 0.809630 0.900437 0.021744
Si Si2 0.569168 0.011657 0.251654
Si Si3 0.978388 0.816317 0.121454
Si Si4 0.100514 0.844653 0.629140
Si Si5 0.750000 0.250000 0.250000
O O1 0.750000 0.864818 0.250000
O O2 0.898787 0.856931 0.977765
O O3 0.849630 0.961796 0.183611
O O4 0.750000 0.912810 0.750000
O O5 0.612977 0.081945 0.222170
O O6 0.500000 0.000000 0.500000
O O7 0.500000 0.000000 0.000000
O O8 0.944787 0.750000 0.250000
O O9 0.031037 0.848666 0.374522
O O10 0.053384 0.810243 0.886832
O O11 0.188815 0.800299 0.574046
#
# Coordination Sequence:
#
# PCOD9391888 Si02
#       5
#     8   8   8   8   2
#     4  12  26  44  71 108 145 185 255 313 363 443
#     4  12  23  46  74 102 142 197 244 303 387 454
#     4  12  24  48  72  98 145 199 242 298 381 448
#     4  12  25  45  71 107 145 195 243 304 379 462
#     4  12  28  46  72 114 150 186 254 310 384 470
#
# _framework density 22.791976999999999
#
# number of rings (size 3 to 8) (size 9 to 14) (size 15 to 20)
#    0.000    0.000    7.059    2.824    1.647    2.353 
#    0.000    1.176    0.000    0.000    0.000    0.000 
#    0.000    0.000    0.000    0.000    0.000    0.000 
#
# Total GULP energy -189873.844417 kJ/mol
# GULP energy per Si atom -5584.524836 kJ/mol
# Density = 2.274010 g / cm^3
# Si number density = 22.791977 Si / 1000 Ang^3
#
#
#
# Elastic Constant Matrix: (Units=GPa)
#
#
# Indices 1 2 3 4 5 6 
#
# 1 101.2746 44.9222 34.4152 0.0000 0.0000 0.0000
# 2 44.9222 159.8542 16.3049 0.0000 0.0000 0.0000
# 3 34.4152 16.3049 154.7961 0.0000 0.0000 0.0000
# 4 0.0000 0.0000 0.0000 23.8303 0.0000 0.0000
# 5 0.0000 0.0000 0.0000 0.0000 66.3499 0.0000
# 6 0.0000 0.0000 0.0000 0.0000 0.0000 48.8409
#
#
#
# Elastic Compliance Matrix: (Units=1/GPa)
#
#
# Indices 1 2 3 4 5 6 
#
# 1 0.012072 -0.003153 -0.002352 0.000000 0.000000 0.000000
# 2 -0.003153 0.007147 -0.000052 0.000000 0.000000 0.000000
# 3 -0.002352 -0.000052 0.006988 0.000000 0.000000 0.000000
# 4 0.000000 0.000000 0.000000 0.041963 0.000000 0.000000
# 5 0.000000 0.000000 0.000000 0.000000 0.015072 0.000000
# 6 0.000000 0.000000 0.000000 0.000000 0.000000 0.020475
#
#
# Mechanical properties :
#
#
# Convention : Reuss Voigt Hill
#
# Bulk Modulus (GPa) = 66.24874 67.46772 66.85823
# Shear Modulus (GPa) = 41.71514 49.15640 45.43577
#
# Velocity S-wave (km/s) = 4.28279 4.64911 4.46970
# Velocity P-wave (km/s) = 7.32026 7.64753 7.48568
#
# Compressibility (1/GPa) = 0.01509463
#
# Stress axis : x y z
#
# Youngs Moduli (GPa) = 82.83854 139.92057 143.09342
#
# Poissons Ratio (x) = 0.44110 0.33653
# Poissons Ratio (y) = 0.26115 0.00743
# Poissons Ratio (z) = 0.19482 0.00726
#
# Static dielectric constant tensor:
#      x y z
#    x 2.064920 0.000000 0.000000 
#    y 0.000000 2.063820 0.000000 
#    z 0.000000 0.000000 1.819380 
# 
# From -- ./inp_files/3225.got.cif
#   From: 2010.05.17/outbox.cif.g08.bks.cpg/sg48_2_cif.got.tgz:3225.got - 2010.06.03 20:39:00.
