data_PCOD9391808
_publ_section_title
;
Structure prediction by ZEFSAII (Michael W. Deem and Ramdas Pophale) SiO2 
 PCOD9391808
Probable space group: P N N N
;
_chemical_formula_sum "Si O2"
_cell_formula_units_Z 40
_cell_length_a 11.289492
_cell_length_b 8.533622
_cell_length_c 16.609739
_cell_angle_alpha 90.000000
_cell_angle_beta 90.000000
_cell_angle_gamma 90.000000
_cell_volume 1600.186529
_symmetry_space_group_name_H-M "P N N N"
_symmetry_group_IT_number 48
_space_group.IT_coordinate_system_code '2'
_symmetry_cell_setting 'orthorhombic'
loop_
_space_group_symop_operation_xyz
x,y,z
1/2-x,1/2-y,z
x,1/2-y,1/2-z
1/2-x,y,1/2-z
-x,-y,-z
1/2+x,1/2+y,-z
-x,1/2+y,1/2+z
1/2+x,-y,1/2+z
loop_
_atom_site_type_symbol
_atom_site_label
_atom_site_fract_x
_atom_site_fract_y
_atom_site_fract_z
Si Si1 0.938394 0.656660 0.622523
Si Si2 0.649550 0.158875 0.038375
Si Si3 0.297488 0.421185 0.659188
Si Si4 0.303464 0.468891 0.398142
Si Si5 0.547344 0.074221 0.774635
O O1 0.832884 0.559941 0.579283
O O2 0.865664 0.814817 0.641003
O O3 0.966721 0.550088 0.701059
O O4 0.047116 0.726270 0.570562
O O5 0.750000 0.250000 0.987897
O O6 0.730053 0.073188 0.106742
O O7 0.622915 0.019453 0.976090
O O8 0.250000 0.250000 0.629612
O O9 0.250000 0.434040 0.750000
O O10 0.438863 0.446408 0.662833
O O11 0.329890 0.578958 0.323007
O O12 0.521645 0.250000 0.750000
#
# Coordination Sequence:
#
# PCOD9391808 Si02
#       5
#     8   8   8   8   8
#     4  11  26  49  75 109 150 206 259 325 387 481
#     4  12  28  46  77 112 155 207 263 326 405 484
#     4  11  24  45  72 110 150 198 251 320 397 468
#     4  11  27  48  74 109 153 203 260 321 397 463
#     4  12  25  45  79 109 149 200 262 327 394 478
#
# _framework density 24.997085999999999
#
# number of rings (size 3 to 8) (size 9 to 14) (size 15 to 20)
#    0.000    0.600    4.000    3.000    5.600    5.200 
#    0.000    0.000    0.000    0.000    0.000    0.000 
#    0.000    0.000    0.000    0.000    0.000    0.000 
#
# Total GULP energy -222734.814312 kJ/mol
# GULP energy per Si atom -5568.370358 kJ/mol
# Density = 2.494019 g / cm^3
# Si number density = 24.997086 Si / 1000 Ang^3
#
#
#
# Elastic Constant Matrix: (Units=GPa)
#
#
# Indices 1 2 3 4 5 6 
#
# 1 147.9794 53.2915 47.8389 0.0000 0.0000 0.0000
# 2 53.2915 78.6130 31.5038 0.0000 0.0000 0.0000
# 3 47.8389 31.5038 75.9438 0.0000 0.0000 0.0000
# 4 0.0000 0.0000 0.0000 -47.9674 0.0000 0.0000
# 5 0.0000 0.0000 0.0000 0.0000 32.1125 0.0000
# 6 0.0000 0.0000 0.0000 0.0000 0.0000 39.8961
#
#
#
# Elastic Compliance Matrix: (Units=1/GPa)
#
#
# Indices 1 2 3 4 5 6 
#
# 1 0.009923 -0.005064 -0.004150 0.000000 0.000000 0.000000
# 2 -0.005064 0.017841 -0.004211 0.000000 0.000000 0.000000
# 3 -0.004150 -0.004211 0.017529 0.000000 0.000000 0.000000
# 4 0.000000 0.000000 0.000000 -0.020847 0.000000 0.000000
# 5 0.000000 0.000000 0.000000 0.000000 0.031141 0.000000
# 6 0.000000 0.000000 0.000000 0.000000 0.000000 0.025065
#
#
# Mechanical properties :
#
#
# Convention : Reuss Voigt Hill
#
# Bulk Modulus (GPa) = 54.22223 63.08939 58.65581
# Shear Modulus (GPa) = 43.99551 16.13505 30.06528
#
# Velocity S-wave (km/s) = 4.19982 2.54338 3.47183
# Velocity P-wave (km/s) = 6.72729 5.82396 6.29186
#
# Compressibility (1/GPa) = 0.01844262
#
# Stress axis : x y z
#
# Youngs Moduli (GPa) = 100.77718 56.05158 57.04879
#
# Poissons Ratio (x) = 0.28382 0.23676
# Poissons Ratio (y) = 0.51029 0.24025
# Poissons Ratio (z) = 0.41824 0.23605
#
# Static dielectric constant tensor:
#      x y z
#    x 2.154280 0.000000 0.000000 
#    y 0.000000 2.306580 0.000000 
#    z 0.000000 0.000000 1.970500 
# 
# From -- ./inp_files/13823.got.cif
#   From: 2010.05.17/outbox.cif.g08.bks.cpg/sg48_7_cif.got.tgz:13823.got - 2010.06.03 20:39:00.
