data_PCOD9391522
_publ_section_title
;
Structure prediction by ZEFSAII (Michael W. Deem and Ramdas Pophale) SiO2 
 PCOD9391522
Probable space group: P N N N
;
_chemical_formula_sum "Si O2"
_cell_formula_units_Z 46
_cell_length_a 19.719814
_cell_length_b 8.531786
_cell_length_c 12.221215
_cell_angle_alpha 90.000000
_cell_angle_beta 90.000000
_cell_angle_gamma 90.000000
_cell_volume 2056.161165
_symmetry_space_group_name_H-M "P N N N"
_symmetry_group_IT_number 48
_space_group.IT_coordinate_system_code '2'
_symmetry_cell_setting 'orthorhombic'
loop_
_space_group_symop_operation_xyz
x,y,z
1/2-x,1/2-y,z
x,1/2-y,1/2-z
1/2-x,y,1/2-z
-x,-y,-z
1/2+x,1/2+y,-z
-x,1/2+y,1/2+z
1/2+x,-y,1/2+z
loop_
_atom_site_type_symbol
_atom_site_label
_atom_site_fract_x
_atom_site_fract_y
_atom_site_fract_z
Si Si1 0.098613 0.742637 0.456267
Si Si2 0.642241 0.539511 0.634621
Si Si3 0.961642 0.540600 0.669290
Si Si4 0.750000 0.750000 0.750000
Si Si5 0.452134 0.205012 0.981284
Si Si6 0.121365 0.908197 0.815460
Si Si7 0.886151 0.750000 0.250000
O O1 0.063334 0.627490 0.370558
O O2 0.128997 0.643681 0.557098
O O3 0.031337 0.840499 0.495726
O O4 0.149285 0.856473 0.392418
O O5 0.584536 0.572408 0.725904
O O6 0.705965 0.635659 0.674666
O O7 0.610904 0.606667 0.524568
O O8 0.948833 0.643984 0.560939
O O9 0.039876 0.566796 0.699118
O O10 0.433206 0.227056 0.855780
O O11 0.141892 0.750000 0.750000
O O12 0.149838 0.079538 0.776996
#
# Coordination Sequence:
#
# PCOD9391522 Si02
#       7
#     8   8   8   2   8   8   4
#     4  11  21  36  60  95 135 173 224 283 364 431
#     4  12  24  42  66  90 128 189 235 296 347 418
#     4  11  19  38  57  91 134 171 228 281 351 422
#     4  12  28  48  66  90 132 180 262 304 344 430
#     4  11  20  37  60  95 136 177 219 279 361 432
#     4  11  21  34  54  93 140 183 216 264 349 447
#     4  12  20  34  58  91 144 173 218 276 346 440
#
# _framework density 22.371787999999999
#
# number of rings (size 3 to 8) (size 9 to 14) (size 15 to 20)
#    0.000    0.696    5.217    6.261    0.000    0.000 
#    0.000    1.739    0.000    0.522    0.000    0.000 
#    0.000    1.391    0.000    0.000    0.000    0.000 
#
# Total GULP energy -256538.337184 kJ/mol
# GULP energy per Si atom -5576.920374 kJ/mol
# Density = 2.232087 g / cm^3
# Si number density = 22.371788 Si / 1000 Ang^3
#
#
#
# Elastic Constant Matrix: (Units=GPa)
#
#
# Indices 1 2 3 4 5 6 
#
# 1 28.6516 26.2326 15.2834 0.0000 0.0000 0.0000
# 2 26.2326 147.5966 32.1653 0.0000 0.0000 0.0000
# 3 15.2834 32.1653 135.5255 0.0000 0.0000 0.0000
# 4 0.0000 0.0000 0.0000 25.3164 0.0000 0.0000
# 5 0.0000 0.0000 0.0000 0.0000 5.5925 0.0000
# 6 0.0000 0.0000 0.0000 0.0000 0.0000 -2.7433
#
#
#
# Elastic Compliance Matrix: (Units=1/GPa)
#
#
# Indices 1 2 3 4 5 6 
#
# 1 0.042961 -0.006939 -0.003198 0.000000 0.000000 0.000000
# 2 -0.006939 0.008265 -0.001179 0.000000 0.000000 0.000000
# 3 -0.003198 -0.001179 0.008019 0.000000 0.000000 0.000000
# 4 0.000000 0.000000 0.000000 0.039500 0.000000 0.000000
# 5 0.000000 0.000000 0.000000 0.000000 0.178811 0.000000
# 6 0.000000 0.000000 0.000000 0.000000 0.000000 -0.364519
#
#
# Mechanical properties :
#
#
# Convention : Reuss Voigt Hill
#
# Bulk Modulus (GPa) = 27.31207 51.01513 39.16360
# Shear Modulus (GPa) = -95.92051 21.50593 -37.20729
#
# Velocity S-wave (km/s) = -6.55505 3.10384 -4.08258
# Velocity P-wave (km/s) = 6.71244 5.97478 2.16321
#
# Compressibility (1/GPa) = 0.03661385
#
# Stress axis : x y z
#
# Youngs Moduli (GPa) = 23.27708 120.98614 124.70073
#
# Poissons Ratio (x) = 0.83947 0.39879
# Poissons Ratio (y) = 0.16151 0.14705
# Poissons Ratio (z) = 0.07444 0.14267
#
# Static dielectric constant tensor:
#      x y z
#    x 1.781540 0.000000 0.000000 
#    y 0.000000 2.128970 0.000000 
#    z 0.000000 0.000000 1.899930 
# 
# From -- ./inp_files/23314.got.cif
#   From: 2010.05.17/outbox.cif.g08.bks.cpg/sg48_12_cif.got.tgz:23314.got - 2010.06.03 20:39:00.
