data_PCOD9391672
_publ_section_title
;
Structure prediction by ZEFSAII (Michael W. Deem and Ramdas Pophale) SiO2 
 PCOD9391672
Probable space group: P N N N
;
_chemical_formula_sum "Si O2"
_cell_formula_units_Z 58
_cell_length_a 27.031256
_cell_length_b 8.787895
_cell_length_c 10.989033
_cell_angle_alpha 90.000000
_cell_angle_beta 90.000000
_cell_angle_gamma 90.000000
_cell_volume 2610.421047
_symmetry_space_group_name_H-M "P N N N"
_symmetry_group_IT_number 48
_space_group.IT_coordinate_system_code '2'
_symmetry_cell_setting 'orthorhombic'
loop_
_space_group_symop_operation_xyz
x,y,z
1/2-x,1/2-y,z
x,1/2-y,1/2-z
1/2-x,y,1/2-z
-x,-y,-z
1/2+x,1/2+y,-z
-x,1/2+y,1/2+z
1/2+x,-y,1/2+z
loop_
_atom_site_type_symbol
_atom_site_label
_atom_site_fract_x
_atom_site_fract_y
_atom_site_fract_z
Si Si1 0.567279 0.236576 0.947145
Si Si2 0.694425 0.712535 0.055212
Si Si3 0.250000 0.750000 0.750000
Si Si4 0.613737 0.541012 0.926123
Si Si5 0.935422 0.038404 0.307609
Si Si6 0.958540 0.742291 0.454697
Si Si7 0.454565 0.440988 0.297883
Si Si8 0.674312 0.504744 0.287486
O O1 0.610358 0.358889 0.931818
O O2 0.560697 0.108031 0.845064
O O3 0.569122 0.147692 0.074393
O O4 0.513927 0.317750 0.941025
O O5 0.750000 0.750000 0.019968
O O6 0.694672 0.599311 0.171824
O O7 0.670861 0.871815 0.103071
O O8 0.664734 0.625988 0.950273
O O9 0.288263 0.633678 0.683898
O O10 0.579679 0.607020 0.034903
O O11 0.586104 0.591066 0.803280
O O12 0.880785 0.050139 0.252949
O O13 0.944227 0.865487 0.353392
O O14 0.988955 0.072954 0.248365
O O15 0.955389 0.841184 0.579283
#
# Coordination Sequence:
#
# PCOD9391672 Si02
#       8
#     8   8   2   8   8   8   8   8
#     4   9  20  34  56  90 133 161 207 254 301 374
#     4  11  24  44  60  85 127 160 209 272 326 383
#     4  12  24  38  72  88 112 160 216 268 334 382
#     4  12  21  34  60  90 118 171 214 251 315 378
#     4   9  19  38  58  86 126 173 200 255 317 374
#     4   9  18  36  56  83 125 173 208 243 307 375
#     4   9  20  38  56  86 137 173 203 254 306 375
#     4  11  22  42  64  90 122 161 206 265 329 382
#
# _framework density 22.218637999999999
#
# number of rings (size 3 to 8) (size 9 to 14) (size 15 to 20)
#    0.000    1.931    2.759    3.310    1.931    2.207 
#    4.966    0.000    0.000    1.655    0.000    0.000 
#    8.276    0.000    0.000    0.000    0.000    0.000 
#
# Total GULP energy -324026.919849 kJ/mol
# GULP energy per Si atom -5586.671032 kJ/mol
# Density = 2.216807 g / cm^3
# Si number density = 22.218638 Si / 1000 Ang^3
#
#
#
# Elastic Constant Matrix: (Units=GPa)
#
#
# Indices 1 2 3 4 5 6 
#
# 1 167.3024 46.7420 45.4858 0.0000 0.0000 0.0000
# 2 46.7420 123.0205 32.8605 0.0000 0.0000 0.0000
# 3 45.4858 32.8605 61.1505 0.0000 0.0000 0.0000
# 4 0.0000 0.0000 0.0000 33.2619 0.0000 0.0000
# 5 0.0000 0.0000 0.0000 0.0000 9.6608 0.0000
# 6 0.0000 0.0000 0.0000 0.0000 0.0000 43.0123
#
#
#
# Elastic Compliance Matrix: (Units=1/GPa)
#
#
# Indices 1 2 3 4 5 6 
#
# 1 0.007767 -0.001644 -0.004894 0.000000 0.000000 0.000000
# 2 -0.001644 0.009839 -0.004064 0.000000 0.000000 0.000000
# 3 -0.004894 -0.004064 0.022178 0.000000 0.000000 0.000000
# 4 0.000000 0.000000 0.000000 0.030064 0.000000 0.000000
# 5 0.000000 0.000000 0.000000 0.000000 0.103511 0.000000
# 6 0.000000 0.000000 0.000000 0.000000 0.000000 0.023249
#
#
# Mechanical properties :
#
#
# Convention : Reuss Voigt Hill
#
# Bulk Modulus (GPa) = 53.82439 66.85002 60.33721
# Shear Modulus (GPa) = 22.32089 32.27935 27.30012
#
# Velocity S-wave (km/s) = 3.17298 3.81570 3.50909
# Velocity P-wave (km/s) = 6.14013 7.04027 6.60556
#
# Compressibility (1/GPa) = 0.01857894
#
# Stress axis : x y z
#
# Youngs Moduli (GPa) = 128.74906 101.63661 45.09066
#
# Poissons Ratio (x) = 0.16707 0.22068
# Poissons Ratio (y) = 0.21164 0.18327
# Poissons Ratio (z) = 0.63010 0.41309
#
# Static dielectric constant tensor:
#      x y z
#    x 1.820230 0.000000 0.000000 
#    y 0.000000 1.884090 0.000000 
#    z 0.000000 0.000000 1.872970 
# 
# From -- ./inp_files/23659.got.cif
#   From: 2010.05.17/outbox.cif.g08.bks.cpg/sg48_12_cif.got.tgz:23659.got - 2010.06.03 20:39:00.
