data_PCOD9391418
_publ_section_title
;
Structure prediction by ZEFSAII (Michael W. Deem and Ramdas Pophale) SiO2 
 PCOD9391418
Probable space group: P N N N
;
_chemical_formula_sum "Si O2"
_cell_formula_units_Z 60
_cell_length_a 5.430093
_cell_length_b 19.690808
_cell_length_c 26.501909
_cell_angle_alpha 90.000000
_cell_angle_beta 90.000000
_cell_angle_gamma 90.000000
_cell_volume 2833.661461
_symmetry_space_group_name_H-M "P N N N"
_symmetry_group_IT_number 48
_space_group.IT_coordinate_system_code '2'
_symmetry_cell_setting 'orthorhombic'
loop_
_space_group_symop_operation_xyz
x,y,z
1/2-x,1/2-y,z
x,1/2-y,1/2-z
1/2-x,y,1/2-z
-x,-y,-z
1/2+x,1/2+y,-z
-x,1/2+y,1/2+z
1/2+x,-y,1/2+z
loop_
_atom_site_type_symbol
_atom_site_label
_atom_site_fract_x
_atom_site_fract_y
_atom_site_fract_z
Si Si1 0.802528 0.669997 0.056982
Si Si2 0.272587 0.432427 0.860800
Si Si3 0.445513 0.073565 0.477203
Si Si4 0.852604 0.173981 0.469769
Si Si5 0.609724 0.594445 0.705153
Si Si6 0.250000 0.481855 0.750000
Si Si7 0.504173 0.708805 0.633829
Si Si8 0.764090 0.988927 0.615558
O O1 0.750000 0.750000 0.055237
O O2 0.783155 0.639522 0.112769
O O3 0.625328 0.625562 0.021304
O O4 0.051785 0.655901 0.025585
O O5 0.299015 0.437394 0.800142
O O6 0.529752 0.460784 0.883143
O O7 0.031647 0.477037 0.876461
O O8 0.668867 0.114792 0.451765
O O9 0.500000 0.000000 0.500000
O O10 0.244522 0.053566 0.435638
O O11 0.750000 0.250000 0.475756
O O12 0.044876 0.184797 0.424080
O O13 0.750000 0.631531 0.750000
O O14 0.464041 0.533464 0.732283
O O15 0.457933 0.647085 0.672112
O O16 0.781860 0.560162 0.663149
O O17 0.750000 0.750000 0.648634
O O18 0.250000 0.750000 0.633215
#
# Coordination Sequence:
#
# PCOD9391418 Si02
#       8
#     8   8   8   8   8   4   8   8
#     4  12  25  43  67 104 141 189 224 290 350 431
#     4  11  25  45  70  99 141 171 237 284 357 409
#     4  12  25  41  68 102 142 180 237 284 346 420
#     4  11  25  43  70  98 147 194 230 281 357 436
#     4  11  24  42  71  93 135 174 240 292 358 399
#     4  10  24  46  68 100 126 184 222 308 356 418
#     4  11  28  45  66  98 139 191 237 282 342 432
#     4  11  25  42  68 105 131 179 225 297 335 409
#
# _framework density 21.174018
#
# number of rings (size 3 to 8) (size 9 to 14) (size 15 to 20)
#    0.000    0.800    4.000    2.000   13.067    1.333 
#    0.000    0.333    0.000    0.000    0.000    1.867 
#    0.000    0.000    0.000    0.000    0.000    0.000 
#
# Total GULP energy -334770.840888 kJ/mol
# GULP energy per Si atom -5579.514015 kJ/mol
# Density = 2.112582 g / cm^3
# Si number density = 21.174018 Si / 1000 Ang^3
#
#
#
# Elastic Constant Matrix: (Units=GPa)
#
#
# Indices 1 2 3 4 5 6 
#
# 1 72.2046 27.6658 12.6512 0.0000 0.0000 0.0000
# 2 27.6658 119.3590 53.3011 0.0000 0.0000 0.0000
# 3 12.6512 53.3011 142.2111 0.0000 0.0000 0.0000
# 4 0.0000 0.0000 0.0000 -219.7760 0.0000 0.0000
# 5 0.0000 0.0000 0.0000 0.0000 12.2930 0.0000
# 6 0.0000 0.0000 0.0000 0.0000 0.0000 24.4322
#
#
#
# Elastic Compliance Matrix: (Units=1/GPa)
#
#
# Indices 1 2 3 4 5 6 
#
# 1 0.015200 -0.003506 -0.000038 0.000000 0.000000 0.000000
# 2 -0.003506 0.010871 -0.003763 0.000000 0.000000 0.000000
# 3 -0.000038 -0.003763 0.008445 0.000000 0.000000 0.000000
# 4 0.000000 0.000000 0.000000 -0.004550 0.000000 0.000000
# 5 0.000000 0.000000 0.000000 0.000000 0.081347 0.000000
# 6 0.000000 0.000000 0.000000 0.000000 0.000000 0.040930
#
#
# Mechanical properties :
#
#
# Convention : Reuss Voigt Hill
#
# Bulk Modulus (GPa) = 50.24486 57.89012 54.06749
# Shear Modulus (GPa) = 28.82011 -20.59974 4.11019
#
# Velocity S-wave (km/s) = 3.69332 -3.12248 1.39476
# Velocity P-wave (km/s) = 6.47831 3.79469 5.30887
#
# Compressibility (1/GPa) = 0.01990253
#
# Stress axis : x y z
#
# Youngs Moduli (GPa) = 65.79129 91.98817 118.40752
#
# Poissons Ratio (x) = 0.32252 0.00451
# Poissons Ratio (y) = 0.23067 0.44552
# Poissons Ratio (z) = 0.00251 0.34611
#
# Static dielectric constant tensor:
#      x y z
#    x 1.923840 0.000000 0.000000 
#    y 0.000000 0.623390 0.000000 
#    z 0.000000 0.000000 1.828770 
# 
# From -- ./inp_files/35451.got.cif
#   From: 2010.05.17/outbox.cif.g08.bks.cpg/sg48_18_cif.got.tgz:35451.got - 2010.06.03 20:39:00.
