data_PCOD9391156
_publ_section_title
;
Structure prediction by ZEFSAII (Michael W. Deem and Ramdas Pophale) SiO2 
 PCOD9391156
Probable space group: P N N N
;
_chemical_formula_sum "Si O2"
_cell_formula_units_Z 40
_cell_length_a 8.260706
_cell_length_b 16.170049
_cell_length_c 12.995360
_cell_angle_alpha 90.000000
_cell_angle_beta 90.000000
_cell_angle_gamma 90.000000
_cell_volume 1735.868478
_symmetry_space_group_name_H-M "P N N N"
_symmetry_group_IT_number 48
_space_group.IT_coordinate_system_code '2'
_symmetry_cell_setting 'orthorhombic'
loop_
_space_group_symop_operation_xyz
x,y,z
1/2-x,1/2-y,z
x,1/2-y,1/2-z
1/2-x,y,1/2-z
-x,-y,-z
1/2+x,1/2+y,-z
-x,1/2+y,1/2+z
1/2+x,-y,1/2+z
loop_
_atom_site_type_symbol
_atom_site_label
_atom_site_fract_x
_atom_site_fract_y
_atom_site_fract_z
Si Si1 0.943877 0.759303 0.007984
Si Si2 0.143173 0.857550 0.855043
Si Si3 0.558733 0.337358 0.787251
Si Si4 0.938929 0.980739 0.744525
Si Si5 0.952942 0.410350 0.038659
O O1 0.750000 0.750000 0.997078
O O2 0.994303 0.665087 0.032198
O O3 0.041398 0.781870 0.902612
O O4 0.013335 0.824641 0.091633
O O5 0.250000 0.843374 0.750000
O O6 0.267293 0.892870 0.938604
O O7 0.017204 0.930984 0.836752
O O8 0.486039 0.250000 0.750000
O O9 0.750000 0.335522 0.750000
O O10 0.492676 0.425389 0.746139
O O11 0.750000 0.991748 0.750000
O O12 0.966587 0.917580 0.650579
O O13 0.000000 0.500000 0.000000
#
# Coordination Sequence:
#
# PCOD9391156 Si02
#       5
#     8   8   8   8   8
#     4  12  27  45  74 112 146 194 253 314 373 452
#     4  10  25  46  72 102 147 193 250 309 373 442
#     4  10  24  43  72 103 148 193 239 299 383 455
#     4  10  22  43  69 103 142 188 240 309 369 440
#     4  11  25  42  70 100 142 192 248 295 369 447
#
# _framework density 23.043220999999999
#
# number of rings (size 3 to 8) (size 9 to 14) (size 15 to 20)
#    0.000    1.400    0.000    3.000   14.000    6.800 
#    3.600    5.000    0.000    0.000    0.000    0.000 
#    0.000    0.000    0.000    0.000    0.000    0.000 
#
# Total GULP energy -222763.372812 kJ/mol
# GULP energy per Si atom -5569.084320 kJ/mol
# Density = 2.299077 g / cm^3
# Si number density = 23.043221 Si / 1000 Ang^3
#
#
#
# Elastic Constant Matrix: (Units=GPa)
#
#
# Indices 1 2 3 4 5 6 
#
# 1 124.0559 30.6297 43.2595 0.0000 0.0000 0.0000
# 2 30.6297 137.4009 19.9819 0.0000 0.0000 0.0000
# 3 43.2595 19.9819 62.5357 0.0000 0.0000 0.0000
# 4 0.0000 0.0000 0.0000 34.6174 0.0000 0.0000
# 5 0.0000 0.0000 0.0000 0.0000 6.4494 0.0000
# 6 0.0000 0.0000 0.0000 0.0000 0.0000 17.7985
#
#
#
# Elastic Compliance Matrix: (Units=1/GPa)
#
#
# Indices 1 2 3 4 5 6 
#
# 1 0.010873 -0.001395 -0.007075 0.000000 0.000000 0.000000
# 2 -0.001395 0.007812 -0.001531 0.000000 0.000000 0.000000
# 3 -0.007075 -0.001531 0.021375 0.000000 0.000000 0.000000
# 4 0.000000 0.000000 0.000000 0.028887 0.000000 0.000000
# 5 0.000000 0.000000 0.000000 0.000000 0.155052 0.000000
# 6 0.000000 0.000000 0.000000 0.000000 0.000000 0.056185
#
#
# Mechanical properties :
#
#
# Convention : Reuss Voigt Hill
#
# Bulk Modulus (GPa) = 49.86064 56.85940 53.36002
# Shear Modulus (GPa) = 16.29349 27.11449 21.70399
#
# Velocity S-wave (km/s) = 2.66199 3.43400 3.07234
# Velocity P-wave (km/s) = 5.57970 6.36017 5.98268
#
# Compressibility (1/GPa) = 0.02005590
#
# Stress axis : x y z
#
# Youngs Moduli (GPa) = 91.97484 128.01521 46.78442
#
# Poissons Ratio (x) = 0.17855 0.33102
# Poissons Ratio (y) = 0.12828 0.07164
# Poissons Ratio (z) = 0.65077 0.19601
#
# Static dielectric constant tensor:
#      x y z
#    x 1.863030 0.000000 0.000000 
#    y 0.000000 1.964520 0.000000 
#    z 0.000000 0.000000 2.858810 
# 
# From -- ./inp_files/25081.got.cif
#   From: 2010.05.17/outbox.cif.g08.bks.cpg/sg48_13_cif.got.tgz:25081.got - 2010.06.03 20:39:00.
