data_PCOD9391353
_publ_section_title
;
Structure prediction by ZEFSAII (Michael W. Deem and Ramdas Pophale) SiO2 
 PCOD9391353
Probable space group: P N N N
;
_chemical_formula_sum "Si O2"
_cell_formula_units_Z 52
_cell_length_a 11.544010
_cell_length_b 9.387535
_cell_length_c 27.904575
_cell_angle_alpha 90.000000
_cell_angle_beta 90.000000
_cell_angle_gamma 90.000000
_cell_volume 3024.013154
_symmetry_space_group_name_H-M "P N N N"
_symmetry_group_IT_number 48
_space_group.IT_coordinate_system_code '2'
_symmetry_cell_setting 'orthorhombic'
loop_
_space_group_symop_operation_xyz
x,y,z
1/2-x,1/2-y,z
x,1/2-y,1/2-z
1/2-x,y,1/2-z
-x,-y,-z
1/2+x,1/2+y,-z
-x,1/2+y,1/2+z
1/2+x,-y,1/2+z
loop_
_atom_site_type_symbol
_atom_site_label
_atom_site_fract_x
_atom_site_fract_y
_atom_site_fract_z
Si Si1 0.905933 0.536138 0.582729
Si Si2 0.250000 0.250000 0.670330
Si Si3 0.621884 0.733807 0.666496
Si Si4 0.956314 0.753300 0.093865
Si Si5 0.250000 0.497453 0.750000
Si Si6 0.563403 0.250000 0.250000
Si Si7 0.639418 0.010652 0.911442
Si Si8 0.614770 0.721812 0.514257
O O1 0.896008 0.639522 0.628393
O O2 0.776067 0.470834 0.577076
O O3 0.941773 0.639058 0.538682
O O4 0.997812 0.413698 0.591027
O O5 0.137973 0.239622 0.635769
O O6 0.247633 0.390169 0.704422
O O7 0.750000 0.750000 0.688651
O O8 0.519854 0.737649 0.704290
O O9 0.626002 0.591549 0.634508
O O10 0.067402 0.651307 0.099082
O O11 0.904290 0.713890 0.041928
O O12 0.358008 0.607363 0.751613
O O13 0.586190 0.920276 0.955953
O O14 0.750000 0.750000 0.524402
#
# Coordination Sequence:
#
# PCOD9391353 Si02
#       8
#     8   4   8   8   4   4   8   8
#     4   9  19  33  52  74 107 132 164 210 265 301
#     4  11  24  38  52  74 108 140 174 209 262 302
#     4   9  18  34  54  81 102 129 161 213 262 310
#     4  12  19  32  53  76  97 137 181 208 241 309
#     4  10  24  40  52  74 106 140 170 218 256 302
#     4  11  19  36  62  78  97 133 182 210 254 305
#     4   9  19  33  52  74 107 132 164 210 265 301
#     4   9  18  34  49  74 103 136 169 212 255 298
#
# _framework density 17.195692000000001
#
# number of rings (size 3 to 8) (size 9 to 14) (size 15 to 20)
#    0.000    2.154    0.769    5.308    0.000    0.000 
#    0.000    0.000    0.000    0.000    0.000   12.923 
#    0.000    0.000    0.000    0.000    0.000    0.000 
#
# Total GULP energy -289859.960567 kJ/mol
# GULP energy per Si atom -5574.230011 kJ/mol
# Density = 1.715655 g / cm^3
# Si number density = 17.195692 Si / 1000 Ang^3
#
#
#
# Elastic Constant Matrix: (Units=GPa)
#
#
# Indices 1 2 3 4 5 6 
#
# 1 47.4002 10.6606 32.5293 0.0000 0.0000 0.0000
# 2 10.6606 65.4226 25.6354 0.0000 0.0000 0.0000
# 3 32.5293 25.6354 104.8534 0.0000 0.0000 0.0000
# 4 0.0000 0.0000 0.0000 9.9154 0.0000 0.0000
# 5 0.0000 0.0000 0.0000 0.0000 15.6844 0.0000
# 6 0.0000 0.0000 0.0000 0.0000 0.0000 27.0236
#
#
#
# Elastic Compliance Matrix: (Units=1/GPa)
#
#
# Indices 1 2 3 4 5 6 
#
# 1 0.026893 -0.001231 -0.008042 0.000000 0.000000 0.000000
# 2 -0.001231 0.016961 -0.003765 0.000000 0.000000 0.000000
# 3 -0.008042 -0.003765 0.012953 0.000000 0.000000 0.000000
# 4 0.000000 0.000000 0.000000 0.100854 0.000000 0.000000
# 5 0.000000 0.000000 0.000000 0.000000 0.063758 0.000000
# 6 0.000000 0.000000 0.000000 0.000000 0.000000 0.037005
#
#
# Mechanical properties :
#
#
# Convention : Reuss Voigt Hill
#
# Bulk Modulus (GPa) = 32.54094 39.48075 36.01085
# Shear Modulus (GPa) = 16.96398 20.44807 18.70603
#
# Velocity S-wave (km/s) = 3.14431 3.45213 3.30181
# Velocity P-wave (km/s) = 5.66985 6.23692 5.96013
#
# Compressibility (1/GPa) = 0.03073052
#
# Stress axis : x y z
#
# Youngs Moduli (GPa) = 37.18453 58.95857 77.20464
#
# Poissons Ratio (x) = 0.07257 0.62090
# Poissons Ratio (y) = 0.04577 0.29067
# Poissons Ratio (z) = 0.29905 0.22197
#
# Static dielectric constant tensor:
#      x y z
#    x 1.579600 0.000000 0.000000 
#    y 0.000000 1.576600 0.000000 
#    z 0.000000 0.000000 1.572480 
# 
# From -- ./inp_files/11436.got.cif
#   From: 2010.05.17/outbox.cif.g08.bks.cpg/sg48_6_cif.got.tgz:11436.got - 2010.06.03 20:39:00.
