data_PCOD9391668
_publ_section_title
;
Structure prediction by ZEFSAII (Michael W. Deem and Ramdas Pophale) SiO2 
 PCOD9391668
Probable space group: P N N N
;
_chemical_formula_sum "Si O2"
_cell_formula_units_Z 28
_cell_length_a 22.031647
_cell_length_b 8.593659
_cell_length_c 7.283229
_cell_angle_alpha 90.000000
_cell_angle_beta 90.000000
_cell_angle_gamma 90.000000
_cell_volume 1378.951674
_symmetry_space_group_name_H-M "P N N N"
_symmetry_group_IT_number 48
_space_group.IT_coordinate_system_code '2'
_symmetry_cell_setting 'orthorhombic'
loop_
_space_group_symop_operation_xyz
x,y,z
1/2-x,1/2-y,z
x,1/2-y,1/2-z
1/2-x,y,1/2-z
-x,-y,-z
1/2+x,1/2+y,-z
-x,1/2+y,1/2+z
1/2+x,-y,1/2+z
loop_
_atom_site_type_symbol
_atom_site_label
_atom_site_fract_x
_atom_site_fract_y
_atom_site_fract_z
Si Si1 0.012412 0.185505 0.041958
Si Si2 0.418523 0.750000 0.250000
Si Si3 0.652637 0.758158 0.038944
Si Si4 0.683371 0.001115 0.745800
O O1 0.007329 0.250000 0.250000
O O2 0.080651 0.224934 0.979020
O O3 0.963106 0.276814 0.920325
O O4 0.000000 0.000000 0.000000
O O5 0.373042 0.610929 0.204570
O O6 0.670554 0.750000 0.250000
O O7 0.668203 0.919325 0.939256
O O8 0.684632 0.629119 0.912548
O O9 0.750000 0.073834 0.750000
#
# Coordination Sequence:
#
# PCOD9391668 Si02
#       4
#     8   4   8   8
#     4  12  24  41  66 101 137 168 220 280 350 408
#     4  12  25  40  70  98 135 170 216 284 344 394
#     4  11  22  41  68  95 127 171 221 270 331 393
#     4  11  25  44  63  94 134 178 223 265 325 407
#
# _framework density 20.30528
#
# number of rings (size 3 to 8) (size 9 to 14) (size 15 to 20)
#    0.000    0.571    7.143    2.143    4.000    4.571 
#    0.000    0.000    0.000    5.143    0.000    0.000 
#    0.000    0.000    0.000    0.000    0.000    0.000 
#
# Total GULP energy -156431.620440 kJ/mol
# GULP energy per Si atom -5586.843587 kJ/mol
# Density = 2.025906 g / cm^3
# Si number density = 20.305280 Si / 1000 Ang^3
#
#
#
# Elastic Constant Matrix: (Units=GPa)
#
#
# Indices 1 2 3 4 5 6 
#
# 1 146.4655 14.2616 16.7015 0.0000 0.0000 0.0000
# 2 14.2616 44.5418 12.2314 0.0000 0.0000 0.0000
# 3 16.7015 12.2314 162.1050 0.0000 0.0000 0.0000
# 4 0.0000 0.0000 0.0000 18.1549 0.0000 0.0000
# 5 0.0000 0.0000 0.0000 0.0000 -43.3737 0.0000
# 6 0.0000 0.0000 0.0000 0.0000 0.0000 94.0320
#
#
#
# Elastic Compliance Matrix: (Units=1/GPa)
#
#
# Indices 1 2 3 4 5 6 
#
# 1 0.007099 -0.002116 -0.000572 0.000000 0.000000 0.000000
# 2 -0.002116 0.023557 -0.001559 0.000000 0.000000 0.000000
# 3 -0.000572 -0.001559 0.006345 0.000000 0.000000 0.000000
# 4 0.000000 0.000000 0.000000 0.055082 0.000000 0.000000
# 5 0.000000 0.000000 0.000000 0.000000 -0.023055 0.000000
# 6 0.000000 0.000000 0.000000 0.000000 0.000000 0.010635
#
#
# Mechanical properties :
#
#
# Convention : Reuss Voigt Hill
#
# Bulk Modulus (GPa) = 35.07960 48.83347 41.95654
# Shear Modulus (GPa) = 51.19910 34.42381 42.81145
#
# Velocity S-wave (km/s) = 5.02687 4.12188 4.59670
# Velocity P-wave (km/s) = 7.14186 6.83777 6.99147
#
# Compressibility (1/GPa) = 0.02850659
#
# Stress axis : x y z
#
# Youngs Moduli (GPa) = 140.86940 42.45103 157.59418
#
# Poissons Ratio (x) = 0.08982 0.09010
# Poissons Ratio (y) = 0.29807 0.24576
# Poissons Ratio (z) = 0.08054 0.06620
#
# Static dielectric constant tensor:
#      x y z
#    x 1.716350 0.000000 0.000000 
#    y 0.000000 1.918680 0.000000 
#    z 0.000000 0.000000 1.688100 
# 
# From -- ./inp_files/14697.got.cif
#   From: 2010.05.17/outbox.cif.g08.bks.cpg/sg48_8_cif.got.tgz:14697.got - 2010.06.03 20:39:00.
