data_PCOD9391950
_publ_section_title
;
Structure prediction by ZEFSAII (Michael W. Deem and Ramdas Pophale) SiO2 
 PCOD9391950
Probable space group: P N N N
;
_chemical_formula_sum "Si O2"
_cell_formula_units_Z 64
_cell_length_a 12.000000
_cell_length_b 9.000000
_cell_length_c 30.000000
_cell_angle_alpha 90.000000
_cell_angle_beta 90.000000
_cell_angle_gamma 90.000000
_cell_volume 3240.000000
_symmetry_space_group_name_H-M "P N N N"
_symmetry_group_IT_number 48
_space_group.IT_coordinate_system_code '2'
_symmetry_cell_setting 'orthorhombic'
loop_
_space_group_symop_operation_xyz
x,y,z
1/2-x,1/2-y,z
x,1/2-y,1/2-z
1/2-x,y,1/2-z
-x,-y,-z
1/2+x,1/2+y,-z
-x,1/2+y,1/2+z
1/2+x,-y,1/2+z
loop_
_atom_site_type_symbol
_atom_site_label
_atom_site_fract_x
_atom_site_fract_y
_atom_site_fract_z
Si Si1 0.740324 0.924274 0.962232
Si Si2 0.758727 0.426414 0.347521
Si Si3 0.620863 0.926342 0.755577
Si Si4 0.525770 0.415323 0.567523
Si Si5 0.856651 0.350774 0.599303
Si Si6 0.771431 0.576655 0.058801
Si Si7 0.018989 0.407069 0.681111
Si Si8 0.026195 0.065909 0.672298
O O1 0.750000 0.750000 0.959077
O O2 0.613985 0.972927 0.952574
O O3 0.809898 0.006897 0.924997
O O4 0.781816 0.966096 0.011823
O O5 0.750000 0.250000 0.343789
O O6 0.758902 0.476725 0.399333
O O7 0.868120 0.502018 0.327060
O O8 0.646697 0.490911 0.325631
O O9 0.609720 0.750000 0.750000
O O10 0.750000 0.965915 0.750000
O O11 0.549538 0.012757 0.719212
O O12 0.568723 0.977972 0.801883
O O13 0.577808 0.251462 0.563788
O O14 0.402886 0.432769 0.549602
O O15 0.510477 0.431637 0.620784
O O16 0.750000 0.250000 0.614781
O O17 0.940223 0.399458 0.637675
O O18 0.750000 0.750000 0.070373
O O19 0.039618 0.233216 0.690219
#
# Coordination Sequence:
#
# PCOD9391950 Si02
#       8
#     8   8   8   8   8   8   8   8
#     4  10  21  34  54  85 119 154 197 249 303 355
#     4  11  23  40  64  92 123 158 200 253 312 362
#     4  11  26  42  62  97 130 157 195 253 304 355
#     4   9  19  37  59  79 115 155 198 246 294 354
#     4   9  20  36  57  86 114 157 198 247 299 356
#     4  10  20  38  58  83 115 157 205 247 292 357
#     4  11  23  41  66  89 121 164 207 247 299 366
#     4  10  22  42  65  90 120 161 208 246 298 364
#
# _framework density 19.753086
#
# number of rings (size 3 to 8) (size 9 to 14) (size 15 to 20)
#    0.000    1.875    0.000    4.125    5.250    5.500 
#    0.000    8.125    0.000    0.000    0.000    0.000 
#    0.000    0.000    0.000    0.000    0.000    0.000 
#
# Total GULP energy -357176.774334 kJ/mol
# GULP energy per Si atom -5580.887099 kJ/mol
# Density = 1.970813 g / cm^3
# Si number density = 19.753086 Si / 1000 Ang^3
#
#
#
# Elastic Constant Matrix: (Units=GPa)
#
#
# Indices 1 2 3 4 5 6 
#
# 1 79.0552 44.6328 42.0622 0.0000 0.0000 0.0000
# 2 44.6328 69.1951 36.1427 0.0000 0.0000 0.0000
# 3 42.0622 36.1427 44.1350 0.0000 0.0000 0.0000
# 4 0.0000 0.0000 0.0000 35.8406 0.0000 0.0000
# 5 0.0000 0.0000 0.0000 0.0000 -36.8758 0.0000
# 6 0.0000 0.0000 0.0000 0.0000 0.0000 19.1376
#
#
#
# Elastic Compliance Matrix: (Units=1/GPa)
#
#
# Indices 1 2 3 4 5 6 
#
# 1 0.027512 -0.007078 -0.020424 0.000000 0.000000 0.000000
# 2 -0.007078 0.027075 -0.015426 0.000000 0.000000 0.000000
# 3 -0.020424 -0.015426 0.054755 0.000000 0.000000 0.000000
# 4 0.000000 0.000000 0.000000 0.027901 0.000000 0.000000
# 5 0.000000 0.000000 0.000000 0.000000 -0.027118 0.000000
# 6 0.000000 0.000000 0.000000 0.000000 0.000000 0.052253
#
#
# Mechanical properties :
#
#
# Convention : Reuss Voigt Hill
#
# Bulk Modulus (GPa) = 42.57869 48.67339 45.62604
# Shear Modulus (GPa) = 19.52630 8.25697 13.89164
#
# Velocity S-wave (km/s) = 3.14748 2.04675 2.65479
# Velocity P-wave (km/s) = 5.90010 5.50272 5.70487
#
# Compressibility (1/GPa) = 0.02348593
#
# Stress axis : x y z
#
# Youngs Moduli (GPa) = 36.34736 36.93404 18.26310
#
# Poissons Ratio (x) = 0.26143 0.37300
# Poissons Ratio (y) = 0.25728 0.28173
# Poissons Ratio (z) = 0.74235 0.56976
#
# Static dielectric constant tensor:
#      x y z
#    x 1.693750 0.000000 0.000000 
#    y 0.000000 1.613240 0.000000 
#    z 0.000000 0.000000 1.600100 
# 
# From -- ./inp_files/38964.got.cif
#   From: 2010.05.17/outbox.ucp.g08.bks.cvg/sg48_20_cif.got.tgz:38964.got - 2010.06.11 16:38:40.
