data_PCOD9391322
_publ_section_title
;
Structure prediction by ZEFSAII (Michael W. Deem and Ramdas Pophale) SiO2 
 PCOD9391322
Probable space group: P N N N
;
_chemical_formula_sum "Si O2"
_cell_formula_units_Z 34
_cell_length_a 5.964876
_cell_length_b 30.585665
_cell_length_c 8.097984
_cell_angle_alpha 90.000000
_cell_angle_beta 90.000000
_cell_angle_gamma 90.000000
_cell_volume 1477.393764
_symmetry_space_group_name_H-M "P N N N"
_symmetry_group_IT_number 48
_space_group.IT_coordinate_system_code '2'
_symmetry_cell_setting 'orthorhombic'
loop_
_space_group_symop_operation_xyz
x,y,z
1/2-x,1/2-y,z
x,1/2-y,1/2-z
1/2-x,y,1/2-z
-x,-y,-z
1/2+x,1/2+y,-z
-x,1/2+y,1/2+z
1/2+x,-y,1/2+z
loop_
_atom_site_type_symbol
_atom_site_label
_atom_site_fract_x
_atom_site_fract_y
_atom_site_fract_z
Si Si1 0.605175 0.132973 0.093778
Si Si2 0.250000 0.750000 0.250000
Si Si3 0.639888 0.795495 0.073081
Si Si4 0.750000 0.116199 0.750000
Si Si5 0.368150 0.040057 0.080029
Si Si6 0.250000 0.075122 0.750000
O O1 0.750000 0.146961 0.250000
O O2 0.516351 0.083356 0.119816
O O3 0.395872 0.165016 0.052060
O O4 0.765575 0.135963 0.933116
O O5 0.399321 0.779435 0.133635
O O6 0.750000 0.750000 0.013091
O O7 0.750000 0.809053 0.250000
O O8 0.498187 0.096075 0.773400
O O9 0.250000 0.026983 0.250000
O O10 0.209380 0.052102 0.926422
O O11 0.500000 0.000000 0.000000
#
# Coordination Sequence:
#
# PCOD9391322 Si02
#       6
#     8   2   8   4   8   4
#     4  11  24  44  74 112 154 198 263 324 398 474
#     4   8  16  40  70 106 140 182 250 304 374 484
#     4   9  20  41  75 108 144 198 252 314 393 472
#     4  10  23  44  76 111 150 208 254 320 401 461
#     4  11  27  46  74 111 157 203 266 324 393 477
#     4  10  24  46  74 106 155 204 258 323 394 462
#
# _framework density 23.013497000000001
#
# number of rings (size 3 to 8) (size 9 to 14) (size 15 to 20)
#    0.000    2.118    0.000    2.118   14.824    0.941 
#    8.471    0.588    0.000    1.412    0.000    0.000 
#    0.000    0.000    0.000    0.000    0.000    0.000 
#
# Total GULP energy -189317.668737 kJ/mol
# GULP energy per Si atom -5568.166728 kJ/mol
# Density = 2.296112 g / cm^3
# Si number density = 23.013497 Si / 1000 Ang^3
#
#
#
# Elastic Constant Matrix: (Units=GPa)
#
#
# Indices 1 2 3 4 5 6 
#
# 1 103.2977 55.1086 49.8465 0.0000 0.0000 0.0000
# 2 55.1086 139.4471 40.6497 0.0000 0.0000 0.0000
# 3 49.8465 40.6497 201.6942 0.0000 0.0000 0.0000
# 4 0.0000 0.0000 0.0000 -4.7565 0.0000 0.0000
# 5 0.0000 0.0000 0.0000 0.0000 38.0080 0.0000
# 6 0.0000 0.0000 0.0000 0.0000 0.0000 10.7301
#
#
#
# Elastic Compliance Matrix: (Units=1/GPa)
#
#
# Indices 1 2 3 4 5 6 
#
# 1 0.013244 -0.004547 -0.002357 0.000000 0.000000 0.000000
# 2 -0.004547 0.009180 -0.000726 0.000000 0.000000 0.000000
# 3 -0.002357 -0.000726 0.005687 0.000000 0.000000 0.000000
# 4 0.000000 0.000000 0.000000 -0.210240 0.000000 0.000000
# 5 0.000000 0.000000 0.000000 0.000000 0.026310 0.000000
# 6 0.000000 0.000000 0.000000 0.000000 0.000000 0.093195
#
#
# Mechanical properties :
#
#
# Convention : Reuss Voigt Hill
#
# Bulk Modulus (GPa) = 77.81793 81.73873 79.77833
# Shear Modulus (GPa) = -116.06056 28.71861 -43.67097
#
# Velocity S-wave (km/s) = -7.10922 3.53640 -4.36090
# Velocity P-wave (km/s) = 5.78797 7.22978 3.06342
#
# Compressibility (1/GPa) = 0.01285051
#
# Stress axis : x y z
#
# Youngs Moduli (GPa) = 75.50773 108.93472 175.84507
#
# Poissons Ratio (x) = 0.49531 0.41441
# Poissons Ratio (y) = 0.34332 0.12774
# Poissons Ratio (z) = 0.17795 0.07913
#
# Static dielectric constant tensor:
#      x y z
#    x 1.912440 0.000000 0.000000 
#    y 0.000000 2.060090 0.000000 
#    z 0.000000 0.000000 1.903980 
# 
# From -- ./inp_files/7661.got.cif
#   From: 2010.05.17/outbox.cif.g08.bks.cpg/sg48_4_cif.got.tgz:7661.got - 2010.06.03 20:39:00.
