data_PCOD9391627
_publ_section_title
;
Structure prediction by ZEFSAII (Michael W. Deem and Ramdas Pophale) SiO2 
 PCOD9391627
Probable space group: P N N N
;
_chemical_formula_sum "Si O2"
_cell_formula_units_Z 26
_cell_length_a 12.846887
_cell_length_b 10.425793
_cell_length_c 8.322444
_cell_angle_alpha 90.000000
_cell_angle_beta 90.000000
_cell_angle_gamma 90.000000
_cell_volume 1114.699698
_symmetry_space_group_name_H-M "P N N N"
_symmetry_group_IT_number 48
_space_group.IT_coordinate_system_code '2'
_symmetry_cell_setting 'orthorhombic'
loop_
_space_group_symop_operation_xyz
x,y,z
1/2-x,1/2-y,z
x,1/2-y,1/2-z
1/2-x,y,1/2-z
-x,-y,-z
1/2+x,1/2+y,-z
-x,1/2+y,1/2+z
1/2+x,-y,1/2+z
loop_
_atom_site_type_symbol
_atom_site_label
_atom_site_fract_x
_atom_site_fract_y
_atom_site_fract_z
Si Si1 0.085497 0.819903 0.988697
Si Si2 0.864190 0.446240 0.182160
Si Si3 0.861806 0.785682 0.435814
Si Si4 0.750000 0.250000 0.750000
O O1 0.128937 0.688722 0.907332
O O2 0.078416 0.929372 0.852321
O O3 0.167692 0.832358 0.137824
O O4 0.965621 0.787498 0.017753
O O5 0.750000 0.470162 0.250000
O O6 0.887172 0.562847 0.063520
O O7 0.750000 0.750000 0.513473
O O8 0.851419 0.750000 0.250000
#
# Coordination Sequence:
#
# PCOD9391627 Si02
#       4
#     8   8   8   2
#     4  11  23  41  65  98 125 167 225 269 318 388
#     4  11  21  43  68  89 129 176 211 265 335 385
#     4  11  23  41  64  93 133 169 212 263 329 395
#     4  12  20  34  62 100 122 150 224 282 296 372
#
# _framework density 23.324670000000001
#
# number of rings (size 3 to 8) (size 9 to 14) (size 15 to 20)
#    0.000    0.923    7.692    1.846    0.000    1.231 
#    5.538    3.077    0.000    0.000    0.000    0.000 
#    0.000    0.000    0.000    0.000    0.000    0.000 
#
# Total GULP energy -144878.206867 kJ/mol
# GULP energy per Si atom -5572.238726 kJ/mol
# Density = 2.327158 g / cm^3
# Si number density = 23.324670 Si / 1000 Ang^3
#
#
#
# Elastic Constant Matrix: (Units=GPa)
#
#
# Indices 1 2 3 4 5 6 
#
# 1 207.0893 29.3671 46.2071 0.0000 0.0000 0.0000
# 2 29.3671 103.1223 13.3512 0.0000 0.0000 0.0000
# 3 46.2071 13.3512 56.6791 0.0000 0.0000 0.0000
# 4 0.0000 0.0000 0.0000 -29.7259 0.0000 0.0000
# 5 0.0000 0.0000 0.0000 0.0000 2.4608 0.0000
# 6 0.0000 0.0000 0.0000 0.0000 0.0000 28.7845
#
#
#
# Elastic Compliance Matrix: (Units=1/GPa)
#
#
# Indices 1 2 3 4 5 6 
#
# 1 0.006024 -0.001114 -0.004649 0.000000 0.000000 0.000000
# 2 -0.001114 0.010208 -0.001497 0.000000 0.000000 0.000000
# 3 -0.004649 -0.001497 0.021786 0.000000 0.000000 0.000000
# 4 0.000000 0.000000 0.000000 -0.033641 0.000000 0.000000
# 5 0.000000 0.000000 0.000000 0.000000 0.406366 0.000000
# 6 0.000000 0.000000 0.000000 0.000000 0.000000 0.034741
#
#
# Mechanical properties :
#
#
# Convention : Reuss Voigt Hill
#
# Bulk Modulus (GPa) = 42.55393 60.52684 51.54038
# Shear Modulus (GPa) = 10.68753 18.83492 14.76122
#
# Velocity S-wave (km/s) = 2.14290 2.84476 2.51840
# Velocity P-wave (km/s) = 4.94029 6.06599 5.53185
#
# Compressibility (1/GPa) = 0.02349959
#
# Stress axis : x y z
#
# Youngs Moduli (GPa) = 166.00262 97.96101 45.90205
#
# Poissons Ratio (x) = 0.10909 0.21338
# Poissons Ratio (y) = 0.18487 0.06870
# Poissons Ratio (z) = 0.77169 0.14662
#
# Static dielectric constant tensor:
#      x y z
#    x 2.074100 0.000000 0.000000 
#    y 0.000000 2.070110 0.000000 
#    z 0.000000 0.000000 1.904290 
# 
# From -- ./inp_files/9814.got.cif
#   From: 2010.05.17/outbox.cif.g08.bks.cpg/sg48_5_cif.got.tgz:9814.got - 2010.06.03 20:39:00.
