data_PCOD9391698
_publ_section_title
;
Structure prediction by ZEFSAII (Michael W. Deem and Ramdas Pophale) SiO2 
 PCOD9391698
Probable space group: P N N N
;
_chemical_formula_sum "Si O2"
_cell_formula_units_Z 58
_cell_length_a 8.412227
_cell_length_b 27.831145
_cell_length_c 11.755240
_cell_angle_alpha 90.000000
_cell_angle_beta 90.000000
_cell_angle_gamma 90.000000
_cell_volume 2752.159234
_symmetry_space_group_name_H-M "P N N N"
_symmetry_group_IT_number 48
_space_group.IT_coordinate_system_code '2'
_symmetry_cell_setting 'orthorhombic'
loop_
_space_group_symop_operation_xyz
x,y,z
1/2-x,1/2-y,z
x,1/2-y,1/2-z
1/2-x,y,1/2-z
-x,-y,-z
1/2+x,1/2+y,-z
-x,1/2+y,1/2+z
1/2+x,-y,1/2+z
loop_
_atom_site_type_symbol
_atom_site_label
_atom_site_fract_x
_atom_site_fract_y
_atom_site_fract_z
Si Si1 0.750000 0.250000 0.250000
Si Si2 0.096622 0.126513 0.900526
Si Si3 0.072399 0.011159 0.286324
Si Si4 0.551789 0.593163 0.335304
Si Si5 0.012407 0.671094 0.805461
Si Si6 0.088766 0.919601 0.568372
Si Si7 0.191980 0.305099 0.416394
Si Si8 0.061677 0.952045 0.940268
O O1 0.634408 0.215126 0.178118
O O2 0.017979 0.125293 0.776059
O O3 0.269258 0.103075 0.876430
O O4 0.127088 0.176940 0.963166
O O5 0.001941 0.092990 0.988269
O O6 0.250000 0.998193 0.250000
O O7 0.053538 0.044059 0.397742
O O8 0.005694 0.044493 0.186145
O O9 0.974420 0.962187 0.298814
O O10 0.440141 0.601465 0.443448
O O11 0.936547 0.680859 0.680693
O O12 0.856044 0.668279 0.884701
O O13 0.101655 0.622631 0.839149
O O14 0.249377 0.949839 0.565573
O O15 0.250000 0.250000 0.409642
O O16 0.000000 0.000000 0.000000
#
# Coordination Sequence:
#
# PCOD9391698 Si02
#       8
#     2   8   8   8   8   8   8   8
#     4  12  24  42  68 104 138 166 200 284 352 416
#     4  11  24  42  69  91 132 176 229 278 334 405
#     4  12  25  41  64  95 134 181 229 278 341 402
#     4  11  24  45  62  89 133 182 222 277 326 401
#     4  11  24  42  68 102 138 166 217 273 357 413
#     4  12  26  40  67  99 136 176 233 284 343 410
#     4  11  22  46  71 101 132 175 216 284 354 427
#     4  12  24  42  65  99 138 184 231 287 342 411
#
# _framework density 21.074362000000001
#
# number of rings (size 3 to 8) (size 9 to 14) (size 15 to 20)
#    0.000    0.552    4.138    4.552    7.724    0.000 
#    0.000    1.379    0.000    0.000    0.000    0.000 
#    0.000    0.000    0.000    0.000    0.000    0.000 
#
# Total GULP energy -324200.848608 kJ/mol
# GULP energy per Si atom -5589.669804 kJ/mol
# Density = 2.102640 g / cm^3
# Si number density = 21.074362 Si / 1000 Ang^3
#
#
#
# Elastic Constant Matrix: (Units=GPa)
#
#
# Indices 1 2 3 4 5 6 
#
# 1 69.9566 18.4402 20.1284 0.0000 0.0000 0.0000
# 2 18.4402 72.3352 42.7677 0.0000 0.0000 0.0000
# 3 20.1284 42.7677 130.9477 0.0000 0.0000 0.0000
# 4 0.0000 0.0000 0.0000 8.7631 0.0000 0.0000
# 5 0.0000 0.0000 0.0000 0.0000 24.8035 0.0000
# 6 0.0000 0.0000 0.0000 0.0000 0.0000 19.7219
#
#
#
# Elastic Compliance Matrix: (Units=1/GPa)
#
#
# Indices 1 2 3 4 5 6 
#
# 1 0.015516 -0.003154 -0.001355 0.000000 0.000000 0.000000
# 2 -0.003154 0.017774 -0.005320 0.000000 0.000000 0.000000
# 3 -0.001355 -0.005320 0.009582 0.000000 0.000000 0.000000
# 4 0.000000 0.000000 0.000000 0.114115 0.000000 0.000000
# 5 0.000000 0.000000 0.000000 0.000000 0.040317 0.000000
# 6 0.000000 0.000000 0.000000 0.000000 0.000000 0.050705
#
#
# Mechanical properties :
#
#
# Convention : Reuss Voigt Hill
#
# Bulk Modulus (GPa) = 43.07786 48.43469 45.75627
# Shear Modulus (GPa) = 18.15503 23.45125 20.80314
#
# Velocity S-wave (km/s) = 2.93827 3.33946 3.14527
# Velocity P-wave (km/s) = 5.65655 6.15646 5.91179
#
# Compressibility (1/GPa) = 0.02321378
#
# Stress axis : x y z
#
# Youngs Moduli (GPa) = 64.45013 56.26122 104.35720
#
# Poissons Ratio (x) = 0.17747 0.14138
# Poissons Ratio (y) = 0.20330 0.55520
# Poissons Ratio (z) = 0.08731 0.29932
#
# Static dielectric constant tensor:
#      x y z
#    x 1.770160 0.000000 0.000000 
#    y 0.000000 1.798480 0.000000 
#    z 0.000000 0.000000 1.814970 
# 
# From -- ./inp_files/18958.got.cif
#   From: 2010.05.17/outbox.cif.g08.bks.cpg/sg48_10_cif.got.tgz:18958.got - 2010.06.03 20:39:00.
