data_PCOD9391579
_publ_section_title
;
Structure prediction by ZEFSAII (Michael W. Deem and Ramdas Pophale) SiO2 
 PCOD9391579
Probable space group: P N N N
;
_chemical_formula_sum "Si O2"
_cell_formula_units_Z 34
_cell_length_a 19.165048
_cell_length_b 16.647258
_cell_length_c 4.954734
_cell_angle_alpha 90.000000
_cell_angle_beta 90.000000
_cell_angle_gamma 90.000000
_cell_volume 1580.785580
_symmetry_space_group_name_H-M "P N N N"
_symmetry_group_IT_number 48
_space_group.IT_coordinate_system_code '2'
_symmetry_cell_setting 'orthorhombic'
loop_
_space_group_symop_operation_xyz
x,y,z
1/2-x,1/2-y,z
x,1/2-y,1/2-z
1/2-x,y,1/2-z
-x,-y,-z
1/2+x,1/2+y,-z
-x,1/2+y,1/2+z
1/2+x,-y,1/2+z
loop_
_atom_site_type_symbol
_atom_site_label
_atom_site_fract_x
_atom_site_fract_y
_atom_site_fract_z
Si Si1 0.077329 0.062791 0.241600
Si Si2 0.250000 0.750000 0.250000
Si Si3 0.700920 0.019586 0.501725
Si Si4 0.122962 0.677803 0.547012
Si Si5 0.009706 0.896167 0.289304
O O1 0.044494 0.120651 0.470102
O O2 0.034596 0.082095 0.973534
O O3 0.056578 0.974568 0.354952
O O4 0.156357 0.052012 0.141342
O O5 0.197788 0.703471 0.439610
O O6 0.750000 0.997511 0.250000
O O7 0.643890 0.084692 0.382087
O O8 0.750000 0.049678 0.750000
O O9 0.102221 0.750000 0.750000
O O10 0.065992 0.667533 0.312954
#
# Coordination Sequence:
#
# PCOD9391579 Si02
#       5
#     8   2   8   8   8
#     4   9  18  34  53  75  99 138 192 241 294 344
#     4  12  22  36  48  74 112 160 196 236 284 356
#     4  11  21  35  55  81 112 148 189 246 310 368
#     4  11  24  35  51  75 114 158 202 238 292 359
#     4   9  19  34  53  71 100 144 193 242 281 339
#
# _framework density 21.508295
#
# number of rings (size 3 to 8) (size 9 to 14) (size 15 to 20)
#    0.000    1.882    1.176    3.176    3.294    3.765 
#    0.000    0.000    0.000    0.000    0.000    0.000 
#    0.000    0.941    1.412    0.000    0.000    0.000 
#
# Total GULP energy -189275.865473 kJ/mol
# GULP energy per Si atom -5566.937220 kJ/mol
# Density = 2.145934 g / cm^3
# Si number density = 21.508295 Si / 1000 Ang^3
#
#
#
# Elastic Constant Matrix: (Units=GPa)
#
#
# Indices 1 2 3 4 5 6 
#
# 1 122.1714 49.6806 71.4989 0.0000 0.0000 0.0000
# 2 49.6806 33.9471 22.2534 0.0000 0.0000 0.0000
# 3 71.4989 22.2534 146.2694 0.0000 0.0000 0.0000
# 4 0.0000 0.0000 0.0000 28.5316 0.0000 0.0000
# 5 0.0000 0.0000 0.0000 0.0000 67.8710 0.0000
# 6 0.0000 0.0000 0.0000 0.0000 0.0000 33.4583
#
#
#
# Elastic Compliance Matrix: (Units=1/GPa)
#
#
# Indices 1 2 3 4 5 6 
#
# 1 0.026347 -0.033452 -0.007789 0.000000 0.000000 0.000000
# 2 -0.033452 0.075193 0.004912 0.000000 0.000000 0.000000
# 3 -0.007789 0.004912 0.009897 0.000000 0.000000 0.000000
# 4 0.000000 0.000000 0.000000 0.035049 0.000000 0.000000
# 5 0.000000 0.000000 0.000000 0.000000 0.014734 0.000000
# 6 0.000000 0.000000 0.000000 0.000000 0.000000 0.029888
#
#
# Mechanical properties :
#
#
# Convention : Reuss Voigt Hill
#
# Bulk Modulus (GPa) = 25.78745 65.47262 45.63003
# Shear Modulus (GPa) = 18.07063 36.56920 27.31991
#
# Velocity S-wave (km/s) = 2.90171 4.12787 3.56786
# Velocity P-wave (km/s) = 4.82101 7.29560 6.18336
#
# Compressibility (1/GPa) = 0.03877856
#
# Stress axis : x y z
#
# Youngs Moduli (GPa) = 37.95524 13.29910 101.04043
#
# Poissons Ratio (x) = 0.44488 0.78705
# Poissons Ratio (y) = 1.26966 -0.49629
# Poissons Ratio (z) = 0.29565 -0.06532
#
# Static dielectric constant tensor:
#      x y z
#    x 1.812830 0.000000 0.000000 
#    y 0.000000 1.667070 0.000000 
#    z 0.000000 0.000000 1.843720 
# 
# From -- ./inp_files/3238.got.cif
#   From: 2010.05.17/outbox.cif.g08.bks.cpg/sg48_2_cif.got.tgz:3238.got - 2010.06.03 20:39:00.
