data_PCOD9391759
_publ_section_title
;
Structure prediction by ZEFSAII (Michael W. Deem and Ramdas Pophale) SiO2 
 PCOD9391759
Probable space group: P N N N
;
_chemical_formula_sum "Si O2"
_cell_formula_units_Z 42
_cell_length_a 9.012685
_cell_length_b 14.604458
_cell_length_c 15.911777
_cell_angle_alpha 90.000000
_cell_angle_beta 90.000000
_cell_angle_gamma 90.000000
_cell_volume 2094.393687
_symmetry_space_group_name_H-M "P N N N"
_symmetry_group_IT_number 48
_space_group.IT_coordinate_system_code '2'
_symmetry_cell_setting 'orthorhombic'
loop_
_space_group_symop_operation_xyz
x,y,z
1/2-x,1/2-y,z
x,1/2-y,1/2-z
1/2-x,y,1/2-z
-x,-y,-z
1/2+x,1/2+y,-z
-x,1/2+y,1/2+z
1/2+x,-y,1/2+z
loop_
_atom_site_type_symbol
_atom_site_label
_atom_site_fract_x
_atom_site_fract_y
_atom_site_fract_z
Si Si1 0.800253 0.853745 0.833800
Si Si2 0.250000 0.250000 0.750000
Si Si3 0.166494 0.470406 0.019579
Si Si4 0.379418 0.392611 0.881120
Si Si5 0.865951 0.402638 0.327100
Si Si6 0.825349 0.153132 0.983037
O O1 0.750000 0.750000 0.834725
O O2 0.750000 0.904471 0.750000
O O3 0.712514 0.899198 0.909610
O O4 0.977015 0.852381 0.825350
O O5 0.343537 0.315891 0.812169
O O6 0.243693 0.563685 0.051222
O O7 0.238276 0.423688 0.936911
O O8 0.000000 0.500000 0.000000
O O9 0.411739 0.489985 0.836179
O O10 0.507740 0.358124 0.945806
O O11 0.750000 0.390438 0.250000
O O12 0.805954 0.365882 0.416776
O O13 0.750000 0.250000 0.962253
#
# Coordination Sequence:
#
# PCOD9391759 Si02
#       6
#     8   2   8   8   8   8
#     4  11  26  43  67 102 141 180 233 297 356 424
#     4  12  28  40  82 104 136 196 266 296 380 448
#     4  11  25  43  73 102 139 188 232 296 371 440
#     4  11  24  49  67 101 145 188 241 307 360 443
#     4  11  23  47  72  98 143 190 240 299 370 437
#     4  11  25  45  72 103 140 190 240 297 372 440
#
# _framework density 20.053536999999999
#
# number of rings (size 3 to 8) (size 9 to 14) (size 15 to 20)
#    0.000    0.952    4.762    1.143   12.000    1.905 
#    0.000    0.476    0.000    0.000    0.000    0.000 
#    0.000    0.000    0.000    0.000    0.000    0.000 
#
# Total GULP energy -233953.787336 kJ/mol
# GULP energy per Si atom -5570.328270 kJ/mol
# Density = 2.000789 g / cm^3
# Si number density = 20.053537 Si / 1000 Ang^3
#
#
#
# Elastic Constant Matrix: (Units=GPa)
#
#
# Indices 1 2 3 4 5 6 
#
# 1 146.0911 60.1259 60.8557 0.0000 0.0000 0.0000
# 2 60.1259 141.5104 58.5890 0.0000 0.0000 0.0000
# 3 60.8557 58.5890 105.6224 0.0000 0.0000 0.0000
# 4 0.0000 0.0000 0.0000 41.6927 0.0000 0.0000
# 5 0.0000 0.0000 0.0000 0.0000 36.6831 0.0000
# 6 0.0000 0.0000 0.0000 0.0000 0.0000 38.0970
#
#
#
# Elastic Compliance Matrix: (Units=1/GPa)
#
#
# Indices 1 2 3 4 5 6 
#
# 1 0.009556 -0.002311 -0.004223 0.000000 0.000000 0.000000
# 2 -0.002311 0.009733 -0.004067 0.000000 0.000000 0.000000
# 3 -0.004223 -0.004067 0.014157 0.000000 0.000000 0.000000
# 4 0.000000 0.000000 0.000000 0.023985 0.000000 0.000000
# 5 0.000000 0.000000 0.000000 0.000000 0.027261 0.000000
# 6 0.000000 0.000000 0.000000 0.000000 0.000000 0.026249
#
#
# Mechanical properties :
#
#
# Convention : Reuss Voigt Hill
#
# Bulk Modulus (GPa) = 81.68860 83.59612 82.64236
# Shear Modulus (GPa) = 36.70435 37.53811 37.12123
#
# Velocity S-wave (km/s) = 4.28286 4.33123 4.30712
# Velocity P-wave (km/s) = 8.07966 8.17250 8.12621
#
# Compressibility (1/GPa) = 0.01224161
#
# Stress axis : x y z
#
# Youngs Moduli (GPa) = 104.64978 102.74833 70.63649
#
# Poissons Ratio (x) = 0.23750 0.29833
# Poissons Ratio (y) = 0.24189 0.28727
# Poissons Ratio (z) = 0.44198 0.41786
#
# Static dielectric constant tensor:
#      x y z
#    x 36.646260 0.000000 0.000000 
#    y 0.000000 1.700710 0.000000 
#    z 0.000000 0.000000 1.787620 
# 
# From -- ./inp_files/25114.got.cif
#   From: 2010.05.17/outbox.cif.g08.bks.cpg/sg48_13_cif.got.tgz:25114.got - 2010.06.03 20:39:00.
