data_PCOD9391941
_publ_section_title
;
Structure prediction by ZEFSAII (Michael W. Deem and Ramdas Pophale) SiO2 
 PCOD9391941
Probable space group: P N N N
;
_chemical_formula_sum "Si O2"
_cell_formula_units_Z 58
_cell_length_a 18.000000
_cell_length_b 9.000000
_cell_length_c 18.000000
_cell_angle_alpha 90.000000
_cell_angle_beta 90.000000
_cell_angle_gamma 90.000000
_cell_volume 2916.000000
_symmetry_space_group_name_H-M "P N N N"
_symmetry_group_IT_number 48
_space_group.IT_coordinate_system_code '2'
_symmetry_cell_setting 'orthorhombic'
loop_
_space_group_symop_operation_xyz
x,y,z
1/2-x,1/2-y,z
x,1/2-y,1/2-z
1/2-x,y,1/2-z
-x,-y,-z
1/2+x,1/2+y,-z
-x,1/2+y,1/2+z
1/2+x,-y,1/2+z
loop_
_atom_site_type_symbol
_atom_site_label
_atom_site_fract_x
_atom_site_fract_y
_atom_site_fract_z
Si Si1 0.478239 0.430305 0.580409
Si Si2 0.723647 0.080242 0.880343
Si Si3 0.632465 0.633791 0.862114
Si Si4 0.402266 0.039706 0.202562
Si Si5 0.168985 0.922648 0.544813
Si Si6 0.250000 0.750000 0.750000
Si Si7 0.674131 0.098203 0.389155
Si Si8 0.063051 0.390023 0.527525
O O1 0.500000 0.500000 0.500000
O O2 0.529351 0.486049 0.649346
O O3 0.394080 0.487514 0.587226
O O4 0.473428 0.254558 0.565452
O O5 0.750000 0.250000 0.888695
O O6 0.790688 0.961403 0.868733
O O7 0.665995 0.070283 0.812891
O O8 0.677238 0.049114 0.956786
O O9 0.629450 0.803660 0.831490
O O10 0.586990 0.556680 0.792113
O O11 0.604264 0.643158 0.948063
O O12 0.248715 0.961101 0.578136
O O13 0.155848 0.748535 0.563934
O O14 0.303386 0.846058 0.694192
O O15 0.613225 0.976658 0.411495
O O16 0.000000 0.500000 0.500000
#
# Coordination Sequence:
#
# PCOD9391941 Si02
#       8
#     8   8   8   8   8   2   8   8
#     4  12  23  40  66  99 137 182 229 287 344 408
#     4  12  21  38  67  97 136 177 222 279 336 400
#     4  11  24  45  64  95 132 184 229 275 336 411
#     4  11  26  43  63  96 140 181 227 282 338 406
#     4  10  19  38  67  95 126 175 225 274 337 405
#     4   8  20  44  76 102 124 178 224 292 356 396
#     4  10  21  43  70  99 131 169 233 285 335 427
#     4  12  25  42  68  99 133 177 232 280 341 414
#
# _framework density 19.890260999999999
#
# number of rings (size 3 to 8) (size 9 to 14) (size 15 to 20)
#    0.000    1.103    5.517    1.655    1.931    2.759 
#    4.966    0.000    0.000    3.310    0.000    0.000 
#    0.000    0.000    0.000    0.000    0.000    0.000 
#
# Total GULP energy -323407.439738 kJ/mol
# GULP energy per Si atom -5575.990340 kJ/mol
# Density = 1.984499 g / cm^3
# Si number density = 19.890261 Si / 1000 Ang^3
#
#
#
# Elastic Constant Matrix: (Units=GPa)
#
#
# Indices 1 2 3 4 5 6 
#
# 1 53.7399 53.0524 1.4279 0.0000 0.0000 0.0000
# 2 53.0524 104.2871 21.9459 0.0000 0.0000 0.0000
# 3 1.4279 21.9459 120.6955 0.0000 0.0000 0.0000
# 4 0.0000 0.0000 0.0000 33.8972 0.0000 0.0000
# 5 0.0000 0.0000 0.0000 0.0000 31.9189 0.0000
# 6 0.0000 0.0000 0.0000 0.0000 0.0000 37.3272
#
#
#
# Elastic Compliance Matrix: (Units=1/GPa)
#
#
# Indices 1 2 3 4 5 6 
#
# 1 0.038558 -0.020296 0.003234 0.000000 0.000000 0.000000
# 2 -0.020296 0.020653 -0.003515 0.000000 0.000000 0.000000
# 3 0.003234 -0.003515 0.008886 0.000000 0.000000 0.000000
# 4 0.000000 0.000000 0.000000 0.029501 0.000000 0.000000
# 5 0.000000 0.000000 0.000000 0.000000 0.031329 0.000000
# 6 0.000000 0.000000 0.000000 0.000000 0.000000 0.026790
#
#
# Mechanical properties :
#
#
# Convention : Reuss Voigt Hill
#
# Bulk Modulus (GPa) = 37.11361 47.95277 42.53319
# Shear Modulus (GPa) = 24.28906 34.11508 29.20207
#
# Velocity S-wave (km/s) = 3.49829 4.14595 3.83581
# Velocity P-wave (km/s) = 5.91752 6.86145 6.40689
#
# Compressibility (1/GPa) = 0.02694430
#
# Stress axis : x y z
#
# Youngs Moduli (GPa) = 25.93463 48.41800 112.53361
#
# Poissons Ratio (x) = 0.98269 -0.36396
# Poissons Ratio (y) = 0.52637 0.39559
# Poissons Ratio (z) = -0.08388 0.17020
#
# Static dielectric constant tensor:
#      x y z
#    x 1.762320 0.000000 0.000000 
#    y 0.000000 1.739400 0.000000 
#    z 0.000000 0.000000 1.704780 
# 
# From -- ./inp_files/32017.got.cif
#   From: 2010.05.17/outbox.ucp.g08.bks.cvg/sg48_17_cif.got.tgz:32017.got - 2010.06.11 16:38:40.
