data_PCOD9391151
_publ_section_title
;
Structure prediction by ZEFSAII (Michael W. Deem and Ramdas Pophale) SiO2 
 PCOD9391151
Probable space group: P N N N
;
_chemical_formula_sum "Si O2"
_cell_formula_units_Z 48
_cell_length_a 6.107234
_cell_length_b 21.587340
_cell_length_c 16.742970
_cell_angle_alpha 90.000000
_cell_angle_beta 90.000000
_cell_angle_gamma 90.000000
_cell_volume 2207.375364
_symmetry_space_group_name_H-M "P N N N"
_symmetry_group_IT_number 48
_space_group.IT_coordinate_system_code '2'
_symmetry_cell_setting 'orthorhombic'
loop_
_space_group_symop_operation_xyz
x,y,z
1/2-x,1/2-y,z
x,1/2-y,1/2-z
1/2-x,y,1/2-z
-x,-y,-z
1/2+x,1/2+y,-z
-x,1/2+y,1/2+z
1/2+x,-y,1/2+z
loop_
_atom_site_type_symbol
_atom_site_label
_atom_site_fract_x
_atom_site_fract_y
_atom_site_fract_z
Si Si1 0.750000 0.250000 0.919035
Si Si2 0.033806 0.014465 0.609876
Si Si3 0.636168 0.606490 0.038294
Si Si4 0.254875 0.893466 0.909201
Si Si5 0.432723 0.209482 0.043538
Si Si6 0.750000 0.042912 0.250000
Si Si7 0.718309 0.379224 0.843329
O O1 0.801223 0.311296 0.869295
O O2 0.546227 0.255036 0.979564
O O3 0.236231 0.044402 0.562391
O O4 0.952017 0.056012 0.422064
O O5 0.838935 0.063775 0.611374
O O6 0.082294 0.001272 0.703768
O O7 0.526896 0.623252 0.123232
O O8 0.439258 0.601526 0.973548
O O9 0.806589 0.656387 0.005544
O O10 0.374624 0.827105 0.910824
O O11 0.163929 0.914183 0.822308
O O12 0.250000 0.250000 0.089061
O O13 0.750000 0.386717 0.750000
#
# Coordination Sequence:
#
# PCOD9391151 Si02
#       7
#     4   8   8   8   8   4   8
#     4  12  23  48  64  99 138 186 240 279 324 424
#     4  10  22  43  65 105 139 178 219 282 353 417
#     4  12  22  40  72  98 136 187 224 275 348 409
#     4  10  23  44  69 103 138 176 233 289 349 415
#     4  12  23  44  72  96 133 184 241 284 339 407
#     4   8  22  44  66 101 149 170 218 292 358 412
#     4  12  25  41  69 101 146 185 227 276 337 416
#
# _framework density 21.745283000000001
#
# number of rings (size 3 to 8) (size 9 to 14) (size 15 to 20)
#    1.000    0.000    5.000    1.750    0.000    4.000 
#    0.000    0.833    0.000    7.500    0.000    0.000 
#    0.000    0.000    0.000    0.000    0.000    0.000 
#
# Total GULP energy -267282.615737 kJ/mol
# GULP energy per Si atom -5568.387828 kJ/mol
# Density = 2.169579 g / cm^3
# Si number density = 21.745283 Si / 1000 Ang^3
#
#
#
# Elastic Constant Matrix: (Units=GPa)
#
#
# Indices 1 2 3 4 5 6 
#
# 1 50.3098 21.2700 32.6713 0.0000 0.0000 0.0000
# 2 21.2700 97.4191 22.2226 0.0000 0.0000 0.0000
# 3 32.6713 22.2226 111.1723 0.0000 0.0000 0.0000
# 4 0.0000 0.0000 0.0000 29.4995 0.0000 0.0000
# 5 0.0000 0.0000 0.0000 0.0000 19.2809 0.0000
# 6 0.0000 0.0000 0.0000 0.0000 0.0000 40.7752
#
#
#
# Elastic Compliance Matrix: (Units=1/GPa)
#
#
# Indices 1 2 3 4 5 6 
#
# 1 0.026061 -0.004131 -0.006833 0.000000 0.000000 0.000000
# 2 -0.004131 0.011410 -0.001067 0.000000 0.000000 0.000000
# 3 -0.006833 -0.001067 0.011216 0.000000 0.000000 0.000000
# 4 0.000000 0.000000 0.000000 0.033899 0.000000 0.000000
# 5 0.000000 0.000000 0.000000 0.000000 0.051865 0.000000
# 6 0.000000 0.000000 0.000000 0.000000 0.000000 0.024525
#
#
# Mechanical properties :
#
#
# Convention : Reuss Voigt Hill
#
# Bulk Modulus (GPa) = 40.60835 45.69211 43.15023
# Shear Modulus (GPa) = 26.14433 30.09362 28.11897
#
# Velocity S-wave (km/s) = 3.47118 3.72414 3.59988
# Velocity P-wave (km/s) = 5.89750 6.28890 6.09635
#
# Compressibility (1/GPa) = 0.02462548
#
# Stress axis : x y z
#
# Youngs Moduli (GPa) = 38.37187 87.64030 89.15574
#
# Poissons Ratio (x) = 0.36207 0.60919
# Poissons Ratio (y) = 0.15853 0.09511
# Poissons Ratio (z) = 0.26219 0.09349
#
# Static dielectric constant tensor:
#      x y z
#    x 1.831370 0.000000 0.000000 
#    y 0.000000 1.853140 0.000000 
#    z 0.000000 0.000000 1.799820 
# 
# From -- ./inp_files/24467.got.cif
#   From: 2010.05.17/outbox.cif.g08.bks.cpg/sg48_13_cif.got.tgz:24467.got - 2010.06.03 20:39:00.
