data_PCOD9391736
_publ_section_title
;
Structure prediction by ZEFSAII (Michael W. Deem and Ramdas Pophale) SiO2 
 PCOD9391736
Probable space group: P N N N
;
_chemical_formula_sum "Si O2"
_cell_formula_units_Z 40
_cell_length_a 22.576493
_cell_length_b 8.375176
_cell_length_c 9.843187
_cell_angle_alpha 90.000000
_cell_angle_beta 90.000000
_cell_angle_gamma 90.000000
_cell_volume 1861.170492
_symmetry_space_group_name_H-M "P N N N"
_symmetry_group_IT_number 48
_space_group.IT_coordinate_system_code '2'
_symmetry_cell_setting 'orthorhombic'
loop_
_space_group_symop_operation_xyz
x,y,z
1/2-x,1/2-y,z
x,1/2-y,1/2-z
1/2-x,y,1/2-z
-x,-y,-z
1/2+x,1/2+y,-z
-x,1/2+y,1/2+z
1/2+x,-y,1/2+z
loop_
_atom_site_type_symbol
_atom_site_label
_atom_site_fract_x
_atom_site_fract_y
_atom_site_fract_z
Si Si1 0.933778 0.560625 0.736220
Si Si2 0.559057 0.568021 0.297286
Si Si3 0.138300 0.561396 0.033058
Si Si4 0.742481 0.559929 0.089564
Si Si5 0.386491 0.572151 0.967269
O O1 0.938666 0.750000 0.750000
O O2 0.876606 0.494509 0.815566
O O3 0.927389 0.511793 0.579704
O O4 0.990249 0.476530 0.805436
O O5 0.566028 0.750000 0.250000
O O6 0.596212 0.541378 0.433125
O O7 0.585407 0.453380 0.180577
O O8 0.205488 0.528291 0.990811
O O9 0.121356 0.744288 0.007336
O O10 0.750000 0.750000 0.074556
O O11 0.750000 0.521787 0.250000
O O12 0.678032 0.508321 0.039847
#
# Coordination Sequence:
#
# PCOD9391736 Si02
#       5
#     8   8   8   8   8
#     4  12  26  45  66  95 134 174 216 268 328 386
#     4  12  24  43  68  97 132 174 220 266 320 386
#     4  12  25  43  68  99 132 171 218 269 324 383
#     4  11  23  42  69  98 130 169 217 267 320 384
#     4  12  25  43  68  99 132 171 218 269 324 383
#
# _framework density 21.491852999999999
#
# number of rings (size 3 to 8) (size 9 to 14) (size 15 to 20)
#    0.000    0.200    2.000    9.000    0.000    1.600 
#    0.000    4.000    0.000    0.000    0.000    0.000 
#    0.000    0.000    0.000    0.000    0.000    0.000 
#
# Total GULP energy -224201.398856 kJ/mol
# GULP energy per Si atom -5605.034971 kJ/mol
# Density = 2.144294 g / cm^3
# Si number density = 21.491853 Si / 1000 Ang^3
#
#
#
# Elastic Constant Matrix: (Units=GPa)
#
#
# Indices 1 2 3 4 5 6 
#
# 1 64.0299 -8.3062 -10.7435 0.0000 0.0000 0.0000
# 2 -8.3062 101.9222 -14.6041 0.0000 0.0000 0.0000
# 3 -10.7435 -14.6041 47.1151 0.0000 0.0000 0.0000
# 4 0.0000 0.0000 0.0000 21.7434 0.0000 0.0000
# 5 0.0000 0.0000 0.0000 0.0000 -303.8694 0.0000
# 6 0.0000 0.0000 0.0000 0.0000 0.0000 27.2623
#
#
#
# Elastic Compliance Matrix: (Units=1/GPa)
#
#
# Indices 1 2 3 4 5 6 
#
# 1 0.016614 0.001985 0.004404 0.000000 0.000000 0.000000
# 2 0.001985 0.010505 0.003709 0.000000 0.000000 0.000000
# 3 0.004404 0.003709 0.023378 0.000000 0.000000 0.000000
# 4 0.000000 0.000000 0.000000 0.045991 0.000000 0.000000
# 5 0.000000 0.000000 0.000000 0.000000 -0.003291 0.000000
# 6 0.000000 0.000000 0.000000 0.000000 0.000000 0.036681
#
#
# Mechanical properties :
#
#
# Convention : Reuss Voigt Hill
#
# Bulk Modulus (GPa) = 14.14592 16.19552 15.17072
# Shear Modulus (GPa) = 37.52429 -34.52467 1.49981
#
# Velocity S-wave (km/s) = 4.18302 -4.01235 0.83628
# Velocity P-wave (km/s) = 5.47051 3.73005 2.82960
#
# Compressibility (1/GPa) = 0.07069177
#
# Stress axis : x y z
#
# Youngs Moduli (GPa) = 60.18987 95.19660 42.77466
#
# Poissons Ratio (x) = -0.18896 -0.18837
# Poissons Ratio (y) = -0.11948 -0.15864
# Poissons Ratio (z) = -0.26506 -0.35305
#
# Static dielectric constant tensor:
#      x y z
#    x 1.747850 0.000000 0.000000 
#    y 0.000000 1.737220 0.000000 
#    z 0.000000 0.000000 1.742470 
# 
# From -- ./inp_files/9000.got.cif
#   From: 2010.05.17/outbox.cif.g08.bks.cpg/sg48_5_cif.got.tgz:9000.got - 2010.06.03 20:39:00.
