data_PCOD9391836
_publ_section_title
;
Structure prediction by ZEFSAII (Michael W. Deem and Ramdas Pophale) SiO2 
 PCOD9391836
Probable space group: P N N N
;
_chemical_formula_sum "Si O2"
_cell_formula_units_Z 32
_cell_length_a 13.348709
_cell_length_b 12.601780
_cell_length_c 8.564656
_cell_angle_alpha 90.000000
_cell_angle_beta 90.000000
_cell_angle_gamma 90.000000
_cell_volume 1440.724970
_symmetry_space_group_name_H-M "P N N N"
_symmetry_group_IT_number 48
_space_group.IT_coordinate_system_code '2'
_symmetry_cell_setting 'orthorhombic'
loop_
_space_group_symop_operation_xyz
x,y,z
1/2-x,1/2-y,z
x,1/2-y,1/2-z
1/2-x,y,1/2-z
-x,-y,-z
1/2+x,1/2+y,-z
-x,1/2+y,1/2+z
1/2+x,-y,1/2+z
loop_
_atom_site_type_symbol
_atom_site_label
_atom_site_fract_x
_atom_site_fract_y
_atom_site_fract_z
Si Si1 0.631684 0.730814 0.577019
Si Si2 0.485506 0.094966 0.618045
Si Si3 0.831723 0.539841 0.127541
Si Si4 0.216138 0.629138 0.415199
O O1 0.750000 0.750000 0.583874
O O2 0.588686 0.750000 0.750000
O O3 0.582035 0.811214 0.454239
O O4 0.629587 0.611856 0.514270
O O5 0.431436 0.039527 0.765304
O O6 0.597798 0.138430 0.618483
O O7 0.500000 0.000000 0.500000
O O8 0.750000 0.588446 0.250000
O O9 0.768123 0.442069 0.051417
O O10 0.250000 0.750000 0.437649
O O11 0.250000 0.580969 0.250000
#
# Coordination Sequence:
#
# PCOD9391836 Si02
#       4
#     8   8   8   8
#     4  11  25  43  73 113 148 191 251 313 380 453
#     4  12  26  48  73 112 150 201 257 313 387 463
#     4  12  25  47  79 108 152 200 256 324 384 457
#     4  11  29  52  72 109 155 200 255 321 393 478
#
# _framework density 22.211040000000001
#
# number of rings (size 3 to 8) (size 9 to 14) (size 15 to 20)
#    0.000    0.500    5.000    0.750   14.000    3.500 
#    0.000    0.000    0.000    0.000    0.000    0.000 
#    0.000    0.000    0.000    0.000    0.000    0.000 
#
# Total GULP energy -178246.956035 kJ/mol
# GULP energy per Si atom -5570.217376 kJ/mol
# Density = 2.216049 g / cm^3
# Si number density = 22.211040 Si / 1000 Ang^3
#
#
#
# Elastic Constant Matrix: (Units=GPa)
#
#
# Indices 1 2 3 4 5 6 
#
# 1 162.2303 42.7399 60.0998 0.0000 0.0000 0.0000
# 2 42.7399 71.9736 44.3373 0.0000 0.0000 0.0000
# 3 60.0998 44.3373 136.4356 0.0000 0.0000 0.0000
# 4 0.0000 0.0000 0.0000 32.1600 0.0000 0.0000
# 5 0.0000 0.0000 0.0000 0.0000 -0.1893 0.0000
# 6 0.0000 0.0000 0.0000 0.0000 0.0000 29.8207
#
#
#
# Elastic Compliance Matrix: (Units=1/GPa)
#
#
# Indices 1 2 3 4 5 6 
#
# 1 0.007911 -0.003190 -0.002448 0.000000 0.000000 0.000000
# 2 -0.003190 0.018658 -0.004658 0.000000 0.000000 0.000000
# 3 -0.002448 -0.004658 0.009922 0.000000 0.000000 0.000000
# 4 0.000000 0.000000 0.000000 0.031094 0.000000 0.000000
# 5 0.000000 0.000000 0.000000 0.000000 -5.282361 0.000000
# 6 0.000000 0.000000 0.000000 0.000000 0.000000 0.033534
#
#
# Mechanical properties :
#
#
# Convention : Reuss Voigt Hill
#
# Bulk Modulus (GPa) = 62.89976 73.88819 68.39397
# Shear Modulus (GPa) = -0.96987 27.25580 13.14296
#
# Velocity S-wave (km/s) = -0.66152 3.50684 2.43519
# Velocity P-wave (km/s) = 5.27230 7.05237 6.22628
#
# Compressibility (1/GPa) = 0.01589831
#
# Stress axis : x y z
#
# Youngs Moduli (GPa) = 126.39877 53.59747 100.78906
#
# Poissons Ratio (x) = 0.17096 0.24677
# Poissons Ratio (y) = 0.40318 0.46948
# Poissons Ratio (z) = 0.30948 0.24966
#
# Static dielectric constant tensor:
#      x y z
#    x 1.622930 0.000000 0.000000 
#    y 0.000000 1.809310 0.000000 
#    z 0.000000 0.000000 1.875300 
# 
# From -- ./inp_files/11897.got.cif
#   From: 2010.05.17/outbox.cif.g08.bks.cpg/sg48_6_cif.got.tgz:11897.got - 2010.06.03 20:39:00.
