data_PCOD9391200
_publ_section_title
;
Structure prediction by ZEFSAII (Michael W. Deem and Ramdas Pophale) SiO2 
 PCOD9391200
Probable space group: P N N N
;
_chemical_formula_sum "Si O2"
_cell_formula_units_Z 58
_cell_length_a 9.512671
_cell_length_b 26.651914
_cell_length_c 10.919516
_cell_angle_alpha 90.000000
_cell_angle_beta 90.000000
_cell_angle_gamma 90.000000
_cell_volume 2768.434603
_symmetry_space_group_name_H-M "P N N N"
_symmetry_group_IT_number 48
_space_group.IT_coordinate_system_code '2'
_symmetry_cell_setting 'orthorhombic'
loop_
_space_group_symop_operation_xyz
x,y,z
1/2-x,1/2-y,z
x,1/2-y,1/2-z
1/2-x,y,1/2-z
-x,-y,-z
1/2+x,1/2+y,-z
-x,1/2+y,1/2+z
1/2+x,-y,1/2+z
loop_
_atom_site_type_symbol
_atom_site_label
_atom_site_fract_x
_atom_site_fract_y
_atom_site_fract_z
Si Si1 0.124602 0.958160 0.160413
Si Si2 0.250000 0.750000 0.250000
Si Si3 0.472679 0.695764 0.088012
Si Si4 0.087589 0.232348 0.381733
Si Si5 0.089513 0.379702 0.763602
Si Si6 0.650944 0.394956 0.066209
Si Si7 0.589010 0.928949 0.750779
Si Si8 0.480172 0.875479 0.958281
O O1 0.250000 0.940786 0.250000
O O2 0.994979 0.923903 0.197810
O O3 0.101365 0.016063 0.191909
O O4 0.156639 0.944583 0.019898
O O5 0.342939 0.715623 0.164444
O O6 0.576407 0.672493 0.188788
O O7 0.524309 0.738895 0.998082
O O8 0.425279 0.649309 0.006495
O O9 0.250000 0.250000 0.381207
O O10 0.028065 0.250000 0.250000
O O11 0.054194 0.173654 0.399026
O O12 0.250000 0.394208 0.750000
O O13 0.022592 0.374368 0.898897
O O14 0.543822 0.404260 0.178954
O O15 0.813721 0.377145 0.073363
O O16 0.750000 0.907490 0.750000
O O17 0.545385 0.924417 0.892461
#
# Coordination Sequence:
#
# PCOD9391200 Si02
#       8
#     8   2   8   8   8   8   8   8
#     4  10  22  46  68 101 136 178 228 292 361 431
#     4  12  24  40  68 100 132 180 226 298 352 424
#     4  11  23  41  67  97 135 175 230 281 356 412
#     4  11  25  42  67  99 142 185 232 287 352 427
#     4  11  24  40  69 102 136 179 227 294 354 420
#     4  11  23  44  71  96 137 181 230 294 350 435
#     4  11  27  43  68  99 136 182 232 286 365 427
#     4  12  25  43  69  98 138 182 238 289 353 432
#
# _framework density 20.950468000000001
#
# number of rings (size 3 to 8) (size 9 to 14) (size 15 to 20)
#    0.000    0.966    1.379    4.966    9.655    1.655 
#    0.000    3.793    0.000    0.000    0.000    0.000 
#    0.000    0.000    0.000    0.000    0.000    0.000 
#
# Total GULP energy -323587.604315 kJ/mol
# GULP energy per Si atom -5579.096626 kJ/mol
# Density = 2.090278 g / cm^3
# Si number density = 20.950468 Si / 1000 Ang^3
#
#
#
# Elastic Constant Matrix: (Units=GPa)
#
#
# Indices 1 2 3 4 5 6 
#
# 1 137.6698 20.1590 31.8563 0.0000 0.0000 0.0000
# 2 20.1590 72.0354 24.3517 0.0000 0.0000 0.0000
# 3 31.8563 24.3517 107.9696 0.0000 0.0000 0.0000
# 4 0.0000 0.0000 0.0000 47.6367 0.0000 0.0000
# 5 0.0000 0.0000 0.0000 0.0000 32.2820 0.0000
# 6 0.0000 0.0000 0.0000 0.0000 0.0000 29.4806
#
#
#
# Elastic Compliance Matrix: (Units=1/GPa)
#
#
# Indices 1 2 3 4 5 6 
#
# 1 0.007953 -0.001551 -0.001997 0.000000 0.000000 0.000000
# 2 -0.001551 0.015330 -0.003000 0.000000 0.000000 0.000000
# 3 -0.001997 -0.003000 0.010528 0.000000 0.000000 0.000000
# 4 0.000000 0.000000 0.000000 0.020992 0.000000 0.000000
# 5 0.000000 0.000000 0.000000 0.000000 0.030977 0.000000
# 6 0.000000 0.000000 0.000000 0.000000 0.000000 0.033921
#
#
# Mechanical properties :
#
#
# Convention : Reuss Voigt Hill
#
# Bulk Modulus (GPa) = 48.27233 52.26763 50.26998
# Shear Modulus (GPa) = 35.79081 37.96706 36.87894
#
# Velocity S-wave (km/s) = 4.13771 4.26165 4.20013
# Velocity P-wave (km/s) = 6.77633 7.01554 6.89698
#
# Compressibility (1/GPa) = 0.02071580
#
# Stress axis : x y z
#
# Youngs Moduli (GPa) = 125.74102 65.23078 94.98793
#
# Poissons Ratio (x) = 0.10115 0.18967
# Poissons Ratio (y) = 0.19497 0.28497
# Poissons Ratio (z) = 0.25107 0.19570
#
# Static dielectric constant tensor:
#      x y z
#    x 1.367580 0.000000 0.000000 
#    y 0.000000 1.476180 0.000000 
#    z 0.000000 0.000000 1.767400 
# 
# From -- ./inp_files/18959.got.cif
#   From: 2010.05.17/outbox.cif.g08.bks.cpg/sg48_10_cif.got.tgz:18959.got - 2010.06.03 20:39:00.
