data_PCOD9391857
_publ_section_title
;
Structure prediction by ZEFSAII (Michael W. Deem and Ramdas Pophale) SiO2 
 PCOD9391857
Probable space group: P N N N
;
_chemical_formula_sum "Si O2"
_cell_formula_units_Z 38
_cell_length_a 27.131625
_cell_length_b 6.267564
_cell_length_c 10.029761
_cell_angle_alpha 90.000000
_cell_angle_beta 90.000000
_cell_angle_gamma 90.000000
_cell_volume 1705.552795
_symmetry_space_group_name_H-M "P N N N"
_symmetry_group_IT_number 48
_space_group.IT_coordinate_system_code '2'
_symmetry_cell_setting 'orthorhombic'
loop_
_space_group_symop_operation_xyz
x,y,z
1/2-x,1/2-y,z
x,1/2-y,1/2-z
1/2-x,y,1/2-z
-x,-y,-z
1/2+x,1/2+y,-z
-x,1/2+y,1/2+z
1/2+x,-y,1/2+z
loop_
_atom_site_type_symbol
_atom_site_label
_atom_site_fract_x
_atom_site_fract_y
_atom_site_fract_z
Si Si1 0.173606 0.083053 0.632688
Si Si2 0.006761 0.214527 0.087921
Si Si3 0.750000 0.250000 0.250000
Si Si4 0.348487 0.750000 0.250000
Si Si5 0.195318 0.147588 0.123600
Si Si6 0.085847 0.972264 0.478158
O O1 0.175138 0.250000 0.750000
O O2 0.176131 0.244445 0.508120
O O3 0.216083 0.906870 0.659214
O O4 0.122367 0.968602 0.604310
O O5 0.001383 0.250000 0.250000
O O6 0.062039 0.299663 0.057926
O O7 0.962565 0.346972 0.021524
O O8 0.000000 0.000000 0.000000
O O9 0.313295 0.600003 0.156591
O O10 0.384278 0.630035 0.354667
O O11 0.250000 0.250000 0.123739
O O12 0.168651 0.250000 0.250000
#
# Coordination Sequence:
#
# PCOD9391857 Si02
#       6
#     8   8   2   4   8   8
#     4  12  29  48  78 110 155 202 270 315 397 476
#     4  11  27  48  78 109 157 199 261 333 405 487
#     4  12  30  52  76 112 160 212 262 346 388 474
#     4  12  26  49  80 114 162 200 262 331 392 478
#     4  11  26  45  72 109 150 199 256 313 384 461
#     4  11  28  45  77 114 146 205 259 322 405 476
#
# _framework density 22.280166999999999
#
# number of rings (size 3 to 8) (size 9 to 14) (size 15 to 20)
#    0.000    0.632    2.105    2.842   16.211    3.368 
#    0.000    0.000    0.000    0.000    0.000    0.000 
#    0.000    0.000    0.000    0.000    0.000    0.000 
#
# Total GULP energy -211589.698891 kJ/mol
# GULP energy per Si atom -5568.149971 kJ/mol
# Density = 2.222946 g / cm^3
# Si number density = 22.280167 Si / 1000 Ang^3
#
#
#
# Elastic Constant Matrix: (Units=GPa)
#
#
# Indices 1 2 3 4 5 6 
#
# 1 157.2638 85.9570 39.3972 0.0000 0.0000 0.0000
# 2 85.9570 135.1303 73.3731 0.0000 0.0000 0.0000
# 3 39.3972 73.3731 140.2522 0.0000 0.0000 0.0000
# 4 0.0000 0.0000 0.0000 34.2973 0.0000 0.0000
# 5 0.0000 0.0000 0.0000 0.0000 19.8752 0.0000
# 6 0.0000 0.0000 0.0000 0.0000 0.0000 38.5472
#
#
#
# Elastic Compliance Matrix: (Units=1/GPa)
#
#
# Indices 1 2 3 4 5 6 
#
# 1 0.009798 -0.006618 0.000710 0.000000 0.000000 0.000000
# 2 -0.006618 0.014807 -0.005887 0.000000 0.000000 0.000000
# 3 0.000710 -0.005887 0.010010 0.000000 0.000000 0.000000
# 4 0.000000 0.000000 0.000000 0.029157 0.000000 0.000000
# 5 0.000000 0.000000 0.000000 0.000000 0.050314 0.000000
# 6 0.000000 0.000000 0.000000 0.000000 0.000000 0.025942
#
#
# Mechanical properties :
#
#
# Convention : Reuss Voigt Hill
#
# Bulk Modulus (GPa) = 90.70506 92.23341 91.46924
# Shear Modulus (GPa) = 29.88749 34.13853 32.01301
#
# Velocity S-wave (km/s) = 3.66654 3.91863 3.79468
# Velocity P-wave (km/s) = 7.66317 7.87154 7.76805
#
# Compressibility (1/GPa) = 0.01102474
#
# Stress axis : x y z
#
# Youngs Moduli (GPa) = 102.05887 67.53692 99.89603
#
# Poissons Ratio (x) = 0.44697 -0.07092
# Poissons Ratio (y) = 0.67545 0.58810
# Poissons Ratio (z) = -0.07246 0.39759
#
# Static dielectric constant tensor:
#      x y z
#    x 1.808010 0.000000 0.000000 
#    y 0.000000 2.009090 0.000000 
#    z 0.000000 0.000000 1.910640 
# 
# From -- ./inp_files/23538.got.cif
#   From: 2010.05.17/outbox.cif.g08.bks.cpg/sg48_12_cif.got.tgz:23538.got - 2010.06.03 20:39:00.
