data_PCOD9391291
_publ_section_title
;
Structure prediction by ZEFSAII (Michael W. Deem and Ramdas Pophale) SiO2 
 PCOD9391291
Probable space group: P N N N
;
_chemical_formula_sum "Si O2"
_cell_formula_units_Z 46
_cell_length_a 7.259337
_cell_length_b 11.935296
_cell_length_c 23.261660
_cell_angle_alpha 90.000000
_cell_angle_beta 90.000000
_cell_angle_gamma 90.000000
_cell_volume 2015.444558
_symmetry_space_group_name_H-M "P N N N"
_symmetry_group_IT_number 48
_space_group.IT_coordinate_system_code '2'
_symmetry_cell_setting 'orthorhombic'
loop_
_space_group_symop_operation_xyz
x,y,z
1/2-x,1/2-y,z
x,1/2-y,1/2-z
1/2-x,y,1/2-z
-x,-y,-z
1/2+x,1/2+y,-z
-x,1/2+y,1/2+z
1/2+x,-y,1/2+z
loop_
_atom_site_type_symbol
_atom_site_label
_atom_site_fract_x
_atom_site_fract_y
_atom_site_fract_z
Si Si1 0.771707 0.011462 0.439620
Si Si2 0.388611 0.347510 0.165157
Si Si3 0.823427 0.996771 0.940408
Si Si4 0.750000 0.250000 0.105981
Si Si5 0.750000 0.250000 0.909363
Si Si6 0.250000 0.507986 0.250000
Si Si7 0.750000 0.750000 0.250000
Si Si8 0.486870 0.124452 0.840200
O O1 0.547055 0.004782 0.438553
O O2 0.881534 0.949787 0.388335
O O3 0.791888 0.959028 0.503391
O O4 0.812842 0.143617 0.431955
O O5 0.250000 0.250000 0.181799
O O6 0.288555 0.414723 0.112852
O O7 0.581071 0.296448 0.143975
O O8 0.403301 0.431610 0.218647
O O9 0.770803 0.127994 0.937192
O O10 0.567809 0.233108 0.871829
O O11 0.345179 0.573087 0.302592
O O12 0.645089 0.832668 0.208316
#
# Coordination Sequence:
#
# PCOD9391291 Si02
#       8
#     8   8   8   4   4   4   2   8
#     4  10  23  46  68 106 137 187 237 300 366 447
#     4  11  24  47  69 103 139 192 239 306 370 442
#     4  10  23  45  70 101 146 174 241 301 368 449
#     4  10  23  42  75  98 142 181 245 292 370 446
#     4  12  23  45  70 104 140 189 235 298 378 442
#     4  12  25  47  68 100 150 189 247 314 376 442
#     4  12  28  42  68 102 136 186 260 290 364 456
#     4  12  26  44  73 102 144 195 244 309 375 449
#
# _framework density 22.823747999999998
#
# number of rings (size 3 to 8) (size 9 to 14) (size 15 to 20)
#    0.000    1.043    1.739    3.913    4.870    0.696 
#   10.957    5.217    0.000    0.000    0.000    0.000 
#    0.000    0.000    0.000    0.000    0.000    0.000 
#
# Total GULP energy -256515.293955 kJ/mol
# GULP energy per Si atom -5576.419434 kJ/mol
# Density = 2.277180 g / cm^3
# Si number density = 22.823748 Si / 1000 Ang^3
#
#
#
# Elastic Constant Matrix: (Units=GPa)
#
#
# Indices 1 2 3 4 5 6 
#
# 1 82.7302 23.9759 32.8498 0.0000 0.0000 0.0000
# 2 23.9759 87.0728 43.7515 0.0000 0.0000 0.0000
# 3 32.8498 43.7515 124.1076 0.0000 0.0000 0.0000
# 4 0.0000 0.0000 0.0000 35.8993 0.0000 0.0000
# 5 0.0000 0.0000 0.0000 0.0000 48.7263 0.0000
# 6 0.0000 0.0000 0.0000 0.0000 0.0000 63.9100
#
#
#
# Elastic Compliance Matrix: (Units=1/GPa)
#
#
# Indices 1 2 3 4 5 6 
#
# 1 0.013910 -0.002406 -0.002833 0.000000 0.000000 0.000000
# 2 -0.002406 0.014373 -0.004430 0.000000 0.000000 0.000000
# 3 -0.002833 -0.004430 0.010369 0.000000 0.000000 0.000000
# 4 0.000000 0.000000 0.000000 0.027856 0.000000 0.000000
# 5 0.000000 0.000000 0.000000 0.000000 0.020523 0.000000
# 6 0.000000 0.000000 0.000000 0.000000 0.000000 0.015647
#
#
# Mechanical properties :
#
#
# Convention : Reuss Voigt Hill
#
# Bulk Modulus (GPa) = 51.77974 55.00721 53.39347
# Shear Modulus (GPa) = 38.92405 42.59602 40.76004
#
# Velocity S-wave (km/s) = 4.13415 4.32476 4.23053
# Velocity P-wave (km/s) = 6.74717 7.00651 6.87806
#
# Compressibility (1/GPa) = 0.01931257
#
# Stress axis : x y z
#
# Youngs Moduli (GPa) = 71.89081 69.57385 96.43927
#
# Poissons Ratio (x) = 0.16743 0.27326
# Poissons Ratio (y) = 0.17300 0.42723
# Poissons Ratio (z) = 0.20370 0.30821
#
# Static dielectric constant tensor:
#      x y z
#    x 1.924640 0.000000 0.000000 
#    y 0.000000 1.799670 0.000000 
#    z 0.000000 0.000000 1.930850 
# 
# From -- ./inp_files/35894.got.cif
#   From: 2010.05.17/outbox.cif.g08.bks.cpg/sg48_18_cif.got.tgz:35894.got - 2010.06.03 20:39:00.
