data_PCOD9391674
_publ_section_title
;
Structure prediction by ZEFSAII (Michael W. Deem and Ramdas Pophale) SiO2 
 PCOD9391674
Probable space group: P N N N
;
_chemical_formula_sum "Si O2"
_cell_formula_units_Z 44
_cell_length_a 15.745793
_cell_length_b 17.609581
_cell_length_c 7.195323
_cell_angle_alpha 90.000000
_cell_angle_beta 90.000000
_cell_angle_gamma 90.000000
_cell_volume 1995.096260
_symmetry_space_group_name_H-M "P N N N"
_symmetry_group_IT_number 48
_space_group.IT_coordinate_system_code '2'
_symmetry_cell_setting 'orthorhombic'
loop_
_space_group_symop_operation_xyz
x,y,z
1/2-x,1/2-y,z
x,1/2-y,1/2-z
1/2-x,y,1/2-z
-x,-y,-z
1/2+x,1/2+y,-z
-x,1/2+y,1/2+z
1/2+x,-y,1/2+z
loop_
_atom_site_type_symbol
_atom_site_label
_atom_site_fract_x
_atom_site_fract_y
_atom_site_fract_z
Si Si1 0.659103 0.228182 0.966824
Si Si2 0.085617 0.876420 0.925009
Si Si3 0.558793 0.835397 0.837921
Si Si4 0.823679 0.537420 0.893801
Si Si5 0.059970 0.903674 0.361600
Si Si6 0.250000 0.963541 0.750000
O O1 0.750000 0.250000 0.038566
O O2 0.655747 0.250000 0.750000
O O3 0.638969 0.140506 0.961138
O O4 0.598484 0.285539 0.069145
O O5 0.004500 0.884108 0.794891
O O6 0.171761 0.915999 0.847307
O O7 0.064363 0.896629 0.138380
O O8 0.565642 0.750000 0.750000
O O9 0.649168 0.877136 0.846993
O O10 0.516107 0.855152 0.042500
O O11 0.750000 0.511213 0.750000
O O12 0.912513 0.489937 0.891988
O O13 0.787536 0.518928 0.094283
#
# Coordination Sequence:
#
# PCOD9391674 Si02
#       6
#     8   8   8   8   8   4
#     4   9  18  31  57  95 140 178 213 276 351 429
#     4  11  23  39  68 105 143 189 229 293 365 437
#     4  12  27  46  71 104 144 189 240 300 369 438
#     4  12  27  47  70 104 143 192 246 301 359 437
#     4  11  22  42  68 103 142 178 238 296 363 427
#     4  12  24  42  73 109 146 196 248 296 374 439
#
# _framework density 22.054072999999999
#
# number of rings (size 3 to 8) (size 9 to 14) (size 15 to 20)
#    0.000    0.909    5.455    1.636    2.545    2.545 
#    0.000    0.000    0.000    1.091    0.000    0.000 
#    0.000    0.000    0.000    0.000    0.000    0.000 
#
# Total GULP energy -245092.268601 kJ/mol
# GULP energy per Si atom -5570.278832 kJ/mol
# Density = 2.200388 g / cm^3
# Si number density = 22.054073 Si / 1000 Ang^3
#
#
#
# Elastic Constant Matrix: (Units=GPa)
#
#
# Indices 1 2 3 4 5 6 
#
# 1 64.8063 43.7376 48.6281 0.0000 0.0000 0.0000
# 2 43.7376 125.7686 38.8971 0.0000 0.0000 0.0000
# 3 48.6281 38.8971 163.3716 0.0000 0.0000 0.0000
# 4 0.0000 0.0000 0.0000 15.7560 0.0000 0.0000
# 5 0.0000 0.0000 0.0000 0.0000 7.2708 0.0000
# 6 0.0000 0.0000 0.0000 0.0000 0.0000 22.6337
#
#
#
# Elastic Compliance Matrix: (Units=1/GPa)
#
#
# Indices 1 2 3 4 5 6 
#
# 1 0.024123 -0.006659 -0.005595 0.000000 0.000000 0.000000
# 2 -0.006659 0.010421 -0.000499 0.000000 0.000000 0.000000
# 3 -0.005595 -0.000499 0.007905 0.000000 0.000000 0.000000
# 4 0.000000 0.000000 0.000000 0.063468 0.000000 0.000000
# 5 0.000000 0.000000 0.000000 0.000000 0.137537 0.000000
# 6 0.000000 0.000000 0.000000 0.000000 0.000000 0.044182
#
#
# Mechanical properties :
#
#
# Convention : Reuss Voigt Hill
#
# Bulk Modulus (GPa) = 59.01920 68.49693 63.75807
# Shear Modulus (GPa) = 15.68436 23.97767 19.83102
#
# Velocity S-wave (km/s) = 2.66968 3.30088 3.00192
# Velocity P-wave (km/s) = 6.02679 6.75676 6.40219
#
# Compressibility (1/GPa) = 0.01694364
#
# Stress axis : x y z
#
# Youngs Moduli (GPa) = 41.45484 95.95902 126.49907
#
# Poissons Ratio (x) = 0.63895 0.70774
# Poissons Ratio (y) = 0.27603 0.06315
# Poissons Ratio (z) = 0.23193 0.04790
#
# Static dielectric constant tensor:
#      x y z
#    x 1.897320 0.000000 0.000000 
#    y 0.000000 1.838960 0.000000 
#    z 0.000000 0.000000 1.846980 
# 
# From -- ./inp_files/12672.got.cif
#   From: 2010.05.17/outbox.cif.g08.bks.cpg/sg48_7_cif.got.tgz:12672.got - 2010.06.03 20:39:00.
