data_PCOD9391714
_publ_section_title
;
Structure prediction by ZEFSAII (Michael W. Deem and Ramdas Pophale) SiO2 
 PCOD9391714
Probable space group: P N N N
;
_chemical_formula_sum "Si O2"
_cell_formula_units_Z 36
_cell_length_a 12.227825
_cell_length_b 13.586480
_cell_length_c 10.565082
_cell_angle_alpha 90.000000
_cell_angle_beta 90.000000
_cell_angle_gamma 90.000000
_cell_volume 1755.209822
_symmetry_space_group_name_H-M "P N N N"
_symmetry_group_IT_number 48
_space_group.IT_coordinate_system_code '2'
_symmetry_cell_setting 'orthorhombic'
loop_
_space_group_symop_operation_xyz
x,y,z
1/2-x,1/2-y,z
x,1/2-y,1/2-z
1/2-x,y,1/2-z
-x,-y,-z
1/2+x,1/2+y,-z
-x,1/2+y,1/2+z
1/2+x,-y,1/2+z
loop_
_atom_site_type_symbol
_atom_site_label
_atom_site_fract_x
_atom_site_fract_y
_atom_site_fract_z
Si Si1 0.541165 0.172011 0.857435
Si Si2 0.134344 0.044001 0.318409
Si Si3 0.201835 0.145918 0.568736
Si Si4 0.250000 0.999412 0.750000
Si Si5 0.421965 0.840071 0.839491
O O1 0.578582 0.250000 0.750000
O O2 0.409309 0.169440 0.855740
O O3 0.587870 0.065932 0.817367
O O4 0.571502 0.185729 0.009051
O O5 0.250000 0.052423 0.250000
O O6 0.160511 0.075894 0.459620
O O7 0.038359 0.120734 0.285067
O O8 0.250000 0.250000 0.526505
O O9 0.287360 0.077950 0.644016
O O10 0.339239 0.929684 0.813600
O O11 0.388169 0.750000 0.750000
#
# Coordination Sequence:
#
# PCOD9391714 Si02
#       5
#     8   8   8   4   8
#     4  11  23  48  71 100 139 183 235 292 349 415
#     4  11  25  45  67  99 142 184 222 294 353 420
#     4  11  23  40  73 105 132 180 237 293 347 409
#     4  12  20  44  68  96 140 176 230 288 350 414
#     4  11  25  44  70  99 139 184 234 291 354 418
#
# _framework density 20.510366999999999
#
# number of rings (size 3 to 8) (size 9 to 14) (size 15 to 20)
#    0.000    0.889    4.444    3.333    6.222    2.222 
#    4.000    2.222    0.000    0.000    0.000    0.000 
#    0.000    0.000    0.000    0.000    0.000    0.000 
#
# Total GULP energy -200577.234099 kJ/mol
# GULP energy per Si atom -5571.589836 kJ/mol
# Density = 2.046368 g / cm^3
# Si number density = 20.510367 Si / 1000 Ang^3
#
#
#
# Elastic Constant Matrix: (Units=GPa)
#
#
# Indices 1 2 3 4 5 6 
#
# 1 61.8897 9.2821 16.1462 0.0000 0.0000 0.0000
# 2 9.2821 133.0004 44.1703 0.0000 0.0000 0.0000
# 3 16.1462 44.1703 64.2071 0.0000 0.0000 0.0000
# 4 0.0000 0.0000 0.0000 43.8359 0.0000 0.0000
# 5 0.0000 0.0000 0.0000 0.0000 117.4153 0.0000
# 6 0.0000 0.0000 0.0000 0.0000 0.0000 34.8858
#
#
#
# Elastic Compliance Matrix: (Units=1/GPa)
#
#
# Indices 1 2 3 4 5 6 
#
# 1 0.017302 0.000308 -0.004563 0.000000 0.000000 0.000000
# 2 0.000308 0.009751 -0.006785 0.000000 0.000000 0.000000
# 3 -0.004563 -0.006785 0.021390 0.000000 0.000000 0.000000
# 4 0.000000 0.000000 0.000000 0.022812 0.000000 0.000000
# 5 0.000000 0.000000 0.000000 0.000000 0.008517 0.000000
# 6 0.000000 0.000000 0.000000 0.000000 0.000000 0.028665
#
#
# Mechanical properties :
#
#
# Convention : Reuss Voigt Hill
#
# Bulk Modulus (GPa) = 37.93312 44.25492 41.09402
# Shear Modulus (GPa) = 35.89265 51.86063 43.87664
#
# Velocity S-wave (km/s) = 4.18781 5.03388 4.63021
# Velocity P-wave (km/s) = 6.47444 7.44381 6.97599
#
# Compressibility (1/GPa) = 0.02636219
#
# Stress axis : x y z
#
# Youngs Moduli (GPa) = 57.79690 102.55653 46.75126
#
# Poissons Ratio (x) = -0.03157 0.21331
# Poissons Ratio (y) = -0.01779 0.31722
# Poissons Ratio (z) = 0.26371 0.69587
#
# Static dielectric constant tensor:
#      x y z
#    x 1.657370 0.000000 0.000000 
#    y 0.000000 1.705370 0.000000 
#    z 0.000000 0.000000 1.759720 
# 
# From -- ./inp_files/19521.got.cif
#   From: 2010.05.17/outbox.cif.g08.bks.cpg/sg48_10_cif.got.tgz:19521.got - 2010.06.03 20:39:00.
