data_PCOD9391543
_publ_section_title
;
Structure prediction by ZEFSAII (Michael W. Deem and Ramdas Pophale) SiO2 
 PCOD9391543
Probable space group: P N N N
;
_chemical_formula_sum "Si O2"
_cell_formula_units_Z 34
_cell_length_a 10.140552
_cell_length_b 16.535379
_cell_length_c 9.789636
_cell_angle_alpha 90.000000
_cell_angle_beta 90.000000
_cell_angle_gamma 90.000000
_cell_volume 1641.505318
_symmetry_space_group_name_H-M "P N N N"
_symmetry_group_IT_number 48
_space_group.IT_coordinate_system_code '2'
_symmetry_cell_setting 'orthorhombic'
loop_
_space_group_symop_operation_xyz
x,y,z
1/2-x,1/2-y,z
x,1/2-y,1/2-z
1/2-x,y,1/2-z
-x,-y,-z
1/2+x,1/2+y,-z
-x,1/2+y,1/2+z
1/2+x,-y,1/2+z
loop_
_atom_site_type_symbol
_atom_site_label
_atom_site_fract_x
_atom_site_fract_y
_atom_site_fract_z
Si Si1 0.363998 0.628692 0.153504
Si Si2 0.431165 0.140631 0.444982
Si Si3 0.750000 0.750000 0.750000
Si Si4 0.719380 0.984262 0.005195
Si Si5 0.501787 0.017393 0.212493
O O1 0.250000 0.664960 0.250000
O O2 0.458367 0.573075 0.246994
O O3 0.459480 0.676246 0.049008
O O4 0.289458 0.560906 0.063256
O O5 0.346846 0.200057 0.350265
O O6 0.325822 0.085620 0.527152
O O7 0.499270 0.076605 0.341218
O O8 0.638625 0.012551 0.135204
O O9 0.611585 0.953696 0.893732
#
# Coordination Sequence:
#
# PCOD9391543 Si02
#       5
#     8   8   2   8   8
#     4   9  19  32  52  88 118 145 182 249 301 338
#     4  11  20  35  56  86 122 152 195 236 289 368
#     4  12  24  40  56  84 120 164 212 230 284 364
#     4   9  16  30  56  92 121 142 182 248 309 343
#     4   9  16  30  56  92 121 142 182 248 309 343
#
# _framework density 20.712695
#
# number of rings (size 3 to 8) (size 9 to 14) (size 15 to 20)
#    0.000    2.353    2.353    4.235    0.000    3.765 
#    0.000    0.000    0.000    5.647   12.235    0.000 
#    0.000    0.000    0.000    0.000    0.000    0.000 
#
# Total GULP energy -189645.683456 kJ/mol
# GULP energy per Si atom -5577.814219 kJ/mol
# Density = 2.066555 g / cm^3
# Si number density = 20.712695 Si / 1000 Ang^3
#
#
#
# Elastic Constant Matrix: (Units=GPa)
#
#
# Indices 1 2 3 4 5 6 
#
# 1 115.3472 23.5173 69.3713 0.0000 0.0000 0.0000
# 2 23.5173 49.0233 14.3155 0.0000 0.0000 0.0000
# 3 69.3713 14.3155 72.9174 0.0000 0.0000 0.0000
# 4 0.0000 0.0000 0.0000 7.9283 0.0000 0.0000
# 5 0.0000 0.0000 0.0000 0.0000 72.5803 0.0000
# 6 0.0000 0.0000 0.0000 0.0000 0.0000 2.5497
#
#
#
# Elastic Compliance Matrix: (Units=1/GPa)
#
#
# Indices 1 2 3 4 5 6 
#
# 1 0.021173 -0.004535 -0.019253 0.000000 0.000000 0.000000
# 2 -0.004535 0.022610 -0.000125 0.000000 0.000000 0.000000
# 3 -0.019253 -0.000125 0.032055 0.000000 0.000000 0.000000
# 4 0.000000 0.000000 0.000000 0.126130 0.000000 0.000000
# 5 0.000000 0.000000 0.000000 0.000000 0.013778 0.000000
# 6 0.000000 0.000000 0.000000 0.000000 0.000000 0.392199
#
#
# Mechanical properties :
#
#
# Convention : Reuss Voigt Hill
#
# Bulk Modulus (GPa) = 35.69697 50.18844 42.94271
# Shear Modulus (GPa) = 7.51756 25.28392 16.40074
#
# Velocity S-wave (km/s) = 1.90718 3.49764 2.81698
# Velocity P-wave (km/s) = 4.70335 6.37139 5.59983
#
# Compressibility (1/GPa) = 0.02801358
#
# Stress axis : x y z
#
# Youngs Moduli (GPa) = 47.22963 44.22762 31.19599
#
# Poissons Ratio (x) = 0.20057 0.60062
# Poissons Ratio (y) = 0.21418 0.00389
# Poissons Ratio (z) = 0.90932 0.00551
#
# Static dielectric constant tensor:
#      x y z
#    x 1.779610 0.000000 0.000000 
#    y 0.000000 1.695150 0.000000 
#    z 0.000000 0.000000 1.893770 
# 
# From -- ./inp_files/8775.got.cif
#   From: 2010.05.17/outbox.cif.g08.bks.cpg/sg48_5_cif.got.tgz:8775.got - 2010.06.03 20:39:00.
