data_PCOD9391245
_publ_section_title
;
Structure prediction by ZEFSAII (Michael W. Deem and Ramdas Pophale) SiO2 
 PCOD9391245
Probable space group: P N N N
;
_chemical_formula_sum "Si O2"
_cell_formula_units_Z 22
_cell_length_a 5.141686
_cell_length_b 6.660759
_cell_length_c 25.708680
_cell_angle_alpha 90.000000
_cell_angle_beta 90.000000
_cell_angle_gamma 90.000000
_cell_volume 880.458823
_symmetry_space_group_name_H-M "P N N N"
_symmetry_group_IT_number 48
_space_group.IT_coordinate_system_code '2'
_symmetry_cell_setting 'orthorhombic'
loop_
_space_group_symop_operation_xyz
x,y,z
1/2-x,1/2-y,z
x,1/2-y,1/2-z
1/2-x,y,1/2-z
-x,-y,-z
1/2+x,1/2+y,-z
-x,1/2+y,1/2+z
1/2+x,-y,1/2+z
loop_
_atom_site_type_symbol
_atom_site_label
_atom_site_fract_x
_atom_site_fract_y
_atom_site_fract_z
Si Si1 0.750000 0.750000 0.003791
Si Si2 0.362370 0.556480 0.921301
Si Si3 0.750000 0.750000 0.750000
Si Si4 0.494590 0.889139 0.314564
O O1 0.836197 0.579235 0.045285
O O2 0.543415 0.653040 0.965395
O O3 0.250000 0.750000 0.892823
O O4 0.498681 0.434112 0.876316
O O5 0.933419 0.597850 0.716051
O O6 0.250000 0.750000 0.304363
O O7 0.750000 0.750000 0.304279
#
# Coordination Sequence:
#
# PCOD9391245 Si02
#       4
#     4   8   2   8
#     4  10  23  40  72 113 161 210 268 307 400 486
#     4  11  24  44  73 111 159 210 263 327 399 480
#     4  12  32  58  88 112 168 218 274 360 448 480
#     4  12  31  55  83 122 161 209 281 344 417 503
#
# _framework density 24.986972000000002
#
# number of rings (size 3 to 8) (size 9 to 14) (size 15 to 20)
#    0.000    0.727    1.818    2.727   10.182   10.182 
#    0.000    0.000    0.000    0.000    0.000    0.000 
#    0.000    0.000    0.000    0.000    0.000    0.000 
#
# Total GULP energy -122836.538510 kJ/mol
# GULP energy per Si atom -5583.479023 kJ/mol
# Density = 2.493010 g / cm^3
# Si number density = 24.986972 Si / 1000 Ang^3
#
#
#
# Elastic Constant Matrix: (Units=GPa)
#
#
# Indices 1 2 3 4 5 6 
#
# 1 128.4628 81.6259 44.6606 0.0000 0.0000 0.0000
# 2 81.6259 183.9606 103.3947 0.0000 0.0000 0.0000
# 3 44.6606 103.3947 176.6009 0.0000 0.0000 0.0000
# 4 0.0000 0.0000 0.0000 32.7672 0.0000 0.0000
# 5 0.0000 0.0000 0.0000 0.0000 88.5510 0.0000
# 6 0.0000 0.0000 0.0000 0.0000 0.0000 42.0392
#
#
#
# Elastic Compliance Matrix: (Units=1/GPa)
#
#
# Indices 1 2 3 4 5 6 
#
# 1 0.010842 -0.004873 0.000111 0.000000 0.000000 0.000000
# 2 -0.004873 0.010293 -0.004794 0.000000 0.000000 0.000000
# 3 0.000111 -0.004794 0.008441 0.000000 0.000000 0.000000
# 4 0.000000 0.000000 0.000000 0.030518 0.000000 0.000000
# 5 0.000000 0.000000 0.000000 0.000000 0.011293 0.000000
# 6 0.000000 0.000000 0.000000 0.000000 0.000000 0.023787
#
#
# Mechanical properties :
#
#
# Convention : Reuss Voigt Hill
#
# Bulk Modulus (GPa) = 95.56250 105.37629 100.46940
# Shear Modulus (GPa) = 42.45435 49.96103 46.20769
#
# Velocity S-wave (km/s) = 4.12644 4.47641 4.30498
# Velocity P-wave (km/s) = 7.81225 8.30552 8.06266
#
# Compressibility (1/GPa) = 0.01046436
#
# Stress axis : x y z
#
# Youngs Moduli (GPa) = 92.23179 97.15747 118.47207
#
# Poissons Ratio (x) = 0.47349 -0.01319
# Poissons Ratio (y) = 0.44949 0.56790
# Poissons Ratio (z) = -0.01027 0.46573
#
# Static dielectric constant tensor:
#      x y z
#    x 2.209590 0.000000 0.000000 
#    y 0.000000 2.111850 0.000000 
#    z 0.000000 0.000000 1.914410 
# 
# From -- ./inp_files/351.got.cif
#   From: 2010.05.17/outbox.cif.g08.bks.cpg/sg48_1_cif.got.tgz:351.got - 2010.06.03 20:39:00.
