data_PCOD9391669
_publ_section_title
;
Structure prediction by ZEFSAII (Michael W. Deem and Ramdas Pophale) SiO2 
 PCOD9391669
Probable space group: P N N N
;
_chemical_formula_sum "Si O2"
_cell_formula_units_Z 48
_cell_length_a 17.109626
_cell_length_b 8.368852
_cell_length_c 14.323004
_cell_angle_alpha 90.000000
_cell_angle_beta 90.000000
_cell_angle_gamma 90.000000
_cell_volume 2050.881262
_symmetry_space_group_name_H-M "P N N N"
_symmetry_group_IT_number 48
_space_group.IT_coordinate_system_code '2'
_symmetry_cell_setting 'orthorhombic'
loop_
_space_group_symop_operation_xyz
x,y,z
1/2-x,1/2-y,z
x,1/2-y,1/2-z
1/2-x,y,1/2-z
-x,-y,-z
1/2+x,1/2+y,-z
-x,1/2+y,1/2+z
1/2+x,-y,1/2+z
loop_
_atom_site_type_symbol
_atom_site_label
_atom_site_fract_x
_atom_site_fract_y
_atom_site_fract_z
Si Si1 0.034207 0.198885 0.521061
Si Si2 0.870024 0.418051 0.987000
Si Si3 0.931417 0.866962 0.831506
Si Si4 0.735919 0.560090 0.859658
Si Si5 0.837596 0.310523 0.345343
Si Si6 0.930777 0.903970 0.184497
O O1 0.035225 0.254758 0.413758
O O2 0.043616 0.353693 0.581793
O O3 0.955167 0.114459 0.557990
O O4 0.108346 0.083373 0.539380
O O5 0.863501 0.272157 0.058942
O O6 0.795883 0.454804 0.921651
O O7 0.900727 0.750000 0.750000
O O8 0.857092 0.963124 0.872905
O O9 0.997646 0.979819 0.788093
O O10 0.750000 0.750000 0.879008
O O11 0.750000 0.527892 0.750000
O O12 0.750000 0.250000 0.341312
O O13 0.877912 0.250000 0.250000
O O14 0.851676 0.497544 0.333733
O O15 0.923774 0.750000 0.250000
#
# Coordination Sequence:
#
# PCOD9391669 Si02
#       6
#     8   8   8   8   8   8
#     4  11  25  43  70 108 141 192 252 308 371 453
#     4  11  24  42  75 101 147 196 252 307 383 453
#     4  12  24  45  76 105 150 202 251 318 379 461
#     4  11  22  41  69 109 152 201 257 319 389 458
#     4  11  26  48  72 101 142 190 242 312 380 450
#     4  12  28  45  72 106 148 191 253 316 381 458
#
# _framework density 23.404572999999999
#
# number of rings (size 3 to 8) (size 9 to 14) (size 15 to 20)
#    0.000    0.667    5.000    2.000    9.333    0.000 
#    0.000    5.000    0.000    0.000    0.000    0.000 
#    0.000    0.000    0.000    0.000    0.000    0.000 
#
# Total GULP energy -267892.009613 kJ/mol
# GULP energy per Si atom -5581.083534 kJ/mol
# Density = 2.335130 g / cm^3
# Si number density = 23.404573 Si / 1000 Ang^3
#
#
#
# Elastic Constant Matrix: (Units=GPa)
#
#
# Indices 1 2 3 4 5 6 
#
# 1 165.0308 54.7604 33.5059 0.0000 0.0000 0.0000
# 2 54.7604 97.6738 42.5583 0.0000 0.0000 0.0000
# 3 33.5059 42.5583 104.8188 0.0000 0.0000 0.0000
# 4 0.0000 0.0000 0.0000 50.1464 0.0000 0.0000
# 5 0.0000 0.0000 0.0000 0.0000 29.8649 0.0000
# 6 0.0000 0.0000 0.0000 0.0000 0.0000 28.2438
#
#
#
# Elastic Compliance Matrix: (Units=1/GPa)
#
#
# Indices 1 2 3 4 5 6 
#
# 1 0.007505 -0.003842 -0.000839 0.000000 0.000000 0.000000
# 2 -0.003842 0.014405 -0.004621 0.000000 0.000000 0.000000
# 3 -0.000839 -0.004621 0.011685 0.000000 0.000000 0.000000
# 4 0.000000 0.000000 0.000000 0.019942 0.000000 0.000000
# 5 0.000000 0.000000 0.000000 0.000000 0.033484 0.000000
# 6 0.000000 0.000000 0.000000 0.000000 0.000000 0.035406
#
#
# Mechanical properties :
#
#
# Convention : Reuss Voigt Hill
#
# Bulk Modulus (GPa) = 66.70535 69.90806 68.30670
# Shear Modulus (GPa) = 34.24030 37.43096 35.83563
#
# Velocity S-wave (km/s) = 3.82903 4.00347 3.91722
# Velocity P-wave (km/s) = 6.93625 7.16272 7.05039
#
# Compressibility (1/GPa) = 0.01499130
#
# Stress axis : x y z
#
# Youngs Moduli (GPa) = 133.25125 69.41824 85.58274
#
# Poissons Ratio (x) = 0.26669 0.07181
# Poissons Ratio (y) = 0.51193 0.39546
# Poissons Ratio (z) = 0.11180 0.32077
#
# Static dielectric constant tensor:
#      x y z
#    x 1.787490 0.000000 0.000000 
#    y 0.000000 1.975540 0.000000 
#    z 0.000000 0.000000 1.917420 
# 
# From -- ./inp_files/27876.got.cif
#   From: 2010.05.17/outbox.cif.g08.bks.cpg/sg48_14_cif.got.tgz:27876.got - 2010.06.03 20:39:00.
