data_PCOD9391387
_publ_section_title
;
Structure prediction by ZEFSAII (Michael W. Deem and Ramdas Pophale) SiO2 
 PCOD9391387
Probable space group: P N N N
;
_chemical_formula_sum "Si O2"
_cell_formula_units_Z 38
_cell_length_a 10.670304
_cell_length_b 9.526043
_cell_length_c 18.523638
_cell_angle_alpha 90.000000
_cell_angle_beta 90.000000
_cell_angle_gamma 90.000000
_cell_volume 1882.849535
_symmetry_space_group_name_H-M "P N N N"
_symmetry_group_IT_number 48
_space_group.IT_coordinate_system_code '2'
_symmetry_cell_setting 'orthorhombic'
loop_
_space_group_symop_operation_xyz
x,y,z
1/2-x,1/2-y,z
x,1/2-y,1/2-z
1/2-x,y,1/2-z
-x,-y,-z
1/2+x,1/2+y,-z
-x,1/2+y,1/2+z
1/2+x,-y,1/2+z
loop_
_atom_site_type_symbol
_atom_site_label
_atom_site_fract_x
_atom_site_fract_y
_atom_site_fract_z
Si Si1 0.001431 0.638434 0.450440
Si Si2 0.397732 0.231363 0.084071
Si Si3 0.132613 0.493563 0.203718
Si Si4 0.057324 0.957601 0.827158
Si Si5 0.750000 0.250000 0.250000
Si Si6 0.250000 0.750000 0.378674
O O1 0.141328 0.675373 0.424790
O O2 0.000000 0.500000 0.500000
O O3 0.953794 0.761569 0.503394
O O4 0.920100 0.588930 0.380954
O O5 0.250000 0.250000 0.076444
O O6 0.461406 0.356705 0.129380
O O7 0.412167 0.098131 0.135873
O O8 0.250000 0.429756 0.250000
O O9 0.183868 0.636440 0.171348
O O10 0.017959 0.511192 0.257874
O O11 0.167211 0.854701 0.799912
#
# Coordination Sequence:
#
# PCOD9391387 Si02
#       6
#     8   8   8   8   2   4
#     4  10  24  43  63  97 141 181 225 285 355 420
#     4  11  21  40  67  99 135 183 233 283 340 428
#     4  12  21  39  73 105 127 175 245 299 341 414
#     4  11  23  41  68 101 136 178 234 289 352 419
#     4  12  24  42  70 104 140 188 222 292 352 426
#     4  12  25  43  74  99 141 182 232 304 355 409
#
# _framework density 20.182175999999998
#
# number of rings (size 3 to 8) (size 9 to 14) (size 15 to 20)
#    0.000    0.842    6.316    1.579    0.000    4.211 
#    3.789    0.000    0.000    0.000    0.000    0.000 
#    0.000    0.000    0.000    0.000    0.000    0.000 
#
# Total GULP energy -212010.333507 kJ/mol
# GULP energy per Si atom -5579.219303 kJ/mol
# Density = 2.013624 g / cm^3
# Si number density = 20.182176 Si / 1000 Ang^3
#
#
#
# Elastic Constant Matrix: (Units=GPa)
#
#
# Indices 1 2 3 4 5 6 
#
# 1 91.1721 23.8966 68.3595 0.0000 0.0000 0.0000
# 2 23.8966 88.2120 74.5602 0.0000 0.0000 0.0000
# 3 68.3595 74.5602 167.1522 0.0000 0.0000 0.0000
# 4 0.0000 0.0000 0.0000 47.7986 0.0000 0.0000
# 5 0.0000 0.0000 0.0000 0.0000 13.9542 0.0000
# 6 0.0000 0.0000 0.0000 0.0000 0.0000 32.6207
#
#
#
# Elastic Compliance Matrix: (Units=1/GPa)
#
#
# Indices 1 2 3 4 5 6 
#
# 1 0.016020 0.001923 -0.007409 0.000000 0.000000 0.000000
# 2 0.001923 0.018428 -0.009006 0.000000 0.000000 0.000000
# 3 -0.007409 -0.009006 0.013030 0.000000 0.000000 0.000000
# 4 0.000000 0.000000 0.000000 0.020921 0.000000 0.000000
# 5 0.000000 0.000000 0.000000 0.000000 0.071663 0.000000
# 6 0.000000 0.000000 0.000000 0.000000 0.000000 0.030655
#
#
# Mechanical properties :
#
#
# Convention : Reuss Voigt Hill
#
# Bulk Modulus (GPa) = 54.07692 75.57432 64.82562
# Shear Modulus (GPa) = 24.28755 30.85603 27.57179
#
# Velocity S-wave (km/s) = 3.47279 3.91433 3.70015
# Velocity P-wave (km/s) = 6.55232 7.61292 7.10245
#
# Compressibility (1/GPa) = 0.01849218
#
# Stress axis : x y z
#
# Youngs Moduli (GPa) = 62.42368 54.26525 76.74556
#
# Poissons Ratio (x) = -0.10434 0.56862
# Poissons Ratio (y) = -0.12003 0.69120
# Poissons Ratio (z) = 0.46251 0.48873
#
# Static dielectric constant tensor:
#      x y z
#    x 1.686630 0.000000 0.000000 
#    y 0.000000 1.733910 0.000000 
#    z 0.000000 0.000000 1.768660 
# 
# From -- ./inp_files/10761.got.cif
#   From: 2010.05.17/outbox.cif.g08.bks.cpg/sg48_6_cif.got.tgz:10761.got - 2010.06.03 20:39:00.
