data_PCOD9391592
_publ_section_title
;
Structure prediction by ZEFSAII (Michael W. Deem and Ramdas Pophale) SiO2 
 PCOD9391592
Probable space group: P N N N
;
_chemical_formula_sum "Si O2"
_cell_formula_units_Z 40
_cell_length_a 7.613194
_cell_length_b 15.587550
_cell_length_c 14.352023
_cell_angle_alpha 90.000000
_cell_angle_beta 90.000000
_cell_angle_gamma 90.000000
_cell_volume 1703.169526
_symmetry_space_group_name_H-M "P N N N"
_symmetry_group_IT_number 48
_space_group.IT_coordinate_system_code '2'
_symmetry_cell_setting 'orthorhombic'
loop_
_space_group_symop_operation_xyz
x,y,z
1/2-x,1/2-y,z
x,1/2-y,1/2-z
1/2-x,y,1/2-z
-x,-y,-z
1/2+x,1/2+y,-z
-x,1/2+y,1/2+z
1/2+x,-y,1/2+z
loop_
_atom_site_type_symbol
_atom_site_label
_atom_site_fract_x
_atom_site_fract_y
_atom_site_fract_z
Si Si1 0.467200 0.848964 0.748958
Si Si2 0.547330 0.087177 0.055572
Si Si3 0.939176 0.037522 0.096992
Si Si4 0.544436 0.781361 0.097954
Si Si5 0.549934 0.629359 0.222409
O O1 0.513033 0.750000 0.750000
O O2 0.250000 0.854170 0.750000
O O3 0.528596 0.900526 0.840424
O O4 0.538337 0.888924 0.653073
O O5 0.752679 0.076786 0.071984
O O6 0.506982 0.173196 0.997416
O O7 0.500000 0.000000 0.000000
O O8 0.934524 0.961532 0.173512
O O9 0.000000 0.000000 0.000000
O O10 0.750000 0.750000 0.086321
O O11 0.470752 0.694975 0.146602
O O12 0.478707 0.853765 0.174244
O O13 0.750000 0.654854 0.250000
#
# Coordination Sequence:
#
# PCOD9391592 Si02
#       5
#     8   8   8   8   8
#     4   9  20  39  61  87 123 169 212 250 312 398
#     4  11  21  37  64  90 120 161 214 262 316 378
#     4  11  23  38  62  90 127 172 212 260 316 392
#     4   9  18  33  61  91 117 157 210 271 311 377
#     4   9  17  35  59  86 119 160 212 253 315 389
#
# _framework density 23.485623
#
# number of rings (size 3 to 8) (size 9 to 14) (size 15 to 20)
#    0.000    2.200    0.000    6.600    2.800    0.000 
#    0.000    4.000    0.000    2.400    0.000    0.000 
#    0.000    0.000    0.000    0.000    0.000    0.000 
#
# Total GULP energy -222668.639447 kJ/mol
# GULP energy per Si atom -5566.715986 kJ/mol
# Density = 2.343217 g / cm^3
# Si number density = 23.485623 Si / 1000 Ang^3
#
#
#
# Elastic Constant Matrix: (Units=GPa)
#
#
# Indices 1 2 3 4 5 6 
#
# 1 45.6364 24.6094 25.8151 0.0000 0.0000 0.0000
# 2 24.6094 132.6634 85.4167 0.0000 0.0000 0.0000
# 3 25.8151 85.4167 164.4984 0.0000 0.0000 0.0000
# 4 0.0000 0.0000 0.0000 37.1619 0.0000 0.0000
# 5 0.0000 0.0000 0.0000 0.0000 31.0502 0.0000
# 6 0.0000 0.0000 0.0000 0.0000 0.0000 -7.1033
#
#
#
# Elastic Compliance Matrix: (Units=1/GPa)
#
#
# Indices 1 2 3 4 5 6 
#
# 1 0.024898 -0.003159 -0.002267 0.000000 0.000000 0.000000
# 2 -0.003159 0.011725 -0.005592 0.000000 0.000000 0.000000
# 3 -0.002267 -0.005592 0.009339 0.000000 0.000000 0.000000
# 4 0.000000 0.000000 0.000000 0.026909 0.000000 0.000000
# 5 0.000000 0.000000 0.000000 0.000000 0.032206 0.000000
# 6 0.000000 0.000000 0.000000 0.000000 0.000000 -0.140779
#
#
# Mechanical properties :
#
#
# Convention : Reuss Voigt Hill
#
# Bulk Modulus (GPa) = 41.79767 68.27562 55.03664
# Shear Modulus (GPa) = -878.52377 26.01889 -426.25244
#
# Velocity S-wave (km/s) = -19.36184 3.33207 -13.48663
# Velocity P-wave (km/s) = 21.95462 6.62857 14.79979
#
# Compressibility (1/GPa) = 0.02392478
#
# Stress axis : x y z
#
# Youngs Moduli (GPa) = 40.16357 85.29126 107.08171
#
# Poissons Ratio (x) = 0.26944 0.24275
# Poissons Ratio (y) = 0.12688 0.59883
# Poissons Ratio (z) = 0.09105 0.47697
#
# Static dielectric constant tensor:
#      x y z
#    x 1.994460 0.000000 0.000000 
#    y 0.000000 1.853720 0.000000 
#    z 0.000000 0.000000 2.074310 
# 
# From -- ./inp_files/25102.got.cif
#   From: 2010.05.17/outbox.cif.g08.bks.cpg/sg48_13_cif.got.tgz:25102.got - 2010.06.03 20:39:00.
