data_PCOD9391748
_publ_section_title
;
Structure prediction by ZEFSAII (Michael W. Deem and Ramdas Pophale) SiO2 
 PCOD9391748
Probable space group: P N N N
;
_chemical_formula_sum "Si O2"
_cell_formula_units_Z 40
_cell_length_a 9.870305
_cell_length_b 10.554631
_cell_length_c 16.186940
_cell_angle_alpha 90.000000
_cell_angle_beta 90.000000
_cell_angle_gamma 90.000000
_cell_volume 1686.313762
_symmetry_space_group_name_H-M "P N N N"
_symmetry_group_IT_number 48
_space_group.IT_coordinate_system_code '2'
_symmetry_cell_setting 'orthorhombic'
loop_
_space_group_symop_operation_xyz
x,y,z
1/2-x,1/2-y,z
x,1/2-y,1/2-z
1/2-x,y,1/2-z
-x,-y,-z
1/2+x,1/2+y,-z
-x,1/2+y,1/2+z
1/2+x,-y,1/2+z
loop_
_atom_site_type_symbol
_atom_site_label
_atom_site_fract_x
_atom_site_fract_y
_atom_site_fract_z
Si Si1 0.543601 0.565546 0.184251
Si Si2 0.969044 0.851652 0.358766
Si Si3 0.635055 0.155221 0.434238
Si Si4 0.745617 0.436240 0.886904
Si Si5 0.120985 0.334150 0.031799
O O1 0.576670 0.566011 0.281087
O O2 0.578561 0.707051 0.153074
O O3 0.609781 0.460212 0.127233
O O4 0.380994 0.550100 0.173404
O O5 0.133009 0.843870 0.360493
O O6 0.921606 0.902363 0.446750
O O7 0.750000 0.250000 0.403734
O O8 0.682036 0.102925 0.524089
O O9 0.500149 0.239919 0.444310
O O10 0.827971 0.566860 0.900544
O O11 0.250000 0.250000 0.011902
#
# Coordination Sequence:
#
# PCOD9391748 Si02
#       5
#     8   8   8   8   8
#     4  11  23  44  73 108 151 191 245 318 380 435
#     4  11  24  43  71 111 146 192 245 319 380 435
#     4  12  24  45  77 110 150 200 257 308 370 459
#     4  12  22  43  76 106 146 198 263 304 366 465
#     4  12  24  44  77 109 147 200 256 307 376 455
#
# _framework density 23.720378
#
# number of rings (size 3 to 8) (size 9 to 14) (size 15 to 20)
#    0.000    0.400    6.000    3.600    0.000    1.600 
#    0.000    8.000    4.400    0.000    0.000    0.000 
#    0.000    0.000    0.000    0.000    0.000    0.000 
#
# Total GULP energy -224244.526800 kJ/mol
# GULP energy per Si atom -5606.113170 kJ/mol
# Density = 2.366639 g / cm^3
# Si number density = 23.720378 Si / 1000 Ang^3
#
#
#
# Elastic Constant Matrix: (Units=GPa)
#
#
# Indices 1 2 3 4 5 6 
#
# 1 119.4980 40.8741 21.1096 0.0000 0.0000 0.0000
# 2 40.8741 96.9458 65.8217 0.0000 0.0000 0.0000
# 3 21.1096 65.8217 113.2512 0.0000 0.0000 0.0000
# 4 0.0000 0.0000 0.0000 33.6587 0.0000 0.0000
# 5 0.0000 0.0000 0.0000 0.0000 29.9894 0.0000
# 6 0.0000 0.0000 0.0000 0.0000 0.0000 48.0346
#
#
#
# Elastic Compliance Matrix: (Units=1/GPa)
#
#
# Indices 1 2 3 4 5 6 
#
# 1 0.009840 -0.004796 0.000953 0.000000 0.000000 0.000000
# 2 -0.004796 0.019376 -0.010368 0.000000 0.000000 0.000000
# 3 0.000953 -0.010368 0.014678 0.000000 0.000000 0.000000
# 4 0.000000 0.000000 0.000000 0.029710 0.000000 0.000000
# 5 0.000000 0.000000 0.000000 0.000000 0.033345 0.000000
# 6 0.000000 0.000000 0.000000 0.000000 0.000000 0.020818
#
#
# Mechanical properties :
#
#
# Convention : Reuss Voigt Hill
#
# Bulk Modulus (GPa) = 64.62528 65.03398 64.82963
# Shear Modulus (GPa) = 30.98915 35.79584 33.39249
#
# Velocity S-wave (km/s) = 3.61839 3.88890 3.75608
# Velocity P-wave (km/s) = 6.69035 6.90226 6.79713
#
# Compressibility (1/GPa) = 0.01547382
#
# Stress axis : x y z
#
# Youngs Moduli (GPa) = 101.62128 51.60948 68.12984
#
# Poissons Ratio (x) = 0.24753 -0.06495
# Poissons Ratio (y) = 0.48739 0.70634
# Poissons Ratio (z) = -0.09688 0.53506
#
# Static dielectric constant tensor:
#      x y z
#    x 1.935250 0.000000 0.000000 
#    y 0.000000 2.139020 0.000000 
#    z 0.000000 0.000000 1.900480 
# 
# From -- ./inp_files/30018.got.cif
#   From: 2010.05.17/outbox.cif.g08.bks.cpg/sg48_16_cif.got.tgz:30018.got - 2010.06.03 20:39:00.
