data_PCOD9391178
_publ_section_title
;
Structure prediction by ZEFSAII (Michael W. Deem and Ramdas Pophale) SiO2 
 PCOD9391178
Probable space group: P N N N
;
_chemical_formula_sum "Si O2"
_cell_formula_units_Z 40
_cell_length_a 6.292283
_cell_length_b 12.387461
_cell_length_c 23.827741
_cell_angle_alpha 90.000000
_cell_angle_beta 90.000000
_cell_angle_gamma 90.000000
_cell_volume 1857.263048
_symmetry_space_group_name_H-M "P N N N"
_symmetry_group_IT_number 48
_space_group.IT_coordinate_system_code '2'
_symmetry_cell_setting 'orthorhombic'
loop_
_space_group_symop_operation_xyz
x,y,z
1/2-x,1/2-y,z
x,1/2-y,1/2-z
1/2-x,y,1/2-z
-x,-y,-z
1/2+x,1/2+y,-z
-x,1/2+y,1/2+z
1/2+x,-y,1/2+z
loop_
_atom_site_type_symbol
_atom_site_label
_atom_site_fract_x
_atom_site_fract_y
_atom_site_fract_z
Si Si1 0.025800 0.480932 0.418990
Si Si2 0.386332 0.113972 0.008408
Si Si3 0.494045 0.265642 0.902076
Si Si4 0.226484 0.380944 0.185392
Si Si5 0.867164 0.145173 0.387073
O O1 0.156507 0.425012 0.469034
O O2 0.125160 0.440574 0.359432
O O3 0.011527 0.609353 0.418991
O O4 0.792081 0.434843 0.416380
O O5 0.474226 0.177083 0.063074
O O6 0.450482 0.186777 0.955239
O O7 0.500000 0.000000 0.000000
O O8 0.250000 0.250000 0.872457
O O9 0.750000 0.250000 0.881583
O O10 0.250000 0.250000 0.180833
O O11 0.250000 0.410809 0.250000
O O12 0.992537 0.408496 0.163214
O O13 0.750000 0.250000 0.365311
#
# Coordination Sequence:
#
# PCOD9391178 Si02
#       5
#     8   8   8   8   8
#     4  11  25  43  65  99 140 181 237 296 351 426
#     4  11  24  40  63  96 138 189 239 280 340 415
#     4  12  27  44  66 100 138 194 242 285 341 414
#     4  10  22  44  69 100 133 170 229 303 376 437
#     4  11  23  39  62  97 139 176 224 292 351 422
#
# _framework density 21.537067
#
# number of rings (size 3 to 8) (size 9 to 14) (size 15 to 20)
#    0.000    1.000    4.000    1.800    8.400    2.400 
#    0.000    0.000    0.000    0.600    0.000    0.000 
#    0.000    0.000    0.000    0.000    0.000    0.000 
#
# Total GULP energy -222768.031760 kJ/mol
# GULP energy per Si atom -5569.200794 kJ/mol
# Density = 2.148805 g / cm^3
# Si number density = 21.537067 Si / 1000 Ang^3
#
#
#
# Elastic Constant Matrix: (Units=GPa)
#
#
# Indices 1 2 3 4 5 6 
#
# 1 149.8090 28.1135 28.1954 0.0000 0.0000 0.0000
# 2 28.1135 119.7891 9.6946 0.0000 0.0000 0.0000
# 3 28.1954 9.6946 83.4017 0.0000 0.0000 0.0000
# 4 0.0000 0.0000 0.0000 16.9828 0.0000 0.0000
# 5 0.0000 0.0000 0.0000 0.0000 13.5045 0.0000
# 6 0.0000 0.0000 0.0000 0.0000 0.0000 40.0261
#
#
#
# Elastic Compliance Matrix: (Units=1/GPa)
#
#
# Indices 1 2 3 4 5 6 
#
# 1 0.007403 -0.001549 -0.002323 0.000000 0.000000 0.000000
# 2 -0.001549 0.008752 -0.000493 0.000000 0.000000 0.000000
# 3 -0.002323 -0.000493 0.012833 0.000000 0.000000 0.000000
# 4 0.000000 0.000000 0.000000 0.058883 0.000000 0.000000
# 5 0.000000 0.000000 0.000000 0.000000 0.074049 0.000000
# 6 0.000000 0.000000 0.000000 0.000000 0.000000 0.024984
#
#
# Mechanical properties :
#
#
# Convention : Reuss Voigt Hill
#
# Bulk Modulus (GPa) = 49.36740 53.88965 51.62852
# Shear Modulus (GPa) = 24.70515 33.23575 28.97045
#
# Velocity S-wave (km/s) = 3.39056 3.93261 3.67160
# Velocity P-wave (km/s) = 6.18867 6.75993 6.48060
#
# Compressibility (1/GPa) = 0.02025628
#
# Stress axis : x y z
#
# Youngs Moduli (GPa) = 135.07881 114.26496 77.92575
#
# Poissons Ratio (x) = 0.17705 0.18099
# Poissons Ratio (y) = 0.20930 0.03845
# Poissons Ratio (z) = 0.31374 0.05638
#
# Static dielectric constant tensor:
#      x y z
#    x -0.737720 0.000000 0.000000 
#    y 0.000000 1.628380 0.000000 
#    z 0.000000 0.000000 1.756920 
# 
# From -- ./inp_files/36985.got.cif
#   From: 2010.05.17/outbox.cif.g08.bks.cpg/sg48_19_cif.got.tgz:36985.got - 2010.06.03 20:39:00.
