data_PCOD9391487
_publ_section_title
;
Structure prediction by ZEFSAII (Michael W. Deem and Ramdas Pophale) SiO2 
 PCOD9391487
Probable space group: P N N N
;
_chemical_formula_sum "Si O2"
_cell_formula_units_Z 24
_cell_length_a 8.432304
_cell_length_b 4.745277
_cell_length_c 23.187321
_cell_angle_alpha 90.000000
_cell_angle_beta 90.000000
_cell_angle_gamma 90.000000
_cell_volume 927.808610
_symmetry_space_group_name_H-M "P N N N"
_symmetry_group_IT_number 48
_space_group.IT_coordinate_system_code '2'
_symmetry_cell_setting 'orthorhombic'
loop_
_space_group_symop_operation_xyz
x,y,z
1/2-x,1/2-y,z
x,1/2-y,1/2-z
1/2-x,y,1/2-z
-x,-y,-z
1/2+x,1/2+y,-z
-x,1/2+y,1/2+z
1/2+x,-y,1/2+z
loop_
_atom_site_type_symbol
_atom_site_label
_atom_site_fract_x
_atom_site_fract_y
_atom_site_fract_z
Si Si1 0.750000 0.250000 0.250000
Si Si2 0.250000 0.750000 0.493643
Si Si3 0.000904 0.976036 0.662919
Si Si4 0.250000 0.750000 0.250000
Si Si5 0.750000 0.750000 0.422292
Si Si6 0.750000 0.750000 0.592654
O O1 0.637739 0.415392 0.292168
O O2 0.186242 0.514527 0.539210
O O3 0.302506 0.513094 0.446878
O O4 0.100547 0.145009 0.614745
O O5 0.865067 0.096580 0.704561
O O6 0.906492 0.717874 0.632126
#
# Coordination Sequence:
#
# PCOD9391487 Si02
#       6
#     2   4   8   2   4   4
#     4  12  26  48  76 112 152 200 254 314 380 454
#     4  10  26  48  76 112 152 200 254 314 380 454
#     4  12  26  47  78 112 154 201 254 316 382 456
#     4  12  26  48  76 112 152 200 254 314 380 454
#     4  11  26  47  78 112 154 199 254 313 382 454
#     4  11  26  47  78 112 154 199 254 313 382 454
#
# _framework density 25.867405000000002
#
# number of rings (size 3 to 8) (size 9 to 14) (size 15 to 20)
#    0.000    0.667    0.000    6.000    0.000   16.000 
#    0.000    0.000    0.000    0.000    0.000    0.000 
#    0.000    0.000    0.000    0.000    0.000    0.000 
#
# Total GULP energy -133640.686008 kJ/mol
# GULP energy per Si atom -5568.361917 kJ/mol
# Density = 2.580853 g / cm^3
# Si number density = 25.867405 Si / 1000 Ang^3
#
#
#
# Elastic Constant Matrix: (Units=GPa)
#
#
# Indices 1 2 3 4 5 6 
#
# 1 200.1518 51.7288 92.2215 0.0000 0.0000 0.0000
# 2 51.7288 108.8820 59.6304 0.0000 0.0000 0.0000
# 3 92.2215 59.6304 152.4293 0.0000 0.0000 0.0000
# 4 0.0000 0.0000 0.0000 24.6564 0.0000 0.0000
# 5 0.0000 0.0000 0.0000 0.0000 -61.5604 0.0000
# 6 0.0000 0.0000 0.0000 0.0000 0.0000 61.7914
#
#
#
# Elastic Compliance Matrix: (Units=1/GPa)
#
#
# Indices 1 2 3 4 5 6 
#
# 1 0.007067 -0.001293 -0.003770 0.000000 0.000000 0.000000
# 2 -0.001293 0.011925 -0.003883 0.000000 0.000000 0.000000
# 3 -0.003770 -0.003883 0.010360 0.000000 0.000000 0.000000
# 4 0.000000 0.000000 0.000000 0.040557 0.000000 0.000000
# 5 0.000000 0.000000 0.000000 0.000000 -0.016244 0.000000
# 6 0.000000 0.000000 0.000000 0.000000 0.000000 0.016183
#
#
# Mechanical properties :
#
#
# Convention : Reuss Voigt Hill
#
# Bulk Modulus (GPa) = 87.25190 96.51383 91.88287
# Shear Modulus (GPa) = 54.60807 22.16963 38.38885
#
# Velocity S-wave (km/s) = 4.59963 2.93072 3.85653
# Velocity P-wave (km/s) = 7.87480 6.98886 7.44502
#
# Compressibility (1/GPa) = 0.01146107
#
# Stress axis : x y z
#
# Youngs Moduli (GPa) = 141.49330 83.85755 96.52204
#
# Poissons Ratio (x) = 0.10842 0.36390
# Poissons Ratio (y) = 0.18294 0.37478
# Poissons Ratio (z) = 0.53344 0.32560
#
# Static dielectric constant tensor:
#      x y z
#    x 1.926980 0.000000 0.000000 
#    y 0.000000 2.051030 0.000000 
#    z 0.000000 0.000000 2.133130 
# 
# From -- ./inp_files/35596.got.cif
#   From: 2010.05.17/outbox.cif.g08.bks.cpg/sg48_18_cif.got.tgz:35596.got - 2010.06.03 20:39:00.
