data_PCOD9391958
_publ_section_title
;
Structure prediction by ZEFSAII (Michael W. Deem and Ramdas Pophale) SiO2 
 PCOD9391958
Probable space group: P N N N
;
_chemical_formula_sum "Si O2"
_cell_formula_units_Z 58
_cell_length_a 27.000000
_cell_length_b 6.000000
_cell_length_c 18.000000
_cell_angle_alpha 90.000000
_cell_angle_beta 90.000000
_cell_angle_gamma 90.000000
_cell_volume 2916.000000
_symmetry_space_group_name_H-M "P N N N"
_symmetry_group_IT_number 48
_space_group.IT_coordinate_system_code '2'
_symmetry_cell_setting 'orthorhombic'
loop_
_space_group_symop_operation_xyz
x,y,z
1/2-x,1/2-y,z
x,1/2-y,1/2-z
1/2-x,y,1/2-z
-x,-y,-z
1/2+x,1/2+y,-z
-x,1/2+y,1/2+z
1/2+x,-y,1/2+z
loop_
_atom_site_type_symbol
_atom_site_label
_atom_site_fract_x
_atom_site_fract_y
_atom_site_fract_z
Si Si1 0.914777 0.005815 0.783885
Si Si2 0.250000 0.750000 0.250000
Si Si3 0.038032 0.349750 0.045588
Si Si4 0.596467 0.508622 0.062931
Si Si5 0.518453 0.393325 0.177054
Si Si6 0.818917 0.045516 0.872379
Si Si7 0.694787 0.780504 0.476949
Si Si8 0.130470 0.894017 0.465131
O O1 0.898542 0.250000 0.750000
O O2 0.872960 0.965760 0.846179
O O3 0.917297 0.750000 0.750000
O O4 0.971715 0.051941 0.806267
O O5 0.217222 0.908701 0.196305
O O6 0.085513 0.483575 0.076013
O O7 0.005999 0.253687 0.111988
O O8 0.063793 0.169131 0.990829
O O9 0.000000 0.500000 0.000000
O O10 0.567068 0.496375 0.139783
O O11 0.653947 0.580422 0.068575
O O12 0.602137 0.277673 0.018662
O O13 0.530197 0.250000 0.250000
O O14 0.831847 0.281612 0.908779
O O15 0.800817 0.893231 0.940640
O O16 0.750000 0.750000 0.447184
O O17 0.665195 0.552546 0.487269
#
# Coordination Sequence:
#
# PCOD9391958 Si02
#       8
#     8   2   8   8   8   8   8   8
#     4  11  26  42  60  90 137 185 228 271 341 415
#     4  12  24  40  58  88 134 180 224 296 332 396
#     4  11  22  37  66  91 132 178 222 268 335 410
#     4  10  22  40  61  94 126 169 218 276 335 416
#     4  11  24  39  61  99 133 177 219 277 343 409
#     4  11  24  38  60  86 125 175 230 277 335 392
#     4  10  22  40  64  91 117 162 222 284 339 405
#     4  10  21  39  61  88 124 161 223 270 326 399
#
# _framework density 19.890260999999999
#
# number of rings (size 3 to 8) (size 9 to 14) (size 15 to 20)
#    0.000    1.379    2.069    3.724    7.724    2.759 
#    0.000    0.690    0.000    0.000    0.000    2.897 
#    0.000    0.000    0.000    0.000    0.000    0.000 
#
# Total GULP energy -323251.211888 kJ/mol
# GULP energy per Si atom -5573.296757 kJ/mol
# Density = 1.984499 g / cm^3
# Si number density = 19.890261 Si / 1000 Ang^3
#
#
#
# Elastic Constant Matrix: (Units=GPa)
#
#
# Indices 1 2 3 4 5 6 
#
# 1 130.2063 27.8018 28.4873 0.0000 0.0000 0.0000
# 2 27.8018 68.3492 10.2929 0.0000 0.0000 0.0000
# 3 28.4873 10.2929 57.6594 0.0000 0.0000 0.0000
# 4 0.0000 0.0000 0.0000 19.4691 0.0000 0.0000
# 5 0.0000 0.0000 0.0000 0.0000 40.6345 0.0000
# 6 0.0000 0.0000 0.0000 0.0000 0.0000 15.5242
#
#
#
# Elastic Compliance Matrix: (Units=1/GPa)
#
#
# Indices 1 2 3 4 5 6 
#
# 1 0.009227 -0.003152 -0.003996 0.000000 0.000000 0.000000
# 2 -0.003152 0.016111 -0.001319 0.000000 0.000000 0.000000
# 3 -0.003996 -0.001319 0.019553 0.000000 0.000000 0.000000
# 4 0.000000 0.000000 0.000000 0.051364 0.000000 0.000000
# 5 0.000000 0.000000 0.000000 0.000000 0.024610 0.000000
# 6 0.000000 0.000000 0.000000 0.000000 0.000000 0.064416
#
#
# Mechanical properties :
#
#
# Convention : Reuss Voigt Hill
#
# Bulk Modulus (GPa) = 35.76783 43.26434 39.51608
# Shear Modulus (GPa) = 23.63688 27.76773 25.70230
#
# Velocity S-wave (km/s) = 3.45101 3.74042 3.59863
# Velocity P-wave (km/s) = 5.82245 6.36028 6.09729
#
# Compressibility (1/GPa) = 0.02795808
#
# Stress axis : x y z
#
# Youngs Moduli (GPa) = 108.37318 62.06818 51.14274
#
# Poissons Ratio (x) = 0.19561 0.20438
# Poissons Ratio (y) = 0.34154 0.06746
# Poissons Ratio (z) = 0.43309 0.08187
#
# Static dielectric constant tensor:
#      x y z
#    x 1.705860 0.000000 0.000000 
#    y 0.000000 1.766870 0.000000 
#    z 0.000000 0.000000 1.727280 
# 
# From -- ./inp_files/32417.got.cif
#   From: 2010.05.17/outbox.ucp.g08.bks.cvg/sg48_17_cif.got.tgz:32417.got - 2010.06.11 16:38:40.
