data_PCOD9391701
_publ_section_title
;
Structure prediction by ZEFSAII (Michael W. Deem and Ramdas Pophale) SiO2 
 PCOD9391701
Probable space group: P N N N
;
_chemical_formula_sum "Si O2"
_cell_formula_units_Z 48
_cell_length_a 15.240929
_cell_length_b 9.158227
_cell_length_c 15.292493
_cell_angle_alpha 90.000000
_cell_angle_beta 90.000000
_cell_angle_gamma 90.000000
_cell_volume 2134.524452
_symmetry_space_group_name_H-M "P N N N"
_symmetry_group_IT_number 48
_space_group.IT_coordinate_system_code '2'
_symmetry_cell_setting 'orthorhombic'
loop_
_space_group_symop_operation_xyz
x,y,z
1/2-x,1/2-y,z
x,1/2-y,1/2-z
1/2-x,y,1/2-z
-x,-y,-z
1/2+x,1/2+y,-z
-x,1/2+y,1/2+z
1/2+x,-y,1/2+z
loop_
_atom_site_type_symbol
_atom_site_label
_atom_site_fract_x
_atom_site_fract_y
_atom_site_fract_z
Si Si1 0.478596 0.052803 0.172025
Si Si2 0.250000 0.250000 0.750000
Si Si3 0.750000 0.750000 0.750000
Si Si4 0.671444 0.966911 0.112227
Si Si5 0.407087 0.738633 0.407036
Si Si6 0.250000 0.750000 0.544901
Si Si7 0.112895 0.046533 0.154779
Si Si8 0.415021 0.249627 0.016365
O O1 0.465567 0.076177 0.275158
O O2 0.441640 0.176449 0.108310
O O3 0.578100 0.033407 0.140828
O O4 0.421562 0.910781 0.145169
O O5 0.304338 0.144460 0.811858
O O6 0.807739 0.859102 0.807534
O O7 0.741305 0.097885 0.098769
O O8 0.653772 0.860865 0.028601
O O9 0.334962 0.733250 0.483108
O O10 0.502344 0.762495 0.451973
O O11 0.379542 0.872673 0.346701
O O12 0.108815 0.091312 0.052237
#
# Coordination Sequence:
#
# PCOD9391701 Si02
#       8
#     8   2   2   8   8   4   8   8
#     4  11  22  51  70 101 141 192 237 289 347 431
#     4  12  32  48  72 112 138 184 228 316 354 390
#     4  12  28  42  58 108 152 176 222 304 374 396
#     4  11  27  48  75 100 146 185 236 293 357 417
#     4  11  25  41  72 105 133 186 243 289 347 425
#     4  12  24  45  73 106 140 180 230 294 359 417
#     4  12  27  42  71 101 143 187 234 291 355 429
#     4  11  22  49  71 101 136 193 239 282 348 432
#
# _framework density 22.487442999999999
#
# number of rings (size 3 to 8) (size 9 to 14) (size 15 to 20)
#    0.000    0.667    5.000    2.000   11.667    1.667 
#    3.000    0.000    0.000    0.000    0.000    0.000 
#    0.000    0.000    0.000    0.000    0.000    0.000 
#
# Total GULP energy -268100.799774 kJ/mol
# GULP energy per Si atom -5585.433329 kJ/mol
# Density = 2.243626 g / cm^3
# Si number density = 22.487443 Si / 1000 Ang^3
#
#
#
# Elastic Constant Matrix: (Units=GPa)
#
#
# Indices 1 2 3 4 5 6 
#
# 1 55.1304 28.6361 10.8723 0.0000 0.0000 0.0000
# 2 28.6361 114.8444 32.3200 0.0000 0.0000 0.0000
# 3 10.8723 32.3200 94.1999 0.0000 0.0000 0.0000
# 4 0.0000 0.0000 0.0000 61.7112 0.0000 0.0000
# 5 0.0000 0.0000 0.0000 0.0000 -5.3140 0.0000
# 6 0.0000 0.0000 0.0000 0.0000 0.0000 18.9947
#
#
#
# Elastic Compliance Matrix: (Units=1/GPa)
#
#
# Indices 1 2 3 4 5 6 
#
# 1 0.020878 -0.005012 -0.000690 0.000000 0.000000 0.000000
# 2 -0.005012 0.010841 -0.003141 0.000000 0.000000 0.000000
# 3 -0.000690 -0.003141 0.011773 0.000000 0.000000 0.000000
# 4 0.000000 0.000000 0.000000 0.016205 0.000000 0.000000
# 5 0.000000 0.000000 0.000000 0.000000 -0.188181 0.000000
# 6 0.000000 0.000000 0.000000 0.000000 0.000000 0.052646
#
#
# Mechanical properties :
#
#
# Convention : Reuss Voigt Hill
#
# Bulk Modulus (GPa) = 38.75021 45.31462 42.03242
# Shear Modulus (GPa) = -100.90835 27.90147 -36.50344
#
# Velocity S-wave (km/s) = -6.70601 3.52626 -4.03337
# Velocity P-wave (km/s) = 6.53387 6.06417 1.72007
#
# Compressibility (1/GPa) = 0.02580631
#
# Stress axis : x y z
#
# Youngs Moduli (GPa) = 47.89703 92.24185 84.93932
#
# Poissons Ratio (x) = 0.46228 0.05862
# Poissons Ratio (y) = 0.24004 0.26681
# Poissons Ratio (z) = 0.03306 0.28974
#
# Static dielectric constant tensor:
#      x y z
#    x 1.952810 0.000000 0.000000 
#    y 0.000000 1.924260 0.000000 
#    z 0.000000 0.000000 1.839420 
# 
# From -- ./inp_files/27937.got.cif
#   From: 2010.05.17/outbox.cif.g08.bks.cpg/sg48_14_cif.got.tgz:27937.got - 2010.06.03 20:39:00.
