data_PCOD9391087
_publ_section_title
;
Structure prediction by ZEFSAII (Michael W. Deem and Ramdas Pophale) SiO2 
 PCOD9391087
Probable space group: P N N N
;
_chemical_formula_sum "Si O2"
_cell_formula_units_Z 28
_cell_length_a 5.246330
_cell_length_b 19.563350
_cell_length_c 12.098792
_cell_angle_alpha 90.000000
_cell_angle_beta 90.000000
_cell_angle_gamma 90.000000
_cell_volume 1241.769075
_symmetry_space_group_name_H-M "P N N N"
_symmetry_group_IT_number 48
_space_group.IT_coordinate_system_code '2'
_symmetry_cell_setting 'orthorhombic'
loop_
_space_group_symop_operation_xyz
x,y,z
1/2-x,1/2-y,z
x,1/2-y,1/2-z
1/2-x,y,1/2-z
-x,-y,-z
1/2+x,1/2+y,-z
-x,1/2+y,1/2+z
1/2+x,-y,1/2+z
loop_
_atom_site_type_symbol
_atom_site_label
_atom_site_fract_x
_atom_site_fract_y
_atom_site_fract_z
Si Si1 0.250000 0.750000 0.250000
Si Si2 0.045946 0.873374 0.849614
Si Si3 0.591437 0.819275 0.428832
Si Si4 0.750000 0.987477 0.750000
Si Si5 0.750000 0.919127 0.250000
Si Si6 0.750000 0.750000 0.750000
O O1 0.416745 0.794907 0.329713
O O2 0.250000 0.888285 0.750000
O O3 0.832491 0.932881 0.844829
O O4 0.927832 0.801185 0.815222
O O5 0.085252 0.856329 0.978617
O O6 0.750000 0.750000 0.463229
O O7 0.759105 0.874811 0.363290
O O8 0.502320 0.034395 0.757650
#
# Coordination Sequence:
#
# PCOD9391087 Si02
#       6
#     2   8   8   4   4   2
#     4  12  24  44  72 122 146 190 264 322 420 448
#     4  11  25  48  72 114 153 200 262 316 397 467
#     4  12  26  47  78 113 153 204 262 336 394 464
#     4  11  27  51  75 112 158 210 266 308 397 475
#     4  12  25  52  76 111 162 208 262 322 384 479
#     4  10  22  40  70 104 146 186 242 322 368 454
#
# _framework density 22.548476999999998
#
# number of rings (size 3 to 8) (size 9 to 14) (size 15 to 20)
#    0.000    0.571    5.714    1.286    4.000    2.286 
#    0.000    0.000    0.000    0.000    0.000    0.000 
#    0.000    0.000    0.000    0.000    0.000    0.000 
#
# Total GULP energy -155907.403202 kJ/mol
# GULP energy per Si atom -5568.121543 kJ/mol
# Density = 2.249716 g / cm^3
# Si number density = 22.548477 Si / 1000 Ang^3
#
#
#
# Elastic Constant Matrix: (Units=GPa)
#
#
# Indices 1 2 3 4 5 6 
#
# 1 109.8572 52.5009 39.8395 0.0000 0.0000 0.0000
# 2 52.5009 142.4938 35.4518 0.0000 0.0000 0.0000
# 3 39.8395 35.4518 144.4486 0.0000 0.0000 0.0000
# 4 0.0000 0.0000 0.0000 20.8121 0.0000 0.0000
# 5 0.0000 0.0000 0.0000 0.0000 84.3099 0.0000
# 6 0.0000 0.0000 0.0000 0.0000 0.0000 -148.0602
#
#
#
# Elastic Compliance Matrix: (Units=1/GPa)
#
#
# Indices 1 2 3 4 5 6 
#
# 1 0.011733 -0.003747 -0.002317 0.000000 0.000000 0.000000
# 2 -0.003747 0.008671 -0.001095 0.000000 0.000000 0.000000
# 3 -0.002317 -0.001095 0.007830 0.000000 0.000000 0.000000
# 4 0.000000 0.000000 0.000000 0.048049 0.000000 0.000000
# 5 0.000000 0.000000 0.000000 0.000000 0.011861 0.000000
# 6 0.000000 0.000000 0.000000 0.000000 0.000000 -0.006754
#
#
# Mechanical properties :
#
#
# Convention : Reuss Voigt Hill
#
# Bulk Modulus (GPa) = 71.84640 72.48711 72.16676
# Shear Modulus (GPa) = 49.82767 9.34620 29.58694
#
# Velocity S-wave (km/s) = 4.70595 2.03812 3.62629
# Velocity P-wave (km/s) = 7.83966 6.14456 7.04329
#
# Compressibility (1/GPa) = 0.01391858
#
# Stress axis : x y z
#
# Youngs Moduli (GPa) = 85.22687 115.33155 127.70648
#
# Poissons Ratio (x) = 0.43212 0.29584
# Poissons Ratio (y) = 0.31932 0.13980
# Poissons Ratio (z) = 0.19743 0.12625
#
# Static dielectric constant tensor:
#      x y z
#    x 2.035670 0.000000 0.000000 
#    y 0.000000 2.248080 0.000000 
#    z 0.000000 0.000000 1.970120 
# 
# From -- ./inp_files/1880.got.cif
#   From: 2010.05.17/outbox.cif.g08.bks.cpg/sg48_1_cif.got.tgz:1880.got - 2010.06.03 20:39:00.
