data_PCOD9391913
_publ_section_title
;
Structure prediction by ZEFSAII (Michael W. Deem and Ramdas Pophale) SiO2 
 PCOD9391913
Probable space group: P N N N
;
_chemical_formula_sum "Si O2"
_cell_formula_units_Z 26
_cell_length_a 8.815684
_cell_length_b 23.516675
_cell_length_c 4.962414
_cell_angle_alpha 90.000000
_cell_angle_beta 90.000000
_cell_angle_gamma 90.000000
_cell_volume 1028.785714
_symmetry_space_group_name_H-M "P N N N"
_symmetry_group_IT_number 48
_space_group.IT_coordinate_system_code '2'
_symmetry_cell_setting 'orthorhombic'
loop_
_space_group_symop_operation_xyz
x,y,z
1/2-x,1/2-y,z
x,1/2-y,1/2-z
1/2-x,y,1/2-z
-x,-y,-z
1/2+x,1/2+y,-z
-x,1/2+y,1/2+z
1/2+x,-y,1/2+z
loop_
_atom_site_type_symbol
_atom_site_label
_atom_site_fract_x
_atom_site_fract_y
_atom_site_fract_z
Si Si1 0.928799 0.455528 0.795352
Si Si2 0.859173 0.614193 0.504247
Si Si3 0.907120 0.158908 0.378296
Si Si4 0.250000 0.750000 0.250000
O O1 0.750000 0.463811 0.750000
O O2 0.039660 0.442312 0.545051
O O3 0.948018 0.392165 0.924439
O O4 0.000000 0.500000 0.000000
O O5 0.750000 0.628876 0.250000
O O6 0.970438 0.662034 0.637113
O O7 0.750000 0.600282 0.750000
O O8 0.750000 0.139219 0.250000
O O9 0.858301 0.212874 0.555394
#
# Coordination Sequence:
#
# PCOD9391913 Si02
#       4
#     8   8   8   2
#     4  12  28  51  83 129 180 238 292 362 442 540
#     4  12  27  51  83 126 183 225 289 367 438 534
#     4  12  25  52  88 131 171 228 312 365 442 533
#     4  12  26  52  96 136 156 242 314 390 430 546
#
# _framework density 25.272513
#
# number of rings (size 3 to 8) (size 9 to 14) (size 15 to 20)
#    0.000    0.000    7.692    0.462    4.308    2.462 
#    0.000    1.538    0.000   25.846    0.000    0.000 
#    0.000    0.000    0.000    0.000    0.000    0.000 
#
# Total GULP energy -145532.036809 kJ/mol
# GULP energy per Si atom -5597.386031 kJ/mol
# Density = 2.521499 g / cm^3
# Si number density = 25.272513 Si / 1000 Ang^3
#
#
#
# Elastic Constant Matrix: (Units=GPa)
#
#
# Indices 1 2 3 4 5 6 
#
# 1 243.4512 56.5787 102.8290 0.0000 0.0000 0.0000
# 2 56.5787 133.8271 53.1230 0.0000 0.0000 0.0000
# 3 102.8290 53.1230 172.3782 0.0000 0.0000 0.0000
# 4 0.0000 0.0000 0.0000 9.1182 0.0000 0.0000
# 5 0.0000 0.0000 0.0000 0.0000 -59.7487 0.0000
# 6 0.0000 0.0000 0.0000 0.0000 0.0000 6.4247
#
#
#
# Elastic Compliance Matrix: (Units=1/GPa)
#
#
# Indices 1 2 3 4 5 6 
#
# 1 0.005655 -0.001198 -0.003004 0.000000 0.000000 0.000000
# 2 -0.001198 0.008768 -0.001987 0.000000 0.000000 0.000000
# 3 -0.003004 -0.001987 0.008206 0.000000 0.000000 0.000000
# 4 0.000000 0.000000 0.000000 0.109671 0.000000 0.000000
# 5 0.000000 0.000000 0.000000 0.000000 -0.016737 0.000000
# 6 0.000000 0.000000 0.000000 0.000000 0.000000 0.155649
#
#
# Mechanical properties :
#
#
# Convention : Reuss Voigt Hill
#
# Bulk Modulus (GPa) = 97.56850 108.30198 102.93524
# Shear Modulus (GPa) = 17.42116 13.63389 15.52752
#
# Velocity S-wave (km/s) = 2.62836 2.32518 2.48141
# Velocity P-wave (km/s) = 6.92109 7.08204 7.00203
#
# Compressibility (1/GPa) = 0.01024921
#
# Stress axis : x y z
#
# Youngs Moduli (GPa) = 176.83637 114.05423 121.86759
#
# Poissons Ratio (x) = 0.13667 0.36610
# Poissons Ratio (y) = 0.21190 0.24218
# Poissons Ratio (z) = 0.53123 0.22665
#
# Static dielectric constant tensor:
#      x y z
#    x 2.079150 0.000000 0.000000 
#    y 0.000000 2.125460 0.000000 
#    z 0.000000 0.000000 2.574240 
# 
# From -- ./inp_files/918.got.cif
#   From: 2010.05.17/outbox.cif.g08.bks.cpg/sg48_1_cif.got.tgz:918.got - 2010.06.03 20:39:00.
