data_PCOD9391886
_publ_section_title
;
Structure prediction by ZEFSAII (Michael W. Deem and Ramdas Pophale) SiO2 
 PCOD9391886
Probable space group: P N N N
;
_chemical_formula_sum "Si O2"
_cell_formula_units_Z 34
_cell_length_a 32.077092
_cell_length_b 9.663579
_cell_length_c 5.031865
_cell_angle_alpha 90.000000
_cell_angle_beta 90.000000
_cell_angle_gamma 90.000000
_cell_volume 1559.775060
_symmetry_space_group_name_H-M "P N N N"
_symmetry_group_IT_number 48
_space_group.IT_coordinate_system_code '2'
_symmetry_cell_setting 'orthorhombic'
loop_
_space_group_symop_operation_xyz
x,y,z
1/2-x,1/2-y,z
x,1/2-y,1/2-z
1/2-x,y,1/2-z
-x,-y,-z
1/2+x,1/2+y,-z
-x,1/2+y,1/2+z
1/2+x,-y,1/2+z
loop_
_atom_site_type_symbol
_atom_site_label
_atom_site_fract_x
_atom_site_fract_y
_atom_site_fract_z
Si Si1 0.205929 0.478970 0.632795
Si Si2 0.905396 0.250000 0.750000
Si Si3 0.408106 0.250000 0.250000
Si Si4 0.530623 0.497686 0.750243
Si Si5 0.250000 0.250000 0.250000
Si Si6 0.347076 0.750000 0.750000
Si Si7 0.149092 0.250000 0.750000
O O1 0.250000 0.522001 0.750000
O O2 0.220723 0.361016 0.413664
O O3 0.180045 0.622758 0.623082
O O4 0.177431 0.382006 0.817216
O O5 0.937154 0.125792 0.801771
O O6 0.876753 0.209779 0.497439
O O7 0.438727 0.375530 0.299294
O O8 0.379330 0.215326 0.500039
O O9 0.500000 0.500000 0.500000
O O10 0.500000 0.500000 0.000000
#
# Coordination Sequence:
#
# PCOD9391886 Si02
#       7
#     8   4   4   8   2   4   4
#     4  12  26  47  73 109 144 205 255 323 381 463
#     4  12  26  49  69 110 151 196 243 310 391 455
#     4  12  25  41  67 104 131 182 237 292 367 443
#     4  12  24  44  71 101 140 188 239 299 362 453
#     4  12  24  48  82 106 154 196 284 320 392 460
#     4  12  29  47  74 108 158 200 247 323 390 463
#     4  12  23  43  70 100 141 182 241 310 366 435
#
# _framework density 21.798013999999998
#
# number of rings (size 3 to 8) (size 9 to 14) (size 15 to 20)
#    0.000    0.000    2.353    8.118    3.294    0.000 
#    0.000    0.000    0.000    0.000    0.000    0.000 
#    0.000    0.000    0.000    0.000    0.000    0.000 
#
# Total GULP energy -189630.709690 kJ/mol
# GULP energy per Si atom -5577.373814 kJ/mol
# Density = 2.174840 g / cm^3
# Si number density = 21.798014 Si / 1000 Ang^3
#
#
#
# Elastic Constant Matrix: (Units=GPa)
#
#
# Indices 1 2 3 4 5 6 
#
# 1 159.9639 47.4803 49.3623 0.0000 0.0000 0.0000
# 2 47.4803 121.3646 -7.4419 0.0000 0.0000 0.0000
# 3 49.3623 -7.4419 120.1090 0.0000 0.0000 0.0000
# 4 0.0000 0.0000 0.0000 19.1695 0.0000 0.0000
# 5 0.0000 0.0000 0.0000 0.0000 28.0219 0.0000
# 6 0.0000 0.0000 0.0000 0.0000 0.0000 36.4352
#
#
#
# Elastic Compliance Matrix: (Units=1/GPa)
#
#
# Indices 1 2 3 4 5 6 
#
# 1 0.008435 -0.003526 -0.003685 0.000000 0.000000 0.000000
# 2 -0.003526 0.009745 0.002053 0.000000 0.000000 0.000000
# 3 -0.003685 0.002053 0.009967 0.000000 0.000000 0.000000
# 4 0.000000 0.000000 0.000000 0.052166 0.000000 0.000000
# 5 0.000000 0.000000 0.000000 0.000000 0.035686 0.000000
# 6 0.000000 0.000000 0.000000 0.000000 0.000000 0.027446
#
#
# Mechanical properties :
#
#
# Convention : Reuss Voigt Hill
#
# Bulk Modulus (GPa) = 56.08166 64.47100 60.27633
# Shear Modulus (GPa) = 31.30747 37.52777 34.41762
#
# Velocity S-wave (km/s) = 3.79390 4.15374 3.97789
# Velocity P-wave (km/s) = 6.70637 7.25572 6.98644
#
# Compressibility (1/GPa) = 0.01783114
#
# Stress axis : x y z
#
# Youngs Moduli (GPa) = 118.55139 102.61730 100.32624
#
# Poissons Ratio (x) = 0.36183 0.36972
# Poissons Ratio (y) = 0.41801 -0.20596
# Poissons Ratio (z) = 0.43688 -0.21066
#
# Static dielectric constant tensor:
#      x y z
#    x 1.694180 0.000000 0.000000 
#    y 0.000000 1.756490 0.000000 
#    z 0.000000 0.000000 1.826440 
# 
# From -- ./inp_files/6872.got.cif
#   From: 2010.05.17/outbox.cif.g08.bks.cpg/sg48_4_cif.got.tgz:6872.got - 2010.06.03 20:39:00.
