data_PCOD9391707
_publ_section_title
;
Structure prediction by ZEFSAII (Michael W. Deem and Ramdas Pophale) SiO2 
 PCOD9391707
Probable space group: P N N N
;
_chemical_formula_sum "Si O2"
_cell_formula_units_Z 64
_cell_length_a 10.769654
_cell_length_b 31.413143
_cell_length_c 8.265225
_cell_angle_alpha 90.000000
_cell_angle_beta 90.000000
_cell_angle_gamma 90.000000
_cell_volume 2796.197369
_symmetry_space_group_name_H-M "P N N N"
_symmetry_group_IT_number 48
_space_group.IT_coordinate_system_code '2'
_symmetry_cell_setting 'orthorhombic'
loop_
_space_group_symop_operation_xyz
x,y,z
1/2-x,1/2-y,z
x,1/2-y,1/2-z
1/2-x,y,1/2-z
-x,-y,-z
1/2+x,1/2+y,-z
-x,1/2+y,1/2+z
1/2+x,-y,1/2+z
loop_
_atom_site_type_symbol
_atom_site_label
_atom_site_fract_x
_atom_site_fract_y
_atom_site_fract_z
Si Si1 0.022669 0.667736 0.853598
Si Si2 0.029030 0.163247 0.005147
Si Si3 0.710089 0.906339 0.567896
Si Si4 0.398613 0.357763 0.665161
Si Si5 0.374732 0.577640 0.306242
Si Si6 0.085043 0.012125 0.146628
Si Si7 0.387576 0.570902 0.675883
Si Si8 0.242133 0.800608 0.056095
O O1 0.059144 0.618785 0.815263
O O2 0.957640 0.683988 0.687266
O O3 0.151512 0.684084 0.931698
O O4 0.932778 0.670488 0.009026
O O5 0.103127 0.170821 0.831804
O O6 0.886042 0.175075 0.981370
O O7 0.077281 0.115074 0.032706
O O8 0.750000 0.892175 0.750000
O O9 0.795196 0.888846 0.420659
O O10 0.694698 0.956980 0.583075
O O11 0.511424 0.390003 0.703560
O O12 0.250000 0.600622 0.250000
O O13 0.381356 0.533794 0.211871
O O14 0.366440 0.563307 0.488947
O O15 0.995970 0.039709 0.263180
O O16 0.000000 0.000000 0.000000
O O17 0.250000 0.567026 0.750000
O O18 0.250000 0.750000 0.030554
O O19 0.250000 0.805754 0.250000
#
# Coordination Sequence:
#
# PCOD9391707 Si02
#       8
#     8   8   8   8   8   8   8   8
#     4  11  23  41  71 105 146 181 239 295 355 434
#     4  12  23  42  74 104 142 191 239 288 359 442
#     4  12  24  46  69  99 144 196 259 312 363 446
#     4  11  25  43  68 104 137 192 249 303 363 437
#     4  11  25  39  61  88 130 174 238 306 375 428
#     4  12  25  42  63  93 132 185 243 313 377 437
#     4  11  23  39  61  91 128 178 229 298 361 431
#     4  11  25  46  78 120 157 187 225 295 371 445
#
# _framework density 22.888227000000001
#
# number of rings (size 3 to 8) (size 9 to 14) (size 15 to 20)
#    0.000    0.625    3.750    4.500    5.250    3.000 
#    0.000    0.000    0.000    0.750    0.000    0.000 
#    0.000    0.000    0.000    0.000    0.000    0.000 
#
# Total GULP energy -356475.209679 kJ/mol
# GULP energy per Si atom -5569.925151 kJ/mol
# Density = 2.283613 g / cm^3
# Si number density = 22.888227 Si / 1000 Ang^3
#
#
#
# Elastic Constant Matrix: (Units=GPa)
#
#
# Indices 1 2 3 4 5 6 
#
# 1 72.7083 26.0419 41.1174 0.0000 0.0000 0.0000
# 2 26.0419 57.5864 15.0280 0.0000 0.0000 0.0000
# 3 41.1174 15.0280 201.5115 0.0000 0.0000 0.0000
# 4 0.0000 0.0000 0.0000 17.4761 0.0000 0.0000
# 5 0.0000 0.0000 0.0000 0.0000 54.4646 0.0000
# 6 0.0000 0.0000 0.0000 0.0000 0.0000 3.5046
#
#
#
# Elastic Compliance Matrix: (Units=1/GPa)
#
#
# Indices 1 2 3 4 5 6 
#
# 1 0.018192 -0.007402 -0.003160 0.000000 0.000000 0.000000
# 2 -0.007402 0.020722 -0.000035 0.000000 0.000000 0.000000
# 3 -0.003160 -0.000035 0.005610 0.000000 0.000000 0.000000
# 4 0.000000 0.000000 0.000000 0.057221 0.000000 0.000000
# 5 0.000000 0.000000 0.000000 0.000000 0.018361 0.000000
# 6 0.000000 0.000000 0.000000 0.000000 0.000000 0.285341
#
#
# Mechanical properties :
#
#
# Convention : Reuss Voigt Hill
#
# Bulk Modulus (GPa) = 42.86444 55.13120 48.99782
# Shear Modulus (GPa) = 11.50969 31.73032 21.62000
#
# Velocity S-wave (km/s) = 2.24490 3.72737 3.07675
# Velocity P-wave (km/s) = 5.04854 6.53175 5.83745
#
# Compressibility (1/GPa) = 0.02332936
#
# Stress axis : x y z
#
# Youngs Moduli (GPa) = 54.96993 48.25845 178.25721
#
# Poissons Ratio (x) = 0.35721 0.56328
# Poissons Ratio (y) = 0.40689 0.00624
# Poissons Ratio (z) = 0.17370 0.00169
#
# Static dielectric constant tensor:
#      x y z
#    x 1.969010 0.000000 0.000000 
#    y 0.000000 1.792810 0.000000 
#    z 0.000000 0.000000 1.960570 
# 
# From -- ./inp_files/11573.got.cif
#   From: 2010.05.17/outbox.cif.g08.bks.cpg/sg48_6_cif.got.tgz:11573.got - 2010.06.03 20:39:00.
