data_PCOD9391812
_publ_section_title
;
Structure prediction by ZEFSAII (Michael W. Deem and Ramdas Pophale) SiO2 
 PCOD9391812
Probable space group: P N N N
;
_chemical_formula_sum "Si O2"
_cell_formula_units_Z 52
_cell_length_a 20.802995
_cell_length_b 8.885486
_cell_length_c 13.456261
_cell_angle_alpha 90.000000
_cell_angle_beta 90.000000
_cell_angle_gamma 90.000000
_cell_volume 2487.318808
_symmetry_space_group_name_H-M "P N N N"
_symmetry_group_IT_number 48
_space_group.IT_coordinate_system_code '2'
_symmetry_cell_setting 'orthorhombic'
loop_
_space_group_symop_operation_xyz
x,y,z
1/2-x,1/2-y,z
x,1/2-y,1/2-z
1/2-x,y,1/2-z
-x,-y,-z
1/2+x,1/2+y,-z
-x,1/2+y,1/2+z
1/2+x,-y,1/2+z
loop_
_atom_site_type_symbol
_atom_site_label
_atom_site_fract_x
_atom_site_fract_y
_atom_site_fract_z
Si Si1 0.902874 0.807109 0.491519
Si Si2 0.811450 0.441838 0.070925
Si Si3 0.886463 0.197510 0.973278
Si Si4 0.750000 0.750000 0.750000
Si Si5 0.250000 0.750000 0.750000
Si Si6 0.494604 0.807696 0.640289
Si Si7 0.499811 0.662073 0.152227
Si Si8 0.801064 0.915234 0.940068
O O1 0.941279 0.694904 0.420453
O O2 0.836610 0.732533 0.522102
O O3 0.951360 0.799641 0.587074
O O4 0.877492 0.956826 0.434441
O O5 0.790733 0.361013 0.175151
O O6 0.829288 0.309502 0.995336
O O7 0.752161 0.529100 0.019520
O O8 0.936654 0.245167 0.889599
O O9 0.854818 0.042912 0.941571
O O10 0.931328 0.189419 0.071206
O O11 0.781431 0.866964 0.828963
O O12 0.480764 0.750000 0.750000
O O13 0.513753 0.983962 0.651443
O O14 0.517523 0.750000 0.250000
#
# Coordination Sequence:
#
# PCOD9391812 Si02
#       8
#     8   8   8   2   2   8   8   8
#     4  11  24  46  72  99 146 182 237 303 353 419
#     4  12  27  44  75 104 142 192 238 298 355 436
#     4  11  24  46  69  96 150 180 228 307 354 417
#     4  12  28  40  82 104 136 196 246 288 378 426
#     4  12  28  48  74 108 144 200 242 288 386 414
#     4  11  25  42  73 103 140 193 235 292 364 429
#     4  11  25  42  68 105 139 189 239 297 357 427
#     4  12  23  48  70 103 140 188 240 297 358 425
#
# _framework density 20.906044999999999
#
# number of rings (size 3 to 8) (size 9 to 14) (size 15 to 20)
#    0.000    0.615    6.154    0.923    6.462    3.692 
#    0.000    1.538    0.000    0.000    0.000    0.000 
#    0.000    0.000    0.000    0.000    0.000    0.000 
#
# Total GULP energy -289621.318739 kJ/mol
# GULP energy per Si atom -5569.640745 kJ/mol
# Density = 2.085846 g / cm^3
# Si number density = 20.906045 Si / 1000 Ang^3
#
#
#
# Elastic Constant Matrix: (Units=GPa)
#
#
# Indices 1 2 3 4 5 6 
#
# 1 78.3785 24.1958 24.2645 0.0000 0.0000 0.0000
# 2 24.1958 63.2713 26.0668 0.0000 0.0000 0.0000
# 3 24.2645 26.0668 78.9292 0.0000 0.0000 0.0000
# 4 0.0000 0.0000 0.0000 11.0313 0.0000 0.0000
# 5 0.0000 0.0000 0.0000 0.0000 -5.1373 0.0000
# 6 0.0000 0.0000 0.0000 0.0000 0.0000 53.6190
#
#
#
# Elastic Compliance Matrix: (Units=1/GPa)
#
#
# Indices 1 2 3 4 5 6 
#
# 1 0.015122 -0.004477 -0.003170 0.000000 0.000000 0.000000
# 2 -0.004477 0.019619 -0.005103 0.000000 0.000000 0.000000
# 3 -0.003170 -0.005103 0.015330 0.000000 0.000000 0.000000
# 4 0.000000 0.000000 0.000000 0.090651 0.000000 0.000000
# 5 0.000000 0.000000 0.000000 0.000000 -0.194653 0.000000
# 6 0.000000 0.000000 0.000000 0.000000 0.000000 0.018650
#
#
# Mechanical properties :
#
#
# Convention : Reuss Voigt Hill
#
# Bulk Modulus (GPa) = 40.69930 41.07036 40.88483
# Shear Modulus (GPa) = -3143.45098 21.63937 -1560.90580
#
# Velocity S-wave (km/s) = -38.81846 3.22075 -27.35416
# Velocity P-wave (km/s) = 44.60554 5.78955 31.27407
#
# Compressibility (1/GPa) = 0.02457045
#
# Stress axis : x y z
#
# Youngs Moduli (GPa) = 66.12843 50.97009 65.23331
#
# Poissons Ratio (x) = 0.22818 0.20682
# Poissons Ratio (y) = 0.29604 0.33290
# Poissons Ratio (z) = 0.20965 0.26011
#
# Static dielectric constant tensor:
#      x y z
#    x 1.799200 0.000000 0.000000 
#    y 0.000000 1.907770 0.000000 
#    z 0.000000 0.000000 1.802000 
# 
# From -- ./inp_files/28324.got.cif
#   From: 2010.05.17/outbox.cif.g08.bks.cpg/sg48_15_cif.got.tgz:28324.got - 2010.06.03 20:39:00.
