data_PCOD9391805
_publ_section_title
;
Structure prediction by ZEFSAII (Michael W. Deem and Ramdas Pophale) SiO2 
 PCOD9391805
Probable space group: P N N N
;
_chemical_formula_sum "Si O2"
_cell_formula_units_Z 30
_cell_length_a 9.729198
_cell_length_b 18.255627
_cell_length_c 7.065339
_cell_angle_alpha 90.000000
_cell_angle_beta 90.000000
_cell_angle_gamma 90.000000
_cell_volume 1254.893298
_symmetry_space_group_name_H-M "P N N N"
_symmetry_group_IT_number 48
_space_group.IT_coordinate_system_code '2'
_symmetry_cell_setting 'orthorhombic'
loop_
_space_group_symop_operation_xyz
x,y,z
1/2-x,1/2-y,z
x,1/2-y,1/2-z
1/2-x,y,1/2-z
-x,-y,-z
1/2+x,1/2+y,-z
-x,1/2+y,1/2+z
1/2+x,-y,1/2+z
loop_
_atom_site_type_symbol
_atom_site_label
_atom_site_fract_x
_atom_site_fract_y
_atom_site_fract_z
Si Si1 0.750000 0.250000 0.750000
Si Si2 0.996655 0.087228 0.500863
Si Si3 0.750000 0.405001 0.250000
Si Si4 0.771017 0.833525 0.021766
Si Si5 0.926218 0.375663 0.569526
O O1 0.842099 0.300482 0.610268
O O2 0.882097 0.123922 0.365658
O O3 0.954081 0.101141 0.716714
O O4 0.146188 0.117476 0.450657
O O5 0.000000 0.000000 0.500000
O O6 0.837646 0.430837 0.436863
O O7 0.750000 0.750000 0.962384
O O8 0.750000 0.834827 0.250000
O O9 0.924302 0.860395 0.983311
#
# Coordination Sequence:
#
# PCOD9391805 Si02
#       5
#     2   8   4   8   8
#     4  12  20  46  74 104 154 188 248 310 368 448
#     4  11  25  47  73 106 143 190 250 313 378 446
#     4  12  26  45  68 106 143 196 240 304 374 452
#     4   9  20  43  71  99 140 188 240 302 367 436
#     4  11  24  45  70 106 143 192 244 304 367 449
#
# _framework density 23.906416
#
# number of rings (size 3 to 8) (size 9 to 14) (size 15 to 20)
#    0.000    1.333    2.667    3.200    5.600    2.667 
#    4.800    1.333    0.000    0.000    0.000    0.000 
#    0.000    0.000    0.000    0.000    0.000    0.000 
#
# Total GULP energy -167135.248058 kJ/mol
# GULP energy per Si atom -5571.174935 kJ/mol
# Density = 2.385200 g / cm^3
# Si number density = 23.906416 Si / 1000 Ang^3
#
#
#
# Elastic Constant Matrix: (Units=GPa)
#
#
# Indices 1 2 3 4 5 6 
#
# 1 231.6108 60.6234 58.6561 0.0000 0.0000 0.0000
# 2 60.6234 100.6180 4.3076 0.0000 0.0000 0.0000
# 3 58.6561 4.3076 131.7445 0.0000 0.0000 0.0000
# 4 0.0000 0.0000 0.0000 4.6853 0.0000 0.0000
# 5 0.0000 0.0000 0.0000 0.0000 39.4766 0.0000
# 6 0.0000 0.0000 0.0000 0.0000 0.0000 13.3969
#
#
#
# Elastic Compliance Matrix: (Units=1/GPa)
#
#
# Indices 1 2 3 4 5 6 
#
# 1 0.005841 -0.003413 -0.002489 0.000000 0.000000 0.000000
# 2 -0.003413 0.011947 0.001129 0.000000 0.000000 0.000000
# 3 -0.002489 0.001129 0.008662 0.000000 0.000000 0.000000
# 4 0.000000 0.000000 0.000000 0.213436 0.000000 0.000000
# 5 0.000000 0.000000 0.000000 0.000000 0.025331 0.000000
# 6 0.000000 0.000000 0.000000 0.000000 0.000000 0.074644
#
#
# Mechanical properties :
#
#
# Convention : Reuss Voigt Hill
#
# Bulk Modulus (GPa) = 59.15968 79.01640 69.08804
# Shear Modulus (GPa) = 14.08286 34.20414 24.14350
#
# Velocity S-wave (km/s) = 2.42974 3.78663 3.18137
# Velocity P-wave (km/s) = 5.71591 7.22788 6.51590
#
# Compressibility (1/GPa) = 0.01690340
#
# Stress axis : x y z
#
# Youngs Moduli (GPa) = 171.19577 83.70624 115.45007
#
# Poissons Ratio (x) = 0.28568 0.28737
# Poissons Ratio (y) = 0.58427 -0.13033
# Poissons Ratio (z) = 0.42612 -0.09449
#
# Static dielectric constant tensor:
#      x y z
#    x 1.872940 0.000000 0.000000 
#    y 0.000000 2.418470 0.000000 
#    z 0.000000 0.000000 1.601130 
# 
# From -- ./inp_files/8673.got.cif
#   From: 2010.05.17/outbox.cif.g08.bks.cpg/sg48_5_cif.got.tgz:8673.got - 2010.06.03 20:39:00.
