data_PCOD9391109
_publ_section_title
;
Structure prediction by ZEFSAII (Michael W. Deem and Ramdas Pophale) SiO2 
 PCOD9391109
Probable space group: P N N N
;
_chemical_formula_sum "Si O2"
_cell_formula_units_Z 48
_cell_length_a 5.196147
_cell_length_b 18.477013
_cell_length_c 21.081735
_cell_angle_alpha 90.000000
_cell_angle_beta 90.000000
_cell_angle_gamma 90.000000
_cell_volume 2024.042107
_symmetry_space_group_name_H-M "P N N N"
_symmetry_group_IT_number 48
_space_group.IT_coordinate_system_code '2'
_symmetry_cell_setting 'orthorhombic'
loop_
_space_group_symop_operation_xyz
x,y,z
1/2-x,1/2-y,z
x,1/2-y,1/2-z
1/2-x,y,1/2-z
-x,-y,-z
1/2+x,1/2+y,-z
-x,1/2+y,1/2+z
1/2+x,-y,1/2+z
loop_
_atom_site_type_symbol
_atom_site_label
_atom_site_fract_x
_atom_site_fract_y
_atom_site_fract_z
Si Si1 0.855399 0.911194 0.432484
Si Si2 0.832897 0.582169 0.623493
Si Si3 0.312551 0.578707 0.547195
Si Si4 0.502158 0.797497 0.382381
Si Si5 0.745869 0.071183 0.823398
Si Si6 0.494426 0.217718 0.320974
O O1 0.082579 0.891200 0.481263
O O2 0.632515 0.852178 0.432947
O O3 0.978166 0.917213 0.361835
O O4 0.781529 0.991239 0.456320
O O5 0.540874 0.591497 0.599164
O O6 0.865540 0.498135 0.640738
O O7 0.037482 0.605153 0.570228
O O8 0.932417 0.632993 0.680522
O O9 0.750000 0.750000 0.362203
O O10 0.399904 0.854323 0.330517
O O11 0.250000 0.750000 0.399713
O O12 0.750000 0.051669 0.750000
O O13 0.750000 0.250000 0.351105
O O14 0.497333 0.250000 0.250000
O O15 0.250000 0.250000 0.356667
#
# Coordination Sequence:
#
# PCOD9391109 Si02
#       6
#     8   8   8   8   8   8
#     4  10  23  46  71 106 139 186 241 297 375 417
#     4  11  23  44  71 111 138 186 244 293 348 425
#     4  10  23  41  78 100 141 182 244 304 341 431
#     4  12  25  47  70 100 146 187 235 296 375 436
#     4  11  26  46  73 109 138 186 247 304 358 437
#     4  10  22  41  66  98 141 193 217 273 357 421
#
# _framework density 23.714919999999999
#
# number of rings (size 3 to 8) (size 9 to 14) (size 15 to 20)
#    0.000    1.333    3.333    1.000    4.667    3.000 
#    6.000    3.333    3.667    0.000    0.000    0.000 
#    0.000    0.000    0.000    0.000    0.000    0.000 
#
# Total GULP energy -267880.988109 kJ/mol
# GULP energy per Si atom -5580.853919 kJ/mol
# Density = 2.366094 g / cm^3
# Si number density = 23.714920 Si / 1000 Ang^3
#
#
#
# Elastic Constant Matrix: (Units=GPa)
#
#
# Indices 1 2 3 4 5 6 
#
# 1 170.1285 46.0774 19.2607 0.0000 0.0000 0.0000
# 2 46.0774 104.0949 -1.2119 0.0000 0.0000 0.0000
# 3 19.2607 -1.2119 84.5663 0.0000 0.0000 0.0000
# 4 0.0000 0.0000 0.0000 20.7019 0.0000 0.0000
# 5 0.0000 0.0000 0.0000 0.0000 11.1751 0.0000
# 6 0.0000 0.0000 0.0000 0.0000 0.0000 43.6524
#
#
#
# Elastic Compliance Matrix: (Units=1/GPa)
#
#
# Indices 1 2 3 4 5 6 
#
# 1 0.006892 -0.003069 -0.001614 0.000000 0.000000 0.000000
# 2 -0.003069 0.010975 0.000856 0.000000 0.000000 0.000000
# 3 -0.001614 0.000856 0.012205 0.000000 0.000000 0.000000
# 4 0.000000 0.000000 0.000000 0.048305 0.000000 0.000000
# 5 0.000000 0.000000 0.000000 0.000000 0.089485 0.000000
# 6 0.000000 0.000000 0.000000 0.000000 0.000000 0.022908
#
#
# Mechanical properties :
#
#
# Convention : Reuss Voigt Hill
#
# Bulk Modulus (GPa) = 44.60600 54.11576 49.36088
# Shear Modulus (GPa) = 24.28406 34.75013 29.51709
#
# Velocity S-wave (km/s) = 3.20347 3.83211 3.53181
# Velocity P-wave (km/s) = 5.70378 6.51529 6.12299
#
# Compressibility (1/GPa) = 0.02241851
#
# Stress axis : x y z
#
# Youngs Moduli (GPa) = 145.09717 91.11373 81.93472
#
# Poissons Ratio (x) = 0.27967 0.13222
# Poissons Ratio (y) = 0.44537 -0.07017
# Poissons Ratio (z) = 0.23414 -0.07803
#
# Static dielectric constant tensor:
#      x y z
#    x 2.037270 0.000000 0.000000 
#    y 0.000000 1.998580 0.000000 
#    z 0.000000 0.000000 1.946530 
# 
# From -- ./inp_files/32881.got.cif
#   From: 2010.05.17/outbox.cif.g08.bks.cpg/sg48_17_cif.got.tgz:32881.got - 2010.06.03 20:39:00.
