data_PCOD9391810
_publ_section_title
;
Structure prediction by ZEFSAII (Michael W. Deem and Ramdas Pophale) SiO2 
 PCOD9391810
Probable space group: P N N N
;
_chemical_formula_sum "Si O2"
_cell_formula_units_Z 40
_cell_length_a 12.189143
_cell_length_b 8.596801
_cell_length_c 16.175283
_cell_angle_alpha 90.000000
_cell_angle_beta 90.000000
_cell_angle_gamma 90.000000
_cell_volume 1694.969679
_symmetry_space_group_name_H-M "P N N N"
_symmetry_group_IT_number 48
_space_group.IT_coordinate_system_code '2'
_symmetry_cell_setting 'orthorhombic'
loop_
_space_group_symop_operation_xyz
x,y,z
1/2-x,1/2-y,z
x,1/2-y,1/2-z
1/2-x,y,1/2-z
-x,-y,-z
1/2+x,1/2+y,-z
-x,1/2+y,1/2+z
1/2+x,-y,1/2+z
loop_
_atom_site_type_symbol
_atom_site_label
_atom_site_fract_x
_atom_site_fract_y
_atom_site_fract_z
Si Si1 0.706361 0.571884 0.162401
Si Si2 0.052812 0.113481 0.383442
Si Si3 0.974951 0.533484 0.594289
Si Si4 0.122231 0.582103 0.268139
Si Si5 0.824143 0.404207 0.015462
O O1 0.750000 0.750000 0.164605
O O2 0.750000 0.503530 0.250000
O O3 0.579712 0.521706 0.149315
O O4 0.754766 0.509436 0.077200
O O5 0.075189 0.296881 0.387763
O O6 0.933919 0.120005 0.428416
O O7 0.062558 0.044215 0.291029
O O8 0.131431 0.001313 0.437362
O O9 0.000000 0.500000 0.500000
O O10 0.883142 0.425990 0.632867
O O11 0.072968 0.750000 0.250000
O O12 0.250000 0.573703 0.250000
O O13 0.750000 0.250000 0.002408
#
# Coordination Sequence:
#
# PCOD9391810 Si02
#       5
#     8   8   8   8   8
#     4  11  25  43  70 108 153 202 256 321 405 478
#     4  11  26  46  75 108 152 197 261 320 390 482
#     4  12  27  47  75 114 154 201 265 329 403 481
#     4  11  29  49  77 105 152 207 262 324 403 481
#     4  11  24  45  74 107 149 196 253 321 396 473
#
# _framework density 23.599242
#
# number of rings (size 3 to 8) (size 9 to 14) (size 15 to 20)
#    0.000    0.800    2.000    3.000   16.800    2.000 
#    0.000    0.000    0.000    0.000    0.000    0.000 
#    0.000    0.000    0.000    0.000    0.000    0.000 
#
# Total GULP energy -223078.200419 kJ/mol
# GULP energy per Si atom -5576.955010 kJ/mol
# Density = 2.354553 g / cm^3
# Si number density = 23.599242 Si / 1000 Ang^3
#
#
#
# Elastic Constant Matrix: (Units=GPa)
#
#
# Indices 1 2 3 4 5 6 
#
# 1 89.7005 20.8425 47.7931 0.0000 0.0000 0.0000
# 2 20.8425 151.6074 62.3866 0.0000 0.0000 0.0000
# 3 47.7931 62.3866 179.7482 0.0000 0.0000 0.0000
# 4 0.0000 0.0000 0.0000 38.3469 0.0000 0.0000
# 5 0.0000 0.0000 0.0000 0.0000 39.6656 0.0000
# 6 0.0000 0.0000 0.0000 0.0000 0.0000 42.9579
#
#
#
# Elastic Compliance Matrix: (Units=1/GPa)
#
#
# Indices 1 2 3 4 5 6 
#
# 1 0.013012 -0.000426 -0.003312 0.000000 0.000000 0.000000
# 2 -0.000426 0.007709 -0.002562 0.000000 0.000000 0.000000
# 3 -0.003312 -0.002562 0.007333 0.000000 0.000000 0.000000
# 4 0.000000 0.000000 0.000000 0.026078 0.000000 0.000000
# 5 0.000000 0.000000 0.000000 0.000000 0.025211 0.000000
# 6 0.000000 0.000000 0.000000 0.000000 0.000000 0.023279
#
#
# Mechanical properties :
#
#
# Convention : Reuss Voigt Hill
#
# Bulk Modulus (GPa) = 64.70970 75.90006 70.30488
# Shear Modulus (GPa) = 41.53769 43.52967 42.53368
#
# Velocity S-wave (km/s) = 4.19994 4.29947 4.24999
# Velocity P-wave (km/s) = 7.14137 7.54182 7.34432
#
# Compressibility (1/GPa) = 0.01545363
#
# Stress axis : x y z
#
# Youngs Moduli (GPa) = 76.85357 129.71927 136.36521
#
# Poissons Ratio (x) = 0.05526 0.45162
# Poissons Ratio (y) = 0.03274 0.34941
# Poissons Ratio (z) = 0.25453 0.33238
#
# Static dielectric constant tensor:
#      x y z
#    x 1.973500 0.000000 0.000000 
#    y 0.000000 2.706070 0.000000 
#    z 0.000000 0.000000 1.885870 
# 
# From -- ./inp_files/30834.got.cif
#   From: 2010.05.17/outbox.cif.g08.bks.cpg/sg48_16_cif.got.tgz:30834.got - 2010.06.03 20:39:00.
