data_PCOD9391874
_publ_section_title
;
Structure prediction by ZEFSAII (Michael W. Deem and Ramdas Pophale) SiO2 
 PCOD9391874
Probable space group: P N N N
;
_chemical_formula_sum "Si O2"
_cell_formula_units_Z 38
_cell_length_a 12.382937
_cell_length_b 9.410380
_cell_length_c 15.442299
_cell_angle_alpha 90.000000
_cell_angle_beta 90.000000
_cell_angle_gamma 90.000000
_cell_volume 1799.462421
_symmetry_space_group_name_H-M "P N N N"
_symmetry_group_IT_number 48
_space_group.IT_coordinate_system_code '2'
_symmetry_cell_setting 'orthorhombic'
loop_
_space_group_symop_operation_xyz
x,y,z
1/2-x,1/2-y,z
x,1/2-y,1/2-z
1/2-x,y,1/2-z
-x,-y,-z
1/2+x,1/2+y,-z
-x,1/2+y,1/2+z
1/2+x,-y,1/2+z
loop_
_atom_site_type_symbol
_atom_site_label
_atom_site_fract_x
_atom_site_fract_y
_atom_site_fract_z
Si Si1 0.250000 0.750000 0.750000
Si Si2 0.867075 0.261781 0.591575
Si Si3 0.750000 0.750000 0.750000
Si Si4 0.047936 0.428002 0.812813
Si Si5 0.250000 0.250000 0.750000
Si Si6 0.595613 0.269400 0.397484
Si Si7 0.921448 0.557646 0.649234
O O1 0.331975 0.809793 0.676841
O O2 0.750000 0.250000 0.636265
O O3 0.859353 0.210184 0.492929
O O4 0.887331 0.429590 0.588481
O O5 0.961754 0.174138 0.639054
O O6 0.825460 0.645840 0.693832
O O7 0.163530 0.349874 0.800428
O O8 0.069274 0.575025 0.861897
O O9 0.991140 0.477953 0.723765
O O10 0.490239 0.173425 0.401651
#
# Coordination Sequence:
#
# PCOD9391874 Si02
#       7
#     2   8   2   8   2   8   8
#     4  12  20  44  76  92 124 192 230 290 346 426
#     4  12  27  45  70 108 148 184 239 315 373 425
#     4  12  22  44  80 102 148 198 244 296 370 454
#     4  12  24  48  73 105 145 196 244 297 372 450
#     4  12  26  44  78 108 150 198 254 302 366 454
#     4  12  25  46  72 103 140 185 249 294 360 443
#     4  12  24  45  73 104 142 192 245 295 367 446
#
# _framework density 21.117417
#
# number of rings (size 3 to 8) (size 9 to 14) (size 15 to 20)
#    0.000    0.000    7.368    3.158    0.000    0.842 
#    3.789    0.000    0.000    0.000    0.000    0.000 
#    0.000    0.000    0.000    0.000    0.000    0.000 
#
# Total GULP energy -212006.793769 kJ/mol
# GULP energy per Si atom -5579.126152 kJ/mol
# Density = 2.106935 g / cm^3
# Si number density = 21.117417 Si / 1000 Ang^3
#
#
#
# Elastic Constant Matrix: (Units=GPa)
#
#
# Indices 1 2 3 4 5 6 
#
# 1 133.6278 37.2134 10.8250 0.0000 0.0000 0.0000
# 2 37.2134 129.9172 7.8906 0.0000 0.0000 0.0000
# 3 10.8250 7.8906 52.2359 0.0000 0.0000 0.0000
# 4 0.0000 0.0000 0.0000 -48.6044 0.0000 0.0000
# 5 0.0000 0.0000 0.0000 0.0000 21.0636 0.0000
# 6 0.0000 0.0000 0.0000 0.0000 0.0000 32.8783
#
#
#
# Elastic Compliance Matrix: (Units=1/GPa)
#
#
# Indices 1 2 3 4 5 6 
#
# 1 0.008227 -0.002274 -0.001361 0.000000 0.000000 0.000000
# 2 -0.002274 0.008397 -0.000797 0.000000 0.000000 0.000000
# 3 -0.001361 -0.000797 0.019546 0.000000 0.000000 0.000000
# 4 0.000000 0.000000 0.000000 -0.020574 0.000000 0.000000
# 5 0.000000 0.000000 0.000000 0.000000 0.047475 0.000000
# 6 0.000000 0.000000 0.000000 0.000000 0.000000 0.030415
#
#
# Mechanical properties :
#
#
# Convention : Reuss Voigt Hill
#
# Bulk Modulus (GPa) = 36.62271 47.51545 42.06908
# Shear Modulus (GPa) = 44.86176 18.39094 31.62635
#
# Velocity S-wave (km/s) = 4.61412 2.95429 3.87414
# Velocity P-wave (km/s) = 6.76512 5.84692 6.32271
#
# Compressibility (1/GPa) = 0.02730546
#
# Stress axis : x y z
#
# Youngs Moduli (GPa) = 121.55107 119.09093 51.16009
#
# Poissons Ratio (x) = 0.27079 0.06965
# Poissons Ratio (y) = 0.27639 0.04079
# Poissons Ratio (z) = 0.16548 0.09494
#
# Static dielectric constant tensor:
#      x y z
#    x 1.850380 0.000000 0.000000 
#    y 0.000000 1.761060 0.000000 
#    z 0.000000 0.000000 1.762220 
# 
# From -- ./inp_files/10772.got.cif
#   From: 2010.05.17/outbox.cif.g08.bks.cpg/sg48_6_cif.got.tgz:10772.got - 2010.06.03 20:39:00.
