data_PCOD9391344
_publ_section_title
;
Structure prediction by ZEFSAII (Michael W. Deem and Ramdas Pophale) SiO2 
 PCOD9391344
Probable space group: P N N N
;
_chemical_formula_sum "Si O2"
_cell_formula_units_Z 32
_cell_length_a 21.134391
_cell_length_b 9.925593
_cell_length_c 6.340002
_cell_angle_alpha 90.000000
_cell_angle_beta 90.000000
_cell_angle_gamma 90.000000
_cell_volume 1329.950863
_symmetry_space_group_name_H-M "P N N N"
_symmetry_group_IT_number 48
_space_group.IT_coordinate_system_code '2'
_symmetry_cell_setting 'orthorhombic'
loop_
_space_group_symop_operation_xyz
x,y,z
1/2-x,1/2-y,z
x,1/2-y,1/2-z
1/2-x,y,1/2-z
-x,-y,-z
1/2+x,1/2+y,-z
-x,1/2+y,1/2+z
1/2+x,-y,1/2+z
loop_
_atom_site_type_symbol
_atom_site_label
_atom_site_fract_x
_atom_site_fract_y
_atom_site_fract_z
Si Si1 0.148847 0.590563 0.014375
Si Si2 0.831865 0.611453 0.617879
Si Si3 0.448208 0.750000 0.250000
Si Si4 0.571471 0.599707 0.205631
Si Si5 0.750000 0.250000 0.250000
Si Si6 0.750000 0.750000 0.250000
O O1 0.177664 0.508034 0.212952
O O2 0.100033 0.710365 0.068504
O O3 0.104488 0.492441 0.877211
O O4 0.205799 0.655019 0.888547
O O5 0.834582 0.750000 0.750000
O O6 0.899395 0.570268 0.520048
O O7 0.786576 0.649610 0.417390
O O8 0.496514 0.625175 0.214662
O O9 0.596192 0.750000 0.250000
#
# Coordination Sequence:
#
# PCOD9391344 Si02
#       6
#     8   8   4   8   2   2
#     4  12  28  57  78 113 170 220 262 339 404 498
#     4  12  24  47  79 117 154 213 269 340 412 460
#     4  10  25  53  82 121 161 216 262 336 422 472
#     4  10  23  50  82 122 151 196 275 344 398 482
#     4  12  36  60  74 118 176 226 282 312 416 502
#     4  12  24  42  72 128 150 206 286 334 394 478
#
# _framework density 24.061042
#
# number of rings (size 3 to 8) (size 9 to 14) (size 15 to 20)
#    0.750    0.000    3.750    1.125    3.500    7.500 
#   11.250    0.000    0.000    0.000    0.000    0.000 
#    0.000    0.000    0.000    0.000    0.000    0.000 
#
# Total GULP energy -178709.293890 kJ/mol
# GULP energy per Si atom -5584.665434 kJ/mol
# Density = 2.400628 g / cm^3
# Si number density = 24.061042 Si / 1000 Ang^3
#
#
#
# Elastic Constant Matrix: (Units=GPa)
#
#
# Indices 1 2 3 4 5 6 
#
# 1 199.5163 69.1919 101.3929 0.0000 0.0000 0.0000
# 2 69.1919 98.8984 61.5904 0.0000 0.0000 0.0000
# 3 101.3929 61.5904 150.9413 0.0000 0.0000 0.0000
# 4 0.0000 0.0000 0.0000 53.7923 0.0000 0.0000
# 5 0.0000 0.0000 0.0000 0.0000 61.6318 0.0000
# 6 0.0000 0.0000 0.0000 0.0000 0.0000 24.0045
#
#
#
# Elastic Compliance Matrix: (Units=1/GPa)
#
#
# Indices 1 2 3 4 5 6 
#
# 1 0.008270 -0.003119 -0.004283 0.000000 0.000000 0.000000
# 2 -0.003119 0.014732 -0.003916 0.000000 0.000000 0.000000
# 3 -0.004283 -0.003916 0.011100 0.000000 0.000000 0.000000
# 4 0.000000 0.000000 0.000000 0.018590 0.000000 0.000000
# 5 0.000000 0.000000 0.000000 0.000000 0.016225 0.000000
# 6 0.000000 0.000000 0.000000 0.000000 0.000000 0.041659
#
#
# Mechanical properties :
#
#
# Convention : Reuss Voigt Hill
#
# Bulk Modulus (GPa) = 87.20984 101.52294 94.36639
# Shear Modulus (GPa) = 36.48694 42.36443 39.42569
#
# Velocity S-wave (km/s) = 3.89836 4.20063 4.05232
# Velocity P-wave (km/s) = 7.52243 8.11249 7.82303
#
# Compressibility (1/GPa) = 0.01146660
#
# Stress axis : x y z
#
# Youngs Moduli (GPa) = 120.91554 67.87744 90.08976
#
# Poissons Ratio (x) = 0.21170 0.38583
# Poissons Ratio (y) = 0.37712 0.35283
# Poissons Ratio (z) = 0.51785 0.26583
#
# Static dielectric constant tensor:
#      x y z
#    x 1.961170 0.000000 0.000000 
#    y 0.000000 1.914850 0.000000 
#    z 0.000000 0.000000 1.943490 
# 
# From -- ./inp_files/5647.got.cif
#   From: 2010.05.17/outbox.cif.g08.bks.cpg/sg48_3_cif.got.tgz:5647.got - 2010.06.03 20:39:00.
