data_PCOD9391693
_publ_section_title
;
Structure prediction by ZEFSAII (Michael W. Deem and Ramdas Pophale) SiO2 
 PCOD9391693
Probable space group: P N N N
;
_chemical_formula_sum "Si O2"
_cell_formula_units_Z 60
_cell_length_a 23.190690
_cell_length_b 10.939984
_cell_length_c 11.489814
_cell_angle_alpha 90.000000
_cell_angle_beta 90.000000
_cell_angle_gamma 90.000000
_cell_volume 2915.032195
_symmetry_space_group_name_H-M "P N N N"
_symmetry_group_IT_number 48
_space_group.IT_coordinate_system_code '2'
_symmetry_cell_setting 'orthorhombic'
loop_
_space_group_symop_operation_xyz
x,y,z
1/2-x,1/2-y,z
x,1/2-y,1/2-z
1/2-x,y,1/2-z
-x,-y,-z
1/2+x,1/2+y,-z
-x,1/2+y,1/2+z
1/2+x,-y,1/2+z
loop_
_atom_site_type_symbol
_atom_site_label
_atom_site_fract_x
_atom_site_fract_y
_atom_site_fract_z
Si Si1 0.307333 0.089478 0.823662
Si Si2 0.376862 0.269540 0.500917
Si Si3 0.189302 0.806416 0.620605
Si Si4 0.537035 0.469644 0.798920
Si Si5 0.591284 0.185597 0.499667
Si Si6 0.596019 0.953146 0.364363
Si Si7 0.078248 0.250000 0.250000
Si Si8 0.499906 0.130834 0.940951
O O1 0.250000 0.118248 0.750000
O O2 0.322157 0.173832 0.933879
O O3 0.363222 0.091377 0.739241
O O4 0.303176 0.950323 0.864390
O O5 0.382534 0.127187 0.528393
O O6 0.384798 0.285238 0.363853
O O7 0.433900 0.326934 0.562934
O O8 0.250000 0.750000 0.585712
O O9 0.176290 0.750000 0.750000
O O10 0.143505 0.778752 0.518935
O O11 0.580249 0.400449 0.887691
O O12 0.472414 0.444124 0.846694
O O13 0.546415 0.617390 0.779762
O O14 0.534101 0.394332 0.678250
O O15 0.533949 0.266684 0.487462
O O16 0.603341 0.093644 0.394378
O O17 0.500000 0.000000 0.000000
#
# Coordination Sequence:
#
# PCOD9391693 Si02
#       8
#     8   8   8   8   8   8   4   8
#     4  12  25  45  74 106 138 183 239 311 370 426
#     4  12  25  45  63 100 145 185 239 300 359 426
#     4  11  22  45  70 105 142 174 239 307 358 435
#     4  12  25  41  63 100 147 193 238 294 368 432
#     4  12  24  39  66 101 141 191 230 298 376 429
#     4  12  24  41  65  98 144 184 237 299 357 439
#     4  12  26  44  68  99 149 194 242 292 358 458
#     4  12  24  40  63 100 140 191 243 294 353 439
#
# _framework density 20.582961999999998
#
# number of rings (size 3 to 8) (size 9 to 14) (size 15 to 20)
#    0.000    0.133    8.000    2.800    0.000    1.067 
#    1.200    0.000    0.000    3.200    0.000    0.000 
#    0.000    0.000    0.000    0.000    0.000    0.000 
#
# Total GULP energy -334765.307108 kJ/mol
# GULP energy per Si atom -5579.421785 kJ/mol
# Density = 2.053611 g / cm^3
# Si number density = 20.582962 Si / 1000 Ang^3
#
#
#
# Elastic Constant Matrix: (Units=GPa)
#
#
# Indices 1 2 3 4 5 6 
#
# 1 103.3997 35.2976 59.0903 0.0000 0.0000 0.0000
# 2 35.2976 124.0534 26.4260 0.0000 0.0000 0.0000
# 3 59.0903 26.4260 95.3671 0.0000 0.0000 0.0000
# 4 0.0000 0.0000 0.0000 22.7668 0.0000 0.0000
# 5 0.0000 0.0000 0.0000 0.0000 29.9954 0.0000
# 6 0.0000 0.0000 0.0000 0.0000 0.0000 23.5949
#
#
#
# Elastic Compliance Matrix: (Units=1/GPa)
#
#
# Indices 1 2 3 4 5 6 
#
# 1 0.015694 -0.002544 -0.009019 0.000000 0.000000 0.000000
# 2 -0.002544 0.008979 -0.000912 0.000000 0.000000 0.000000
# 3 -0.009019 -0.000912 0.016327 0.000000 0.000000 0.000000
# 4 0.000000 0.000000 0.000000 0.043924 0.000000 0.000000
# 5 0.000000 0.000000 0.000000 0.000000 0.033338 0.000000
# 6 0.000000 0.000000 0.000000 0.000000 0.000000 0.042382
#
#
# Mechanical properties :
#
#
# Convention : Reuss Voigt Hill
#
# Bulk Modulus (GPa) = 62.30597 62.71643 62.51120
# Shear Modulus (GPa) = 26.18572 28.73852 27.46212
#
# Velocity S-wave (km/s) = 3.57067 3.74067 3.65666
# Velocity P-wave (km/s) = 6.88011 7.01377 6.94726
#
# Compressibility (1/GPa) = 0.01604983
#
# Stress axis : x y z
#
# Youngs Moduli (GPa) = 63.71895 111.36879 61.24925
#
# Poissons Ratio (x) = 0.28335 0.55241
# Poissons Ratio (y) = 0.16211 0.05584
# Poissons Ratio (z) = 0.57469 0.10153
#
# Static dielectric constant tensor:
#      x y z
#    x 1.756010 0.000000 0.000000 
#    y 0.000000 1.793750 0.000000 
#    z 0.000000 0.000000 1.791260 
# 
# From -- ./inp_files/22918.got.cif
#   From: 2010.05.17/outbox.cif.g08.bks.cpg/sg48_12_cif.got.tgz:22918.got - 2010.06.03 20:39:00.
