data_PCOD9391147
_publ_section_title
;
Structure prediction by ZEFSAII (Michael W. Deem and Ramdas Pophale) SiO2 
 PCOD9391147
Probable space group: P N N N
;
_chemical_formula_sum "Si O2"
_cell_formula_units_Z 56
_cell_length_a 14.059702
_cell_length_b 12.589613
_cell_length_c 14.663534
_cell_angle_alpha 90.000000
_cell_angle_beta 90.000000
_cell_angle_gamma 90.000000
_cell_volume 2595.536536
_symmetry_space_group_name_H-M "P N N N"
_symmetry_group_IT_number 48
_space_group.IT_coordinate_system_code '2'
_symmetry_cell_setting 'orthorhombic'
loop_
_space_group_symop_operation_xyz
x,y,z
1/2-x,1/2-y,z
x,1/2-y,1/2-z
1/2-x,y,1/2-z
-x,-y,-z
1/2+x,1/2+y,-z
-x,1/2+y,1/2+z
1/2+x,-y,1/2+z
loop_
_atom_site_type_symbol
_atom_site_label
_atom_site_fract_x
_atom_site_fract_y
_atom_site_fract_z
Si Si1 0.207268 0.633873 0.344300
Si Si2 0.255730 0.951197 0.964364
Si Si3 0.922887 0.772041 0.852377
Si Si4 0.660181 0.812612 0.035001
Si Si5 0.068367 0.962313 0.851152
Si Si6 0.882782 0.157604 0.320941
Si Si7 0.486738 0.199484 0.652295
O O1 0.250000 0.750000 0.354247
O O2 0.250000 0.588780 0.250000
O O3 0.242426 0.566951 0.429076
O O4 0.096111 0.661461 0.347083
O O5 0.151320 0.932301 0.921083
O O6 0.318695 0.868919 0.906389
O O7 0.307947 0.065262 0.956533
O O8 0.884064 0.750000 0.750000
O O9 0.972350 0.889939 0.862333
O O10 0.015284 0.696007 0.855910
O O11 0.854874 0.735633 0.933245
O O12 0.750000 0.750000 0.077650
O O13 0.559819 0.782922 0.082449
O O14 0.103592 0.940642 0.747882
O O15 0.061220 0.086852 0.865316
O O16 0.851653 0.250000 0.250000
O O17 0.467204 0.250000 0.750000
#
# Coordination Sequence:
#
# PCOD9391147 Si02
#       7
#     8   8   8   8   8   8   8
#     4  11  27  49  71 106 133 184 244 286 352 409
#     4  12  25  42  70 103 145 177 234 294 348 429
#     4   9  23  44  67  97 136 178 239 293 346 410
#     4  12  27  45  64 107 140 188 232 280 360 424
#     4  10  22  42  70 101 134 190 228 282 363 416
#     4   9  22  41  68 105 131 172 228 289 355 403
#     4  12  25  46  73  94 145 186 232 295 340 429
#
# _framework density 21.575502
#
# number of rings (size 3 to 8) (size 9 to 14) (size 15 to 20)
#    0.000    1.571    2.857    2.143    8.000    6.857 
#    0.000    0.000    0.000    0.000    0.000    0.000 
#    0.000    0.000    0.000    0.000    0.000    0.000 
#
# Total GULP energy -312397.906262 kJ/mol
# GULP energy per Si atom -5578.534040 kJ/mol
# Density = 2.152639 g / cm^3
# Si number density = 21.575502 Si / 1000 Ang^3
#
#
#
# Elastic Constant Matrix: (Units=GPa)
#
#
# Indices 1 2 3 4 5 6 
#
# 1 67.2136 -4.7455 35.4269 0.0000 0.0000 0.0000
# 2 -4.7455 40.0174 7.8062 0.0000 0.0000 0.0000
# 3 35.4269 7.8062 99.2571 0.0000 0.0000 0.0000
# 4 0.0000 0.0000 0.0000 78.4871 0.0000 0.0000
# 5 0.0000 0.0000 0.0000 0.0000 33.7005 0.0000
# 6 0.0000 0.0000 0.0000 0.0000 0.0000 -86.0598
#
#
#
# Elastic Compliance Matrix: (Units=1/GPa)
#
#
# Indices 1 2 3 4 5 6 
#
# 1 0.018822 0.003598 -0.007001 0.000000 0.000000 0.000000
# 2 0.003598 0.026066 -0.003334 0.000000 0.000000 0.000000
# 3 -0.007001 -0.003334 0.012836 0.000000 0.000000 0.000000
# 4 0.000000 0.000000 0.000000 0.012741 0.000000 0.000000
# 5 0.000000 0.000000 0.000000 0.000000 0.029673 0.000000
# 6 0.000000 0.000000 0.000000 0.000000 0.000000 -0.011620
#
#
# Mechanical properties :
#
#
# Convention : Reuss Voigt Hill
#
# Bulk Modulus (GPa) = 22.59920 31.49591 27.04756
# Shear Modulus (GPa) = 42.82927 16.42559 29.62743
#
# Velocity S-wave (km/s) = 4.46027 2.76217 3.70969
# Velocity P-wave (km/s) = 6.08461 4.98021 5.55990
#
# Compressibility (1/GPa) = 0.04424935
#
# Stress axis : x y z
#
# Youngs Moduli (GPa) = 53.12937 38.36394 77.90697
#
# Poissons Ratio (x) = -0.13802 0.54542
# Poissons Ratio (y) = -0.19114 0.25975
# Poissons Ratio (z) = 0.37195 0.12791
#
# Static dielectric constant tensor:
#      x y z
#    x 1.512170 0.000000 0.000000 
#    y 0.000000 1.887660 0.000000 
#    z 0.000000 0.000000 1.817560 
# 
# From -- ./inp_files/27297.got.cif
#   From: 2010.05.17/outbox.cif.g08.bks.cpg/sg48_14_cif.got.tgz:27297.got - 2010.06.03 20:39:00.
