data_PCOD9391272
_publ_section_title
;
Structure prediction by ZEFSAII (Michael W. Deem and Ramdas Pophale) SiO2 
 PCOD9391272
Probable space group: P N N N
;
_chemical_formula_sum "Si O2"
_cell_formula_units_Z 32
_cell_length_a 5.324713
_cell_length_b 15.909451
_cell_length_c 16.233717
_cell_angle_alpha 90.000000
_cell_angle_beta 90.000000
_cell_angle_gamma 90.000000
_cell_volume 1375.211098
_symmetry_space_group_name_H-M "P N N N"
_symmetry_group_IT_number 48
_space_group.IT_coordinate_system_code '2'
_symmetry_cell_setting 'orthorhombic'
loop_
_space_group_symop_operation_xyz
x,y,z
1/2-x,1/2-y,z
x,1/2-y,1/2-z
1/2-x,y,1/2-z
-x,-y,-z
1/2+x,1/2+y,-z
-x,1/2+y,1/2+z
1/2+x,-y,1/2+z
loop_
_atom_site_type_symbol
_atom_site_label
_atom_site_fract_x
_atom_site_fract_y
_atom_site_fract_z
Si Si1 0.994974 0.846187 0.287273
Si Si2 0.823798 0.615427 0.844042
Si Si3 0.840805 0.339249 0.435879
Si Si4 0.652140 0.446898 0.568030
O O1 0.990382 0.750000 0.250000
O O2 0.250000 0.879793 0.250000
O O3 0.008928 0.871580 0.383144
O O4 0.750000 0.888394 0.250000
O O5 0.750000 0.630681 0.750000
O O6 0.610665 0.665001 0.894350
O O7 0.773916 0.518118 0.867495
O O8 0.111745 0.634599 0.872770
O O9 0.750000 0.250000 0.468332
O O10 0.860721 0.402172 0.512887
O O11 0.500000 0.500000 0.500000
#
# Coordination Sequence:
#
# PCOD9391272 Si02
#       4
#     8   8   8   8
#     4  10  23  42  66 100 133 178 229 290 345 410
#     4  11  24  44  68  96 133 179 223 278 339 405
#     4  11  25  43  67 100 132 176 224 282 337 406
#     4  10  24  44  66 100 139 179 225 281 348 412
#
# _framework density 23.269151999999998
#
# number of rings (size 3 to 8) (size 9 to 14) (size 15 to 20)
#    0.000    1.500    0.000    3.000    3.500   15.000 
#    9.000    0.000    0.000    0.000    0.000    0.000 
#    0.000    0.000    0.000    0.000    0.000    0.000 
#
# Total GULP energy -178338.549434 kJ/mol
# GULP energy per Si atom -5573.079670 kJ/mol
# Density = 2.321619 g / cm^3
# Si number density = 23.269152 Si / 1000 Ang^3
#
#
#
# Elastic Constant Matrix: (Units=GPa)
#
#
# Indices 1 2 3 4 5 6 
#
# 1 137.3171 5.2606 31.5540 0.0000 0.0000 0.0000
# 2 5.2606 101.4416 18.7452 0.0000 0.0000 0.0000
# 3 31.5540 18.7452 85.9932 0.0000 0.0000 0.0000
# 4 0.0000 0.0000 0.0000 49.0047 0.0000 0.0000
# 5 0.0000 0.0000 0.0000 0.0000 38.7664 0.0000
# 6 0.0000 0.0000 0.0000 0.0000 0.0000 6.3642
#
#
#
# Elastic Compliance Matrix: (Units=1/GPa)
#
#
# Indices 1 2 3 4 5 6 
#
# 1 0.007955 0.000132 -0.002948 0.000000 0.000000 0.000000
# 2 0.000132 0.010274 -0.002288 0.000000 0.000000 0.000000
# 3 -0.002948 -0.002288 0.013209 0.000000 0.000000 0.000000
# 4 0.000000 0.000000 0.000000 0.020406 0.000000 0.000000
# 5 0.000000 0.000000 0.000000 0.000000 0.025796 0.000000
# 6 0.000000 0.000000 0.000000 0.000000 0.000000 0.157128
#
#
# Mechanical properties :
#
#
# Convention : Reuss Voigt Hill
#
# Bulk Modulus (GPa) = 47.10170 48.43014 47.76592
# Shear Modulus (GPa) = 19.83720 36.77321 28.30521
#
# Velocity S-wave (km/s) = 2.92295 3.97966 3.49151
# Velocity P-wave (km/s) = 5.62828 6.47883 6.06847
#
# Compressibility (1/GPa) = 0.02123066
#
# Stress axis : x y z
#
# Youngs Moduli (GPa) = 125.71197 97.33459 75.70492
#
# Poissons Ratio (x) = -0.01287 0.22315
# Poissons Ratio (y) = -0.01662 0.17322
# Poissons Ratio (z) = 0.37056 0.22271
#
# Static dielectric constant tensor:
#      x y z
#    x 1.862100 0.000000 0.000000 
#    y 0.000000 1.840950 0.000000 
#    z 0.000000 0.000000 1.935000 
# 
# From -- ./inp_files/2962.got.cif
#   From: 2010.05.17/outbox.cif.g08.bks.cpg/sg48_2_cif.got.tgz:2962.got - 2010.06.03 20:39:00.
