data_PCOD9391153
_publ_section_title
;
Structure prediction by ZEFSAII (Michael W. Deem and Ramdas Pophale) SiO2 
 PCOD9391153
Probable space group: P N N N
;
_chemical_formula_sum "Si O2"
_cell_formula_units_Z 40
_cell_length_a 12.589793
_cell_length_b 9.033574
_cell_length_c 15.692889
_cell_angle_alpha 90.000000
_cell_angle_beta 90.000000
_cell_angle_gamma 90.000000
_cell_volume 1784.765239
_symmetry_space_group_name_H-M "P N N N"
_symmetry_group_IT_number 48
_space_group.IT_coordinate_system_code '2'
_symmetry_cell_setting 'orthorhombic'
loop_
_space_group_symop_operation_xyz
x,y,z
1/2-x,1/2-y,z
x,1/2-y,1/2-z
1/2-x,y,1/2-z
-x,-y,-z
1/2+x,1/2+y,-z
-x,1/2+y,1/2+z
1/2+x,-y,1/2+z
loop_
_atom_site_type_symbol
_atom_site_label
_atom_site_fract_x
_atom_site_fract_y
_atom_site_fract_z
Si Si1 0.231110 0.086601 0.850732
Si Si2 0.898165 0.111903 0.599017
Si Si3 0.518795 0.444367 0.098586
Si Si4 0.073647 0.887350 0.597380
Si Si5 0.184043 0.926706 0.162008
O O1 0.250000 0.250000 0.887461
O O2 0.250000 0.089756 0.750000
O O3 0.109473 0.051304 0.867496
O O4 0.314078 0.966352 0.886602
O O5 0.941098 0.133583 0.504437
O O6 0.875483 0.268610 0.645769
O O7 0.778057 0.050907 0.593775
O O8 0.982280 0.994875 0.636386
O O9 0.563678 0.282518 0.122476
O O10 0.407511 0.457412 0.147097
O O11 0.500000 0.500000 0.000000
O O12 0.250000 0.932382 0.250000
#
# Coordination Sequence:
#
# PCOD9391153 Si02
#       5
#     8   8   8   8   8
#     4  11  27  48  74 101 142 193 248 302 369 443
#     4  10  22  43  67 103 140 192 240 294 359 438
#     4  12  25  46  73 109 149 190 241 303 372 444
#     4  11  24  43  73 105 142 187 246 303 365 436
#     4  11  24  44  72 103 146 196 241 297 370 444
#
# _framework density 22.411912000000001
#
# number of rings (size 3 to 8) (size 9 to 14) (size 15 to 20)
#    0.000    1.000    2.000    4.200    8.400    2.400 
#    3.600    2.000    0.000    0.000    0.000    0.000 
#    0.000    0.000    0.000    0.000    0.000    0.000 
#
# Total GULP energy -223209.993123 kJ/mol
# GULP energy per Si atom -5580.249828 kJ/mol
# Density = 2.236090 g / cm^3
# Si number density = 22.411912 Si / 1000 Ang^3
#
#
#
# Elastic Constant Matrix: (Units=GPa)
#
#
# Indices 1 2 3 4 5 6 
#
# 1 103.9215 13.0086 8.5829 0.0000 0.0000 0.0000
# 2 13.0086 41.9553 9.3508 0.0000 0.0000 0.0000
# 3 8.5829 9.3508 64.6000 0.0000 0.0000 0.0000
# 4 0.0000 0.0000 0.0000 17.9163 0.0000 0.0000
# 5 0.0000 0.0000 0.0000 0.0000 41.3474 0.0000
# 6 0.0000 0.0000 0.0000 0.0000 0.0000 46.1635
#
#
#
# Elastic Compliance Matrix: (Units=1/GPa)
#
#
# Indices 1 2 3 4 5 6 
#
# 1 0.010063 -0.002916 -0.000915 0.000000 0.000000 0.000000
# 2 -0.002916 0.025475 -0.003300 0.000000 0.000000 0.000000
# 3 -0.000915 -0.003300 0.016079 0.000000 0.000000 0.000000
# 4 0.000000 0.000000 0.000000 0.055815 0.000000 0.000000
# 5 0.000000 0.000000 0.000000 0.000000 0.024185 0.000000
# 6 0.000000 0.000000 0.000000 0.000000 0.000000 0.021662
#
#
# Mechanical properties :
#
#
# Convention : Reuss Voigt Hill
#
# Bulk Modulus (GPa) = 26.77044 30.26237 28.51641
# Shear Modulus (GPa) = 27.77883 33.05442 30.41663
#
# Velocity S-wave (km/s) = 3.52443 3.84456 3.68797
# Velocity P-wave (km/s) = 5.34161 5.76538 5.55753
#
# Compressibility (1/GPa) = 0.03735464
#
# Stress axis : x y z
#
# Youngs Moduli (GPa) = 99.37133 39.25485 62.19258
#
# Poissons Ratio (x) = 0.11448 0.05690
# Poissons Ratio (y) = 0.28980 0.20523
# Poissons Ratio (z) = 0.09091 0.12954
#
# Static dielectric constant tensor:
#      x y z
#    x 1.789390 0.000000 0.000000 
#    y 0.000000 1.924590 0.000000 
#    z 0.000000 0.000000 1.901860 
# 
# From -- ./inp_files/30836.got.cif
#   From: 2010.05.17/outbox.cif.g08.bks.cpg/sg48_16_cif.got.tgz:30836.got - 2010.06.03 20:39:00.
