data_PCOD9391634
_publ_section_title
;
Structure prediction by ZEFSAII (Michael W. Deem and Ramdas Pophale) SiO2 
 PCOD9391634
Probable space group: P N N N
;
_chemical_formula_sum "Si O2"
_cell_formula_units_Z 58
_cell_length_a 11.969022
_cell_length_b 9.633249
_cell_length_c 29.584654
_cell_angle_alpha 90.000000
_cell_angle_beta 90.000000
_cell_angle_gamma 90.000000
_cell_volume 3411.127446
_symmetry_space_group_name_H-M "P N N N"
_symmetry_group_IT_number 48
_space_group.IT_coordinate_system_code '2'
_symmetry_cell_setting 'orthorhombic'
loop_
_space_group_symop_operation_xyz
x,y,z
1/2-x,1/2-y,z
x,1/2-y,1/2-z
1/2-x,y,1/2-z
-x,-y,-z
1/2+x,1/2+y,-z
-x,1/2+y,1/2+z
1/2+x,-y,1/2+z
loop_
_atom_site_type_symbol
_atom_site_label
_atom_site_fract_x
_atom_site_fract_y
_atom_site_fract_z
Si Si1 0.494171 0.040924 0.393652
Si Si2 0.866738 0.188408 0.406920
Si Si3 0.642911 0.888020 0.116657
Si Si4 0.122166 0.368788 0.668111
Si Si5 0.068298 0.195378 0.960552
Si Si6 0.294955 0.100154 0.450553
Si Si7 0.750000 0.750000 0.250000
Si Si8 0.107532 0.598560 0.007681
O O1 0.541249 0.194217 0.401383
O O2 0.367406 0.038377 0.409870
O O3 0.531100 0.982933 0.344807
O O4 0.555152 0.937185 0.428744
O O5 0.750000 0.250000 0.388925
O O6 0.848554 0.147661 0.459194
O O7 0.901432 0.043068 0.384833
O O8 0.767740 0.898223 0.136997
O O9 0.580566 0.780724 0.149620
O O10 0.635657 0.814797 0.067351
O O11 0.171804 0.343814 0.717641
O O12 0.947309 0.265709 0.969170
O O13 0.126456 0.142773 0.006360
O O14 0.250000 0.250000 0.435901
O O15 0.200084 0.992209 0.466577
O O16 0.000000 0.500000 0.000000
#
# Coordination Sequence:
#
# PCOD9391634 Si02
#       8
#     8   8   8   8   8   8   2   8
#     4  11  23  34  49  76 107 143 185 243 279 319
#     4  12  20  30  47  70 100 145 188 221 272 308
#     4   9  18  30  51  71 101 141 178 218 264 321
#     4   9  19  35  57  84 106 137 171 217 277 348
#     4  11  22  36  48  68 102 150 209 241 269 303
#     4  12  23  34  48  69 109 155 206 246 277 317
#     4   8  16  36  68  86 108 142 164 202 296 362
#     4  12  23  33  47  64  95 157 207 248 266 307
#
# _framework density 17.003176
#
# number of rings (size 3 to 8) (size 9 to 14) (size 15 to 20)
#    0.000    1.379    5.517    1.241    9.655    0.000 
#    0.000    0.000    0.000    6.621    0.000    0.000 
#    0.000   19.862    6.621    0.000    0.000    0.000 
#
# Total GULP energy -323336.874126 kJ/mol
# GULP energy per Si atom -5574.773692 kJ/mol
# Density = 1.696448 g / cm^3
# Si number density = 17.003176 Si / 1000 Ang^3
#
#
#
# Elastic Constant Matrix: (Units=GPa)
#
#
# Indices 1 2 3 4 5 6 
#
# 1 74.4286 30.5723 27.4624 0.0000 0.0000 0.0000
# 2 30.5723 116.2725 24.1121 0.0000 0.0000 0.0000
# 3 27.4624 24.1121 66.8015 0.0000 0.0000 0.0000
# 4 0.0000 0.0000 0.0000 10.8053 0.0000 0.0000
# 5 0.0000 0.0000 0.0000 0.0000 19.4990 0.0000
# 6 0.0000 0.0000 0.0000 0.0000 0.0000 33.0741
#
#
#
# Elastic Compliance Matrix: (Units=1/GPa)
#
#
# Indices 1 2 3 4 5 6 
#
# 1 0.016900 -0.003246 -0.005776 0.000000 0.000000 0.000000
# 2 -0.003246 0.009920 -0.002246 0.000000 0.000000 0.000000
# 3 -0.005776 -0.002246 0.018155 0.000000 0.000000 0.000000
# 4 0.000000 0.000000 0.000000 0.092547 0.000000 0.000000
# 5 0.000000 0.000000 0.000000 0.000000 0.051285 0.000000
# 6 0.000000 0.000000 0.000000 0.000000 0.000000 0.030235
#
#
# Mechanical properties :
#
#
# Convention : Reuss Voigt Hill
#
# Bulk Modulus (GPa) = 44.56588 46.86626 45.71607
# Shear Modulus (GPa) = 20.07564 24.36606 22.22085
#
# Velocity S-wave (km/s) = 3.43986 3.78965 3.61898
# Velocity P-wave (km/s) = 6.48414 6.83898 6.66392
#
# Compressibility (1/GPa) = 0.02243869
#
# Stress axis : x y z
#
# Youngs Moduli (GPa) = 59.17080 100.80909 55.08102
#
# Poissons Ratio (x) = 0.32721 0.31816
# Poissons Ratio (y) = 0.19206 0.12372
# Poissons Ratio (z) = 0.34178 0.22643
#
# Static dielectric constant tensor:
#      x y z
#    x 1.639450 0.000000 0.000000 
#    y 0.000000 1.646040 0.000000 
#    z 0.000000 0.000000 1.588020 
# 
# From -- ./inp_files/38946.got.cif
#   From: 2010.05.17/outbox.cif.g08.bks.cpg/sg48_20_cif.got.tgz:38946.got - 2010.06.03 20:39:00.
