data_PCOD9391197
_publ_section_title
;
Structure prediction by ZEFSAII (Michael W. Deem and Ramdas Pophale) SiO2 
 PCOD9391197
Probable space group: P N N N
;
_chemical_formula_sum "Si O2"
_cell_formula_units_Z 26
_cell_length_a 18.382325
_cell_length_b 7.055963
_cell_length_c 7.810287
_cell_angle_alpha 90.000000
_cell_angle_beta 90.000000
_cell_angle_gamma 90.000000
_cell_volume 1013.033315
_symmetry_space_group_name_H-M "P N N N"
_symmetry_group_IT_number 48
_space_group.IT_coordinate_system_code '2'
_symmetry_cell_setting 'orthorhombic'
loop_
_space_group_symop_operation_xyz
x,y,z
1/2-x,1/2-y,z
x,1/2-y,1/2-z
1/2-x,y,1/2-z
-x,-y,-z
1/2+x,1/2+y,-z
-x,1/2+y,1/2+z
1/2+x,-y,1/2+z
loop_
_atom_site_type_symbol
_atom_site_label
_atom_site_fract_x
_atom_site_fract_y
_atom_site_fract_z
Si Si1 0.482229 0.470170 0.697728
Si Si2 0.173163 0.468865 0.689175
Si Si3 0.861436 0.472516 0.703757
Si Si4 0.750000 0.750000 0.750000
O O1 0.478989 0.250000 0.750000
O O2 0.500000 0.500000 0.500000
O O3 0.402713 0.548722 0.738020
O O4 0.554749 0.539087 0.794195
O O5 0.173885 0.250000 0.750000
O O6 0.250000 0.548688 0.750000
O O7 0.167828 0.490050 0.485638
O O8 0.857526 0.250000 0.750000
O O9 0.809511 0.599870 0.825458
#
# Coordination Sequence:
#
# PCOD9391197 Si02
#       4
#     8   8   8   2
#     4  10  24  46  77 112 162 208 262 321 395 468
#     4  10  22  45  79 114 155 208 262 317 389 468
#     4  11  26  48  78 117 160 205 269 325 397 470
#     4  12  26  44  86 102 158 200 268 316 400 458
#
# _framework density 25.665493000000001
#
# number of rings (size 3 to 8) (size 9 to 14) (size 15 to 20)
#    0.000    1.538    0.000    3.231   12.923    0.000 
#    0.000    0.000    0.000    0.000    0.000    0.000 
#    0.000    0.000    0.000    0.000    0.000    0.000 
#
# Total GULP energy -145375.711093 kJ/mol
# GULP energy per Si atom -5591.373504 kJ/mol
# Density = 2.560708 g / cm^3
# Si number density = 25.665493 Si / 1000 Ang^3
#
#
#
# Elastic Constant Matrix: (Units=GPa)
#
#
# Indices 1 2 3 4 5 6 
#
# 1 343.8949 51.7567 75.7578 0.0000 0.0000 0.0000
# 2 51.7567 199.2945 30.4426 0.0000 0.0000 0.0000
# 3 75.7578 30.4426 179.0489 0.0000 0.0000 0.0000
# 4 0.0000 0.0000 0.0000 38.8909 0.0000 0.0000
# 5 0.0000 0.0000 0.0000 0.0000 55.4134 0.0000
# 6 0.0000 0.0000 0.0000 0.0000 0.0000 -472.6159
#
#
#
# Elastic Compliance Matrix: (Units=1/GPa)
#
#
# Indices 1 2 3 4 5 6 
#
# 1 0.003289 -0.000659 -0.001280 0.000000 0.000000 0.000000
# 2 -0.000659 0.005283 -0.000620 0.000000 0.000000 0.000000
# 3 -0.001280 -0.000620 0.006232 0.000000 0.000000 0.000000
# 4 0.000000 0.000000 0.000000 0.025713 0.000000 0.000000
# 5 0.000000 0.000000 0.000000 0.000000 0.018046 0.000000
# 6 0.000000 0.000000 0.000000 0.000000 0.000000 -0.002116
#
#
# Mechanical properties :
#
#
# Convention : Reuss Voigt Hill
#
# Bulk Modulus (GPa) = 103.21633 115.35027 109.28330
# Shear Modulus (GPa) = 77.16938 -38.04358 19.56290
#
# Velocity S-wave (km/s) = 5.48932 -3.85422 2.76384
# Velocity P-wave (km/s) = 8.97107 5.02340 7.27031
#
# Compressibility (1/GPa) = 0.00968839
#
# Stress axis : x y z
#
# Youngs Moduli (GPa) = 304.05512 189.27203 160.46672
#
# Poissons Ratio (x) = 0.12467 0.20533
# Poissons Ratio (y) = 0.20027 0.09943
# Poissons Ratio (z) = 0.38906 0.11728
#
# Static dielectric constant tensor:
#      x y z
#    x 2.109830 0.000000 0.000000 
#    y 0.000000 2.310250 0.000000 
#    z 0.000000 0.000000 0.250270 
# 
# From -- ./inp_files/13576.got.cif
#   From: 2010.05.17/outbox.cif.g08.bks.cpg/sg48_7_cif.got.tgz:13576.got - 2010.06.03 20:39:00.
