data_PCOD9391122
_publ_section_title
;
Structure prediction by ZEFSAII (Michael W. Deem and Ramdas Pophale) SiO2 
 PCOD9391122
Probable space group: P N N N
;
_chemical_formula_sum "Si O2"
_cell_formula_units_Z 48
_cell_length_a 8.718828
_cell_length_b 13.982675
_cell_length_c 18.386188
_cell_angle_alpha 90.000000
_cell_angle_beta 90.000000
_cell_angle_gamma 90.000000
_cell_volume 2241.506849
_symmetry_space_group_name_H-M "P N N N"
_symmetry_group_IT_number 48
_space_group.IT_coordinate_system_code '2'
_symmetry_cell_setting 'orthorhombic'
loop_
_space_group_symop_operation_xyz
x,y,z
1/2-x,1/2-y,z
x,1/2-y,1/2-z
1/2-x,y,1/2-z
-x,-y,-z
1/2+x,1/2+y,-z
-x,1/2+y,1/2+z
1/2+x,-y,1/2+z
loop_
_atom_site_type_symbol
_atom_site_label
_atom_site_fract_x
_atom_site_fract_y
_atom_site_fract_z
Si Si1 0.662790 0.150363 0.316874
Si Si2 0.584164 0.279307 0.664216
Si Si3 0.364195 0.515218 0.405018
Si Si4 0.815825 0.026641 0.423685
Si Si5 0.889348 0.962145 0.805964
Si Si6 0.848175 0.877315 0.175452
O O1 0.750000 0.250000 0.320516
O O2 0.750000 0.097268 0.250000
O O3 0.485110 0.135521 0.299544
O O4 0.694685 0.101407 0.393408
O O5 0.750000 0.250000 0.632862
O O6 0.590719 0.250000 0.750000
O O7 0.587653 0.389372 0.639858
O O8 0.435252 0.216390 0.643743
O O9 0.514351 0.450193 0.392828
O O10 0.339976 0.530893 0.490640
O O11 0.204479 0.472173 0.379735
O O12 0.754040 0.928674 0.386615
O O13 0.750000 0.972673 0.750000
O O14 0.013972 0.047982 0.803940
O O15 0.750000 0.860406 0.250000
#
# Coordination Sequence:
#
# PCOD9391122 Si02
#       6
#     8   8   8   8   8   8
#     4  10  22  42  64  90 122 160 217 272 320 374
#     4  11  22  38  60  96 131 165 217 274 326 389
#     4  11  23  40  62  90 133 173 215 265 323 396
#     4  10  23  42  60  90 128 174 217 263 325 391
#     4  11  20  38  67  95 125 164 217 271 324 389
#     4  11  22  38  66  98 131 170 222 274 330 398
#
# _framework density 21.414166000000002
#
# number of rings (size 3 to 8) (size 9 to 14) (size 15 to 20)
#    0.000    1.333    1.667    6.000    0.000    5.667 
#    3.000    5.833    0.000    0.000    0.000    0.000 
#    0.000    0.000    0.000    0.000    0.000    0.000 
#
# Total GULP energy -267331.311898 kJ/mol
# GULP energy per Si atom -5569.402331 kJ/mol
# Density = 2.136543 g / cm^3
# Si number density = 21.414166 Si / 1000 Ang^3
#
#
#
# Elastic Constant Matrix: (Units=GPa)
#
#
# Indices 1 2 3 4 5 6 
#
# 1 155.8435 31.4361 28.6182 0.0000 0.0000 0.0000
# 2 31.4361 64.3175 19.7114 0.0000 0.0000 0.0000
# 3 28.6182 19.7114 87.7095 0.0000 0.0000 0.0000
# 4 0.0000 0.0000 0.0000 13.7652 0.0000 0.0000
# 5 0.0000 0.0000 0.0000 0.0000 30.2194 0.0000
# 6 0.0000 0.0000 0.0000 0.0000 0.0000 28.1492
#
#
#
# Elastic Compliance Matrix: (Units=1/GPa)
#
#
# Indices 1 2 3 4 5 6 
#
# 1 0.007349 -0.003069 -0.001708 0.000000 0.000000 0.000000
# 2 -0.003069 0.017979 -0.003039 0.000000 0.000000 0.000000
# 3 -0.001708 -0.003039 0.012642 0.000000 0.000000 0.000000
# 4 0.000000 0.000000 0.000000 0.072647 0.000000 0.000000
# 5 0.000000 0.000000 0.000000 0.000000 0.033091 0.000000
# 6 0.000000 0.000000 0.000000 0.000000 0.000000 0.035525
#
#
# Mechanical properties :
#
#
# Convention : Reuss Voigt Hill
#
# Bulk Modulus (GPa) = 44.76727 51.93353 48.35040
# Shear Modulus (GPa) = 24.71430 29.63375 27.17402
#
# Velocity S-wave (km/s) = 3.40090 3.72403 3.56613
# Velocity P-wave (km/s) = 6.03095 6.54185 6.29159
#
# Compressibility (1/GPa) = 0.02233775
#
# Stress axis : x y z
#
# Youngs Moduli (GPa) = 136.06581 55.62007 79.10312
#
# Poissons Ratio (x) = 0.17067 0.13514
# Poissons Ratio (y) = 0.41752 0.24042
# Poissons Ratio (z) = 0.23245 0.16905
#
# Static dielectric constant tensor:
#      x y z
#    x 1.820400 0.000000 0.000000 
#    y 0.000000 1.916550 0.000000 
#    z 0.000000 0.000000 1.868250 
# 
# From -- ./inp_files/30246.got.cif
#   From: 2010.05.17/outbox.cif.g08.bks.cpg/sg48_16_cif.got.tgz:30246.got - 2010.06.03 20:39:00.
