data_PCOD9391325
_publ_section_title
;
Structure prediction by ZEFSAII (Michael W. Deem and Ramdas Pophale) SiO2 
 PCOD9391325
Probable space group: P N N N
;
_chemical_formula_sum "Si O2"
_cell_formula_units_Z 64
_cell_length_a 12.074143
_cell_length_b 14.568272
_cell_length_c 16.565440
_cell_angle_alpha 90.000000
_cell_angle_beta 90.000000
_cell_angle_gamma 90.000000
_cell_volume 2913.850947
_symmetry_space_group_name_H-M "P N N N"
_symmetry_group_IT_number 48
_space_group.IT_coordinate_system_code '2'
_symmetry_cell_setting 'orthorhombic'
loop_
_space_group_symop_operation_xyz
x,y,z
1/2-x,1/2-y,z
x,1/2-y,1/2-z
1/2-x,y,1/2-z
-x,-y,-z
1/2+x,1/2+y,-z
-x,1/2+y,1/2+z
1/2+x,-y,1/2+z
loop_
_atom_site_type_symbol
_atom_site_label
_atom_site_fract_x
_atom_site_fract_y
_atom_site_fract_z
Si Si1 0.133691 0.476174 0.798731
Si Si2 0.362274 0.943975 0.072996
Si Si3 0.620322 0.771304 0.655922
Si Si4 0.028673 0.887028 0.588725
Si Si5 0.371286 0.734621 0.345096
Si Si6 0.243522 0.356387 0.574986
Si Si7 0.025375 0.099184 0.852956
Si Si8 0.635159 0.963479 0.576558
O O1 0.250000 0.486293 0.750000
O O2 0.095627 0.573381 0.835278
O O3 0.157498 0.407915 0.876419
O O4 0.038539 0.444359 0.735929
O O5 0.405188 0.867558 0.134130
O O6 0.431179 0.038109 0.074267
O O7 0.237119 0.968994 0.098629
O O8 0.387389 0.896187 0.986634
O O9 0.750000 0.750000 0.639799
O O10 0.599903 0.750000 0.750000
O O11 0.535351 0.708360 0.604299
O O12 0.612125 0.878071 0.635186
O O13 0.250000 0.750000 0.381258
O O14 0.365837 0.750000 0.250000
O O15 0.451317 0.813537 0.372986
O O16 0.250000 0.250000 0.549336
O O17 0.146517 0.358528 0.639552
O O18 0.189407 0.417659 0.503748
O O19 0.976886 0.022785 0.913940
#
# Coordination Sequence:
#
# PCOD9391325 Si02
#       8
#     8   8   8   8   8   8   8   8
#     4  10  23  45  69 103 143 192 240 298 359 437
#     4  11  24  40  70 100 138 183 226 289 355 421
#     4  11  24  41  66 101 140 184 242 294 352 421
#     4  11  23  43  69 100 138 186 236 286 352 420
#     4  11  24  41  62  97 135 174 224 282 357 430
#     4  11  26  42  71 101 143 185 242 294 356 438
#     4  11  25  42  71 100 144 184 235 295 366 425
#     4  12  23  46  67 105 140 184 238 302 358 422
#
# _framework density 21.96406
#
# number of rings (size 3 to 8) (size 9 to 14) (size 15 to 20)
#    0.000    1.000    3.750    2.250    5.250    1.750 
#    0.000    0.000    2.750    2.250    0.000    0.000 
#    0.000    0.000    0.000    0.000    0.000    0.000 
#
# Total GULP energy -356762.235266 kJ/mol
# GULP energy per Si atom -5574.409926 kJ/mol
# Density = 2.191407 g / cm^3
# Si number density = 21.964060 Si / 1000 Ang^3
#
#
#
# Elastic Constant Matrix: (Units=GPa)
#
#
# Indices 1 2 3 4 5 6 
#
# 1 88.3121 38.4874 8.8859 0.0000 0.0000 0.0000
# 2 38.4874 121.6461 29.9550 0.0000 0.0000 0.0000
# 3 8.8859 29.9550 84.6096 0.0000 0.0000 0.0000
# 4 0.0000 0.0000 0.0000 18.6129 0.0000 0.0000
# 5 0.0000 0.0000 0.0000 0.0000 22.3326 0.0000
# 6 0.0000 0.0000 0.0000 0.0000 0.0000 25.7319
#
#
#
# Elastic Compliance Matrix: (Units=1/GPa)
#
#
# Indices 1 2 3 4 5 6 
#
# 1 0.013135 -0.004181 0.000101 0.000000 0.000000 0.000000
# 2 -0.004181 0.010336 -0.003220 0.000000 0.000000 0.000000
# 3 0.000101 -0.003220 0.012949 0.000000 0.000000 0.000000
# 4 0.000000 0.000000 0.000000 0.053726 0.000000 0.000000
# 5 0.000000 0.000000 0.000000 0.000000 0.044778 0.000000
# 6 0.000000 0.000000 0.000000 0.000000 0.000000 0.038862
#
#
# Mechanical properties :
#
#
# Convention : Reuss Voigt Hill
#
# Bulk Modulus (GPa) = 45.83090 49.91383 47.87236
# Shear Modulus (GPa) = 25.55451 27.81811 26.68631
#
# Velocity S-wave (km/s) = 3.41467 3.56269 3.48947
# Velocity P-wave (km/s) = 6.03806 6.30066 6.17076
#
# Compressibility (1/GPa) = 0.02181934
#
# Stress axis : x y z
#
# Youngs Moduli (GPa) = 76.13064 96.74659 77.22869
#
# Poissons Ratio (x) = 0.40446 -0.00777
# Poissons Ratio (y) = 0.31827 0.24871
# Poissons Ratio (z) = -0.00766 0.31156
#
# Static dielectric constant tensor:
#      x y z
#    x 1.911480 0.000000 0.000000 
#    y 0.000000 1.830380 0.000000 
#    z 0.000000 0.000000 1.884300 
# 
# From -- ./inp_files/31180.got.cif
#   From: 2010.05.17/outbox.cif.g08.bks.cpg/sg48_16_cif.got.tgz:31180.got - 2010.06.03 20:39:00.
