data_PCOD9391360
_publ_section_title
;
Structure prediction by ZEFSAII (Michael W. Deem and Ramdas Pophale) SiO2 
 PCOD9391360
Probable space group: P N N N
;
_chemical_formula_sum "Si O2"
_cell_formula_units_Z 26
_cell_length_a 25.126305
_cell_length_b 5.034522
_cell_length_c 9.124910
_cell_angle_alpha 90.000000
_cell_angle_beta 90.000000
_cell_angle_gamma 90.000000
_cell_volume 1154.291400
_symmetry_space_group_name_H-M "P N N N"
_symmetry_group_IT_number 48
_space_group.IT_coordinate_system_code '2'
_symmetry_cell_setting 'orthorhombic'
loop_
_space_group_symop_operation_xyz
x,y,z
1/2-x,1/2-y,z
x,1/2-y,1/2-z
1/2-x,y,1/2-z
-x,-y,-z
1/2+x,1/2+y,-z
-x,1/2+y,1/2+z
1/2+x,-y,1/2+z
loop_
_atom_site_type_symbol
_atom_site_label
_atom_site_fract_x
_atom_site_fract_y
_atom_site_fract_z
Si Si1 0.195307 0.367527 0.964710
Si Si2 0.527438 0.249987 0.575925
Si Si3 0.629339 0.349812 0.096973
Si Si4 0.750000 0.750000 0.750000
O O1 0.250000 0.250000 0.904085
O O2 0.179660 0.655134 0.911030
O O3 0.149424 0.151950 0.924333
O O4 0.210219 0.395039 0.137340
O O5 0.520070 0.250000 0.750000
O O6 0.500000 0.500000 0.500000
O O7 0.589260 0.228997 0.532040
O O8 0.500000 0.000000 0.500000
O O9 0.602981 0.250000 0.250000
#
# Coordination Sequence:
#
# PCOD9391360 Si02
#       4
#     8   8   8   2
#     4  10  24  40  67  92 137 171 221 265 324 391
#     4  12  27  47  74 100 137 175 227 282 342 403
#     4  12  25  42  68  98 134 173 220 271 335 394
#     4   8  24  42  62  94 140 166 230 262 328 386
#
# _framework density 22.524642
#
# number of rings (size 3 to 8) (size 9 to 14) (size 15 to 20)
#    0.923    0.000    0.000    6.462    4.308    4.923 
#    0.000    0.000    0.000    0.000    0.000    0.000 
#    0.000    0.000    0.000    0.000    0.000    0.000 
#
# Total GULP energy -145153.470902 kJ/mol
# GULP energy per Si atom -5582.825804 kJ/mol
# Density = 2.247337 g / cm^3
# Si number density = 22.524642 Si / 1000 Ang^3
#
#
#
# Elastic Constant Matrix: (Units=GPa)
#
#
# Indices 1 2 3 4 5 6 
#
# 1 69.6749 14.8520 20.3143 0.0000 0.0000 0.0000
# 2 14.8520 120.9899 40.0473 0.0000 0.0000 0.0000
# 3 20.3143 40.0473 206.3718 0.0000 0.0000 0.0000
# 4 0.0000 0.0000 0.0000 26.4816 0.0000 0.0000
# 5 0.0000 0.0000 0.0000 0.0000 23.7191 0.0000
# 6 0.0000 0.0000 0.0000 0.0000 0.0000 35.0348
#
#
#
# Elastic Compliance Matrix: (Units=1/GPa)
#
#
# Indices 1 2 3 4 5 6 
#
# 1 0.015010 -0.001446 -0.001197 0.000000 0.000000 0.000000
# 2 -0.001446 0.008972 -0.001599 0.000000 0.000000 0.000000
# 3 -0.001197 -0.001599 0.005274 0.000000 0.000000 0.000000
# 4 0.000000 0.000000 0.000000 0.037762 0.000000 0.000000
# 5 0.000000 0.000000 0.000000 0.000000 0.042160 0.000000
# 6 0.000000 0.000000 0.000000 0.000000 0.000000 0.028543
#
#
# Mechanical properties :
#
#
# Convention : Reuss Voigt Hill
#
# Bulk Modulus (GPa) = 48.14290 60.82931 54.48611
# Shear Modulus (GPa) = 32.65248 38.50199 35.57723
#
# Velocity S-wave (km/s) = 3.81154 4.13889 3.97858
# Velocity P-wave (km/s) = 6.38672 7.06433 6.73406
#
# Compressibility (1/GPa) = 0.02077149
#
# Stress axis : x y z
#
# Youngs Moduli (GPa) = 66.62399 111.45978 189.62182
#
# Poissons Ratio (x) = 0.16121 0.22694
# Poissons Ratio (y) = 0.09636 0.30314
# Poissons Ratio (z) = 0.07974 0.17819
#
# Static dielectric constant tensor:
#      x y z
#    x 1.913130 0.000000 0.000000 
#    y 0.000000 1.760860 0.000000 
#    z 0.000000 0.000000 1.976340 
# 
# From -- ./inp_files/6160.got.cif
#   From: 2010.05.17/outbox.cif.g08.bks.cpg/sg48_4_cif.got.tgz:6160.got - 2010.06.03 20:39:00.
