data_PCOD9391370
_publ_section_title
;
Structure prediction by ZEFSAII (Michael W. Deem and Ramdas Pophale) SiO2 
 PCOD9391370
Probable space group: P N N N
;
_chemical_formula_sum "Si O2"
_cell_formula_units_Z 32
_cell_length_a 13.469459
_cell_length_b 5.364562
_cell_length_c 17.229949
_cell_angle_alpha 90.000000
_cell_angle_beta 90.000000
_cell_angle_gamma 90.000000
_cell_volume 1244.997311
_symmetry_space_group_name_H-M "P N N N"
_symmetry_group_IT_number 48
_space_group.IT_coordinate_system_code '2'
_symmetry_cell_setting 'orthorhombic'
loop_
_space_group_symop_operation_xyz
x,y,z
1/2-x,1/2-y,z
x,1/2-y,1/2-z
1/2-x,y,1/2-z
-x,-y,-z
1/2+x,1/2+y,-z
-x,1/2+y,1/2+z
1/2+x,-y,1/2+z
loop_
_atom_site_type_symbol
_atom_site_label
_atom_site_fract_x
_atom_site_fract_y
_atom_site_fract_z
Si Si1 0.362500 0.230828 0.950268
Si Si2 0.404227 0.506233 0.797727
Si Si3 0.015934 0.173067 0.396933
Si Si4 0.791676 0.489691 0.838034
O O1 0.250000 0.250000 0.977575
O O2 0.356737 0.427661 0.879489
O O3 0.413710 0.976666 0.915320
O O4 0.435644 0.270807 0.023573
O O5 0.404956 0.250000 0.750000
O O6 0.506695 0.889054 0.667171
O O7 0.365719 0.750000 0.750000
O O8 0.091707 0.985626 0.354715
O O9 0.750000 0.250000 0.880969
O O10 0.750000 0.482297 0.750000
O O11 0.750000 0.750000 0.866234
#
# Coordination Sequence:
#
# PCOD9391370 Si02
#       4
#     8   8   8   8
#     4  11  27  54  81 122 166 225 283 343 422 508
#     4  12  27  51  83 118 164 215 282 341 414 492
#     4  11  26  52  83 119 169 218 275 354 425 505
#     4  10  24  41  72 113 159 202 265 330 417 495
#
# _framework density 25.702864999999999
#
# number of rings (size 3 to 8) (size 9 to 14) (size 15 to 20)
#    0.000    1.000    2.500    1.500    7.000    3.500 
#   13.500    0.000    0.000    0.000    0.000    0.000 
#    0.000    0.000    0.000    0.000    0.000    0.000 
#
# Total GULP energy -178416.285095 kJ/mol
# GULP energy per Si atom -5575.508909 kJ/mol
# Density = 2.564436 g / cm^3
# Si number density = 25.702865 Si / 1000 Ang^3
#
#
#
# Elastic Constant Matrix: (Units=GPa)
#
#
# Indices 1 2 3 4 5 6 
#
# 1 122.6444 58.8753 37.2941 0.0000 0.0000 0.0000
# 2 58.8753 200.5431 62.7367 0.0000 0.0000 0.0000
# 3 37.2941 62.7367 200.2576 0.0000 0.0000 0.0000
# 4 0.0000 0.0000 0.0000 -15.4120 0.0000 0.0000
# 5 0.0000 0.0000 0.0000 0.0000 42.4046 0.0000
# 6 0.0000 0.0000 0.0000 0.0000 0.0000 27.4822
#
#
#
# Elastic Compliance Matrix: (Units=1/GPa)
#
#
# Indices 1 2 3 4 5 6 
#
# 1 0.009672 -0.002523 -0.001011 0.000000 0.000000 0.000000
# 2 -0.002523 0.006187 -0.001468 0.000000 0.000000 0.000000
# 3 -0.001011 -0.001468 0.005642 0.000000 0.000000 0.000000
# 4 0.000000 0.000000 0.000000 -0.064885 0.000000 0.000000
# 5 0.000000 0.000000 0.000000 0.000000 0.023582 0.000000
# 6 0.000000 0.000000 0.000000 0.000000 0.000000 0.036387
#
#
# Mechanical properties :
#
#
# Convention : Reuss Voigt Hill
#
# Bulk Modulus (GPa) = 86.98691 93.47304 90.22998
# Shear Modulus (GPa) = 164.35251 35.19757 99.77504
#
# Velocity S-wave (km/s) = 8.00513 3.70456 6.23722
# Velocity P-wave (km/s) = 10.92518 7.39892 9.33016
#
# Compressibility (1/GPa) = 0.01149598
#
# Stress axis : x y z
#
# Youngs Moduli (GPa) = 103.38735 161.64013 177.24972
#
# Poissons Ratio (x) = 0.40788 0.17916
# Poissons Ratio (y) = 0.26089 0.26024
# Poissons Ratio (z) = 0.10450 0.23732
#
# Static dielectric constant tensor:
#      x y z
#    x 2.425000 0.000000 0.000000 
#    y 0.000000 2.183840 0.000000 
#    z 0.000000 0.000000 1.966990 
# 
# From -- ./inp_files/31312.got.cif
#   From: 2010.05.17/outbox.cif.g08.bks.cpg/sg48_16_cif.got.tgz:31312.got - 2010.06.03 20:39:00.
