data_PCOD9391196
_publ_section_title
;
Structure prediction by ZEFSAII (Michael W. Deem and Ramdas Pophale) SiO2 
 PCOD9391196
Probable space group: P N N N
;
_chemical_formula_sum "Si O2"
_cell_formula_units_Z 34
_cell_length_a 7.721864
_cell_length_b 19.239969
_cell_length_c 8.915942
_cell_angle_alpha 90.000000
_cell_angle_beta 90.000000
_cell_angle_gamma 90.000000
_cell_volume 1324.627451
_symmetry_space_group_name_H-M "P N N N"
_symmetry_group_IT_number 48
_space_group.IT_coordinate_system_code '2'
_symmetry_cell_setting 'orthorhombic'
loop_
_space_group_symop_operation_xyz
x,y,z
1/2-x,1/2-y,z
x,1/2-y,1/2-z
1/2-x,y,1/2-z
-x,-y,-z
1/2+x,1/2+y,-z
-x,1/2+y,1/2+z
1/2+x,-y,1/2+z
loop_
_atom_site_type_symbol
_atom_site_label
_atom_site_fract_x
_atom_site_fract_y
_atom_site_fract_z
Si Si1 0.973017 0.314328 0.964682
Si Si2 0.440948 0.415110 0.289558
Si Si3 0.750000 0.750000 0.250000
Si Si4 0.933342 0.540185 0.342510
Si Si5 0.415660 0.662203 0.984865
O O1 0.118296 0.296440 0.845678
O O2 0.770247 0.328081 0.935815
O O3 0.974136 0.240443 0.053452
O O4 0.023442 0.383353 0.051168
O O5 0.250000 0.390522 0.250000
O O6 0.449103 0.497779 0.275071
O O7 0.574368 0.380856 0.170155
O O8 0.750000 0.535509 0.250000
O O9 0.000000 0.500000 0.500000
O O10 0.970487 0.617760 0.398587
#
# Coordination Sequence:
#
# PCOD9391196 Si02
#       5
#     8   8   2   8   8
#     4  11  24  46  74 110 161 217 279 344 427 516
#     4  11  22  43  75 118 158 215 281 348 421 506
#     4  12  28  46  74 116 162 220 278 362 426 512
#     4  10  22  45  78 122 169 222 282 357 443 524
#     4  10  23  44  77 115 158 214 272 356 428 507
#
# _framework density 25.667597000000001
#
# number of rings (size 3 to 8) (size 9 to 14) (size 15 to 20)
#    0.000    1.412    0.000    5.647    1.647    4.706 
#    4.235    5.882    0.000    0.000    0.000    0.000 
#    0.000    0.000    0.000    0.000    0.000    0.000 
#
# Total GULP energy -189490.189660 kJ/mol
# GULP energy per Si atom -5573.240872 kJ/mol
# Density = 2.560918 g / cm^3
# Si number density = 25.667597 Si / 1000 Ang^3
#
#
#
# Elastic Constant Matrix: (Units=GPa)
#
#
# Indices 1 2 3 4 5 6 
#
# 1 156.7852 5.5160 60.8893 0.0000 0.0000 0.0000
# 2 5.5160 71.7522 45.7998 0.0000 0.0000 0.0000
# 3 60.8893 45.7998 114.7559 0.0000 0.0000 0.0000
# 4 0.0000 0.0000 0.0000 89.7627 0.0000 0.0000
# 5 0.0000 0.0000 0.0000 0.0000 37.6920 0.0000
# 6 0.0000 0.0000 0.0000 0.0000 0.0000 19.5053
#
#
#
# Elastic Compliance Matrix: (Units=1/GPa)
#
#
# Indices 1 2 3 4 5 6 
#
# 1 0.008483 0.002980 -0.005691 0.000000 0.000000 0.000000
# 2 0.002980 0.019748 -0.009463 0.000000 0.000000 0.000000
# 3 -0.005691 -0.009463 0.015510 0.000000 0.000000 0.000000
# 4 0.000000 0.000000 0.000000 0.011140 0.000000 0.000000
# 5 0.000000 0.000000 0.000000 0.000000 0.026531 0.000000
# 6 0.000000 0.000000 0.000000 0.000000 0.000000 0.051268
#
#
# Mechanical properties :
#
#
# Convention : Reuss Voigt Hill
#
# Bulk Modulus (GPa) = 51.55969 63.07816 57.31893
# Shear Modulus (GPa) = 30.58245 44.79788 37.69017
#
# Velocity S-wave (km/s) = 3.45553 4.18222 3.83612
# Velocity P-wave (km/s) = 6.00433 6.92457 6.48080
#
# Compressibility (1/GPa) = 0.01939500
#
# Stress axis : x y z
#
# Youngs Moduli (GPa) = 117.87818 50.63831 64.47343
#
# Poissons Ratio (x) = -0.15091 0.36690
# Poissons Ratio (y) = -0.35130 0.61010
# Poissons Ratio (z) = 0.67081 0.47918
#
# Static dielectric constant tensor:
#      x y z
#    x 1.965350 0.000000 0.000000 
#    y 0.000000 2.050690 0.000000 
#    z 0.000000 0.000000 2.102680 
# 
# From -- ./inp_files/8771.got.cif
#   From: 2010.05.17/outbox.cif.g08.bks.cpg/sg48_5_cif.got.tgz:8771.got - 2010.06.03 20:39:00.
