data_PCOD9391188
_publ_section_title
;
Structure prediction by ZEFSAII (Michael W. Deem and Ramdas Pophale) SiO2 
 PCOD9391188
Probable space group: P N N N
;
_chemical_formula_sum "Si O2"
_cell_formula_units_Z 26
_cell_length_a 11.015395
_cell_length_b 11.356605
_cell_length_c 7.934197
_cell_angle_alpha 90.000000
_cell_angle_beta 90.000000
_cell_angle_gamma 90.000000
_cell_volume 992.548129
_symmetry_space_group_name_H-M "P N N N"
_symmetry_group_IT_number 48
_space_group.IT_coordinate_system_code '2'
_symmetry_cell_setting 'orthorhombic'
loop_
_space_group_symop_operation_xyz
x,y,z
1/2-x,1/2-y,z
x,1/2-y,1/2-z
1/2-x,y,1/2-z
-x,-y,-z
1/2+x,1/2+y,-z
-x,1/2+y,1/2+z
1/2+x,-y,1/2+z
loop_
_atom_site_type_symbol
_atom_site_label
_atom_site_fract_x
_atom_site_fract_y
_atom_site_fract_z
Si Si1 0.250000 0.541962 0.750000
Si Si2 0.509493 0.191820 0.581447
Si Si3 0.071268 0.750000 0.750000
Si Si4 0.250000 0.750000 0.250000
Si Si5 0.725477 0.610201 0.945670
O O1 0.145349 0.634456 0.703382
O O2 0.290602 0.465710 0.589508
O O3 0.455659 0.250000 0.750000
O O4 0.508241 0.282000 0.423993
O O5 0.651540 0.176441 0.639862
O O6 0.415033 0.097652 0.508167
O O7 0.750000 0.750000 0.960067
O O8 0.750000 0.578979 0.750000
#
# Coordination Sequence:
#
# PCOD9391188 Si02
#       5
#     4   8   4   2   8
#     4  11  25  42  72 110 151 197 256 316 380 449
#     4  10  22  44  74 105 147 200 253 316 376 447
#     4  11  24  44  71 106 152 201 254 315 372 462
#     4   8  20  38  70 104 142 198 248 304 376 432
#     4  11  24  46  74 107 150 198 253 315 388 456
#
# _framework density 26.195202999999999
#
# number of rings (size 3 to 8) (size 9 to 14) (size 15 to 20)
#    0.923    0.615    0.000    6.000    0.000    3.692 
#    0.000   10.769    0.000    0.000    0.000    0.000 
#    0.000    0.000    0.000    0.000    0.000    0.000 
#
# Total GULP energy -144861.997431 kJ/mol
# GULP energy per Si atom -5571.615286 kJ/mol
# Density = 2.613558 g / cm^3
# Si number density = 26.195203 Si / 1000 Ang^3
#
#
#
# Elastic Constant Matrix: (Units=GPa)
#
#
# Indices 1 2 3 4 5 6 
#
# 1 144.6994 29.2719 41.3624 0.0000 0.0000 0.0000
# 2 29.2719 127.4465 83.5000 0.0000 0.0000 0.0000
# 3 41.3624 83.5000 300.4678 0.0000 0.0000 0.0000
# 4 0.0000 0.0000 0.0000 39.4523 0.0000 0.0000
# 5 0.0000 0.0000 0.0000 0.0000 7.9291 0.0000
# 6 0.0000 0.0000 0.0000 0.0000 0.0000 47.6550
#
#
#
# Elastic Compliance Matrix: (Units=1/GPa)
#
#
# Indices 1 2 3 4 5 6 
#
# 1 0.007354 -0.001254 -0.000664 0.000000 0.000000 0.000000
# 2 -0.001254 0.009807 -0.002553 0.000000 0.000000 0.000000
# 3 -0.000664 -0.002553 0.004129 0.000000 0.000000 0.000000
# 4 0.000000 0.000000 0.000000 0.025347 0.000000 0.000000
# 5 0.000000 0.000000 0.000000 0.000000 0.126118 0.000000
# 6 0.000000 0.000000 0.000000 0.000000 0.000000 0.020984
#
#
# Mechanical properties :
#
#
# Convention : Reuss Voigt Hill
#
# Bulk Modulus (GPa) = 80.98002 97.87582 89.42792
# Shear Modulus (GPa) = 24.17833 46.90591 35.54212
#
# Velocity S-wave (km/s) = 3.04140 4.23617 3.68750
# Velocity P-wave (km/s) = 6.58139 7.83403 7.23487
#
# Compressibility (1/GPa) = 0.01234873
#
# Stress axis : x y z
#
# Youngs Moduli (GPa) = 135.97370 101.96829 242.19368
#
# Poissons Ratio (x) = 0.12789 0.16078
# Poissons Ratio (y) = 0.17054 0.61825
# Poissons Ratio (z) = 0.09027 0.26029
#
# Static dielectric constant tensor:
#      x y z
#    x 2.441320 0.000000 0.000000 
#    y 0.000000 2.004350 0.000000 
#    z 0.000000 0.000000 2.633240 
# 
# From -- ./inp_files/9877.got.cif
#   From: 2010.05.17/outbox.cif.g08.bks.cpg/sg48_5_cif.got.tgz:9877.got - 2010.06.03 20:39:00.
