data_PCOD9391850
_publ_section_title
;
Structure prediction by ZEFSAII (Michael W. Deem and Ramdas Pophale) SiO2 
 PCOD9391850
Probable space group: P N N N
;
_chemical_formula_sum "Si O2"
_cell_formula_units_Z 36
_cell_length_a 8.564143
_cell_length_b 13.151353
_cell_length_c 13.192678
_cell_angle_alpha 90.000000
_cell_angle_beta 90.000000
_cell_angle_gamma 90.000000
_cell_volume 1485.892217
_symmetry_space_group_name_H-M "P N N N"
_symmetry_group_IT_number 48
_space_group.IT_coordinate_system_code '2'
_symmetry_cell_setting 'orthorhombic'
loop_
_space_group_symop_operation_xyz
x,y,z
1/2-x,1/2-y,z
x,1/2-y,1/2-z
1/2-x,y,1/2-z
-x,-y,-z
1/2+x,1/2+y,-z
-x,1/2+y,1/2+z
1/2+x,-y,1/2+z
loop_
_atom_site_type_symbol
_atom_site_label
_atom_site_fract_x
_atom_site_fract_y
_atom_site_fract_z
Si Si1 0.145747 0.612029 0.931216
Si Si2 0.250000 0.250000 0.750000
Si Si3 0.858635 0.919887 0.105204
Si Si4 0.210282 0.570959 0.356433
Si Si5 0.797186 0.642197 0.910066
Si Si6 0.750000 0.250000 0.250000
O O1 0.222427 0.505450 0.891324
O O2 0.158064 0.681372 0.830718
O O3 0.967055 0.633392 0.962058
O O4 0.238602 0.625283 0.038133
O O5 0.155755 0.173927 0.819683
O O6 0.030148 0.959678 0.128121
O O7 0.835893 0.872738 0.994575
O O8 0.250000 0.624498 0.250000
O O9 0.301213 0.463420 0.349926
O O10 0.750000 0.750000 0.862198
#
# Coordination Sequence:
#
# PCOD9391850 Si02
#       6
#     8   2   8   8   8   2
#     4  11  27  49  77 109 156 199 260 312 395 459
#     4  12  26  40  82 102 142 196 260 288 396 444
#     4  11  25  48  73 110 155 201 249 322 381 462
#     4  11  27  47  77 110 156 198 250 324 392 456
#     4  11  25  47  75 107 153 201 260 313 378 466
#     4  12  30  44  84 106 148 204 256 318 380 474
#
# _framework density 24.227867
#
# number of rings (size 3 to 8) (size 9 to 14) (size 15 to 20)
#    0.000    0.889    1.111    6.000   15.556    0.444 
#    0.000    0.000    0.000    0.000    0.000    0.000 
#    0.000    0.000    0.000    0.000    0.000    0.000 
#
# Total GULP energy -200598.290385 kJ/mol
# GULP energy per Si atom -5572.174733 kJ/mol
# Density = 2.417272 g / cm^3
# Si number density = 24.227867 Si / 1000 Ang^3
#
#
#
# Elastic Constant Matrix: (Units=GPa)
#
#
# Indices 1 2 3 4 5 6 
#
# 1 106.2536 34.2789 12.8249 0.0000 0.0000 0.0000
# 2 34.2789 115.1611 33.7719 0.0000 0.0000 0.0000
# 3 12.8249 33.7719 165.6227 0.0000 0.0000 0.0000
# 4 0.0000 0.0000 0.0000-1999.5505 0.0000 0.0000
# 5 0.0000 0.0000 0.0000 0.0000 36.2512 0.0000
# 6 0.0000 0.0000 0.0000 0.0000 0.0000 -5.8373
#
#
#
# Elastic Compliance Matrix: (Units=1/GPa)
#
#
# Indices 1 2 3 4 5 6 
#
# 1 0.010417 -0.003046 -0.000185 0.000000 0.000000 0.000000
# 2 -0.003046 0.010127 -0.001829 0.000000 0.000000 0.000000
# 3 -0.000185 -0.001829 0.006425 0.000000 0.000000 0.000000
# 4 0.000000 0.000000 0.000000 -0.000500 0.000000 0.000000
# 5 0.000000 0.000000 0.000000 0.000000 0.027585 0.000000
# 6 0.000000 0.000000 0.000000 0.000000 0.000000 -0.171312
#
#
# Mechanical properties :
#
#
# Convention : Reuss Voigt Hill
#
# Bulk Modulus (GPa) = 59.35798 60.97653 60.16726
# Shear Modulus (GPa) = -49.25066 -373.41655 -211.33360
#
# Velocity S-wave (km/s) = -4.51356 -12.42825 -9.34970
# Velocity P-wave (km/s) = 1.61552 13.44344 9.57434
#
# Compressibility (1/GPa) = 0.01684693
#
# Stress axis : x y z
#
# Youngs Moduli (GPa) = 96.00076 98.74977 155.63883
#
# Poissons Ratio (x) = 0.30081 0.02886
# Poissons Ratio (y) = 0.29244 0.28467
# Poissons Ratio (z) = 0.01780 0.18061
#
# Static dielectric constant tensor:
#      x y z
#    x 1.193840 0.000000 0.000000 
#    y 0.000000 2.032860 0.000000 
#    z 0.000000 0.000000 1.916080 
# 
# From -- ./inp_files/25039.got.cif
#   From: 2010.05.17/outbox.cif.g08.bks.cpg/sg48_13_cif.got.tgz:25039.got - 2010.06.03 20:39:00.
