data_PCOD9391596
_publ_section_title
;
Structure prediction by ZEFSAII (Michael W. Deem and Ramdas Pophale) SiO2 
 PCOD9391596
Probable space group: P N N N
;
_chemical_formula_sum "Si O2"
_cell_formula_units_Z 64
_cell_length_a 20.679567
_cell_length_b 14.339558
_cell_length_c 12.259792
_cell_angle_alpha 90.000000
_cell_angle_beta 90.000000
_cell_angle_gamma 90.000000
_cell_volume 3635.467847
_symmetry_space_group_name_H-M "P N N N"
_symmetry_group_IT_number 48
_space_group.IT_coordinate_system_code '2'
_symmetry_cell_setting 'orthorhombic'
loop_
_space_group_symop_operation_xyz
x,y,z
1/2-x,1/2-y,z
x,1/2-y,1/2-z
1/2-x,y,1/2-z
-x,-y,-z
1/2+x,1/2+y,-z
-x,1/2+y,1/2+z
1/2+x,-y,1/2+z
loop_
_atom_site_type_symbol
_atom_site_label
_atom_site_fract_x
_atom_site_fract_y
_atom_site_fract_z
Si Si1 0.127921 0.250000 0.120570
Si Si2 0.483746 0.638795 0.250000
Si Si3 0.060196 0.930406 0.480922
Si Si4 0.472238 0.750000 0.879218
Si Si5 0.175825 0.070979 0.985669
Si Si6 0.939804 0.430406 0.519078
Si Si7 0.824175 0.929021 0.485669
Si Si8 0.365799 0.362123 0.750000
O O1 0.141674 0.250000 0.250000
O O2 0.050178 0.250000 0.105745
O O3 0.155869 0.158569 0.061477
O O4 0.155869 0.341431 0.061477
O O5 0.485786 0.750000 0.250000
O O6 0.448600 0.604923 0.358072
O O7 0.448600 0.604923 0.141928
O O8 0.558825 0.606820 0.250000
O O9 0.054289 0.842731 0.562239
O O10 0.125909 0.987522 0.494498
O O11 0.000000 0.000000 0.500000
O O12 0.458862 0.750000 0.750000
O O13 0.445711 0.657269 0.937761
O O14 0.250000 0.045902 0.006414
O O15 0.166885 0.102459 0.860234
O O16 0.125909 0.987522 0.005502
O O17 0.000000 0.500000 0.500000
O O18 0.833115 0.897541 0.360234
O O19 0.364283 0.250000 0.750000
#
# Coordination Sequence:
#
# PCOD9391596 Si02
#       8
#     8   8   8   8   8   8   8   8
#     4  11  23  41  63  93 130 166 206 260 321 378
#     4  11  22  41  67  95 125 157 214 271 311 361
#     4  12  24  41  66  94 126 168 211 259 310 372
#     4  11  24  42  66  97 126 159 213 271 314 360
#     4  12  26  41  62  94 132 171 208 254 317 383
#     4  12  24  41  66  94 126 168 211 259 310 372
#     4  12  26  41  62  94 132 171 208 254 317 383
#     4  11  21  38  65  95 128 161 203 264 325 375
#
# _framework density 17.604336
#
# number of rings (size 3 to 8) (size 9 to 14) (size 15 to 20)
#    0.000    0.500    7.500    0.750    5.250    1.500 
#    0.000    0.625    0.000    1.500    0.000    0.000 
#    0.000    0.000    0.000    0.000    0.000    0.000 
#
# Total GULP energy -357924.659305 kJ/mol
# GULP energy per Si atom -5592.572802 kJ/mol
# Density = 1.756427 g / cm^3
# Si number density = 17.604336 Si / 1000 Ang^3
#
#
#
# Elastic Constant Matrix: (Units=GPa)
#
#
# Indices 1 2 3 4 5 6 
#
# 1 154.4531 82.0610 65.0469 0.0000 0.0000 0.0000
# 2 82.0610 132.5806 68.9689 0.0000 0.0000 0.0000
# 3 65.0469 68.9689 149.4351 0.0000 0.0000 0.0000
# 4 0.0000 0.0000 0.0000 33.5104 0.0000 0.0000
# 5 0.0000 0.0000 0.0000 0.0000 7.7865 0.0000
# 6 0.0000 0.0000 0.0000 0.0000 0.0000 20.8788
#
#
#
# Elastic Compliance Matrix: (Units=1/GPa)
#
#
# Indices 1 2 3 4 5 6 
#
# 1 0.010075 -0.005204 -0.001984 0.000000 0.000000 0.000000
# 2 -0.005204 0.012614 -0.003556 0.000000 0.000000 0.000000
# 3 -0.001984 -0.003556 0.009197 0.000000 0.000000 0.000000
# 4 0.000000 0.000000 0.000000 0.029841 0.000000 0.000000
# 5 0.000000 0.000000 0.000000 0.000000 0.128428 0.000000
# 6 0.000000 0.000000 0.000000 0.000000 0.000000 0.047895
#
#
# Mechanical properties :
#
#
# Convention : Reuss Voigt Hill
#
# Bulk Modulus (GPa) = 96.17965 96.51357 96.34661
# Shear Modulus (GPa) = 19.01120 27.12794 23.06957
#
# Velocity S-wave (km/s) = 3.28977 3.92979 3.62394
# Velocity P-wave (km/s) = 8.31762 8.69102 8.50637
#
# Compressibility (1/GPa) = 0.01039721
#
# Stress axis : x y z
#
# Youngs Moduli (GPa) = 99.25910 79.27980 108.73478
#
# Poissons Ratio (x) = 0.41256 0.21569
# Poissons Ratio (y) = 0.51653 0.38670
# Poissons Ratio (z) = 0.19689 0.28195
#
# Static dielectric constant tensor:
#      x y z
#    x 1.584270 0.000000 0.000000 
#    y 0.000000 1.516160 0.000000 
#    z 0.000000 0.000000 1.586440 
# 
# From -- ./inp_files/22346.got.cif
#   From: 2010.05.17/outbox.cif.g08.bks.cpg/sg48_12_cif.got.tgz:22346.got - 2010.06.03 20:39:00.
