data_PCOD9391620
_publ_section_title
;
Structure prediction by ZEFSAII (Michael W. Deem and Ramdas Pophale) SiO2 
 PCOD9391620
Probable space group: P N N N
;
_chemical_formula_sum "Si O2"
_cell_formula_units_Z 40
_cell_length_a 12.341701
_cell_length_b 7.602749
_cell_length_c 17.577676
_cell_angle_alpha 90.000000
_cell_angle_beta 90.000000
_cell_angle_gamma 90.000000
_cell_volume 1649.328367
_symmetry_space_group_name_H-M "P N N N"
_symmetry_group_IT_number 48
_space_group.IT_coordinate_system_code '2'
_symmetry_cell_setting 'orthorhombic'
loop_
_space_group_symop_operation_xyz
x,y,z
1/2-x,1/2-y,z
x,1/2-y,1/2-z
1/2-x,y,1/2-z
-x,-y,-z
1/2+x,1/2+y,-z
-x,1/2+y,1/2+z
1/2+x,-y,1/2+z
loop_
_atom_site_type_symbol
_atom_site_label
_atom_site_fract_x
_atom_site_fract_y
_atom_site_fract_z
Si Si1 0.241067 0.964385 0.903814
Si Si2 0.141240 0.941289 0.284514
Si Si3 0.762017 0.957332 0.918425
Si Si4 0.571288 0.369781 0.316631
Si Si5 0.495676 0.957196 0.590062
O O1 0.250000 0.750000 0.900567
O O2 0.343264 0.007657 0.851132
O O3 0.120745 0.030855 0.881336
O O4 0.252318 0.014408 0.991773
O O5 0.132024 0.750000 0.250000
O O6 0.250000 0.027994 0.250000
O O7 0.170858 0.936777 0.373617
O O8 0.030619 0.042909 0.275599
O O9 0.750000 0.750000 0.904045
O O10 0.882236 0.010055 0.888795
O O11 0.622660 0.250000 0.250000
O O12 0.521114 0.246231 0.383845
O O13 0.500000 0.000000 0.500000
#
# Coordination Sequence:
#
# PCOD9391620 Si02
#       5
#     8   8   8   8   8
#     4   9  22  40  65 103 136 182 232 286 355 417
#     4  11  26  43  65 105 140 186 235 293 358 419
#     4  11  21  41  69  99 138 180 234 290 349 427
#     4  11  22  43  69  98 140 193 237 285 358 427
#     4   9  19  39  66 102 137 179 237 290 346 428
#
# _framework density 24.252296000000001
#
# number of rings (size 3 to 8) (size 9 to 14) (size 15 to 20)
#    0.000    1.800    2.000    1.200    2.800    4.400 
#    3.600    8.000    0.000    1.200    0.000    0.000 
#    0.000    0.000    0.000    0.000    0.000    0.000 
#
# Total GULP energy -223271.834548 kJ/mol
# GULP energy per Si atom -5581.795864 kJ/mol
# Density = 2.419710 g / cm^3
# Si number density = 24.252296 Si / 1000 Ang^3
#
#
#
# Elastic Constant Matrix: (Units=GPa)
#
#
# Indices 1 2 3 4 5 6 
#
# 1 171.9772 29.0503 63.0535 0.0000 0.0000 0.0000
# 2 29.0503 79.1596 32.5420 0.0000 0.0000 0.0000
# 3 63.0535 32.5420 105.2449 0.0000 0.0000 0.0000
# 4 0.0000 0.0000 0.0000 36.7365 0.0000 0.0000
# 5 0.0000 0.0000 0.0000 0.0000 51.0090 0.0000
# 6 0.0000 0.0000 0.0000 0.0000 0.0000 15.5506
#
#
#
# Elastic Compliance Matrix: (Units=1/GPa)
#
#
# Indices 1 2 3 4 5 6 
#
# 1 0.007526 -0.001041 -0.004187 0.000000 0.000000 0.000000
# 2 -0.001041 0.014616 -0.003896 0.000000 0.000000 0.000000
# 3 -0.004187 -0.003896 0.013215 0.000000 0.000000 0.000000
# 4 0.000000 0.000000 0.000000 0.027221 0.000000 0.000000
# 5 0.000000 0.000000 0.000000 0.000000 0.019604 0.000000
# 6 0.000000 0.000000 0.000000 0.000000 0.000000 0.064306
#
#
# Mechanical properties :
#
#
# Convention : Reuss Voigt Hill
#
# Bulk Modulus (GPa) = 58.44665 67.29704 62.87185
# Shear Modulus (GPa) = 29.33619 36.10827 32.72223
#
# Velocity S-wave (km/s) = 3.48174 3.86276 3.67719
# Velocity P-wave (km/s) = 6.34942 6.90677 6.63395
#
# Compressibility (1/GPa) = 0.01710962
#
# Stress axis : x y z
#
# Youngs Moduli (GPa) = 132.88007 68.41731 75.67310
#
# Poissons Ratio (x) = 0.07119 0.31684
# Poissons Ratio (y) = 0.13827 0.29482
# Poissons Ratio (z) = 0.55636 0.26655
#
# Static dielectric constant tensor:
#      x y z
#    x 2.046040 0.000000 0.000000 
#    y 0.000000 1.933180 0.000000 
#    z 0.000000 0.000000 2.012620 
# 
# From -- ./inp_files/30839.got.cif
#   From: 2010.05.17/outbox.cif.g08.bks.cpg/sg48_16_cif.got.tgz:30839.got - 2010.06.03 20:39:00.
