data_PCOD9391313
_publ_section_title
;
Structure prediction by ZEFSAII (Michael W. Deem and Ramdas Pophale) SiO2 
 PCOD9391313
Probable space group: P N N N
;
_chemical_formula_sum "Si O2"
_cell_formula_units_Z 64
_cell_length_a 15.265798
_cell_length_b 8.931239
_cell_length_c 22.986710
_cell_angle_alpha 90.000000
_cell_angle_beta 90.000000
_cell_angle_gamma 90.000000
_cell_volume 3134.065289
_symmetry_space_group_name_H-M "P N N N"
_symmetry_group_IT_number 48
_space_group.IT_coordinate_system_code '2'
_symmetry_cell_setting 'orthorhombic'
loop_
_space_group_symop_operation_xyz
x,y,z
1/2-x,1/2-y,z
x,1/2-y,1/2-z
1/2-x,y,1/2-z
-x,-y,-z
1/2+x,1/2+y,-z
-x,1/2+y,1/2+z
1/2+x,-y,1/2+z
loop_
_atom_site_type_symbol
_atom_site_label
_atom_site_fract_x
_atom_site_fract_y
_atom_site_fract_z
Si Si1 0.418762 0.020289 0.044448
Si Si2 0.493867 0.766320 0.606202
Si Si3 0.429725 0.597191 0.719777
Si Si4 0.854237 0.235540 0.893543
Si Si5 0.155386 0.182583 0.665482
Si Si6 0.223945 0.092345 0.541675
Si Si7 0.161463 0.843275 0.975591
Si Si8 0.502996 0.073331 0.674167
O O1 0.427441 0.183086 0.073547
O O2 0.405363 0.890573 0.091950
O O3 0.332813 0.008728 0.005629
O O4 0.500000 0.000000 0.000000
O O5 0.471983 0.659796 0.660814
O O6 0.414944 0.768242 0.560454
O O7 0.500380 0.935729 0.628405
O O8 0.394017 0.750000 0.750000
O O9 0.363500 0.465262 0.702967
O O10 0.495215 0.513135 0.764309
O O11 0.750000 0.250000 0.882089
O O12 0.907695 0.158163 0.841829
O O13 0.860476 0.148517 0.955964
O O14 0.250000 0.250000 0.680807
O O15 0.167816 0.125467 0.599130
O O16 0.077803 0.306705 0.670280
O O17 0.250000 0.250000 0.516073
O O18 0.312720 0.001879 0.552616
O O19 0.250000 0.750000 0.967506
#
# Coordination Sequence:
#
# PCOD9391313 Si02
#       8
#     8   8   8   8   8   8   8   8
#     4  12  21  36  59  92 127 171 214 265 334 404
#     4  11  23  37  66  94 129 174 217 275 349 399
#     4  10  23  44  66  95 129 174 230 283 336 398
#     4  11  23  41  63  94 131 176 223 274 341 408
#     4  11  23  43  67  97 138 175 220 272 348 413
#     4  11  23  37  58  93 135 170 207 263 333 402
#     4  11  20  38  59  91 134 171 217 266 326 421
#     4  11  25  42  64  96 131 175 228 284 329 409
#
# _framework density 20.420762
#
# number of rings (size 3 to 8) (size 9 to 14) (size 15 to 20)
#    0.000    1.000    3.750    4.875    1.750    1.500 
#    0.000    6.250    0.000    6.000    0.000    8.750 
#    0.000    0.000    0.000    0.000    0.000    0.000 
#
# Total GULP energy -357108.326442 kJ/mol
# GULP energy per Si atom -5579.817601 kJ/mol
# Density = 2.037428 g / cm^3
# Si number density = 20.420762 Si / 1000 Ang^3
#
#
#
# Elastic Constant Matrix: (Units=GPa)
#
#
# Indices 1 2 3 4 5 6 
#
# 1 96.9371 54.3155 39.7305 0.0000 0.0000 0.0000
# 2 54.3155 136.4505 36.0951 0.0000 0.0000 0.0000
# 3 39.7305 36.0951 54.8750 0.0000 0.0000 0.0000
# 4 0.0000 0.0000 0.0000 35.5096 0.0000 0.0000
# 5 0.0000 0.0000 0.0000 0.0000 14.4218 0.0000
# 6 0.0000 0.0000 0.0000 0.0000 0.0000 34.4138
#
#
#
# Elastic Compliance Matrix: (Units=1/GPa)
#
#
# Indices 1 2 3 4 5 6 
#
# 1 0.016360 -0.004091 -0.009154 0.000000 0.000000 0.000000
# 2 -0.004091 0.009895 -0.003547 0.000000 0.000000 0.000000
# 3 -0.009154 -0.003547 0.027184 0.000000 0.000000 0.000000
# 4 0.000000 0.000000 0.000000 0.028161 0.000000 0.000000
# 5 0.000000 0.000000 0.000000 0.000000 0.069340 0.000000
# 6 0.000000 0.000000 0.000000 0.000000 0.000000 0.029058
#
#
# Mechanical properties :
#
#
# Convention : Reuss Voigt Hill
#
# Bulk Modulus (GPa) = 50.36380 60.94942 55.65661
# Shear Modulus (GPa) = 22.70653 27.41048 25.05850
#
# Velocity S-wave (km/s) = 3.33818 3.66770 3.50681
# Velocity P-wave (km/s) = 6.29083 6.91719 6.61143
#
# Compressibility (1/GPa) = 0.01985553
#
# Stress axis : x y z
#
# Youngs Moduli (GPa) = 61.12487 101.05781 36.78612
#
# Poissons Ratio (x) = 0.41340 0.33675
# Poissons Ratio (y) = 0.25004 0.13048
# Poissons Ratio (z) = 0.55955 0.35846
#
# Static dielectric constant tensor:
#      x y z
#    x 1.708130 0.000000 0.000000 
#    y 0.000000 1.862750 0.000000 
#    z 0.000000 0.000000 1.742630 
# 
# From -- ./inp_files/36581.got.cif
#   From: 2010.05.17/outbox.cif.g08.bks.cpg/sg48_19_cif.got.tgz:36581.got - 2010.06.03 20:39:00.
