data_PCOD9391911
_publ_section_title
;
Structure prediction by ZEFSAII (Michael W. Deem and Ramdas Pophale) SiO2 
 PCOD9391911
Probable space group: P N N N
;
_chemical_formula_sum "Si O2"
_cell_formula_units_Z 34
_cell_length_a 5.025886
_cell_length_b 13.972505
_cell_length_c 20.623272
_cell_angle_alpha 90.000000
_cell_angle_beta 90.000000
_cell_angle_gamma 90.000000
_cell_volume 1448.253134
_symmetry_space_group_name_H-M "P N N N"
_symmetry_group_IT_number 48
_space_group.IT_coordinate_system_code '2'
_symmetry_cell_setting 'orthorhombic'
loop_
_space_group_symop_operation_xyz
x,y,z
1/2-x,1/2-y,z
x,1/2-y,1/2-z
1/2-x,y,1/2-z
-x,-y,-z
1/2+x,1/2+y,-z
-x,1/2+y,1/2+z
1/2+x,-y,1/2+z
loop_
_atom_site_type_symbol
_atom_site_label
_atom_site_fract_x
_atom_site_fract_y
_atom_site_fract_z
Si Si1 0.670518 0.146764 0.375230
Si Si2 0.167694 0.059189 0.319068
Si Si3 0.750000 0.750000 0.250000
Si Si4 0.255583 0.929696 0.489582
Si Si5 0.121448 0.852466 0.153851
O O1 0.750000 0.250000 0.348656
O O2 0.365456 0.115190 0.367889
O O3 0.751201 0.141532 0.450085
O O4 0.862507 0.072823 0.337901
O O5 0.250000 0.100683 0.250000
O O6 0.245102 0.948372 0.319611
O O7 0.641927 0.670797 0.195993
O O8 0.330156 0.874058 0.423042
O O9 0.500000 0.000000 0.500000
O O10 0.000000 0.000000 0.500000
O O11 0.250000 0.750000 0.167575
#
# Coordination Sequence:
#
# PCOD9391911 Si02
#       5
#     8   8   2   8   8
#     4  12  26  49  73 109 147 194 259 313 385 469
#     4  12  27  46  77 106 152 199 251 321 388 467
#     4  12  30  48  80 122 162 216 276 328 434 496
#     4  12  25  49  79 111 150 206 255 321 400 470
#     4  12  28  49  78 115 162 205 267 329 412 489
#
# _framework density 23.476559999999999
#
# number of rings (size 3 to 8) (size 9 to 14) (size 15 to 20)
#    0.000    0.000    4.706    3.882    9.882    2.824 
#    4.235    0.000    0.000    0.000    0.000    0.000 
#    0.000    0.000    0.000    0.000    0.000    0.000 
#
# Total GULP energy -189436.402310 kJ/mol
# GULP energy per Si atom -5571.658891 kJ/mol
# Density = 2.342313 g / cm^3
# Si number density = 23.476560 Si / 1000 Ang^3
#
#
#
# Elastic Constant Matrix: (Units=GPa)
#
#
# Indices 1 2 3 4 5 6 
#
# 1 88.3809 8.1138 -10.4566 0.0000 0.0000 0.0000
# 2 8.1138 124.0883 -21.8488 0.0000 0.0000 0.0000
# 3 -10.4566 -21.8488 132.8419 0.0000 0.0000 0.0000
# 4 0.0000 0.0000 0.0000-5037.5253 0.0000 0.0000
# 5 0.0000 0.0000 0.0000 0.0000 30.6348 0.0000
# 6 0.0000 0.0000 0.0000 0.0000 0.0000 20.4386
#
#
#
# Elastic Compliance Matrix: (Units=1/GPa)
#
#
# Indices 1 2 3 4 5 6 
#
# 1 0.011465 -0.000608 0.000802 0.000000 0.000000 0.000000
# 2 -0.000608 0.008331 0.001322 0.000000 0.000000 0.000000
# 3 0.000802 0.001322 0.007808 0.000000 0.000000 0.000000
# 4 0.000000 0.000000 0.000000 -0.000199 0.000000 0.000000
# 5 0.000000 0.000000 0.000000 0.000000 0.032643 0.000000
# 6 0.000000 0.000000 0.000000 0.000000 0.000000 0.048927
#
#
# Mechanical properties :
#
#
# Convention : Reuss Voigt Hill
#
# Bulk Modulus (GPa) = 32.63910 32.99199 32.81554
# Shear Modulus (GPa) = 43.04547 -972.65687 -464.80570
#
# Velocity S-wave (km/s) = 4.28664 -20.37668 -14.08606
# Velocity P-wave (km/s) = 6.19947 23.22776 15.82870
#
# Compressibility (1/GPa) = 0.03063810
#
# Stress axis : x y z
#
# Youngs Moduli (GPa) = 87.21853 120.02785 128.06713
#
# Poissons Ratio (x) = 0.07303 -0.10277
# Poissons Ratio (y) = 0.05306 -0.16935
# Poissons Ratio (z) = -0.06999 -0.15872
#
# Static dielectric constant tensor:
#      x y z
#    x 1.952390 0.000000 0.000000 
#    y 0.000000 1.910430 0.000000 
#    z 0.000000 0.000000 1.864760 
# 
# From -- ./inp_files/32732.got.cif
#   From: 2010.05.17/outbox.cif.g08.bks.cpg/sg48_17_cif.got.tgz:32732.got - 2010.06.03 20:39:00.
