data_PCOD9391880
_publ_section_title
;
Structure prediction by ZEFSAII (Michael W. Deem and Ramdas Pophale) SiO2 
 PCOD9391880
Probable space group: P N N N
;
_chemical_formula_sum "Si O2"
_cell_formula_units_Z 40
_cell_length_a 14.256133
_cell_length_b 21.103279
_cell_length_c 5.790592
_cell_angle_alpha 90.000000
_cell_angle_beta 90.000000
_cell_angle_gamma 90.000000
_cell_volume 1742.106275
_symmetry_space_group_name_H-M "P N N N"
_symmetry_group_IT_number 48
_space_group.IT_coordinate_system_code '2'
_symmetry_cell_setting 'orthorhombic'
loop_
_space_group_symop_operation_xyz
x,y,z
1/2-x,1/2-y,z
x,1/2-y,1/2-z
1/2-x,y,1/2-z
-x,-y,-z
1/2+x,1/2+y,-z
-x,1/2+y,1/2+z
1/2+x,-y,1/2+z
loop_
_atom_site_type_symbol
_atom_site_label
_atom_site_fract_x
_atom_site_fract_y
_atom_site_fract_z
Si Si1 0.518648 0.785220 0.502615
Si Si2 0.975065 0.427943 0.943153
Si Si3 0.356458 0.391597 0.820382
Si Si4 0.155795 0.856968 0.817545
Si Si5 0.666977 0.477733 0.917241
O O1 0.532177 0.750000 0.750000
O O2 0.597345 0.840090 0.487232
O O3 0.415026 0.815756 0.528202
O O4 0.523605 0.750000 0.250000
O O5 0.917992 0.443410 0.712114
O O6 0.072714 0.393094 0.896211
O O7 0.911417 0.388124 0.119675
O O8 0.000000 0.500000 0.000000
O O9 0.250000 0.378200 0.750000
O O10 0.360355 0.462007 0.930879
O O11 0.250000 0.820100 0.750000
O O12 0.201760 0.917357 0.944881
O O13 0.750000 0.499736 0.750000
#
# Coordination Sequence:
#
# PCOD9391880 Si02
#       5
#     8   8   8   8   8
#     4  12  30  56  81 109 151 216 282 328 379 452
#     4  12  22  40  71 110 161 200 236 304 387 481
#     4  12  26  49  75 115 155 204 259 322 392 463
#     4  12  25  48  77 114 154 198 246 323 401 472
#     4  12  23  41  74 120 156 187 246 308 410 494
#
# _framework density 22.960709999999999
#
# number of rings (size 3 to 8) (size 9 to 14) (size 15 to 20)
#    0.000    0.000    6.000    4.800    0.000    2.400 
#    0.000    6.000    0.000    0.000    0.000    0.000 
#    0.000    0.000    0.000    0.000    0.000    0.000 
#
# Total GULP energy -223313.477714 kJ/mol
# GULP energy per Si atom -5582.836943 kJ/mol
# Density = 2.290845 g / cm^3
# Si number density = 22.960710 Si / 1000 Ang^3
#
#
#
# Elastic Constant Matrix: (Units=GPa)
#
#
# Indices 1 2 3 4 5 6 
#
# 1 152.4169 15.8138 23.9316 0.0000 0.0000 0.0000
# 2 15.8138 101.3783 28.8827 0.0000 0.0000 0.0000
# 3 23.9316 28.8827 66.8766 0.0000 0.0000 0.0000
# 4 0.0000 0.0000 0.0000 14.0073 0.0000 0.0000
# 5 0.0000 0.0000 0.0000 0.0000 53.3912 0.0000
# 6 0.0000 0.0000 0.0000 0.0000 0.0000 -32.7323
#
#
#
# Elastic Compliance Matrix: (Units=1/GPa)
#
#
# Indices 1 2 3 4 5 6 
#
# 1 0.006968 -0.000429 -0.002308 0.000000 0.000000 0.000000
# 2 -0.000429 0.011274 -0.004716 0.000000 0.000000 0.000000
# 3 -0.002308 -0.004716 0.017815 0.000000 0.000000 0.000000
# 4 0.000000 0.000000 0.000000 0.071391 0.000000 0.000000
# 5 0.000000 0.000000 0.000000 0.000000 0.018730 0.000000
# 6 0.000000 0.000000 0.000000 0.000000 0.000000 -0.030551
#
#
# Mechanical properties :
#
#
# Convention : Reuss Voigt Hill
#
# Bulk Modulus (GPa) = 47.27712 50.88088 49.07900
# Shear Modulus (GPa) = 42.52260 23.73614 33.12937
#
# Velocity S-wave (km/s) = 4.30812 3.21872 3.80264
# Velocity P-wave (km/s) = 6.73660 6.00180 6.37979
#
# Compressibility (1/GPa) = 0.02115188
#
# Stress axis : x y z
#
# Youngs Moduli (GPa) = 143.51552 88.69576 56.13117
#
# Poissons Ratio (x) = 0.03808 0.12955
# Poissons Ratio (y) = 0.06162 0.26469
# Poissons Ratio (z) = 0.33123 0.41825
#
# Static dielectric constant tensor:
#      x y z
#    x 0.889460 0.000000 0.000000 
#    y 0.000000 1.917440 0.000000 
#    z 0.000000 0.000000 1.299850 
# 
# From -- ./inp_files/3357.got.cif
#   From: 2010.05.17/outbox.cif.g08.bks.cpg/sg48_2_cif.got.tgz:3357.got - 2010.06.03 20:39:00.
