data_PCOD9391767
_publ_section_title
;
Structure prediction by ZEFSAII (Michael W. Deem and Ramdas Pophale) SiO2 
 PCOD9391767
Probable space group: P N N N
;
_chemical_formula_sum "Si O2"
_cell_formula_units_Z 56
_cell_length_a 15.694187
_cell_length_b 20.230428
_cell_length_c 8.379480
_cell_angle_alpha 90.000000
_cell_angle_beta 90.000000
_cell_angle_gamma 90.000000
_cell_volume 2660.485907
_symmetry_space_group_name_H-M "P N N N"
_symmetry_group_IT_number 48
_space_group.IT_coordinate_system_code '2'
_symmetry_cell_setting 'orthorhombic'
loop_
_space_group_symop_operation_xyz
x,y,z
1/2-x,1/2-y,z
x,1/2-y,1/2-z
1/2-x,y,1/2-z
-x,-y,-z
1/2+x,1/2+y,-z
-x,1/2+y,1/2+z
1/2+x,-y,1/2+z
loop_
_atom_site_type_symbol
_atom_site_label
_atom_site_fract_x
_atom_site_fract_y
_atom_site_fract_z
Si Si1 0.101250 0.319859 0.811694
Si Si2 0.058486 0.878318 0.136023
Si Si3 0.158789 0.469064 0.821050
Si Si4 0.846298 0.485978 0.812689
Si Si5 0.506138 0.056378 0.320318
Si Si6 0.845110 0.241074 0.941963
Si Si7 0.004138 0.808397 0.625499
O O1 0.138960 0.250000 0.750000
O O2 0.150694 0.389481 0.801279
O O3 0.016319 0.332875 0.705363
O O4 0.069761 0.312980 0.993448
O O5 0.123980 0.833626 0.037883
O O6 0.108335 0.915647 0.277095
O O7 0.020210 0.927267 0.005059
O O8 0.250000 0.490152 0.750000
O O9 0.077609 0.504612 0.739635
O O10 0.153715 0.490811 0.005357
O O11 0.750000 0.484941 0.750000
O O12 0.909784 0.533706 0.715657
O O13 0.516529 0.123247 0.217388
O O14 0.750000 0.250000 0.999975
O O15 0.847170 0.250000 0.750000
O O16 0.910523 0.288008 0.031410
O O17 0.985335 0.750000 0.750000
#
# Coordination Sequence:
#
# PCOD9391767 Si02
#       7
#     8   8   8   8   8   8   8
#     4  12  23  45  76  97 137 183 235 288 358 416
#     4  12  23  43  71 101 139 193 229 284 358 428
#     4  12  28  48  71 106 140 183 244 298 347 423
#     4  12  27  44  71 104 141 185 232 296 356 423
#     4  12  25  45  75 103 141 188 236 292 352 421
#     4  11  24  39  61 100 139 180 229 285 344 428
#     4  12  22  43  69 104 136 183 235 286 354 420
#
# _framework density 21.048784999999999
#
# number of rings (size 3 to 8) (size 9 to 14) (size 15 to 20)
#    0.000    0.143    7.143    2.571    4.000    1.714 
#    0.000    0.000    0.000    0.429    0.000    0.000 
#    0.000    0.000    0.000    0.000    0.000    0.000 
#
# Total GULP energy -313256.234288 kJ/mol
# GULP energy per Si atom -5593.861327 kJ/mol
# Density = 2.100088 g / cm^3
# Si number density = 21.048785 Si / 1000 Ang^3
#
#
#
# Elastic Constant Matrix: (Units=GPa)
#
#
# Indices 1 2 3 4 5 6 
#
# 1 85.7267 23.0620 23.0047 0.0000 0.0000 0.0000
# 2 23.0620 123.2183 29.6320 0.0000 0.0000 0.0000
# 3 23.0047 29.6320 103.0526 0.0000 0.0000 0.0000
# 4 0.0000 0.0000 0.0000 47.2691 0.0000 0.0000
# 5 0.0000 0.0000 0.0000 0.0000 29.7633 0.0000
# 6 0.0000 0.0000 0.0000 0.0000 0.0000 0.7985
#
#
#
# Elastic Compliance Matrix: (Units=1/GPa)
#
#
# Indices 1 2 3 4 5 6 
#
# 1 0.012782 -0.001833 -0.002326 0.000000 0.000000 0.000000
# 2 -0.001833 0.008981 -0.002173 0.000000 0.000000 0.000000
# 3 -0.002326 -0.002173 0.010848 0.000000 0.000000 0.000000
# 4 0.000000 0.000000 0.000000 0.021155 0.000000 0.000000
# 5 0.000000 0.000000 0.000000 0.000000 0.033598 0.000000
# 6 0.000000 0.000000 0.000000 0.000000 0.000000 1.252406
#
#
# Mechanical properties :
#
#
# Convention : Reuss Voigt Hill
#
# Bulk Modulus (GPa) = 50.13432 51.48834 50.81133
# Shear Modulus (GPa) = 3.67894 31.31942 17.49918
#
# Velocity S-wave (km/s) = 1.32348 3.86157 2.88646
# Velocity P-wave (km/s) = 5.11912 6.66310 5.94147
#
# Compressibility (1/GPa) = 0.01994642
#
# Stress axis : x y z
#
# Youngs Moduli (GPa) = 78.23282 111.34127 92.18253
#
# Poissons Ratio (x) = 0.20408 0.21445
# Poissons Ratio (y) = 0.14340 0.20035
# Poissons Ratio (z) = 0.18200 0.24199
#
# Static dielectric constant tensor:
#      x y z
#    x 1.720390 0.000000 0.000000 
#    y 0.000000 1.833750 0.000000 
#    z 0.000000 0.000000 1.738650 
# 
# From -- ./inp_files/13109.got.cif
#   From: 2010.05.17/outbox.cif.g08.bks.cpg/sg48_7_cif.got.tgz:13109.got - 2010.06.03 20:39:00.
