data_PCOD9391382
_publ_section_title
;
Structure prediction by ZEFSAII (Michael W. Deem and Ramdas Pophale) SiO2 
 PCOD9391382
Probable space group: P N N N
;
_chemical_formula_sum "Si O2"
_cell_formula_units_Z 40
_cell_length_a 14.359828
_cell_length_b 8.833937
_cell_length_c 14.489818
_cell_angle_alpha 90.000000
_cell_angle_beta 90.000000
_cell_angle_gamma 90.000000
_cell_volume 1838.088705
_symmetry_space_group_name_H-M "P N N N"
_symmetry_group_IT_number 48
_space_group.IT_coordinate_system_code '2'
_symmetry_cell_setting 'orthorhombic'
loop_
_space_group_symop_operation_xyz
x,y,z
1/2-x,1/2-y,z
x,1/2-y,1/2-z
1/2-x,y,1/2-z
-x,-y,-z
1/2+x,1/2+y,-z
-x,1/2+y,1/2+z
1/2+x,-y,1/2+z
loop_
_atom_site_type_symbol
_atom_site_label
_atom_site_fract_x
_atom_site_fract_y
_atom_site_fract_z
Si Si1 0.288433 0.077959 0.844211
Si Si2 0.646712 0.527241 0.004972
Si Si3 0.012905 0.747672 0.999284
Si Si4 0.846620 0.923538 0.787062
Si Si5 0.005831 0.509965 0.147350
O O1 0.250000 0.250000 0.842846
O O2 0.250000 0.004265 0.750000
O O3 0.398457 0.055243 0.840999
O O4 0.241374 0.016858 0.937622
O O5 0.587902 0.375836 0.020788
O O6 0.657561 0.559133 0.896534
O O7 0.579621 0.666172 0.034958
O O8 0.047893 0.633746 0.077710
O O9 0.990827 0.648321 0.908839
O O10 0.849147 0.750000 0.750000
O O11 0.750000 0.990837 0.750000
O O12 0.936629 0.000238 0.741244
#
# Coordination Sequence:
#
# PCOD9391382 Si02
#       5
#     8   8   8   8   8
#     4  11  26  43  71 104 142 188 240 293 361 437
#     4  11  24  46  68 104 139 187 239 297 362 424
#     4  10  24  42  72  95 142 189 233 299 359 427
#     4  11  26  43  72 104 142 189 244 299 364 438
#     4  11  24  46  69 103 140 189 242 297 361 426
#
# _framework density 21.761735999999999
#
# number of rings (size 3 to 8) (size 9 to 14) (size 15 to 20)
#    0.000    1.200    4.000    0.000   14.000    1.600 
#    0.000    2.000    0.000    0.000    0.000    0.000 
#    0.000    0.000    0.000    0.000    0.000    0.000 
#
# Total GULP energy -223581.512122 kJ/mol
# GULP energy per Si atom -5589.537803 kJ/mol
# Density = 2.171221 g / cm^3
# Si number density = 21.761736 Si / 1000 Ang^3
#
#
#
# Elastic Constant Matrix: (Units=GPa)
#
#
# Indices 1 2 3 4 5 6 
#
# 1 153.5562 34.4643 52.6123 0.0000 0.0000 0.0000
# 2 34.4643 73.4826 31.1432 0.0000 0.0000 0.0000
# 3 52.6123 31.1432 150.6791 0.0000 0.0000 0.0000
# 4 0.0000 0.0000 0.0000 2.5811 0.0000 0.0000
# 5 0.0000 0.0000 0.0000 0.0000 33.7524 0.0000
# 6 0.0000 0.0000 0.0000 0.0000 0.0000 12.9339
#
#
#
# Elastic Compliance Matrix: (Units=1/GPa)
#
#
# Indices 1 2 3 4 5 6 
#
# 1 0.007881 -0.002773 -0.002179 0.000000 0.000000 0.000000
# 2 -0.002773 0.015891 -0.002316 0.000000 0.000000 0.000000
# 3 -0.002179 -0.002316 0.007876 0.000000 0.000000 0.000000
# 4 0.000000 0.000000 0.000000 0.387431 0.000000 0.000000
# 5 0.000000 0.000000 0.000000 0.000000 0.029628 0.000000
# 6 0.000000 0.000000 0.000000 0.000000 0.000000 0.077316
#
#
# Mechanical properties :
#
#
# Convention : Reuss Voigt Hill
#
# Bulk Modulus (GPa) = 58.43735 68.23973 63.33854
# Shear Modulus (GPa) = 9.15311 27.15336 18.15324
#
# Velocity S-wave (km/s) = 2.05309 3.53619 2.89135
# Velocity P-wave (km/s) = 5.70367 6.93532 6.34943
#
# Compressibility (1/GPa) = 0.01711234
#
# Stress axis : x y z
#
# Youngs Moduli (GPa) = 126.88547 62.92925 126.96676
#
# Poissons Ratio (x) = 0.17450 0.27662
# Poissons Ratio (y) = 0.35185 0.29408
# Poissons Ratio (z) = 0.27645 0.14576
#
# Static dielectric constant tensor:
#      x y z
#    x 1.785060 0.000000 0.000000 
#    y 0.000000 1.813400 0.000000 
#    z 0.000000 0.000000 1.818530 
# 
# From -- ./inp_files/25099.got.cif
#   From: 2010.05.17/outbox.cif.g08.bks.cpg/sg48_13_cif.got.tgz:25099.got - 2010.06.03 20:39:00.
