data_PCOD9391489
_publ_section_title
;
Structure prediction by ZEFSAII (Michael W. Deem and Ramdas Pophale) SiO2 
 PCOD9391489
Probable space group: P N N N
;
_chemical_formula_sum "Si O2"
_cell_formula_units_Z 22
_cell_length_a 5.802018
_cell_length_b 31.284749
_cell_length_c 5.062465
_cell_angle_alpha 90.000000
_cell_angle_beta 90.000000
_cell_angle_gamma 90.000000
_cell_volume 918.911698
_symmetry_space_group_name_H-M "P N N N"
_symmetry_group_IT_number 48
_space_group.IT_coordinate_system_code '2'
_symmetry_cell_setting 'orthorhombic'
loop_
_space_group_symop_operation_xyz
x,y,z
1/2-x,1/2-y,z
x,1/2-y,1/2-z
1/2-x,y,1/2-z
-x,-y,-z
1/2+x,1/2+y,-z
-x,1/2+y,1/2+z
1/2+x,-y,1/2+z
loop_
_atom_site_type_symbol
_atom_site_label
_atom_site_fract_x
_atom_site_fract_y
_atom_site_fract_z
Si Si1 0.580204 0.181691 0.995100
Si Si2 0.089760 0.548574 0.500770
Si Si3 0.250000 0.250000 0.750000
Si Si4 0.250000 0.112098 0.750000
O O1 0.750000 0.183409 0.750000
O O2 0.409518 0.221626 0.944737
O O3 0.417261 0.141117 0.931507
O O4 0.750000 0.180931 0.250000
O O5 0.250000 0.553430 0.250000
O O6 0.000000 0.500000 0.500000
O O7 0.887257 0.581815 0.451197
O O8 0.250000 0.556785 0.750000
#
# Coordination Sequence:
#
# PCOD9391489 Si02
#       4
#     8   8   2   4
#     4  11  27  51  78 118 158 204 255 316 393 473
#     4  12  27  48  75 110 148 203 268 328 387 455
#     4  10  26  50  88 116 156 202 254 322 384 472
#     4  11  28  49  78 112 164 208 258 328 397 458
#
# _framework density 23.941364
#
# number of rings (size 3 to 8) (size 9 to 14) (size 15 to 20)
#    0.000    0.727    1.818    2.727    0.000   18.909 
#    0.000    5.455    0.000    0.000    0.000    0.000 
#    0.000    0.000    0.000    0.000    0.000    0.000 
#
# Total GULP energy -123318.795215 kJ/mol
# GULP energy per Si atom -5605.399783 kJ/mol
# Density = 2.388687 g / cm^3
# Si number density = 23.941364 Si / 1000 Ang^3
#
#
#
# Elastic Constant Matrix: (Units=GPa)
#
#
# Indices 1 2 3 4 5 6 
#
# 1 215.5344 139.1867 125.3065 0.0000 0.0000 0.0000
# 2 139.1867 211.9246 83.3271 0.0000 0.0000 0.0000
# 3 125.3065 83.3271 246.7370 0.0000 0.0000 0.0000
# 4 0.0000 0.0000 0.0000 19.6360 0.0000 0.0000
# 5 0.0000 0.0000 0.0000 0.0000 68.6540 0.0000
# 6 0.0000 0.0000 0.0000 0.0000 0.0000 60.9963
#
#
#
# Elastic Compliance Matrix: (Units=1/GPa)
#
#
# Indices 1 2 3 4 5 6 
#
# 1 0.009917 -0.005227 -0.003271 0.000000 0.000000 0.000000
# 2 -0.005227 0.008196 -0.000113 0.000000 0.000000 0.000000
# 3 -0.003271 -0.000113 0.005752 0.000000 0.000000 0.000000
# 4 0.000000 0.000000 0.000000 0.050927 0.000000 0.000000
# 5 0.000000 0.000000 0.000000 0.000000 0.014566 0.000000
# 6 0.000000 0.000000 0.000000 0.000000 0.000000 0.016394
#
#
# Mechanical properties :
#
#
# Convention : Reuss Voigt Hill
#
# Bulk Modulus (GPa) = 150.54592 152.20406 151.37499
# Shear Modulus (GPa) = 39.93943 51.61564 45.77754
#
# Velocity S-wave (km/s) = 4.08881 4.64822 4.37746
# Velocity P-wave (km/s) = 9.23628 9.61872 9.42943
#
# Compressibility (1/GPa) = 0.00664249
#
# Stress axis : x y z
#
# Youngs Moduli (GPa) = 100.83942 122.00796 173.83943
#
# Poissons Ratio (x) = 0.63773 0.56864
# Poissons Ratio (y) = 0.52708 0.01973
# Poissons Ratio (z) = 0.32985 0.01384
#
# Static dielectric constant tensor:
#      x y z
#    x 1.676280 0.000000 0.000000 
#    y 0.000000 1.874110 0.000000 
#    z 0.000000 0.000000 1.838470 
# 
# From -- ./inp_files/358.got.cif
#   From: 2010.05.17/outbox.cif.g08.bks.cpg/sg48_1_cif.got.tgz:358.got - 2010.06.03 20:39:00.
