data_PCOD9391329
_publ_section_title
;
Structure prediction by ZEFSAII (Michael W. Deem and Ramdas Pophale) SiO2 
 PCOD9391329
Probable space group: P N N N
;
_chemical_formula_sum "Si O2"
_cell_formula_units_Z 32
_cell_length_a 15.540739
_cell_length_b 7.908251
_cell_length_c 11.299560
_cell_angle_alpha 90.000000
_cell_angle_beta 90.000000
_cell_angle_gamma 90.000000
_cell_volume 1388.716656
_symmetry_space_group_name_H-M "P N N N"
_symmetry_group_IT_number 48
_space_group.IT_coordinate_system_code '2'
_symmetry_cell_setting 'orthorhombic'
loop_
_space_group_symop_operation_xyz
x,y,z
1/2-x,1/2-y,z
x,1/2-y,1/2-z
1/2-x,y,1/2-z
-x,-y,-z
1/2+x,1/2+y,-z
-x,1/2+y,1/2+z
1/2+x,-y,1/2+z
loop_
_atom_site_type_symbol
_atom_site_label
_atom_site_fract_x
_atom_site_fract_y
_atom_site_fract_z
Si Si1 0.074570 0.641389 0.427531
Si Si2 0.428644 0.250000 0.750000
Si Si3 0.683141 0.594257 0.443767
Si Si4 0.250000 0.750000 0.033472
Si Si5 0.948624 0.759908 0.890972
O O1 0.164036 0.721930 0.391864
O O2 0.088841 0.441268 0.432245
O O3 0.994087 0.664210 0.341041
O O4 0.042757 0.731219 0.548727
O O5 0.369484 0.379400 0.677666
O O6 0.750000 0.750000 0.451241
O O7 0.732470 0.418465 0.457437
O O8 0.612343 0.620094 0.548822
O O9 0.950432 0.750000 0.750000
#
# Coordination Sequence:
#
# PCOD9391329 Si02
#       5
#     8   4   8   4   8
#     4  10  24  45  69 110 140 187 248 295 359 449
#     4  10  25  45  76  96 150 196 232 301 371 444
#     4  11  24  49  70 107 144 189 241 301 365 429
#     4  12  26  45  73 110 144 180 253 305 356 428
#     4  10  23  45  71  97 151 196 231 291 372 436
#
# _framework density 23.042857999999999
#
# number of rings (size 3 to 8) (size 9 to 14) (size 15 to 20)
#    0.000    1.500    2.500    0.375    7.000    3.000 
#    0.000    3.125    0.000    0.000    0.000    0.000 
#    0.000    0.000    0.000    0.000    0.000    0.000 
#
# Total GULP energy -178875.930794 kJ/mol
# GULP energy per Si atom -5589.872837 kJ/mol
# Density = 2.299041 g / cm^3
# Si number density = 23.042858 Si / 1000 Ang^3
#
#
#
# Elastic Constant Matrix: (Units=GPa)
#
#
# Indices 1 2 3 4 5 6 
#
# 1 129.9760 52.0825 58.0806 0.0000 0.0000 0.0000
# 2 52.0825 150.5317 33.8313 0.0000 0.0000 0.0000
# 3 58.0806 33.8313 158.9476 0.0000 0.0000 0.0000
# 4 0.0000 0.0000 0.0000 1.0136 0.0000 0.0000
# 5 0.0000 0.0000 0.0000 0.0000 17.9846 0.0000
# 6 0.0000 0.0000 0.0000 0.0000 0.0000 41.6753
#
#
#
# Elastic Compliance Matrix: (Units=1/GPa)
#
#
# Indices 1 2 3 4 5 6 
#
# 1 0.010231 -0.002835 -0.003135 0.000000 0.000000 0.000000
# 2 -0.002835 0.007763 -0.000616 0.000000 0.000000 0.000000
# 3 -0.003135 -0.000616 0.007568 0.000000 0.000000 0.000000
# 4 0.000000 0.000000 0.000000 0.986553 0.000000 0.000000
# 5 0.000000 0.000000 0.000000 0.000000 0.055603 0.000000
# 6 0.000000 0.000000 0.000000 0.000000 0.000000 0.023995
#
#
# Mechanical properties :
#
#
# Convention : Reuss Voigt Hill
#
# Bulk Modulus (GPa) = 80.71890 80.82713 80.77302
# Shear Modulus (GPa) = 4.50851 31.83210 18.17030
#
# Velocity S-wave (km/s) = 1.40029 3.72079 2.81115
# Velocity P-wave (km/s) = 6.14169 7.32203 6.75768
#
# Compressibility (1/GPa) = 0.01238867
#
# Stress axis : x y z
#
# Youngs Moduli (GPa) = 97.74546 128.82366 132.13422
#
# Poissons Ratio (x) = 0.36523 0.41423
# Poissons Ratio (y) = 0.27712 0.08143
# Poissons Ratio (z) = 0.30642 0.07939
#
# Static dielectric constant tensor:
#      x y z
#    x 1.871370 0.000000 0.000000 
#    y 0.000000 1.842790 0.000000 
#    z 0.000000 0.000000 1.906970 
# 
# From -- ./inp_files/10326.got.cif
#   From: 2010.05.17/outbox.cif.g08.bks.cpg/sg48_6_cif.got.tgz:10326.got - 2010.06.03 20:39:00.
