data_PCOD9391512
_publ_section_title
;
Structure prediction by ZEFSAII (Michael W. Deem and Ramdas Pophale) SiO2 
 PCOD9391512
Probable space group: P N N N
;
_chemical_formula_sum "Si O2"
_cell_formula_units_Z 58
_cell_length_a 11.978941
_cell_length_b 15.749412
_cell_length_c 14.777218
_cell_angle_alpha 90.000000
_cell_angle_beta 90.000000
_cell_angle_gamma 90.000000
_cell_volume 2787.888820
_symmetry_space_group_name_H-M "P N N N"
_symmetry_group_IT_number 48
_space_group.IT_coordinate_system_code '2'
_symmetry_cell_setting 'orthorhombic'
loop_
_space_group_symop_operation_xyz
x,y,z
1/2-x,1/2-y,z
x,1/2-y,1/2-z
1/2-x,y,1/2-z
-x,-y,-z
1/2+x,1/2+y,-z
-x,1/2+y,1/2+z
1/2+x,-y,1/2+z
loop_
_atom_site_type_symbol
_atom_site_label
_atom_site_fract_x
_atom_site_fract_y
_atom_site_fract_z
Si Si1 0.616162 0.747139 0.640984
Si Si2 0.633470 0.497914 0.990983
Si Si3 0.852975 0.583258 0.981768
Si Si4 0.370007 0.913333 0.299600
Si Si5 0.396172 0.833555 0.593628
Si Si6 0.121996 0.751322 0.101489
Si Si7 0.027270 0.564908 0.127178
Si Si8 0.250000 0.750000 0.750000
O O1 0.750000 0.750000 0.631343
O O2 0.597419 0.750000 0.750000
O O3 0.598206 0.662404 0.577665
O O4 0.529941 0.820916 0.609208
O O5 0.719569 0.576133 0.996952
O O6 0.652981 0.464730 0.889887
O O7 0.500000 0.500000 0.000000
O O8 0.656513 0.423617 0.064034
O O9 0.897008 0.500212 0.928902
O O10 0.908384 0.572551 0.080070
O O11 0.250000 0.904911 0.250000
O O12 0.425074 0.826251 0.335988
O O13 0.455981 0.958253 0.231678
O O14 0.380296 0.776194 0.503744
O O15 0.330672 0.801302 0.681651
O O16 0.250000 0.750000 0.128810
O O17 0.073491 0.659951 0.118672
#
# Coordination Sequence:
#
# PCOD9391512 Si02
#       8
#     8   8   8   8   8   8   8   2
#     4  11  24  42  67  95 132 185 233 276 333 421
#     4  11  25  46  67  94 138 184 230 288 352 415
#     4  11  24  42  65  98 139 175 219 282 361 406
#     4  11  21  37  64  98 128 171 232 288 336 417
#     4  11  23  42  63  96 134 178 226 280 345 417
#     4  11  19  34  63  94 134 166 219 282 350 399
#     4  11  22  37  64 102 134 165 213 293 349 407
#     4  12  24  36  66 100 142 172 230 274 344 424
#
# _framework density 20.804273999999999
#
# number of rings (size 3 to 8) (size 9 to 14) (size 15 to 20)
#    0.000    0.966    5.517    2.069    0.000    3.310 
#    2.483    0.000    0.000    0.000    0.000    0.000 
#    0.000    0.000    0.000    0.000    0.000    0.000 
#
# Total GULP energy -322985.488857 kJ/mol
# GULP energy per Si atom -5568.715325 kJ/mol
# Density = 2.075692 g / cm^3
# Si number density = 20.804274 Si / 1000 Ang^3
#
#
#
# Elastic Constant Matrix: (Units=GPa)
#
#
# Indices 1 2 3 4 5 6 
#
# 1 89.9377 11.3161 32.2551 0.0000 0.0000 0.0000
# 2 11.3161 23.2203 16.6959 0.0000 0.0000 0.0000
# 3 32.2551 16.6959 128.4245 0.0000 0.0000 0.0000
# 4 0.0000 0.0000 0.0000 11.9935 0.0000 0.0000
# 5 0.0000 0.0000 0.0000 0.0000 24.1126 0.0000
# 6 0.0000 0.0000 0.0000 0.0000 0.0000 25.6791
#
#
#
# Elastic Compliance Matrix: (Units=1/GPa)
#
#
# Indices 1 2 3 4 5 6 
#
# 1 0.012590 -0.004260 -0.002608 0.000000 0.000000 0.000000
# 2 -0.004260 0.048948 -0.005294 0.000000 0.000000 0.000000
# 3 -0.002608 -0.005294 0.009130 0.000000 0.000000 0.000000
# 4 0.000000 0.000000 0.000000 0.083378 0.000000 0.000000
# 5 0.000000 0.000000 0.000000 0.000000 0.041472 0.000000
# 6 0.000000 0.000000 0.000000 0.000000 0.000000 0.038942
#
#
# Mechanical properties :
#
#
# Convention : Reuss Voigt Hill
#
# Bulk Modulus (GPa) = 21.57770 40.23520 30.90645
# Shear Modulus (GPa) = 18.23264 24.44473 21.33869
#
# Velocity S-wave (km/s) = 2.96360 3.43153 3.20611
# Velocity P-wave (km/s) = 4.70158 5.92304 5.34730
#
# Compressibility (1/GPa) = 0.04634414
#
# Stress axis : x y z
#
# Youngs Moduli (GPa) = 79.42625 20.42979 109.52936
#
# Poissons Ratio (x) = 0.08704 0.28569
# Poissons Ratio (y) = 0.33838 0.57980
# Poissons Ratio (z) = 0.20717 0.10815
#
# Static dielectric constant tensor:
#      x y z
#    x 1.840170 0.000000 0.000000 
#    y 0.000000 1.831030 0.000000 
#    z 0.000000 0.000000 1.770010 
# 
# From -- ./inp_files/26682.got.cif
#   From: 2010.05.17/outbox.cif.g08.bks.cpg/sg48_14_cif.got.tgz:26682.got - 2010.06.03 20:39:00.
