data_PCOD9391953
_publ_section_title
;
Structure prediction by ZEFSAII (Michael W. Deem and Ramdas Pophale) SiO2 
 PCOD9391953
Probable space group: P N N N
;
_chemical_formula_sum "Si O2"
_cell_formula_units_Z 40
_cell_length_a 12.000000
_cell_length_b 18.000000
_cell_length_c 9.000000
_cell_angle_alpha 90.000000
_cell_angle_beta 90.000000
_cell_angle_gamma 90.000000
_cell_volume 1944.000000
_symmetry_space_group_name_H-M "P N N N"
_symmetry_group_IT_number 48
_space_group.IT_coordinate_system_code '2'
_symmetry_cell_setting 'orthorhombic'
loop_
_space_group_symop_operation_xyz
x,y,z
1/2-x,1/2-y,z
x,1/2-y,1/2-z
1/2-x,y,1/2-z
-x,-y,-z
1/2+x,1/2+y,-z
-x,1/2+y,1/2+z
1/2+x,-y,1/2+z
loop_
_atom_site_type_symbol
_atom_site_label
_atom_site_fract_x
_atom_site_fract_y
_atom_site_fract_z
Si Si1 0.453552 0.916119 0.018636
Si Si2 0.291707 0.560155 0.079173
Si Si3 0.389009 0.169436 0.171706
Si Si4 0.833116 0.606800 0.530442
Si Si5 0.982143 0.166324 0.819230
O O1 0.321670 0.916609 0.000445
O O2 0.488252 0.889844 0.181812
O O3 0.501904 0.850702 0.916835
O O4 0.500000 0.000000 0.000000
O O5 0.250000 0.543869 0.250000
O O6 0.328296 0.481888 0.004505
O O7 0.379932 0.628053 0.088211
O O8 0.379997 0.250000 0.250000
O O9 0.388437 0.112699 0.308093
O O10 0.286447 0.146221 0.063260
O O11 0.906202 0.654588 0.415927
O O12 0.967169 0.250000 0.750000
#
# Coordination Sequence:
#
# PCOD9391953 Si02
#       5
#     8   8   8   8   8
#     4  11  22  43  67  94 135 176 224 277 332 405
#     4  10  20  40  67  91 128 181 217 265 331 406
#     4  11  22  39  67  95 131 177 220 272 347 397
#     4  11  20  41  64  93 132 174 224 270 333 405
#     4  11  25  41  66 100 134 171 227 280 336 393
#
# _framework density 20.576132000000001
#
# number of rings (size 3 to 8) (size 9 to 14) (size 15 to 20)
#    0.000    1.200    4.000    4.200    0.000    4.400 
#    0.000    4.000    0.000    2.400    0.000    0.000 
#    0.000    0.000    0.000    0.000    0.000    0.000 
#
# Total GULP energy -222962.521236 kJ/mol
# GULP energy per Si atom -5574.063031 kJ/mol
# Density = 2.052930 g / cm^3
# Si number density = 20.576132 Si / 1000 Ang^3
#
#
#
# Elastic Constant Matrix: (Units=GPa)
#
#
# Indices 1 2 3 4 5 6 
#
# 1 122.7701 80.2368 65.8530 0.0000 0.0000 0.0000
# 2 80.2368 153.0354 39.6239 0.0000 0.0000 0.0000
# 3 65.8530 39.6239 23.3344 0.0000 0.0000 0.0000
# 4 0.0000 0.0000 0.0000 30.2357 0.0000 0.0000
# 5 0.0000 0.0000 0.0000 0.0000 28.2039 0.0000
# 6 0.0000 0.0000 0.0000 0.0000 0.0000 29.5323
#
#
#
# Elastic Compliance Matrix: (Units=1/GPa)
#
#
# Indices 1 2 3 4 5 6 
#
# 1 -0.013385 -0.004930 0.046146 0.000000 0.000000 0.000000
# 2 -0.004930 0.009846 -0.002804 0.000000 0.000000 0.000000
# 3 0.046146 -0.002804 -0.082613 0.000000 0.000000 0.000000
# 4 0.000000 0.000000 0.000000 0.033073 0.000000 0.000000
# 5 0.000000 0.000000 0.000000 0.000000 0.035456 0.000000
# 6 0.000000 0.000000 0.000000 0.000000 0.000000 0.033861
#
#
# Mechanical properties :
#
#
# Convention : Reuss Voigt Hill
#
# Bulk Modulus (GPa) = -107.18268 74.50748 -16.33760
# Shear Modulus (GPa) = -78.50091 25.15615 -26.67238
#
# Velocity S-wave (km/s) = -6.18339 3.50035 -3.60429
# Velocity P-wave (km/s) = 10.15790 7.25437 5.02778
#
# Compressibility (1/GPa) = -0.00932987
#
# Stress axis : x y z
#
# Youngs Moduli (GPa) = -74.71266 101.56886 -12.10464
#
# Poissons Ratio (x) = 0.50078 0.55858
# Poissons Ratio (y) = -0.36837 -0.03394
# Poissons Ratio (z) = 3.44767 0.28481
#
# Static dielectric constant tensor:
#      x y z
#    x 1.796730 0.000000 0.000000 
#    y 0.000000 1.741150 0.000000 
#    z 0.000000 0.000000 1.786180 
# 
# From -- ./inp_files/10721.got.cif
#   From: 2010.05.17/outbox.ucp.g08.bks.cvg/sg48_6_cif.got.tgz:10721.got - 2010.06.11 16:38:40.
