data_PCOD9391136
_publ_section_title
;
Structure prediction by ZEFSAII (Michael W. Deem and Ramdas Pophale) SiO2 
 PCOD9391136
Probable space group: P N N N
;
_chemical_formula_sum "Si O2"
_cell_formula_units_Z 50
_cell_length_a 15.927487
_cell_length_b 8.906793
_cell_length_c 16.655167
_cell_angle_alpha 90.000000
_cell_angle_beta 90.000000
_cell_angle_gamma 90.000000
_cell_volume 2362.749120
_symmetry_space_group_name_H-M "P N N N"
_symmetry_group_IT_number 48
_space_group.IT_coordinate_system_code '2'
_symmetry_cell_setting 'orthorhombic'
loop_
_space_group_symop_operation_xyz
x,y,z
1/2-x,1/2-y,z
x,1/2-y,1/2-z
1/2-x,y,1/2-z
-x,-y,-z
1/2+x,1/2+y,-z
-x,1/2+y,1/2+z
1/2+x,-y,1/2+z
loop_
_atom_site_type_symbol
_atom_site_label
_atom_site_fract_x
_atom_site_fract_y
_atom_site_fract_z
Si Si1 0.341276 0.173568 0.500139
Si Si2 0.901825 0.345889 0.137381
Si Si3 0.386883 0.669576 0.330058
Si Si4 0.661011 0.315418 0.993728
Si Si5 0.088494 0.309573 0.837866
Si Si6 0.250000 0.750000 0.750000
Si Si7 0.097617 0.176970 0.333746
O O1 0.250000 0.250000 0.506029
O O2 0.387751 0.214599 0.583648
O O3 0.379454 0.236572 0.416194
O O4 0.339544 0.993821 0.498087
O O5 0.880490 0.522349 0.143036
O O6 0.825371 0.267750 0.182873
O O7 0.995921 0.330366 0.171247
O O8 0.905313 0.270645 0.049869
O O9 0.356302 0.750000 0.250000
O O10 0.353433 0.762050 0.404119
O O11 0.488083 0.682493 0.331652
O O12 0.367812 0.493148 0.337619
O O13 0.750000 0.250000 0.019087
O O14 0.119484 0.250000 0.750000
O O15 0.127707 0.250000 0.250000
#
# Coordination Sequence:
#
# PCOD9391136 Si02
#       7
#     8   8   8   8   8   2   8
#     4  12  27  43  65  97 132 174 225 276 329 388
#     4  11  24  41  68  98 136 173 217 265 327 397
#     4  10  22  42  67  96 130 170 219 268 326 394
#     4  12  25  42  65  93 132 174 221 276 332 391
#     4  10  24  43  67  96 134 173 215 269 329 391
#     4  12  24  40  66 104 128 172 210 264 320 400
#     4  11  23  43  69  98 133 173 221 271 328 387
#
# _framework density 21.16179
#
# number of rings (size 3 to 8) (size 9 to 14) (size 15 to 20)
#    0.000    0.960    1.600    4.800    2.240    7.360 
#    0.000    3.200    0.000    0.000    0.000    0.000 
#    0.000    0.000    0.000    0.000    0.000    0.000 
#
# Total GULP energy -278846.722312 kJ/mol
# GULP energy per Si atom -5576.934446 kJ/mol
# Density = 2.111362 g / cm^3
# Si number density = 21.161790 Si / 1000 Ang^3
#
#
#
# Elastic Constant Matrix: (Units=GPa)
#
#
# Indices 1 2 3 4 5 6 
#
# 1 23.8539 27.5267 3.5293 0.0000 0.0000 0.0000
# 2 27.5267 257.6962 100.2124 0.0000 0.0000 0.0000
# 3 3.5293 100.2124 199.6525 0.0000 0.0000 0.0000
# 4 0.0000 0.0000 0.0000 45.4298 0.0000 0.0000
# 5 0.0000 0.0000 0.0000 0.0000 -35.0814 0.0000
# 6 0.0000 0.0000 0.0000 0.0000 0.0000 28.0294
#
#
#
# Elastic Compliance Matrix: (Units=1/GPa)
#
#
# Indices 1 2 3 4 5 6 
#
# 1 0.048560 -0.006030 0.002168 0.000000 0.000000 0.000000
# 2 -0.006030 0.005571 -0.002689 0.000000 0.000000 0.000000
# 3 0.002168 -0.002689 0.006320 0.000000 0.000000 0.000000
# 4 0.000000 0.000000 0.000000 0.022012 0.000000 0.000000
# 5 0.000000 0.000000 0.000000 0.000000 -0.028505 0.000000
# 6 0.000000 0.000000 0.000000 0.000000 0.000000 0.035677
#
#
# Mechanical properties :
#
#
# Convention : Reuss Voigt Hill
#
# Bulk Modulus (GPa) = 21.12024 82.63772 51.87898
# Shear Modulus (GPa) = 42.18707 31.00451 36.59579
#
# Velocity S-wave (km/s) = 4.46976 3.83184 4.16304
# Velocity P-wave (km/s) = 6.05313 7.66241 6.90481
#
# Compressibility (1/GPa) = 0.04734794
#
# Stress axis : x y z
#
# Youngs Moduli (GPa) = 20.59317 179.51510 158.22030
#
# Poissons Ratio (x) = 1.08254 -0.34309
# Poissons Ratio (y) = 0.12418 0.42553
# Poissons Ratio (z) = -0.04466 0.48280
#
# Static dielectric constant tensor:
#      x y z
#    x 1.709750 0.000000 0.000000 
#    y 0.000000 1.868030 0.000000 
#    z 0.000000 0.000000 1.883460 
# 
# From -- ./inp_files/27909.got.cif
#   From: 2010.05.17/outbox.cif.g08.bks.cpg/sg48_14_cif.got.tgz:27909.got - 2010.06.03 20:39:00.
