data_PCOD9391407
_publ_section_title
;
Structure prediction by ZEFSAII (Michael W. Deem and Ramdas Pophale) SiO2 
 PCOD9391407
Probable space group: P N N N
;
_chemical_formula_sum "Si O2"
_cell_formula_units_Z 40
_cell_length_a 21.256655
_cell_length_b 15.144819
_cell_length_c 4.982938
_cell_angle_alpha 90.000000
_cell_angle_beta 90.000000
_cell_angle_gamma 90.000000
_cell_volume 1604.148224
_symmetry_space_group_name_H-M "P N N N"
_symmetry_group_IT_number 48
_space_group.IT_coordinate_system_code '2'
_symmetry_cell_setting 'orthorhombic'
loop_
_space_group_symop_operation_xyz
x,y,z
1/2-x,1/2-y,z
x,1/2-y,1/2-z
1/2-x,y,1/2-z
-x,-y,-z
1/2+x,1/2+y,-z
-x,1/2+y,1/2+z
1/2+x,-y,1/2+z
loop_
_atom_site_type_symbol
_atom_site_label
_atom_site_fract_x
_atom_site_fract_y
_atom_site_fract_z
Si Si1 0.886017 0.840298 0.331302
Si Si2 0.321045 0.584108 0.848767
Si Si3 0.069893 0.689564 0.502443
Si Si4 0.181495 0.397336 0.362346
Si Si5 0.444645 0.981885 0.790143
O O1 0.918575 0.750000 0.250000
O O2 0.826103 0.656631 0.363718
O O3 0.867677 0.863124 0.635815
O O4 0.925487 0.920485 0.210562
O O5 0.250000 0.595845 0.750000
O O6 0.374869 0.557647 0.622830
O O7 0.355033 0.667752 0.981953
O O8 0.321965 0.500379 0.050498
O O9 0.057191 0.750000 0.250000
O O10 0.041771 0.591354 0.562003
O O11 0.050213 0.750000 0.750000
O O12 0.250000 0.382219 0.250000
O O13 0.500000 0.000000 0.000000
#
# Coordination Sequence:
#
# PCOD9391407 Si02
#       5
#     8   8   8   8   8
#     4  11  24  42  68 104 143 196 259 321 393 477
#     4   9  21  42  74 113 160 204 265 336 417 491
#     4  10  24  44  73 111 155 201 269 334 410 497
#     4  11  22  39  67 103 150 197 252 316 396 473
#     4   9  22  47  79 104 151 203 262 331 414 478
#
# _framework density 24.93535
#
# number of rings (size 3 to 8) (size 9 to 14) (size 15 to 20)
#    1.200    0.800    0.000    3.600    2.800    2.800 
#    0.000   13.000    0.000    0.000    0.000    1.400 
#    0.000    0.000    0.000    0.000    0.000    0.000 
#
# Total GULP energy -222920.026806 kJ/mol
# GULP energy per Si atom -5573.000670 kJ/mol
# Density = 2.487860 g / cm^3
# Si number density = 24.935350 Si / 1000 Ang^3
#
#
#
# Elastic Constant Matrix: (Units=GPa)
#
#
# Indices 1 2 3 4 5 6 
#
# 1 157.1267 13.4360 41.9698 0.0000 0.0000 0.0000
# 2 13.4360 173.2955 56.1439 0.0000 0.0000 0.0000
# 3 41.9698 56.1439 151.4106 0.0000 0.0000 0.0000
# 4 0.0000 0.0000 0.0000 38.8995 0.0000 0.0000
# 5 0.0000 0.0000 0.0000 0.0000 39.0641 0.0000
# 6 0.0000 0.0000 0.0000 0.0000 0.0000 -42.9691
#
#
#
# Elastic Compliance Matrix: (Units=1/GPa)
#
#
# Indices 1 2 3 4 5 6 
#
# 1 0.006875 0.000096 -0.001941 0.000000 0.000000 0.000000
# 2 0.000096 0.006560 -0.002459 0.000000 0.000000 0.000000
# 3 -0.001941 -0.002459 0.008054 0.000000 0.000000 0.000000
# 4 0.000000 0.000000 0.000000 0.025707 0.000000 0.000000
# 5 0.000000 0.000000 0.000000 0.000000 0.025599 0.000000
# 6 0.000000 0.000000 0.000000 0.000000 0.000000 -0.023273
#
#
# Mechanical properties :
#
#
# Convention : Reuss Voigt Hill
#
# Bulk Modulus (GPa) = 77.63795 78.32579 77.98187
# Shear Modulus (GPa) = 80.09718 31.68446 55.89082
#
# Velocity S-wave (km/s) = 5.67377 3.56851 4.73951
# Velocity P-wave (km/s) = 8.60962 6.96123 7.82893
#
# Compressibility (1/GPa) = 0.01288030
#
# Stress axis : x y z
#
# Youngs Moduli (GPa) = 145.46329 152.44595 124.15551
#
# Poissons Ratio (x) = -0.01462 0.24100
# Poissons Ratio (y) = -0.01395 0.30529
# Poissons Ratio (z) = 0.28236 0.37486
#
# Static dielectric constant tensor:
#      x y z
#    x 2.171330 0.000000 0.000000 
#    y 0.000000 2.069820 0.000000 
#    z 0.000000 0.000000 0.616280 
# 
# From -- ./inp_files/5774.got.cif
#   From: 2010.05.17/outbox.cif.g08.bks.cpg/sg48_3_cif.got.tgz:5774.got - 2010.06.03 20:39:00.
