data_PCOD9391993
_publ_section_title
;
Structure prediction by ZEFSAII (Michael W. Deem and Ramdas Pophale) SiO2 
 PCOD9391993
Probable space group: P C C M
;
_chemical_formula_sum "Si O2"
_cell_formula_units_Z 56
_cell_length_a 30.228524
_cell_length_b 13.775973
_cell_length_c 8.593066
_cell_angle_alpha 90.000000
_cell_angle_beta 90.000000
_cell_angle_gamma 90.000000
_cell_volume 3578.387535
_symmetry_space_group_name_H-M "P C C M"
_symmetry_group_IT_number 49
_symmetry_cell_setting 'orthorhombic'
loop_
_space_group_symop_operation_xyz
x,y,z
-x,-y,z
x,-y,1/2-z
-x,y,1/2-z
-x,-y,-z
x,y,-z
-x,y,1/2+z
x,-y,1/2+z
loop_
_atom_site_type_symbol
_atom_site_label
_atom_site_fract_x
_atom_site_fract_y
_atom_site_fract_z
Si Si1 0.322557 0.701640 0.314549
Si Si2 0.364238 0.105363 0.313959
Si Si3 0.234413 0.389874 0.686901
Si Si4 0.863679 0.389880 0.813979
Si Si5 0.548111 0.800364 0.186057
Si Si6 0.954407 0.389217 0.685181
Si Si7 0.590179 0.393977 0.813999
O O1 0.327579 0.695062 0.500000
O O2 0.334039 0.809698 0.257298
O O3 0.274108 0.669545 0.262159
O O4 0.359602 0.632745 0.235818
O O5 0.362142 0.108394 0.500000
O O6 0.413819 0.132246 0.258492
O O7 0.352201 0.000000 0.250000
O O8 0.237040 0.500000 0.750000
O O9 0.239096 0.391776 0.500000
O O10 0.185109 0.349633 0.723545
O O11 0.862010 0.500000 0.750000
O O12 0.907982 0.344218 0.741783
O O13 0.868621 0.392881 0.000000
O O14 0.500000 0.825906 0.250000
O O15 0.560473 0.690986 0.239707
O O16 0.549599 0.806277 0.000000
O O17 0.953756 0.500000 0.750000
O O18 0.000000 0.344820 0.750000
O O19 0.955853 0.607277 0.000000
O O20 0.578772 0.500000 0.750000
O O21 0.586397 0.390817 0.000000
#
# Coordination Sequence:
#
# PCOD9391993 Si02
#       7
#     8   8   8   8   8   8   8
#     4  11  21  34  51  72  95 121 152 187 224 268
#     4  11  22  39  59  79  99 121 148 182 222 265
#     4  10  19  30  44  64  90 121 153 190 230 272
#     4   9  16  25  36  51  74 103 140 182 226 267
#     4  11  22  38  56  78 102 126 154 185 221 262
#     4  10  16  22  32  45  65  94 134 180 226 267
#     4  11  21  35  52  72  97 127 158 190 224 262
#
# _framework density 15.649508000000001
#
# number of rings (size 3 to 8) (size 9 to 14) (size 15 to 20)
#    0.000    1.571    0.000   10.714    0.000    2.286 
#    0.000    2.857    0.000    0.000    0.000    0.000 
#    0.000    0.000    0.000    0.000    0.000    0.714 
#
# Total GULP energy -312573.630327 kJ/mol
# GULP energy per Si atom -5581.671970 kJ/mol
# Density = 1.561389 g / cm^3
# Si number density = 15.649508 Si / 1000 Ang^3
#
#
#
# Elastic Constant Matrix: (Units=GPa)
#
#
# Indices 1 2 3 4 5 6 
#
# 1 111.6776 7.9204 25.1559 0.0000 0.0000 0.0000
# 2 7.9204 39.6902 1.1191 0.0000 0.0000 0.0000
# 3 25.1559 1.1191 102.6526 0.0000 0.0000 0.0000
# 4 0.0000 0.0000 0.0000 19.3113 0.0000 0.0000
# 5 0.0000 0.0000 0.0000 0.0000 35.6547 0.0000
# 6 0.0000 0.0000 0.0000 0.0000 0.0000 5.1102
#
#
#
# Elastic Compliance Matrix: (Units=1/GPa)
#
#
# Indices 1 2 3 4 5 6 
#
# 1 0.009612 -0.001852 -0.002335 0.000000 0.000000 0.000000
# 2 -0.001852 0.025560 0.000175 0.000000 0.000000 0.000000
# 3 -0.002335 0.000175 0.010312 0.000000 0.000000 0.000000
# 4 0.000000 0.000000 0.000000 0.051783 0.000000 0.000000
# 5 0.000000 0.000000 0.000000 0.000000 0.028047 0.000000
# 6 0.000000 0.000000 0.000000 0.000000 0.000000 0.195686
#
#
# Mechanical properties :
#
#
# Convention : Reuss Voigt Hill
#
# Bulk Modulus (GPa) = 26.69583 35.82349 31.25966
# Shear Modulus (GPa) = 14.64085 26.67023 20.65554
#
# Velocity S-wave (km/s) = 3.06199 4.13270 3.63696
# Velocity P-wave (km/s) = 5.44028 6.76115 6.13636
#
# Compressibility (1/GPa) = 0.03745904
#
# Stress axis : x y z
#
# Youngs Moduli (GPa) = 104.03949 39.12393 96.97477
#
# Poissons Ratio (x) = 0.07247 0.22646
# Poissons Ratio (y) = 0.19270 -0.01699
# Poissons Ratio (z) = 0.24296 -0.00686
#
# Static dielectric constant tensor:
#      x y z
#    x 1.570300 0.000000 0.000000 
#    y 0.000000 1.490700 0.000000 
#    z 0.000000 0.000000 1.518160 
# 
# From -- ./inp_files/7027.got.cif
#   From: 2010.05.17/outbox.cif.g08.bks.cpg/sg49_4_cif.got.tgz:7027.got - 2010.06.03 21:02:19.
