data_PCOD9391854
_publ_section_title
;
Structure prediction by ZEFSAII (Michael W. Deem and Ramdas Pophale) SiO2 
 PCOD9391854
Probable space group: P N N N
;
_chemical_formula_sum "Si O2"
_cell_formula_units_Z 38
_cell_length_a 26.201510
_cell_length_b 12.046715
_cell_length_c 4.914327
_cell_angle_alpha 90.000000
_cell_angle_beta 90.000000
_cell_angle_gamma 90.000000
_cell_volume 1551.168610
_symmetry_space_group_name_H-M "P N N N"
_symmetry_group_IT_number 48
_space_group.IT_coordinate_system_code '2'
_symmetry_cell_setting 'orthorhombic'
loop_
_space_group_symop_operation_xyz
x,y,z
1/2-x,1/2-y,z
x,1/2-y,1/2-z
1/2-x,y,1/2-z
-x,-y,-z
1/2+x,1/2+y,-z
-x,1/2+y,1/2+z
1/2+x,-y,1/2+z
loop_
_atom_site_type_symbol
_atom_site_label
_atom_site_fract_x
_atom_site_fract_y
_atom_site_fract_z
Si Si1 0.951674 0.581723 0.169512
Si Si2 0.117445 0.370393 0.346459
Si Si3 0.962955 0.343825 0.440720
Si Si4 0.250000 0.750000 0.750000
Si Si5 0.696603 0.068635 0.642307
Si Si6 0.130121 0.750000 0.250000
O O1 0.911765 0.638714 0.371458
O O2 0.956738 0.453835 0.261730
O O3 0.005037 0.630759 0.285972
O O4 0.925795 0.590495 0.873771
O O5 0.136765 0.250000 0.250000
O O6 0.160053 0.464011 0.400914
O O7 0.987721 0.250000 0.250000
O O8 0.907532 0.301596 0.528406
O O9 0.284799 0.837183 0.575198
O O10 0.750000 0.024088 0.750000
O O11 0.664467 0.147128 0.846336
#
# Coordination Sequence:
#
# PCOD9391854 Si02
#       6
#     8   8   8   2   8   4
#     4  11  27  49  73 113 161 214 266 321 388 473
#     4  12  28  51  79 111 162 216 268 315 394 481
#     4  11  26  41  76 112 163 206 270 325 398 469
#     4  12  26  48  84 120 156 192 262 358 426 464
#     4  12  27  49  80 116 155 202 265 340 414 469
#     4  12  23  44  70 118 148 202 251 334 396 486
#
# _framework density 24.497658999999999
#
# number of rings (size 3 to 8) (size 9 to 14) (size 15 to 20)
#    0.000    0.421    4.211    2.526   10.316    2.105 
#    0.000    0.000    0.000    0.000    0.000    0.000 
#    0.000    0.000    0.000    0.000    0.000    0.000 
#
# Total GULP energy -212549.839779 kJ/mol
# GULP energy per Si atom -5593.416836 kJ/mol
# Density = 2.444190 g / cm^3
# Si number density = 24.497659 Si / 1000 Ang^3
#
#
#
# Elastic Constant Matrix: (Units=GPa)
#
#
# Indices 1 2 3 4 5 6 
#
# 1 157.1720 63.3965 39.2282 0.0000 0.0000 0.0000
# 2 63.3965 193.9584 47.1671 0.0000 0.0000 0.0000
# 3 39.2282 47.1671 104.9282 0.0000 0.0000 0.0000
# 4 0.0000 0.0000 0.0000 32.5787 0.0000 0.0000
# 5 0.0000 0.0000 0.0000 0.0000 20.3559 0.0000
# 6 0.0000 0.0000 0.0000 0.0000 0.0000 17.4000
#
#
#
# Elastic Compliance Matrix: (Units=1/GPa)
#
#
# Indices 1 2 3 4 5 6 
#
# 1 0.007670 -0.002032 -0.001954 0.000000 0.000000 0.000000
# 2 -0.002032 0.006327 -0.002084 0.000000 0.000000 0.000000
# 3 -0.001954 -0.002084 0.011198 0.000000 0.000000 0.000000
# 4 0.000000 0.000000 0.000000 0.030695 0.000000 0.000000
# 5 0.000000 0.000000 0.000000 0.000000 0.049126 0.000000
# 6 0.000000 0.000000 0.000000 0.000000 0.000000 0.057471
#
#
# Mechanical properties :
#
#
# Convention : Reuss Voigt Hill
#
# Bulk Modulus (GPa) = 76.60558 83.96023 80.28291
# Shear Modulus (GPa) = 27.93645 34.48472 31.21058
#
# Velocity S-wave (km/s) = 3.38060 3.75597 3.57322
# Velocity P-wave (km/s) = 6.82469 7.29088 7.06163
#
# Compressibility (1/GPa) = 0.01305388
#
# Stress axis : x y z
#
# Youngs Moduli (GPa) = 130.38380 158.06027 89.30282
#
# Poissons Ratio (x) = 0.32113 0.17451
# Poissons Ratio (y) = 0.26490 0.18614
# Poissons Ratio (z) = 0.25478 0.32946
#
# Static dielectric constant tensor:
#      x y z
#    x 1.979330 0.000000 0.000000 
#    y 0.000000 1.978470 0.000000 
#    z 0.000000 0.000000 2.356870 
# 
# From -- ./inp_files/6336.got.cif
#   From: 2010.05.17/outbox.cif.g08.bks.cpg/sg48_4_cif.got.tgz:6336.got - 2010.06.03 20:39:00.
