data_PCOD9391317
_publ_section_title
;
Structure prediction by ZEFSAII (Michael W. Deem and Ramdas Pophale) SiO2 
 PCOD9391317
Probable space group: P N N N
;
_chemical_formula_sum "Si O2"
_cell_formula_units_Z 48
_cell_length_a 9.886010
_cell_length_b 14.225161
_cell_length_c 16.506974
_cell_angle_alpha 90.000000
_cell_angle_beta 90.000000
_cell_angle_gamma 90.000000
_cell_volume 2321.377139
_symmetry_space_group_name_H-M "P N N N"
_symmetry_group_IT_number 48
_space_group.IT_coordinate_system_code '2'
_symmetry_cell_setting 'orthorhombic'
loop_
_space_group_symop_operation_xyz
x,y,z
1/2-x,1/2-y,z
x,1/2-y,1/2-z
1/2-x,y,1/2-z
-x,-y,-z
1/2+x,1/2+y,-z
-x,1/2+y,1/2+z
1/2+x,-y,1/2+z
loop_
_atom_site_type_symbol
_atom_site_label
_atom_site_fract_x
_atom_site_fract_y
_atom_site_fract_z
Si Si1 0.250000 0.250000 0.392071
Si Si2 0.993609 0.274286 0.006883
Si Si3 0.250000 0.387140 0.250000
Si Si4 0.250000 0.918846 0.750000
Si Si5 0.951642 0.071304 0.930172
Si Si6 0.673679 0.148873 0.871264
Si Si7 0.988878 0.028607 0.747308
Si Si8 0.250000 0.750000 0.870291
O O1 0.133378 0.209707 0.448411
O O2 0.203252 0.328505 0.328245
O O3 0.876808 0.273004 0.073868
O O4 0.996134 0.172900 0.963087
O O5 0.942675 0.344774 0.938755
O O6 0.379178 0.448437 0.270636
O O7 0.210301 0.842725 0.819045
O O8 0.130752 0.986196 0.718038
O O9 0.791462 0.080621 0.906581
O O10 0.012100 0.045878 0.842705
O O11 0.000000 0.000000 0.000000
O O12 0.750000 0.250000 0.862111
O O13 0.591086 0.116762 0.791923
#
# Coordination Sequence:
#
# PCOD9391317 Si02
#       8
#     4   8   4   4   8   8   8   4
#     4  11  24  40  64  99 138 164 220 281 344 396
#     4  11  23  40  67  93 128 183 221 271 341 408
#     4  11  22  42  65  96 132 178 215 274 338 417
#     4  11  26  38  68 101 138 174 218 291 350 403
#     4  11  21  39  67  94 128 172 227 278 327 403
#     4  10  23  44  70  97 130 185 232 276 341 411
#     4  12  24  42  67 101 133 177 232 279 336 410
#     4  11  20  46  64  93 140 184 218 265 354 432
#
# _framework density 20.677382000000001
#
# number of rings (size 3 to 8) (size 9 to 14) (size 15 to 20)
#    0.000    1.000    4.167    4.000    0.000    8.667 
#    0.000    5.000    0.000    5.000    0.000    0.000 
#    0.000    0.000    0.000    0.000    0.000    0.000 
#
# Total GULP energy -267774.849954 kJ/mol
# GULP energy per Si atom -5578.642707 kJ/mol
# Density = 2.063032 g / cm^3
# Si number density = 20.677382 Si / 1000 Ang^3
#
#
#
# Elastic Constant Matrix: (Units=GPa)
#
#
# Indices 1 2 3 4 5 6 
#
# 1 96.3793 11.1961 8.7815 0.0000 0.0000 0.0000
# 2 11.1961 40.7535 15.0304 0.0000 0.0000 0.0000
# 3 8.7815 15.0304 105.0758 0.0000 0.0000 0.0000
# 4 0.0000 0.0000 0.0000 31.6971 0.0000 0.0000
# 5 0.0000 0.0000 0.0000 0.0000 33.8970 0.0000
# 6 0.0000 0.0000 0.0000 0.0000 0.0000 -208.8437
#
#
#
# Elastic Compliance Matrix: (Units=1/GPa)
#
#
# Indices 1 2 3 4 5 6 
#
# 1 0.010743 -0.002766 -0.000502 0.000000 0.000000 0.000000
# 2 -0.002766 0.026617 -0.003576 0.000000 0.000000 0.000000
# 3 -0.000502 -0.003576 0.010070 0.000000 0.000000 0.000000
# 4 0.000000 0.000000 0.000000 0.031549 0.000000 0.000000
# 5 0.000000 0.000000 0.000000 0.000000 0.029501 0.000000
# 6 0.000000 0.000000 0.000000 0.000000 0.000000 -0.004788
#
#
# Mechanical properties :
#
#
# Convention : Reuss Voigt Hill
#
# Bulk Modulus (GPa) = 29.63754 34.69162 32.16458
# Shear Modulus (GPa) = 38.87202 -14.83655 12.01773
#
# Velocity S-wave (km/s) = 4.34052 -2.68157 2.41343
# Velocity P-wave (km/s) = 6.28367 2.68816 4.83274
#
# Compressibility (1/GPa) = 0.03374099
#
# Stress axis : x y z
#
# Youngs Moduli (GPa) = 93.08598 37.57050 99.30043
#
# Poissons Ratio (x) = 0.10392 0.04986
# Poissons Ratio (y) = 0.25749 0.35511
# Poissons Ratio (z) = 0.04674 0.13436
#
# Static dielectric constant tensor:
#      x y z
#    x 1.754260 0.000000 0.000000 
#    y 0.000000 1.787920 0.000000 
#    z 0.000000 0.000000 1.778420 
# 
# From -- ./inp_files/30305.got.cif
#   From: 2010.05.17/outbox.cif.g08.bks.cpg/sg48_16_cif.got.tgz:30305.got - 2010.06.03 20:39:00.
