data_PCOD9391300
_publ_section_title
;
Structure prediction by ZEFSAII (Michael W. Deem and Ramdas Pophale) SiO2 
 PCOD9391300
Probable space group: P N N N
;
_chemical_formula_sum "Si O2"
_cell_formula_units_Z 38
_cell_length_a 9.472171
_cell_length_b 22.034374
_cell_length_c 9.009128
_cell_angle_alpha 90.000000
_cell_angle_beta 90.000000
_cell_angle_gamma 90.000000
_cell_volume 1880.325361
_symmetry_space_group_name_H-M "P N N N"
_symmetry_group_IT_number 48
_space_group.IT_coordinate_system_code '2'
_symmetry_cell_setting 'orthorhombic'
loop_
_space_group_symop_operation_xyz
x,y,z
1/2-x,1/2-y,z
x,1/2-y,1/2-z
1/2-x,y,1/2-z
-x,-y,-z
1/2+x,1/2+y,-z
-x,1/2+y,1/2+z
1/2+x,-y,1/2+z
loop_
_atom_site_type_symbol
_atom_site_label
_atom_site_fract_x
_atom_site_fract_y
_atom_site_fract_z
Si Si1 0.666340 0.558394 0.901792
Si Si2 0.635706 0.837571 0.004455
Si Si3 0.750000 0.250000 0.750000
Si Si4 0.840748 0.439956 0.393200
Si Si5 0.250000 0.250000 0.250000
Si Si6 0.833031 0.364166 0.898480
Si Si7 0.250000 0.250000 0.750000
O O1 0.750000 0.550492 0.750000
O O2 0.504231 0.571595 0.863719
O O3 0.738800 0.613506 0.989370
O O4 0.671306 0.497111 0.996732
O O5 0.491522 0.875198 0.040856
O O6 0.661469 0.793442 0.142795
O O7 0.655252 0.794213 0.857425
O O8 0.837625 0.293807 0.855008
O O9 0.750000 0.454748 0.250000
O O10 0.771621 0.382035 0.471280
O O11 0.750000 0.390481 0.750000
#
# Coordination Sequence:
#
# PCOD9391300 Si02
#       7
#     8   8   2   8   2   8   2
#     4  11  25  45  68  96 133 177 218 279 336 406
#     4  11  23  43  69  97 138 178 226 280 328 411
#     4   8  22  44  64  98 130 176 218 268 330 392
#     4  11  26  43  68 102 132 169 224 276 343 396
#     4  10  24  42  66 104 132 178 230 272 348 394
#     4  10  23  43  67  97 135 175 217 275 326 397
#     4  10  26  38  70  98 134 186 226 272 334 390
#
# _framework density 20.209268999999999
#
# number of rings (size 3 to 8) (size 9 to 14) (size 15 to 20)
#    0.632    0.842    1.053    2.526    4.421    6.737 
#    0.000    0.000    0.000    0.000    0.000    0.000 
#    0.000    0.000    0.000    0.000    0.000    0.000 
#
# Total GULP energy -211692.440462 kJ/mol
# GULP energy per Si atom -5570.853696 kJ/mol
# Density = 2.016327 g / cm^3
# Si number density = 20.209269 Si / 1000 Ang^3
#
#
#
# Elastic Constant Matrix: (Units=GPa)
#
#
# Indices 1 2 3 4 5 6 
#
# 1 197.3833 47.0007 76.0844 0.0000 0.0000 0.0000
# 2 47.0007 68.6897 19.8902 0.0000 0.0000 0.0000
# 3 76.0844 19.8902 110.5004 0.0000 0.0000 0.0000
# 4 0.0000 0.0000 0.0000 24.6317 0.0000 0.0000
# 5 0.0000 0.0000 0.0000 0.0000 22.8386 0.0000
# 6 0.0000 0.0000 0.0000 0.0000 0.0000 17.7420
#
#
#
# Elastic Compliance Matrix: (Units=1/GPa)
#
#
# Indices 1 2 3 4 5 6 
#
# 1 0.007815 -0.003998 -0.004661 0.000000 0.000000 0.000000
# 2 -0.003998 0.017404 -0.000380 0.000000 0.000000 0.000000
# 3 -0.004661 -0.000380 0.012328 0.000000 0.000000 0.000000
# 4 0.000000 0.000000 0.000000 0.040598 0.000000 0.000000
# 5 0.000000 0.000000 0.000000 0.000000 0.043786 0.000000
# 6 0.000000 0.000000 0.000000 0.000000 0.000000 0.056363
#
#
# Mechanical properties :
#
#
# Convention : Reuss Voigt Hill
#
# Bulk Modulus (GPa) = 51.36613 73.61378 62.48995
# Shear Modulus (GPa) = 24.64740 28.61566 26.63153
#
# Velocity S-wave (km/s) = 3.49608 3.76702 3.63407
# Velocity P-wave (km/s) = 6.46290 7.44482 6.97117
#
# Compressibility (1/GPa) = 0.01946808
#
# Stress axis : x y z
#
# Youngs Moduli (GPa) = 127.95919 57.45920 81.11787
#
# Poissons Ratio (x) = 0.22970 0.37812
# Poissons Ratio (y) = 0.51153 0.03084
# Poissons Ratio (z) = 0.59647 0.02184
#
# Static dielectric constant tensor:
#      x y z
#    x 1.754470 0.000000 0.000000 
#    y 0.000000 1.717540 0.000000 
#    z 0.000000 0.000000 1.737480 
# 
# From -- ./inp_files/9097.got.cif
#   From: 2010.05.17/outbox.cif.g08.bks.cpg/sg48_5_cif.got.tgz:9097.got - 2010.06.03 20:39:00.
