data_PCOD9391432
_publ_section_title
;
Structure prediction by ZEFSAII (Michael W. Deem and Ramdas Pophale) SiO2 
 PCOD9391432
Probable space group: P N N N
;
_chemical_formula_sum "Si O2"
_cell_formula_units_Z 32
_cell_length_a 4.962913
_cell_length_b 15.313779
_cell_length_c 16.950091
_cell_angle_alpha 90.000000
_cell_angle_beta 90.000000
_cell_angle_gamma 90.000000
_cell_volume 1288.223067
_symmetry_space_group_name_H-M "P N N N"
_symmetry_group_IT_number 48
_space_group.IT_coordinate_system_code '2'
_symmetry_cell_setting 'orthorhombic'
loop_
_space_group_symop_operation_xyz
x,y,z
1/2-x,1/2-y,z
x,1/2-y,1/2-z
1/2-x,y,1/2-z
-x,-y,-z
1/2+x,1/2+y,-z
-x,1/2+y,1/2+z
1/2+x,-y,1/2+z
loop_
_atom_site_type_symbol
_atom_site_label
_atom_site_fract_x
_atom_site_fract_y
_atom_site_fract_z
Si Si1 0.896034 0.835545 0.921856
Si Si2 0.082021 0.899176 0.481560
Si Si3 0.296774 0.350597 0.654794
Si Si4 0.504761 0.508569 0.805466
O O1 0.750000 0.750000 0.884278
O O2 0.894900 0.910194 0.856092
O O3 0.686575 0.851185 0.991074
O O4 0.183256 0.854095 0.966150
O O5 0.075490 0.877065 0.388423
O O6 0.000000 0.000000 0.500000
O O7 0.250000 0.250000 0.634778
O O8 0.250000 0.352153 0.750000
O O9 0.107384 0.434019 0.635867
O O10 0.750000 0.480045 0.750000
O O11 0.250000 0.534568 0.750000
#
# Coordination Sequence:
#
# PCOD9391432 Si02
#       4
#     8   8   8   8
#     4  12  27  48  75 114 154 208 268 334 410 494
#     4  12  25  47  78 111 154 208 263 337 411 490
#     4  10  24  47  77 112 154 205 266 334 407 492
#     4  11  25  47  78 110 157 211 271 335 412 493
#
# _framework density 24.840419000000001
#
# number of rings (size 3 to 8) (size 9 to 14) (size 15 to 20)
#    0.000    0.750    2.500    3.750    3.500    0.500 
#    0.000   18.750    0.000    0.000    0.000    0.000 
#    0.000    0.000    0.000    0.000    0.000    0.000 
#
# Total GULP energy -178257.490469 kJ/mol
# GULP energy per Si atom -5570.546577 kJ/mol
# Density = 2.478388 g / cm^3
# Si number density = 24.840419 Si / 1000 Ang^3
#
#
#
# Elastic Constant Matrix: (Units=GPa)
#
#
# Indices 1 2 3 4 5 6 
#
# 1 120.9473 35.5141 27.9037 0.0000 0.0000 0.0000
# 2 35.5141 213.4081 37.9160 0.0000 0.0000 0.0000
# 3 27.9037 37.9160 94.6241 0.0000 0.0000 0.0000
# 4 0.0000 0.0000 0.0000 37.3005 0.0000 0.0000
# 5 0.0000 0.0000 0.0000 0.0000 43.3677 0.0000
# 6 0.0000 0.0000 0.0000 0.0000 0.0000 40.8818
#
#
#
# Elastic Compliance Matrix: (Units=1/GPa)
#
#
# Indices 1 2 3 4 5 6 
#
# 1 0.009113 -0.001119 -0.002239 0.000000 0.000000 0.000000
# 2 -0.001119 0.005182 -0.001747 0.000000 0.000000 0.000000
# 3 -0.002239 -0.001747 0.011928 0.000000 0.000000 0.000000
# 4 0.000000 0.000000 0.000000 0.026809 0.000000 0.000000
# 5 0.000000 0.000000 0.000000 0.000000 0.023059 0.000000
# 6 0.000000 0.000000 0.000000 0.000000 0.000000 0.024461
#
#
# Mechanical properties :
#
#
# Convention : Reuss Voigt Hill
#
# Bulk Modulus (GPa) = 62.44221 70.18301 66.31261
# Shear Modulus (GPa) = 43.06640 46.15305 44.60972
#
# Velocity S-wave (km/s) = 4.16832 4.31511 4.24235
# Velocity P-wave (km/s) = 6.95402 7.28984 7.12391
#
# Compressibility (1/GPa) = 0.01601481
#
# Stress axis : x y z
#
# Youngs Moduli (GPa) = 109.73163 192.96228 83.83415
#
# Poissons Ratio (x) = 0.21587 0.18771
# Poissons Ratio (y) = 0.12276 0.14643
# Poissons Ratio (z) = 0.24570 0.33704
#
# Static dielectric constant tensor:
#      x y z
#    x 1.910190 0.000000 0.000000 
#    y 0.000000 2.253930 0.000000 
#    z 0.000000 0.000000 2.307230 
# 
# From -- ./inp_files/29206.got.cif
#   From: 2010.05.17/outbox.cif.g08.bks.cpg/sg48_15_cif.got.tgz:29206.got - 2010.06.03 20:39:00.
