data_PCOD9391161
_publ_section_title
;
Structure prediction by ZEFSAII (Michael W. Deem and Ramdas Pophale) SiO2 
 PCOD9391161
Probable space group: P N N N
;
_chemical_formula_sum "Si O2"
_cell_formula_units_Z 64
_cell_length_a 12.026319
_cell_length_b 14.304661
_cell_length_c 17.500587
_cell_angle_alpha 90.000000
_cell_angle_beta 90.000000
_cell_angle_gamma 90.000000
_cell_volume 3010.668270
_symmetry_space_group_name_H-M "P N N N"
_symmetry_group_IT_number 48
_space_group.IT_coordinate_system_code '2'
_symmetry_cell_setting 'orthorhombic'
loop_
_space_group_symop_operation_xyz
x,y,z
1/2-x,1/2-y,z
x,1/2-y,1/2-z
1/2-x,y,1/2-z
-x,-y,-z
1/2+x,1/2+y,-z
-x,1/2+y,1/2+z
1/2+x,-y,1/2+z
loop_
_atom_site_type_symbol
_atom_site_label
_atom_site_fract_x
_atom_site_fract_y
_atom_site_fract_z
Si Si1 0.137003 0.696563 0.493767
Si Si2 0.393906 0.498472 0.942268
Si Si3 0.230468 0.016924 0.172075
Si Si4 0.089367 0.826030 0.185143
Si Si5 0.236537 0.359957 0.466274
Si Si6 0.621428 0.926824 0.276514
Si Si7 0.505367 0.861836 0.980599
Si Si8 0.516663 0.023564 0.873600
O O1 0.250000 0.750000 0.507389
O O2 0.158852 0.594388 0.527968
O O3 0.113665 0.696987 0.403012
O O4 0.036332 0.756390 0.531295
O O5 0.395940 0.495915 0.849960
O O6 0.500000 0.500000 0.000000
O O7 0.329707 0.402726 0.962995
O O8 0.250000 0.072590 0.250000
O O9 0.186702 0.084386 0.105998
O O10 0.154465 0.926365 0.190160
O O11 0.354546 0.988275 0.148244
O O12 0.123635 0.750000 0.250000
O O13 0.956859 0.840701 0.196199
O O14 0.250000 0.250000 0.457235
O O15 0.364860 0.384242 0.476129
O O16 0.750000 0.912286 0.250000
O O17 0.556300 0.959265 0.200805
O O18 0.462108 0.935546 0.918243
O O19 0.477133 0.892147 0.066220
#
# Coordination Sequence:
#
# PCOD9391161 Si02
#       8
#     8   8   8   8   8   8   8   8
#     4  12  26  41  72 110 140 190 249 314 378 452
#     4  12  25  48  72 101 151 196 245 307 368 456
#     4  11  22  42  68  98 134 170 230 305 360 420
#     4  12  26  41  68 107 147 183 229 307 383 443
#     4  11  24  43  71  97 132 189 241 287 355 436
#     4  12  26  44  69  97 144 198 241 290 364 453
#     4  10  23  42  69  98 139 173 236 295 366 441
#     4  10  22  43  70  99 132 185 230 291 365 436
#
# _framework density 21.257738
#
# number of rings (size 3 to 8) (size 9 to 14) (size 15 to 20)
#    0.000    0.750    3.750    3.000    7.000    0.500 
#    0.000    0.625    0.000    0.000    0.000    0.000 
#    0.000    0.000    0.000    0.000    0.000    0.000 
#
# Total GULP energy -356722.587181 kJ/mol
# GULP energy per Si atom -5573.790425 kJ/mol
# Density = 2.120935 g / cm^3
# Si number density = 21.257738 Si / 1000 Ang^3
#
#
#
# Elastic Constant Matrix: (Units=GPa)
#
#
# Indices 1 2 3 4 5 6 
#
# 1 104.9906 19.8251 9.6498 0.0000 0.0000 0.0000
# 2 19.8251 99.5186 27.8293 0.0000 0.0000 0.0000
# 3 9.6498 27.8293 75.0646 0.0000 0.0000 0.0000
# 4 0.0000 0.0000 0.0000 22.7412 0.0000 0.0000
# 5 0.0000 0.0000 0.0000 0.0000 34.0307 0.0000
# 6 0.0000 0.0000 0.0000 0.0000 0.0000 36.6197
#
#
#
# Elastic Compliance Matrix: (Units=1/GPa)
#
#
# Indices 1 2 3 4 5 6 
#
# 1 0.009922 -0.001807 -0.000605 0.000000 0.000000 0.000000
# 2 -0.001807 0.011540 -0.004046 0.000000 0.000000 0.000000
# 3 -0.000605 -0.004046 0.014900 0.000000 0.000000 0.000000
# 4 0.000000 0.000000 0.000000 0.043973 0.000000 0.000000
# 5 0.000000 0.000000 0.000000 0.000000 0.029385 0.000000
# 6 0.000000 0.000000 0.000000 0.000000 0.000000 0.027308
#
#
# Mechanical properties :
#
#
# Convention : Reuss Voigt Hill
#
# Bulk Modulus (GPa) = 42.65500 43.79802 43.22651
# Shear Modulus (GPa) = 31.69398 33.49630 32.59514
#
# Velocity S-wave (km/s) = 3.86546 3.97384 3.92002
# Velocity P-wave (km/s) = 6.32705 6.45781 6.39276
#
# Compressibility (1/GPa) = 0.02344391
#
# Stress axis : x y z
#
# Youngs Moduli (GPa) = 100.79074 86.65684 67.11559
#
# Poissons Ratio (x) = 0.15660 0.04064
# Poissons Ratio (y) = 0.18214 0.27154
# Poissons Ratio (z) = 0.06103 0.35061
#
# Static dielectric constant tensor:
#      x y z
#    x 1.991620 0.000000 0.000000 
#    y 0.000000 2.384440 0.000000 
#    z 0.000000 0.000000 1.913170 
# 
# From -- ./inp_files/31185.got.cif
#   From: 2010.05.17/outbox.cif.g08.bks.cpg/sg48_16_cif.got.tgz:31185.got - 2010.06.03 20:39:00.
