data_PCOD9391940
_publ_section_title
;
Structure prediction by ZEFSAII (Michael W. Deem and Ramdas Pophale) SiO2 
 PCOD9391940
Probable space group: P N N N
;
_chemical_formula_sum "Si O2"
_cell_formula_units_Z 64
_cell_length_a 15.000000
_cell_length_b 9.000000
_cell_length_c 24.000000
_cell_angle_alpha 90.000000
_cell_angle_beta 90.000000
_cell_angle_gamma 90.000000
_cell_volume 3240.000000
_symmetry_space_group_name_H-M "P N N N"
_symmetry_group_IT_number 48
_space_group.IT_coordinate_system_code '2'
_symmetry_cell_setting 'orthorhombic'
loop_
_space_group_symop_operation_xyz
x,y,z
1/2-x,1/2-y,z
x,1/2-y,1/2-z
1/2-x,y,1/2-z
-x,-y,-z
1/2+x,1/2+y,-z
-x,1/2+y,1/2+z
1/2+x,-y,1/2+z
loop_
_atom_site_type_symbol
_atom_site_label
_atom_site_fract_x
_atom_site_fract_y
_atom_site_fract_z
Si Si1 0.259951 0.926821 0.589486
Si Si2 0.785872 0.024476 0.967711
Si Si3 0.500272 0.695097 0.306595
Si Si4 0.457673 0.038163 0.613491
Si Si5 0.046143 0.735286 0.479159
Si Si6 0.197828 0.091494 0.696221
Si Si7 0.884813 0.035433 0.601627
Si Si8 0.922117 0.795096 0.917961
O O1 0.250000 0.750000 0.587993
O O2 0.238841 0.992255 0.527978
O O3 0.361175 0.970028 0.604906
O O4 0.204359 0.998727 0.639490
O O5 0.857894 0.154872 0.978146
O O6 0.716248 0.063176 0.919067
O O7 0.842084 0.879941 0.949552
O O8 0.456963 0.750000 0.250000
O O9 0.536197 0.837702 0.339999
O O10 0.592582 0.609930 0.292332
O O11 0.428155 0.612018 0.344644
O O12 0.484939 0.124454 0.557097
O O13 0.532303 0.913075 0.623051
O O14 0.056820 0.891622 0.448354
O O15 0.001080 0.742583 0.538587
O O16 0.250000 0.250000 0.687493
O O17 0.250000 0.025599 0.750000
O O18 0.892426 0.859431 0.606986
#
# Coordination Sequence:
#
# PCOD9391940 Si02
#       8
#     8   8   8   8   8   8   8   8
#     4  12  23  34  60  93 132 170 215 257 315 390
#     4  11  22  40  58  91 136 178 207 253 331 389
#     4  11  23  45  66  88 121 167 222 274 326 386
#     4  10  20  37  59  88 119 174 202 253 320 371
#     4  10  19  38  61  84 132 171 210 246 310 386
#     4  11  22  41  64  89 124 167 217 268 323 382
#     4  11  25  35  63  96 125 165 220 269 312 389
#     4  11  21  39  59  90 137 168 207 257 322 384
#
# _framework density 19.753086
#
# number of rings (size 3 to 8) (size 9 to 14) (size 15 to 20)
#    0.000    1.125    5.000    2.625    1.750    3.250 
#    0.000    0.625    0.000   13.500    0.000    7.000 
#    0.000    0.000    0.000    0.000    0.000    0.000 
#
# Total GULP energy -357347.608132 kJ/mol
# GULP energy per Si atom -5583.556377 kJ/mol
# Density = 1.970813 g / cm^3
# Si number density = 19.753086 Si / 1000 Ang^3
#
#
#
# Elastic Constant Matrix: (Units=GPa)
#
#
# Indices 1 2 3 4 5 6 
#
# 1 81.8049 21.1682 44.0703 0.0000 0.0000 0.0000
# 2 21.1682 80.0125 22.5699 0.0000 0.0000 0.0000
# 3 44.0703 22.5699 103.3653 0.0000 0.0000 0.0000
# 4 0.0000 0.0000 0.0000 10.8317 0.0000 0.0000
# 5 0.0000 0.0000 0.0000 0.0000 28.1888 0.0000
# 6 0.0000 0.0000 0.0000 0.0000 0.0000 21.8306
#
#
#
# Elastic Compliance Matrix: (Units=1/GPa)
#
#
# Indices 1 2 3 4 5 6 
#
# 1 0.016329 -0.002511 -0.006414 0.000000 0.000000 0.000000
# 2 -0.002511 0.013704 -0.001922 0.000000 0.000000 0.000000
# 3 -0.006414 -0.001922 0.012829 0.000000 0.000000 0.000000
# 4 0.000000 0.000000 0.000000 0.092321 0.000000 0.000000
# 5 0.000000 0.000000 0.000000 0.000000 0.035475 0.000000
# 6 0.000000 0.000000 0.000000 0.000000 0.000000 0.045807
#
#
# Mechanical properties :
#
#
# Convention : Reuss Voigt Hill
#
# Bulk Modulus (GPa) = 47.23839 48.97774 48.10806
# Shear Modulus (GPa) = 20.39023 23.99518 22.19271
#
# Velocity S-wave (km/s) = 3.21636 3.48912 3.35551
# Velocity P-wave (km/s) = 6.14489 6.40942 6.27855
#
# Compressibility (1/GPa) = 0.02116922
#
# Stress axis : x y z
#
# Youngs Moduli (GPa) = 61.24010 72.96905 77.95081
#
# Poissons Ratio (x) = 0.18322 0.49996
# Poissons Ratio (y) = 0.15377 0.14981
# Poissons Ratio (z) = 0.39278 0.14024
#
# Static dielectric constant tensor:
#      x y z
#    x 1.730840 0.000000 0.000000 
#    y 0.000000 1.722750 0.000000 
#    z 0.000000 0.000000 1.711650 
# 
# From -- ./inp_files/36582.got.cif
#   From: 2010.05.17/outbox.ucp.g08.bks.cvg/sg48_19_cif.got.tgz:36582.got - 2010.06.11 16:38:40.
