data_PCOD9391411
_publ_section_title
;
Structure prediction by ZEFSAII (Michael W. Deem and Ramdas Pophale) SiO2 
 PCOD9391411
Probable space group: P N N N
;
_chemical_formula_sum "Si O2"
_cell_formula_units_Z 40
_cell_length_a 5.433879
_cell_length_b 12.251813
_cell_length_c 27.153026
_cell_angle_alpha 90.000000
_cell_angle_beta 90.000000
_cell_angle_gamma 90.000000
_cell_volume 1807.709159
_symmetry_space_group_name_H-M "P N N N"
_symmetry_group_IT_number 48
_space_group.IT_coordinate_system_code '2'
_symmetry_cell_setting 'orthorhombic'
loop_
_space_group_symop_operation_xyz
x,y,z
1/2-x,1/2-y,z
x,1/2-y,1/2-z
1/2-x,y,1/2-z
-x,-y,-z
1/2+x,1/2+y,-z
-x,1/2+y,1/2+z
1/2+x,-y,1/2+z
loop_
_atom_site_type_symbol
_atom_site_label
_atom_site_fract_x
_atom_site_fract_y
_atom_site_fract_z
Si Si1 0.082415 0.844459 0.541680
Si Si2 0.812770 0.935000 0.035580
Si Si3 0.750000 0.750000 0.109321
Si Si4 0.694022 0.586219 0.305279
Si Si5 0.750000 0.750000 0.876604
Si Si6 0.303322 0.054712 0.303573
O O1 0.250000 0.750000 0.517809
O O2 0.883296 0.879998 0.501160
O O3 0.967838 0.782636 0.587373
O O4 0.192812 0.958827 0.561232
O O5 0.886390 0.838345 0.073279
O O6 0.000000 0.000000 0.000000
O O7 0.636537 0.831600 0.149837
O O8 0.750000 0.632145 0.250000
O O9 0.443849 0.517186 0.305856
O O10 0.945894 0.515203 0.311075
O O11 0.687770 0.647232 0.843922
O O12 0.250000 0.107182 0.250000
#
# Coordination Sequence:
#
# PCOD9391411 Si02
#       6
#     8   8   4   8   4   8
#     4  11  25  44  68  98 142 183 233 299 356 423
#     4  11  25  47  67  99 144 186 239 297 359 432
#     4  12  24  42  72 102 136 192 240 296 366 434
#     4  10  24  47  70 104 143 182 236 301 361 436
#     4  12  24  38  70 102 134 184 236 290 352 440
#     4  10  24  45  69 102 146 184 230 295 362 432
#
# _framework density 22.127452000000002
#
# number of rings (size 3 to 8) (size 9 to 14) (size 15 to 20)
#    0.000    1.200    0.000    4.800    8.400    0.800 
#   10.800    6.000    0.000    0.000    0.000    0.000 
#    0.000    0.000    0.000    0.000    0.000    0.000 
#
# Total GULP energy -222765.927973 kJ/mol
# GULP energy per Si atom -5569.148199 kJ/mol
# Density = 2.207709 g / cm^3
# Si number density = 22.127452 Si / 1000 Ang^3
#
#
#
# Elastic Constant Matrix: (Units=GPa)
#
#
# Indices 1 2 3 4 5 6 
#
# 1 127.2720 89.5854 43.5597 0.0000 0.0000 0.0000
# 2 89.5854 192.9222 92.1334 0.0000 0.0000 0.0000
# 3 43.5597 92.1334 129.3277 0.0000 0.0000 0.0000
# 4 0.0000 0.0000 0.0000 82.3048 0.0000 0.0000
# 5 0.0000 0.0000 0.0000 0.0000 25.1034 0.0000
# 6 0.0000 0.0000 0.0000 0.0000 0.0000 -35.2049
#
#
#
# Elastic Compliance Matrix: (Units=1/GPa)
#
#
# Indices 1 2 3 4 5 6 
#
# 1 0.011673 -0.005370 -0.000106 0.000000 0.000000 0.000000
# 2 -0.005370 0.010327 -0.005548 0.000000 0.000000 0.000000
# 3 -0.000106 -0.005548 0.011720 0.000000 0.000000 0.000000
# 4 0.000000 0.000000 0.000000 0.012150 0.000000 0.000000
# 5 0.000000 0.000000 0.000000 0.000000 0.039835 0.000000
# 6 0.000000 0.000000 0.000000 0.000000 0.000000 -0.028405
#
#
# Mechanical properties :
#
#
# Convention : Reuss Voigt Hill
#
# Bulk Modulus (GPa) = 85.67428 100.00878 92.84153
# Shear Modulus (GPa) = 60.06772 29.39023 44.72898
#
# Velocity S-wave (km/s) = 5.21586 3.64844 4.50090
# Velocity P-wave (km/s) = 8.66465 7.93996 8.31021
#
# Compressibility (1/GPa) = 0.01167211
#
# Stress axis : x y z
#
# Youngs Moduli (GPa) = 85.66509 96.83778 85.32066
#
# Poissons Ratio (x) = 0.52001 0.00907
# Poissons Ratio (y) = 0.46001 0.47336
# Poissons Ratio (z) = 0.00910 0.53726
#
# Static dielectric constant tensor:
#      x y z
#    x 1.878940 0.000000 0.000000 
#    y 0.000000 1.807240 0.000000 
#    z 0.000000 0.000000 2.049870 
# 
# From -- ./inp_files/36988.got.cif
#   From: 2010.05.17/outbox.cif.g08.bks.cpg/sg48_19_cif.got.tgz:36988.got - 2010.06.03 20:39:00.
