data_PCOD9391920
_publ_section_title
;
Structure prediction by ZEFSAII (Michael W. Deem and Ramdas Pophale) SiO2 
 PCOD9391920
Probable space group: P N N N
;
_chemical_formula_sum "Si O2"
_cell_formula_units_Z 26
_cell_length_a 5.433200
_cell_length_b 7.322934
_cell_length_c 31.006960
_cell_angle_alpha 90.000000
_cell_angle_beta 90.000000
_cell_angle_gamma 90.000000
_cell_volume 1233.672833
_symmetry_space_group_name_H-M "P N N N"
_symmetry_group_IT_number 48
_space_group.IT_coordinate_system_code '2'
_symmetry_cell_setting 'orthorhombic'
loop_
_space_group_symop_operation_xyz
x,y,z
1/2-x,1/2-y,z
x,1/2-y,1/2-z
1/2-x,y,1/2-z
-x,-y,-z
1/2+x,1/2+y,-z
-x,1/2+y,1/2+z
1/2+x,-y,1/2+z
loop_
_atom_site_type_symbol
_atom_site_label
_atom_site_fract_x
_atom_site_fract_y
_atom_site_fract_z
Si Si1 0.501894 0.131338 0.041146
Si Si2 0.510396 0.530489 0.364536
Si Si3 0.750000 0.250000 0.750000
Si Si4 0.012262 0.560940 0.328815
O O1 0.750000 0.250000 0.038490
O O2 0.250000 0.250000 0.041877
O O3 0.522322 0.019320 0.085660
O O4 0.500000 0.000000 0.000000
O O5 0.253102 0.459091 0.345675
O O6 0.500419 0.748826 0.355989
O O7 0.752705 0.468508 0.338427
O O8 0.923415 0.372331 0.719335
#
# Coordination Sequence:
#
# PCOD9391920 Si02
#       4
#     8   8   2   8
#     4  12  27  42  64  90 122 169 219 267 312 379
#     4   9  19  34  53  81 118 157 192 244 313 346
#     4   8  16  30  52 102 122 146 204 246 330 334
#     4   9  18  31  60  85 122 157 191 263 287 381
#
# _framework density 21.075278000000001
#
# number of rings (size 3 to 8) (size 9 to 14) (size 15 to 20)
#    0.000    2.462    0.000    2.769    8.615    9.846 
#    0.000    0.000    0.000    0.000    0.000  112.000 
#    0.000    0.000    0.000    0.000    0.000    0.000 
#
# Total GULP energy -145051.289801 kJ/mol
# GULP energy per Si atom -5578.895762 kJ/mol
# Density = 2.102731 g / cm^3
# Si number density = 21.075278 Si / 1000 Ang^3
#
#
#
# Elastic Constant Matrix: (Units=GPa)
#
#
# Indices 1 2 3 4 5 6 
#
# 1 238.6606 36.3990 79.1578 0.0000 0.0000 0.0000
# 2 36.3990 86.4440 51.9963 0.0000 0.0000 0.0000
# 3 79.1578 51.9963 208.7920 0.0000 0.0000 0.0000
# 4 0.0000 0.0000 0.0000 9.5724 0.0000 0.0000
# 5 0.0000 0.0000 0.0000 0.0000 25.7958 0.0000
# 6 0.0000 0.0000 0.0000 0.0000 0.0000 10.1935
#
#
#
# Elastic Compliance Matrix: (Units=1/GPa)
#
#
# Indices 1 2 3 4 5 6 
#
# 1 0.004881 -0.001108 -0.001575 0.000000 0.000000 0.000000
# 2 -0.001108 0.013858 -0.003031 0.000000 0.000000 0.000000
# 3 -0.001575 -0.003031 0.006141 0.000000 0.000000 0.000000
# 4 0.000000 0.000000 0.000000 0.104467 0.000000 0.000000
# 5 0.000000 0.000000 0.000000 0.000000 0.038766 0.000000
# 6 0.000000 0.000000 0.000000 0.000000 0.000000 0.098102
#
#
# Mechanical properties :
#
#
# Convention : Reuss Voigt Hill
#
# Bulk Modulus (GPa) = 74.33344 96.55587 85.44466
# Shear Modulus (GPa) = 17.72250 33.53524 25.62887
#
# Velocity S-wave (km/s) = 2.90300 3.99333 3.49099
# Velocity P-wave (km/s) = 6.82521 8.19612 7.54188
#
# Compressibility (1/GPa) = 0.01345290
#
# Stress axis : x y z
#
# Youngs Moduli (GPa) = 204.86176 72.16076 162.83347
#
# Poissons Ratio (x) = 0.07997 0.25640
# Poissons Ratio (y) = 0.22704 0.49354
# Poissons Ratio (z) = 0.32258 0.21871
#
# Static dielectric constant tensor:
#      x y z
#    x 2.036040 0.000000 0.000000 
#    y 0.000000 1.648970 0.000000 
#    z 0.000000 0.000000 1.710870 
# 
# From -- ./inp_files/38156.got.cif
#   From: 2010.05.17/outbox.cif.g08.bks.cpg/sg48_20_cif.got.tgz:38156.got - 2010.06.03 20:39:00.
