data_PCOD9391258
_publ_section_title
;
Structure prediction by ZEFSAII (Michael W. Deem and Ramdas Pophale) SiO2 
 PCOD9391258
Probable space group: P N N N
;
_chemical_formula_sum "Si O2"
_cell_formula_units_Z 30
_cell_length_a 20.521071
_cell_length_b 13.269414
_cell_length_c 5.106432
_cell_angle_alpha 90.000000
_cell_angle_beta 90.000000
_cell_angle_gamma 90.000000
_cell_volume 1390.494643
_symmetry_space_group_name_H-M "P N N N"
_symmetry_group_IT_number 48
_space_group.IT_coordinate_system_code '2'
_symmetry_cell_setting 'orthorhombic'
loop_
_space_group_symop_operation_xyz
x,y,z
1/2-x,1/2-y,z
x,1/2-y,1/2-z
1/2-x,y,1/2-z
-x,-y,-z
1/2+x,1/2+y,-z
-x,1/2+y,1/2+z
1/2+x,-y,1/2+z
loop_
_atom_site_type_symbol
_atom_site_label
_atom_site_fract_x
_atom_site_fract_y
_atom_site_fract_z
Si Si1 0.150582 0.402584 0.034114
Si Si2 0.424563 0.470075 0.976063
Si Si3 0.250000 0.567328 0.250000
Si Si4 0.250000 0.250000 0.750000
Si Si5 0.646175 0.316871 0.999549
O O1 0.100852 0.424714 0.797593
O O2 0.201536 0.317044 0.933630
O O3 0.105910 0.397732 0.296468
O O4 0.198029 0.496508 0.104069
O O5 0.393020 0.580090 0.995751
O O6 0.500000 0.500000 0.000000
O O7 0.281600 0.640765 0.039867
O O8 0.628562 0.250000 0.750000
O O9 0.636267 0.250000 0.250000
#
# Coordination Sequence:
#
# PCOD9391258 Si02
#       5
#     8   8   4   2   8
#     4  11  25  42  72  99 136 185 218 303 344 417
#     4  11  25  48  66  91 140 190 228 271 359 416
#     4  10  23  41  66  96 144 168 216 271 383 394
#     4  12  24  46  72 114 142 162 272 292 372 410
#     4  11  23  38  63  97 124 165 213 276 319 405
#
# _framework density 21.575057000000001
#
# number of rings (size 3 to 8) (size 9 to 14) (size 15 to 20)
#    0.000    1.067    0.000    7.600    0.000   13.333 
#    7.200    0.000    0.000    0.000    0.000    0.000 
#    0.000    0.000    0.000    0.000    0.000    0.000 
#
# Total GULP energy -167553.237435 kJ/mol
# GULP energy per Si atom -5585.107914 kJ/mol
# Density = 2.152595 g / cm^3
# Si number density = 21.575057 Si / 1000 Ang^3
#
#
#
# Elastic Constant Matrix: (Units=GPa)
#
#
# Indices 1 2 3 4 5 6 
#
# 1 123.6375 22.0429 46.4169 0.0000 0.0000 0.0000
# 2 22.0429 79.5547 37.1117 0.0000 0.0000 0.0000
# 3 46.4169 37.1117 184.0682 0.0000 0.0000 0.0000
# 4 0.0000 0.0000 0.0000 40.7189 0.0000 0.0000
# 5 0.0000 0.0000 0.0000 0.0000 24.6732 0.0000
# 6 0.0000 0.0000 0.0000 0.0000 0.0000 19.2062
#
#
#
# Elastic Compliance Matrix: (Units=1/GPa)
#
#
# Indices 1 2 3 4 5 6 
#
# 1 0.009116 -0.001604 -0.001975 0.000000 0.000000 0.000000
# 2 -0.001604 0.014157 -0.002450 0.000000 0.000000 0.000000
# 3 -0.001975 -0.002450 0.006425 0.000000 0.000000 0.000000
# 4 0.000000 0.000000 0.000000 0.024559 0.000000 0.000000
# 5 0.000000 0.000000 0.000000 0.000000 0.040530 0.000000
# 6 0.000000 0.000000 0.000000 0.000000 0.000000 0.052067
#
#
# Mechanical properties :
#
#
# Convention : Reuss Voigt Hill
#
# Bulk Modulus (GPa) = 56.69247 66.48928 61.59088
# Shear Modulus (GPa) = 30.34138 35.69892 33.02015
#
# Velocity S-wave (km/s) = 3.75416 4.07214 3.91638
# Velocity P-wave (km/s) = 6.71755 7.27972 7.00428
#
# Compressibility (1/GPa) = 0.01763903
#
# Stress axis : x y z
#
# Youngs Moduli (GPa) = 109.70008 70.63486 155.64661
#
# Poissons Ratio (x) = 0.11332 0.30745
# Poissons Ratio (y) = 0.17600 0.38131
# Poissons Ratio (z) = 0.21669 0.17304
#
# Static dielectric constant tensor:
#      x y z
#    x 1.857820 0.000000 0.000000 
#    y 0.000000 1.757670 0.000000 
#    z 0.000000 0.000000 1.813970 
# 
# From -- ./inp_files/4901.got.cif
#   From: 2010.05.17/outbox.cif.g08.bks.cpg/sg48_3_cif.got.tgz:4901.got - 2010.06.03 20:39:00.
