data_PCOD9391365
_publ_section_title
;
Structure prediction by ZEFSAII (Michael W. Deem and Ramdas Pophale) SiO2 
 PCOD9391365
Probable space group: P N N N
;
_chemical_formula_sum "Si O2"
_cell_formula_units_Z 40
_cell_length_a 17.692646
_cell_length_b 9.988108
_cell_length_c 9.397444
_cell_angle_alpha 90.000000
_cell_angle_beta 90.000000
_cell_angle_gamma 90.000000
_cell_volume 1660.679269
_symmetry_space_group_name_H-M "P N N N"
_symmetry_group_IT_number 48
_space_group.IT_coordinate_system_code '2'
_symmetry_cell_setting 'orthorhombic'
loop_
_space_group_symop_operation_xyz
x,y,z
1/2-x,1/2-y,z
x,1/2-y,1/2-z
1/2-x,y,1/2-z
-x,-y,-z
1/2+x,1/2+y,-z
-x,1/2+y,1/2+z
1/2+x,-y,1/2+z
loop_
_atom_site_type_symbol
_atom_site_label
_atom_site_fract_x
_atom_site_fract_y
_atom_site_fract_z
Si Si1 0.902051 0.976584 0.490406
Si Si2 0.241709 0.407342 0.419985
Si Si3 0.499914 0.017658 0.256842
Si Si4 0.498930 0.293138 0.987146
Si Si5 0.328986 0.812567 0.411387
O O1 0.813859 0.969692 0.502566
O O2 0.933033 0.016250 0.646708
O O3 0.943894 0.832700 0.473524
O O4 0.931995 0.050418 0.350271
O O5 0.250000 0.250000 0.465112
O O6 0.250000 0.401898 0.250000
O O7 0.178184 0.524915 0.432467
O O8 0.480897 0.136329 0.363536
O O9 0.518265 0.893542 0.357681
O O10 0.589862 0.275420 0.977136
O O11 0.250000 0.750000 0.469223
O O12 0.331000 0.750000 0.250000
#
# Coordination Sequence:
#
# PCOD9391365 Si02
#       5
#     8   8   8   8   8
#     4  11  24  44  70 105 139 191 242 307 361 447
#     4  11  25  41  69 103 143 183 241 302 371 441
#     4  10  24  40  72  97 144 175 245 292 372 422
#     4  11  24  43  73 105 140 192 243 305 365 446
#     4  11  23  42  70 102 139 187 242 300 366 437
#
# _framework density 24.086528999999999
#
# number of rings (size 3 to 8) (size 9 to 14) (size 15 to 20)
#    0.000    1.200    2.000    3.600   16.800    0.000 
#    0.000    1.000    0.000    0.000    0.000    0.000 
#    0.000    0.000    0.000    0.000    0.000    0.000 
#
# Total GULP energy -223258.055232 kJ/mol
# GULP energy per Si atom -5581.451381 kJ/mol
# Density = 2.403171 g / cm^3
# Si number density = 24.086529 Si / 1000 Ang^3
#
#
#
# Elastic Constant Matrix: (Units=GPa)
#
#
# Indices 1 2 3 4 5 6 
#
# 1 97.7805 26.0331 18.2525 0.0000 0.0000 0.0000
# 2 26.0331 150.6246 43.3850 0.0000 0.0000 0.0000
# 3 18.2525 43.3850 116.5313 0.0000 0.0000 0.0000
# 4 0.0000 0.0000 0.0000 -93.7664 0.0000 0.0000
# 5 0.0000 0.0000 0.0000 0.0000 30.7064 0.0000
# 6 0.0000 0.0000 0.0000 0.0000 0.0000 64.4994
#
#
#
# Elastic Compliance Matrix: (Units=1/GPa)
#
#
# Indices 1 2 3 4 5 6 
#
# 1 0.010850 -0.001552 -0.001122 0.000000 0.000000 0.000000
# 2 -0.001552 0.007659 -0.002608 0.000000 0.000000 0.000000
# 3 -0.001122 -0.002608 0.009728 0.000000 0.000000 0.000000
# 4 0.000000 0.000000 0.000000 -0.010665 0.000000 0.000000
# 5 0.000000 0.000000 0.000000 0.000000 0.032567 0.000000
# 6 0.000000 0.000000 0.000000 0.000000 0.000000 0.015504
#
#
# Mechanical properties :
#
#
# Convention : Reuss Voigt Hill
#
# Bulk Modulus (GPa) = 56.58507 60.03084 58.30796
# Shear Modulus (GPa) = 60.90396 18.77226 39.83811
#
# Velocity S-wave (km/s) = 5.03392 2.79474 4.07130
# Velocity P-wave (km/s) = 7.57170 5.94905 6.80888
#
# Compressibility (1/GPa) = 0.01767251
#
# Stress axis : x y z
#
# Youngs Moduli (GPa) = 92.16945 130.57331 102.79510
#
# Poissons Ratio (x) = 0.20267 0.11529
# Poissons Ratio (y) = 0.14306 0.26811
# Poissons Ratio (z) = 0.10337 0.34056
#
# Static dielectric constant tensor:
#      x y z
#    x 1.939340 0.000000 0.000000 
#    y 0.000000 2.163420 0.000000 
#    z 0.000000 0.000000 1.870140 
# 
# From -- ./inp_files/15053.got.cif
#   From: 2010.05.17/outbox.cif.g08.bks.cpg/sg48_8_cif.got.tgz:15053.got - 2010.06.03 20:39:00.
