data_PCOD9391539
_publ_section_title
;
Structure prediction by ZEFSAII (Michael W. Deem and Ramdas Pophale) SiO2 
 PCOD9391539
Probable space group: P N N N
;
_chemical_formula_sum "Si O2"
_cell_formula_units_Z 40
_cell_length_a 20.520213
_cell_length_b 19.785160
_cell_length_c 4.930966
_cell_angle_alpha 90.000000
_cell_angle_beta 90.000000
_cell_angle_gamma 90.000000
_cell_volume 2001.950980
_symmetry_space_group_name_H-M "P N N N"
_symmetry_group_IT_number 48
_space_group.IT_coordinate_system_code '2'
_symmetry_cell_setting 'orthorhombic'
loop_
_space_group_symop_operation_xyz
x,y,z
1/2-x,1/2-y,z
x,1/2-y,1/2-z
1/2-x,y,1/2-z
-x,-y,-z
1/2+x,1/2+y,-z
-x,1/2+y,1/2+z
1/2+x,-y,1/2+z
loop_
_atom_site_type_symbol
_atom_site_label
_atom_site_fract_x
_atom_site_fract_y
_atom_site_fract_z
Si Si1 0.820536 0.495956 0.826423
Si Si2 0.795330 0.650787 0.994319
Si Si3 0.986130 0.602911 0.388547
Si Si4 0.060426 0.180565 0.387294
Si Si5 0.906281 0.027638 0.183246
O O1 0.750000 0.466258 0.750000
O O2 0.809219 0.570479 0.952554
O O3 0.857326 0.500327 0.542537
O O4 0.866061 0.457963 0.044663
O O5 0.750000 0.673209 0.750000
O O6 0.865712 0.685392 0.996474
O O7 0.750000 0.660886 0.250000
O O8 0.941092 0.628237 0.636373
O O9 0.958316 0.532549 0.268331
O O10 0.054154 0.587701 0.538114
O O11 0.982698 0.654582 0.138663
O O12 0.038651 0.250000 0.250000
#
# Coordination Sequence:
#
# PCOD9391539 Si02
#       5
#     8   8   8   8   8
#     4  11  20  33  56  86 115 148 184 236 300 360
#     4  11  21  35  54  74 110 153 198 242 282 337
#     4  11  22  38  57  82 109 150 200 242 304 344
#     4  12  24  40  56  78 113 154 207 254 288 339
#     4  11  20  36  59  82 113 146 192 243 294 373
#
# _framework density 19.980509000000001
#
# number of rings (size 3 to 8) (size 9 to 14) (size 15 to 20)
#    0.000    0.800    4.000    6.000    0.000    3.600 
#    0.000    1.000    0.000    0.000    0.000    0.000 
#    0.000   22.400    0.000    0.200    0.000    0.000 
#
# Total GULP energy -223596.587768 kJ/mol
# GULP energy per Si atom -5589.914694 kJ/mol
# Density = 1.993503 g / cm^3
# Si number density = 19.980509 Si / 1000 Ang^3
#
#
#
# Elastic Constant Matrix: (Units=GPa)
#
#
# Indices 1 2 3 4 5 6 
#
# 1 67.4892 15.4278 17.3223 0.0000 0.0000 0.0000
# 2 15.4278 35.0211 7.1409 0.0000 0.0000 0.0000
# 3 17.3223 7.1409 109.0831 0.0000 0.0000 0.0000
# 4 0.0000 0.0000 0.0000 30.3079 0.0000 0.0000
# 5 0.0000 0.0000 0.0000 0.0000 43.1139 0.0000
# 6 0.0000 0.0000 0.0000 0.0000 0.0000 9.0933
#
#
#
# Elastic Compliance Matrix: (Units=1/GPa)
#
#
# Indices 1 2 3 4 5 6 
#
# 1 0.016999 -0.007032 -0.002239 0.000000 0.000000 0.000000
# 2 -0.007032 0.031850 -0.000968 0.000000 0.000000 0.000000
# 3 -0.002239 -0.000968 0.009586 0.000000 0.000000 0.000000
# 4 0.000000 0.000000 0.000000 0.032995 0.000000 0.000000
# 5 0.000000 0.000000 0.000000 0.000000 0.023194 0.000000
# 6 0.000000 0.000000 0.000000 0.000000 0.000000 0.109972
#
#
# Mechanical properties :
#
#
# Convention : Reuss Voigt Hill
#
# Bulk Modulus (GPa) = 26.34622 32.37502 29.36062
# Shear Modulus (GPa) = 19.40035 27.94983 23.67509
#
# Velocity S-wave (km/s) = 3.11941 3.74418 3.44599
# Velocity P-wave (km/s) = 5.11751 5.91019 5.52808
#
# Compressibility (1/GPa) = 0.03795611
#
# Stress axis : x y z
#
# Youngs Moduli (GPa) = 58.82543 31.39759 104.31571
#
# Poissons Ratio (x) = 0.22079 0.23358
# Poissons Ratio (y) = 0.41367 0.10100
# Poissons Ratio (z) = 0.13172 0.03040
#
# Static dielectric constant tensor:
#      x y z
#    x 1.740830 0.000000 0.000000 
#    y 0.000000 1.749910 0.000000 
#    z 0.000000 0.000000 1.702220 
# 
# From -- ./inp_files/4381.got.cif
#   From: 2010.05.17/outbox.cif.g08.bks.cpg/sg48_3_cif.got.tgz:4381.got - 2010.06.03 20:39:00.
