data_PCOD9391116
_publ_section_title
;
Structure prediction by ZEFSAII (Michael W. Deem and Ramdas Pophale) SiO2 
 PCOD9391116
Probable space group: P N N N
;
_chemical_formula_sum "Si O2"
_cell_formula_units_Z 32
_cell_length_a 8.333167
_cell_length_b 4.252425
_cell_length_c 31.458975
_cell_angle_alpha 90.000000
_cell_angle_beta 90.000000
_cell_angle_gamma 90.000000
_cell_volume 1114.785513
_symmetry_space_group_name_H-M "P N N N"
_symmetry_group_IT_number 48
_space_group.IT_coordinate_system_code '2'
_symmetry_cell_setting 'orthorhombic'
loop_
_space_group_symop_operation_xyz
x,y,z
1/2-x,1/2-y,z
x,1/2-y,1/2-z
1/2-x,y,1/2-z
-x,-y,-z
1/2+x,1/2+y,-z
-x,1/2+y,1/2+z
1/2+x,-y,1/2+z
loop_
_atom_site_type_symbol
_atom_site_label
_atom_site_fract_x
_atom_site_fract_y
_atom_site_fract_z
Si Si1 0.750000 0.250000 0.685445
Si Si2 0.750000 0.250000 0.121251
Si Si3 0.250000 0.250000 0.378201
Si Si4 0.250000 0.250000 0.992818
Si Si5 0.750000 0.750000 0.185373
Si Si6 0.500107 0.750000 0.250000
Si Si7 0.503633 0.211681 0.442547
O O1 0.672448 0.501608 0.653951
O O2 0.621089 0.088371 0.716867
O O3 0.674881 0.501447 0.153013
O O4 0.618918 0.099570 0.089545
O O5 0.376490 0.074230 0.408844
O O6 0.369899 0.484711 0.967252
O O7 0.382809 0.107299 0.025481
O O8 0.621641 0.911508 0.216832
#
# Coordination Sequence:
#
# PCOD9391116 Si02
#       7
#     4   4   4   4   4   4   8
#     4  11  24  42  67  98 131 176 225 276 341 412
#     4  12  24  41  67  96 131 174 223 278 341 411
#     4  11  24  43  69  99 135 178 227 283 347 417
#     4   9  21  44  67 101 136 180 232 287 359 428
#     4  11  25  42  64  96 131 174 221 274 340 408
#     4  10  24  42  66  94 134 174 220 278 336 408
#     4  10  22  41  69  98 137 179 228 290 351 423
#
# _framework density 28.705074
#
# number of rings (size 3 to 8) (size 9 to 14) (size 15 to 20)
#    0.000    1.500    0.000    3.750    0.000    9.000 
#    0.000    8.750    0.000    0.000    0.000    0.000 
#    0.000    0.000    0.000    0.000    0.000    0.000 
#
# Total GULP energy -178228.474885 kJ/mol
# GULP energy per Si atom -5569.639840 kJ/mol
# Density = 2.863974 g / cm^3
# Si number density = 28.705074 Si / 1000 Ang^3
#
#
#
# Elastic Constant Matrix: (Units=GPa)
#
#
# Indices 1 2 3 4 5 6 
#
# 1 189.1508 35.9897 130.1717 0.0000 0.0000 0.0000
# 2 35.9897 62.6124 66.1255 0.0000 0.0000 0.0000
# 3 130.1717 66.1255 197.0445 0.0000 0.0000 0.0000
# 4 0.0000 0.0000 0.0000 31.4599 0.0000 0.0000
# 5 0.0000 0.0000 0.0000 0.0000 106.6178 0.0000
# 6 0.0000 0.0000 0.0000 0.0000 0.0000 48.9725
#
#
#
# Elastic Compliance Matrix: (Units=1/GPa)
#
#
# Indices 1 2 3 4 5 6 
#
# 1 0.009834 0.001872 -0.007124 0.000000 0.000000 0.000000
# 2 0.001872 0.025096 -0.009658 0.000000 0.000000 0.000000
# 3 -0.007124 -0.009658 0.013023 0.000000 0.000000 0.000000
# 4 0.000000 0.000000 0.000000 0.031786 0.000000 0.000000
# 5 0.000000 0.000000 0.000000 0.000000 0.009379 0.000000
# 6 0.000000 0.000000 0.000000 0.000000 0.000000 0.020420
#
#
# Mechanical properties :
#
#
# Convention : Reuss Voigt Hill
#
# Bulk Modulus (GPa) = 55.15696 101.48683 78.32190
# Shear Modulus (GPa) = 34.38730 51.84476 43.11603
#
# Velocity S-wave (km/s) = 3.46490 4.25446 3.87981
# Velocity P-wave (km/s) = 5.93836 7.71788 6.88585
#
# Compressibility (1/GPa) = 0.01813008
#
# Stress axis : x y z
#
# Youngs Moduli (GPa) = 101.69207 39.84766 76.78871
#
# Poissons Ratio (x) = -0.07459 0.54708
# Poissons Ratio (y) = -0.19035 0.74165
# Poissons Ratio (z) = 0.72450 0.38486
#
# Static dielectric constant tensor:
#      x y z
#    x 2.281290 0.000000 0.000000 
#    y 0.000000 2.350590 0.000000 
#    z 0.000000 0.000000 2.127970 
# 
# From -- ./inp_files/1125.got.cif
#   From: 2010.05.17/outbox.cif.g08.bks.cpg/sg48_1_cif.got.tgz:1125.got - 2010.06.03 20:39:00.
