data_PCOD9391723
_publ_section_title
;
Structure prediction by ZEFSAII (Michael W. Deem and Ramdas Pophale) SiO2 
 PCOD9391723
Probable space group: P N N N
;
_chemical_formula_sum "Si O2"
_cell_formula_units_Z 40
_cell_length_a 13.329393
_cell_length_b 13.573354
_cell_length_c 12.222729
_cell_angle_alpha 90.000000
_cell_angle_beta 90.000000
_cell_angle_gamma 90.000000
_cell_volume 2211.391986
_symmetry_space_group_name_H-M "P N N N"
_symmetry_group_IT_number 48
_space_group.IT_coordinate_system_code '2'
_symmetry_cell_setting 'orthorhombic'
loop_
_space_group_symop_operation_xyz
x,y,z
1/2-x,1/2-y,z
x,1/2-y,1/2-z
1/2-x,y,1/2-z
-x,-y,-z
1/2+x,1/2+y,-z
-x,1/2+y,1/2+z
1/2+x,-y,1/2+z
loop_
_atom_site_type_symbol
_atom_site_label
_atom_site_fract_x
_atom_site_fract_y
_atom_site_fract_z
Si Si1 0.868363 0.635129 0.228685
Si Si2 0.530720 0.468314 0.120609
Si Si3 0.969020 0.613194 0.991988
Si Si4 0.137806 0.132984 0.268644
Si Si5 0.368135 0.762927 0.618365
O O1 0.885340 0.750000 0.250000
O O2 0.750000 0.615644 0.250000
O O3 0.924789 0.558298 0.308418
O O4 0.911694 0.628502 0.106024
O O5 0.438613 0.422740 0.189357
O O6 0.605446 0.376981 0.101963
O O7 0.500000 0.500000 0.000000
O O8 0.891557 0.619174 0.893300
O O9 0.059397 0.688794 0.952545
O O10 0.000000 0.500000 0.000000
O O11 0.132516 0.250000 0.250000
O O12 0.250000 0.097775 0.250000
O O13 0.250000 0.750000 0.594940
O O14 0.384485 0.750000 0.750000
#
# Coordination Sequence:
#
# PCOD9391723 Si02
#       5
#     8   8   8   8   8
#     4  11  27  43  67  99 132 175 218 273 344 401
#     4  12  24  43  66  94 133 173 222 275 327 402
#     4  12  22  43  67  96 137 169 220 281 331 399
#     4  11  24  41  66  97 127 173 222 272 334 391
#     4  11  23  41  69 100 131 173 228 276 332 401
#
# _framework density 18.088155
#
# number of rings (size 3 to 8) (size 9 to 14) (size 15 to 20)
#    0.000    0.600    6.000    1.200    8.400    1.600 
#    0.000    0.000    0.000    0.000    0.000    0.000 
#    0.000    0.000    0.000    0.000    0.000    0.000 
#
# Total GULP energy -223068.929616 kJ/mol
# GULP energy per Si atom -5576.723240 kJ/mol
# Density = 1.804699 g / cm^3
# Si number density = 18.088155 Si / 1000 Ang^3
#
#
#
# Elastic Constant Matrix: (Units=GPa)
#
#
# Indices 1 2 3 4 5 6 
#
# 1 166.5208 81.8425 93.6037 0.0000 0.0000 0.0000
# 2 81.8425 136.1270 74.5939 0.0000 0.0000 0.0000
# 3 93.6037 74.5939 192.3083 0.0000 0.0000 0.0000
# 4 0.0000 0.0000 0.0000 33.9725 0.0000 0.0000
# 5 0.0000 0.0000 0.0000 0.0000 4.0587 0.0000
# 6 0.0000 0.0000 0.0000 0.0000 0.0000 18.5442
#
#
#
# Elastic Compliance Matrix: (Units=1/GPa)
#
#
# Indices 1 2 3 4 5 6 
#
# 1 0.009841 -0.004180 -0.003168 0.000000 0.000000 0.000000
# 2 -0.004180 0.011105 -0.002273 0.000000 0.000000 0.000000
# 3 -0.003168 -0.002273 0.007624 0.000000 0.000000 0.000000
# 4 0.000000 0.000000 0.000000 0.029436 0.000000 0.000000
# 5 0.000000 0.000000 0.000000 0.000000 0.246386 0.000000
# 6 0.000000 0.000000 0.000000 0.000000 0.000000 0.053925
#
#
# Mechanical properties :
#
#
# Convention : Reuss Voigt Hill
#
# Bulk Modulus (GPa) = 107.22153 110.55959 108.89056
# Shear Modulus (GPa) = 13.13481 27.64280 20.38880
#
# Velocity S-wave (km/s) = 2.69765 3.91350 3.36101
# Velocity P-wave (km/s) = 8.31318 9.03747 8.68288
#
# Compressibility (1/GPa) = 0.00932648
#
# Stress axis : x y z
#
# Youngs Moduli (GPa) = 101.61748 90.05166 131.16978
#
# Poissons Ratio (x) = 0.37644 0.41560
# Poissons Ratio (y) = 0.42479 0.29811
# Poissons Ratio (z) = 0.32197 0.20466
#
# Static dielectric constant tensor:
#      x y z
#    x 1.600860 0.000000 0.000000 
#    y 0.000000 1.439640 0.000000 
#    z 0.000000 0.000000 1.676820 
# 
# From -- ./inp_files/19789.got.cif
#   From: 2010.05.17/outbox.cif.g08.bks.cpg/sg48_10_cif.got.tgz:19789.got - 2010.06.03 20:39:00.
