data_PCOD9391421
_publ_section_title
;
Structure prediction by ZEFSAII (Michael W. Deem and Ramdas Pophale) SiO2 
 PCOD9391421
Probable space group: P N N N
;
_chemical_formula_sum "Si O2"
_cell_formula_units_Z 32
_cell_length_a 4.706353
_cell_length_b 29.638398
_cell_length_c 8.750426
_cell_angle_alpha 90.000000
_cell_angle_beta 90.000000
_cell_angle_gamma 90.000000
_cell_volume 1220.586101
_symmetry_space_group_name_H-M "P N N N"
_symmetry_group_IT_number 48
_space_group.IT_coordinate_system_code '2'
_symmetry_cell_setting 'orthorhombic'
loop_
_space_group_symop_operation_xyz
x,y,z
1/2-x,1/2-y,z
x,1/2-y,1/2-z
1/2-x,y,1/2-z
-x,-y,-z
1/2+x,1/2+y,-z
-x,1/2+y,1/2+z
1/2+x,-y,1/2+z
loop_
_atom_site_type_symbol
_atom_site_label
_atom_site_fract_x
_atom_site_fract_y
_atom_site_fract_z
Si Si1 0.000000 0.500000 0.500000
Si Si2 0.250000 0.250000 0.250000
Si Si3 0.250000 0.750000 0.250000
Si Si4 0.750000 0.432120 0.250000
Si Si5 0.935041 0.188757 0.008397
Si Si6 0.936580 0.873249 0.505388
Si Si7 0.750000 0.070331 0.750000
O O1 0.912537 0.463880 0.368103
O O2 0.916397 0.462250 0.633573
O O3 0.054313 0.281555 0.355329
O O4 0.441186 0.718226 0.143822
O O5 0.530983 0.402747 0.349828
O O6 0.112984 0.142397 0.998824
O O7 0.610828 0.173263 0.023055
O O8 0.042969 0.899100 0.354465
#
# Coordination Sequence:
#
# PCOD9391421 Si02
#       7
#     4   2   2   4   8   8   4
#     4  10  24  46  70 108 152 198 252 310 378 450
#     4  12  28  48  78 110 152 198 252 314 382 452
#     4  12  30  52  80 114 156 202 256 318 384 456
#     4  10  24  46  76 113 154 200 254 315 380 452
#     4  12  28  50  76 111 151 199 253 313 380 453
#     4  11  26  47  76 111 151 200 253 313 378 451
#     4  10  25  44  73 109 152 198 252 311 377 450
#
# _framework density 26.216911
#
# number of rings (size 3 to 8) (size 9 to 14) (size 15 to 20)
#    0.000    1.000    0.000    3.750    0.000   25.000 
#    0.000    0.000    0.000    0.000    0.000    0.000 
#    0.000    0.000    0.000    0.000    0.000    0.000 
#
# Total GULP energy -178847.311344 kJ/mol
# GULP energy per Si atom -5588.978479 kJ/mol
# Density = 2.615724 g / cm^3
# Si number density = 26.216911 Si / 1000 Ang^3
#
#
#
# Elastic Constant Matrix: (Units=GPa)
#
#
# Indices 1 2 3 4 5 6 
#
# 1 69.4886 25.5138 34.9006 0.0000 0.0000 0.0000
# 2 25.5138 148.1759 89.9501 0.0000 0.0000 0.0000
# 3 34.9006 89.9501 245.4204 0.0000 0.0000 0.0000
# 4 0.0000 0.0000 0.0000 15.8701 0.0000 0.0000
# 5 0.0000 0.0000 0.0000 0.0000 31.0336 0.0000
# 6 0.0000 0.0000 0.0000 0.0000 0.0000 47.5489
#
#
#
# Elastic Compliance Matrix: (Units=1/GPa)
#
#
# Indices 1 2 3 4 5 6 
#
# 1 0.015843 -0.001749 -0.001612 0.000000 0.000000 0.000000
# 2 -0.001749 0.008873 -0.003003 0.000000 0.000000 0.000000
# 3 -0.001612 -0.003003 0.005405 0.000000 0.000000 0.000000
# 4 0.000000 0.000000 0.000000 0.063012 0.000000 0.000000
# 5 0.000000 0.000000 0.000000 0.000000 0.032223 0.000000
# 6 0.000000 0.000000 0.000000 0.000000 0.000000 0.021031
#
#
# Mechanical properties :
#
#
# Convention : Reuss Voigt Hill
#
# Bulk Modulus (GPa) = 57.49995 84.86821 71.18408
# Shear Modulus (GPa) = 30.31913 39.73855 35.02884
#
# Velocity S-wave (km/s) = 3.40438 3.89750 3.65926
# Velocity P-wave (km/s) = 6.11826 7.25919 6.71301
#
# Compressibility (1/GPa) = 0.01739132
#
# Stress axis : x y z
#
# Youngs Moduli (GPa) = 63.12053 112.69949 185.02715
#
# Poissons Ratio (x) = 0.19717 0.29822
# Poissons Ratio (y) = 0.11043 0.55570
# Poissons Ratio (z) = 0.10173 0.33848
#
# Static dielectric constant tensor:
#      x y z
#    x 2.057880 0.000000 0.000000 
#    y 0.000000 1.994580 0.000000 
#    z 0.000000 0.000000 1.975230 
# 
# From -- ./inp_files/7678.got.cif
#   From: 2010.05.17/outbox.cif.g08.bks.cpg/sg48_4_cif.got.tgz:7678.got - 2010.06.03 20:39:00.
