data_PCOD9391083
_publ_section_title
;
Structure prediction by ZEFSAII (Michael W. Deem and Ramdas Pophale) SiO2 
 PCOD9391083
Probable space group: P N N N
;
_chemical_formula_sum "Si O2"
_cell_formula_units_Z 30
_cell_length_a 7.345264
_cell_length_b 12.486739
_cell_length_c 15.942569
_cell_angle_alpha 90.000000
_cell_angle_beta 90.000000
_cell_angle_gamma 90.000000
_cell_volume 1462.226832
_symmetry_space_group_name_H-M "P N N N"
_symmetry_group_IT_number 48
_space_group.IT_coordinate_system_code '2'
_symmetry_cell_setting 'orthorhombic'
loop_
_space_group_symop_operation_xyz
x,y,z
1/2-x,1/2-y,z
x,1/2-y,1/2-z
1/2-x,y,1/2-z
-x,-y,-z
1/2+x,1/2+y,-z
-x,1/2+y,1/2+z
1/2+x,-y,1/2+z
loop_
_atom_site_type_symbol
_atom_site_label
_atom_site_fract_x
_atom_site_fract_y
_atom_site_fract_z
Si Si1 0.405428 0.159384 0.400749
Si Si2 0.750000 0.250000 0.504393
Si Si3 0.850422 0.024161 0.569895
Si Si4 0.442712 0.944571 0.770089
Si Si5 0.750000 0.250000 0.250000
O O1 0.250000 0.250000 0.385867
O O2 0.574382 0.208775 0.451520
O O3 0.309476 0.060580 0.448331
O O4 0.466067 0.099982 0.314497
O O5 0.700913 0.352878 0.560022
O O6 0.931951 0.999618 0.662214
O O7 0.000000 0.000000 0.500000
O O8 0.250000 0.003194 0.750000
O O9 0.131899 0.830556 0.694591
#
# Coordination Sequence:
#
# PCOD9391083 Si02
#       5
#     8   4   8   8   2
#     4  12  24  46  76 102 143 191 244 302 360 429
#     4  12  27  48  72 110 151 192 238 307 369 440
#     4  12  25  44  70 107 149 188 239 303 373 427
#     4  10  22  40  69 105 140 181 243 297 352 430
#     4   8  18  36  70 104 136 166 246 294 334 402
#
# _framework density 20.516653000000002
#
# number of rings (size 3 to 8) (size 9 to 14) (size 15 to 20)
#    0.800    0.000    2.667    5.600    0.000    1.067 
#    0.000    2.667    0.000    1.600    0.000    0.000 
#    0.000    0.000    0.000    0.000    0.000    0.000 
#
# Total GULP energy -167333.167737 kJ/mol
# GULP energy per Si atom -5577.772258 kJ/mol
# Density = 2.046996 g / cm^3
# Si number density = 20.516653 Si / 1000 Ang^3
#
#
#
# Elastic Constant Matrix: (Units=GPa)
#
#
# Indices 1 2 3 4 5 6 
#
# 1 156.9830 80.5147 69.8520 0.0000 0.0000 0.0000
# 2 80.5147 167.5866 68.4461 0.0000 0.0000 0.0000
# 3 69.8520 68.4461 95.8693 0.0000 0.0000 0.0000
# 4 0.0000 0.0000 0.0000 38.0585 0.0000 0.0000
# 5 0.0000 0.0000 0.0000 0.0000 34.1822 0.0000
# 6 0.0000 0.0000 0.0000 0.0000 0.0000 44.1965
#
#
#
# Elastic Compliance Matrix: (Units=1/GPa)
#
#
# Indices 1 2 3 4 5 6 
#
# 1 0.010186 -0.002629 -0.005544 0.000000 0.000000 0.000000
# 2 -0.002629 0.009102 -0.004583 0.000000 0.000000 0.000000
# 3 -0.005544 -0.004583 0.017742 0.000000 0.000000 0.000000
# 4 0.000000 0.000000 0.000000 0.026275 0.000000 0.000000
# 5 0.000000 0.000000 0.000000 0.000000 0.029255 0.000000
# 6 0.000000 0.000000 0.000000 0.000000 0.000000 0.022626
#
#
# Mechanical properties :
#
#
# Convention : Reuss Voigt Hill
#
# Bulk Modulus (GPa) = 86.82377 95.34049 91.08213
# Shear Modulus (GPa) = 34.59301 36.72918 35.66109
#
# Velocity S-wave (km/s) = 4.11066 4.23568 4.17364
# Velocity P-wave (km/s) = 8.05857 8.39595 8.22899
#
# Compressibility (1/GPa) = 0.01151758
#
# Stress axis : x y z
#
# Youngs Moduli (GPa) = 98.17792 109.86783 56.36213
#
# Poissons Ratio (x) = 0.28885 0.31249
# Poissons Ratio (y) = 0.25812 0.25829
# Poissons Ratio (z) = 0.54433 0.50349
#
# Static dielectric constant tensor:
#      x y z
#    x 1.841200 0.000000 0.000000 
#    y 0.000000 1.738910 0.000000 
#    z 0.000000 0.000000 1.775990 
# 
# From -- ./inp_files/29173.got.cif
#   From: 2010.05.17/outbox.cif.g08.bks.cpg/sg48_15_cif.got.tgz:29173.got - 2010.06.03 20:39:00.
