data_PCOD9391612
_publ_section_title
;
Structure prediction by ZEFSAII (Michael W. Deem and Ramdas Pophale) SiO2 
 PCOD9391612
Probable space group: P N N N
;
_chemical_formula_sum "Si O2"
_cell_formula_units_Z 56
_cell_length_a 15.248325
_cell_length_b 8.735248
_cell_length_c 19.950348
_cell_angle_alpha 90.000000
_cell_angle_beta 90.000000
_cell_angle_gamma 90.000000
_cell_volume 2657.344467
_symmetry_space_group_name_H-M "P N N N"
_symmetry_group_IT_number 48
_space_group.IT_coordinate_system_code '2'
_symmetry_cell_setting 'orthorhombic'
loop_
_space_group_symop_operation_xyz
x,y,z
1/2-x,1/2-y,z
x,1/2-y,1/2-z
1/2-x,y,1/2-z
-x,-y,-z
1/2+x,1/2+y,-z
-x,1/2+y,1/2+z
1/2+x,-y,1/2+z
loop_
_atom_site_type_symbol
_atom_site_label
_atom_site_fract_x
_atom_site_fract_y
_atom_site_fract_z
Si Si1 0.831608 0.456821 0.700561
Si Si2 0.741994 0.568614 0.580082
Si Si3 0.566354 0.619540 0.385745
Si Si4 0.508900 0.250000 0.750000
Si Si5 0.921839 0.750000 0.750000
Si Si6 0.826402 0.367531 0.043379
Si Si7 0.064303 0.129691 0.378538
Si Si8 0.996115 0.681812 0.503307
O O1 0.750000 0.414164 0.750000
O O2 0.809843 0.463915 0.621555
O O3 0.920681 0.365169 0.716146
O O4 0.859194 0.629799 0.714978
O O5 0.750000 0.750000 0.562395
O O6 0.710360 0.472426 0.516798
O O7 0.662978 0.580418 0.634029
O O8 0.549356 0.677695 0.310070
O O9 0.642077 0.494646 0.401699
O O10 0.482223 0.518139 0.406472
O O11 0.558154 0.756471 0.439118
O O12 0.978090 0.825141 0.691540
O O13 0.750000 0.250000 0.065170
O O14 0.909594 0.265360 0.017064
O O15 0.057570 0.264376 0.431286
O O16 0.000000 0.500000 0.500000
#
# Coordination Sequence:
#
# PCOD9391612 Si02
#       8
#     8   8   8   4   4   8   8   8
#     4  12  23  35  54  96 146 192 227 265 334 425
#     4  12  22  36  63  98 145 186 225 274 337 414
#     4  11  23  47  63  96 140 177 238 291 348 414
#     4  12  27  40  66  94 141 190 230 290 346 417
#     4  12  21  36  58  92 141 194 230 258 337 402
#     4  11  26  43  69  98 136 185 233 297 348 406
#     4  11  21  40  60  90 143 195 225 282 329 410
#     4  11  25  42  66  97 137 187 237 280 343 418
#
# _framework density 21.073668999999999
#
# number of rings (size 3 to 8) (size 9 to 14) (size 15 to 20)
#    0.000    0.571    7.143    1.286    6.000    0.000 
#    0.000    0.000    0.000    0.000    0.000   35.500 
#    0.000    0.000    0.000    0.000    0.000    0.000 
#
# Total GULP energy -312113.264195 kJ/mol
# GULP energy per Si atom -5573.451146 kJ/mol
# Density = 2.102570 g / cm^3
# Si number density = 21.073669 Si / 1000 Ang^3
#
#
#
# Elastic Constant Matrix: (Units=GPa)
#
#
# Indices 1 2 3 4 5 6 
#
# 1 69.6935 30.3426 43.3618 0.0000 0.0000 0.0000
# 2 30.3426 119.3155 54.7717 0.0000 0.0000 0.0000
# 3 43.3618 54.7717 133.8015 0.0000 0.0000 0.0000
# 4 0.0000 0.0000 0.0000 30.9133 0.0000 0.0000
# 5 0.0000 0.0000 0.0000 0.0000 31.3477 0.0000
# 6 0.0000 0.0000 0.0000 0.0000 0.0000 18.9492
#
#
#
# Elastic Compliance Matrix: (Units=1/GPa)
#
#
# Indices 1 2 3 4 5 6 
#
# 1 0.018517 -0.002406 -0.005016 0.000000 0.000000 0.000000
# 2 -0.002406 0.010633 -0.003573 0.000000 0.000000 0.000000
# 3 -0.005016 -0.003573 0.010562 0.000000 0.000000 0.000000
# 4 0.000000 0.000000 0.000000 0.032349 0.000000 0.000000
# 5 0.000000 0.000000 0.000000 0.000000 0.031900 0.000000
# 6 0.000000 0.000000 0.000000 0.000000 0.000000 0.052773
#
#
# Mechanical properties :
#
#
# Convention : Reuss Voigt Hill
#
# Bulk Modulus (GPa) = 56.42775 64.41806 60.42290
# Shear Modulus (GPa) = 27.08104 29.19767 28.13935
#
# Velocity S-wave (km/s) = 3.58867 3.72627 3.65812
# Velocity P-wave (km/s) = 6.63370 7.01056 6.82473
#
# Compressibility (1/GPa) = 0.01772178
#
# Stress axis : x y z
#
# Youngs Moduli (GPa) = 54.00448 94.04481 94.68084
#
# Poissons Ratio (x) = 0.22632 0.47490
# Poissons Ratio (y) = 0.12996 0.33828
# Poissons Ratio (z) = 0.27088 0.33601
#
# Static dielectric constant tensor:
#      x y z
#    x 1.858670 0.000000 0.000000 
#    y 0.000000 1.839610 0.000000 
#    z 0.000000 0.000000 1.838400 
# 
# From -- ./inp_files/34505.got.cif
#   From: 2010.05.17/outbox.cif.g08.bks.cpg/sg48_18_cif.got.tgz:34505.got - 2010.06.03 20:39:00.
