data_PCOD9391002
_publ_section_title
;
Structure prediction by ZEFSAII (Michael W. Deem and Ramdas Pophale) SiO2 
 PCOD9391002
Probable space group: P N N N
;
_chemical_formula_sum "Si O2"
_cell_formula_units_Z 60
_cell_length_a 20.239073
_cell_length_b 5.928875
_cell_length_c 24.413564
_cell_angle_alpha 90.000000
_cell_angle_beta 90.000000
_cell_angle_gamma 90.000000
_cell_volume 2929.503999
_symmetry_space_group_name_H-M "P N N N"
_symmetry_group_IT_number 48
_space_group.IT_coordinate_system_code '2'
_symmetry_cell_setting 'orthorhombic'
loop_
_space_group_symop_operation_xyz
x,y,z
1/2-x,1/2-y,z
x,1/2-y,1/2-z
1/2-x,y,1/2-z
-x,-y,-z
1/2+x,1/2+y,-z
-x,1/2+y,1/2+z
1/2+x,-y,1/2+z
loop_
_atom_site_type_symbol
_atom_site_label
_atom_site_fract_x
_atom_site_fract_y
_atom_site_fract_z
Si Si1 0.321977 0.138855 0.611270
Si Si2 0.826823 0.495384 0.269273
Si Si3 0.025548 0.305013 0.458166
Si Si4 0.823710 0.149664 0.692477
Si Si5 0.591016 0.962114 0.055630
Si Si6 0.180581 0.808156 0.989111
Si Si7 0.750000 0.750000 0.646732
Si Si8 0.867657 0.043887 0.900193
O O1 0.250000 0.250000 0.619885
O O2 0.331532 0.990536 0.665048
O O3 0.387328 0.294134 0.603527
O O4 0.317501 0.009248 0.553707
O O5 0.851227 0.750000 0.250000
O O6 0.750000 0.494801 0.250000
O O7 0.854780 0.250000 0.250000
O O8 0.067572 0.390835 0.406179
O O9 0.000000 0.500000 0.500000
O O10 0.966008 0.147550 0.436934
O O11 0.071548 0.160975 0.499136
O O12 0.750000 0.250000 0.687117
O O13 0.848582 0.250000 0.750000
O O14 0.866933 0.257793 0.644296
O O15 0.803406 0.889394 0.683470
O O16 0.658244 0.094579 0.044965
O O17 0.250000 0.750000 0.015112
O O18 0.133293 0.851991 0.039335
O O19 0.799844 0.597481 0.610312
#
# Coordination Sequence:
#
# PCOD9391002 Si02
#       8
#     8   8   8   8   8   8   4   8
#     4  12  23  37  60  94 132 176 214 277 347 415
#     4  10  22  38  59  90 131 174 223 273 335 423
#     4  11  23  43  60  86 129 175 227 266 321 403
#     4   9  20  37  58  90 131 167 206 259 328 404
#     4  11  24  39  61  88 129 173 220 267 332 407
#     4  12  24  34  58  94 136 164 207 270 337 409
#     4  10  22  37  62  94 132 166 205 266 338 394
#     4  11  23  36  59  93 132 171 211 265 327 401
#
# _framework density 20.481285
#
# number of rings (size 3 to 8) (size 9 to 14) (size 15 to 20)
#    0.000    1.200    5.333    1.200    8.400    4.267 
#    0.000    0.000    0.000    0.000    0.000   14.000 
#    0.000    0.000    0.000    0.000    0.000    0.000 
#
# Total GULP energy -334131.283250 kJ/mol
# GULP energy per Si atom -5568.854721 kJ/mol
# Density = 2.043467 g / cm^3
# Si number density = 20.481285 Si / 1000 Ang^3
#
#
#
# Elastic Constant Matrix: (Units=GPa)
#
#
# Indices 1 2 3 4 5 6 
#
# 1 67.2059 24.8363 18.1471 0.0000 0.0000 0.0000
# 2 24.8363 99.6889 40.8383 0.0000 0.0000 0.0000
# 3 18.1471 40.8383 119.8660 0.0000 0.0000 0.0000
# 4 0.0000 0.0000 0.0000 29.8805 0.0000 0.0000
# 5 0.0000 0.0000 0.0000 0.0000 0.9911 0.0000
# 6 0.0000 0.0000 0.0000 0.0000 0.0000 14.6013
#
#
#
# Elastic Compliance Matrix: (Units=1/GPa)
#
#
# Indices 1 2 3 4 5 6 
#
# 1 0.016556 -0.003600 -0.001280 0.000000 0.000000 0.000000
# 2 -0.003600 0.012441 -0.003694 0.000000 0.000000 0.000000
# 3 -0.001280 -0.003694 0.009795 0.000000 0.000000 0.000000
# 4 0.000000 0.000000 0.000000 0.033467 0.000000 0.000000
# 5 0.000000 0.000000 0.000000 0.000000 1.009031 0.000000
# 6 0.000000 0.000000 0.000000 0.000000 0.000000 0.068487
#
#
# Mechanical properties :
#
#
# Convention : Reuss Voigt Hill
#
# Bulk Modulus (GPa) = 46.20176 50.48937 48.34556
# Shear Modulus (GPa) = 4.25844 22.62383 13.44113
#
# Velocity S-wave (km/s) = 1.44350 3.32717 2.56454
# Velocity P-wave (km/s) = 5.03838 6.28212 5.69431
#
# Compressibility (1/GPa) = 0.02164420
#
# Stress axis : x y z
#
# Youngs Moduli (GPa) = 60.40190 80.37717 102.09452
#
# Poissons Ratio (x) = 0.28939 0.13066
# Poissons Ratio (y) = 0.21747 0.37711
# Poissons Ratio (z) = 0.07730 0.29689
#
# Static dielectric constant tensor:
#      x y z
#    x 1.739690 0.000000 0.000000 
#    y 0.000000 1.910300 0.000000 
#    z 0.000000 0.000000 1.470840 
# 
# From -- ./inp_files/36784.got.cif
#   From: 2010.05.17/outbox.cif.g08.bks.cpg/sg48_19_cif.got.tgz:36784.got - 2010.06.03 20:39:00.
