data_PCOD9391999
_publ_section_title
;
Structure prediction by ZEFSAII (Michael W. Deem and Ramdas Pophale) SiO2 
 PCOD9391999
Probable space group: P C C M
;
_chemical_formula_sum "Si O2"
_cell_formula_units_Z 32
_cell_length_a 22.025983
_cell_length_b 9.447019
_cell_length_c 8.599397
_cell_angle_alpha 90.000000
_cell_angle_beta 90.000000
_cell_angle_gamma 90.000000
_cell_volume 1789.361495
_symmetry_space_group_name_H-M "P C C M"
_symmetry_group_IT_number 49
_symmetry_cell_setting 'orthorhombic'
loop_
_space_group_symop_operation_xyz
x,y,z
-x,-y,z
x,-y,1/2-z
-x,y,1/2-z
-x,-y,-z
x,y,-z
-x,y,1/2+z
x,-y,1/2+z
loop_
_atom_site_type_symbol
_atom_site_label
_atom_site_fract_x
_atom_site_fract_y
_atom_site_fract_z
Si Si1 0.679603 0.340755 0.312597
Si Si2 0.564091 0.159318 0.687055
Si Si3 0.812777 0.338764 0.313392
Si Si4 0.937466 0.338247 0.185214
O O1 0.674692 0.500000 0.250000
O O2 0.678463 0.347079 0.500000
O O3 0.622354 0.248862 0.260797
O O4 0.746306 0.279659 0.269840
O O5 0.500000 0.217402 0.750000
O O6 0.562064 0.156483 0.500000
O O7 0.569629 0.000000 0.750000
O O8 0.810643 0.500000 0.250000
O O9 0.818575 0.341526 0.500000
O O10 0.873890 0.272648 0.242587
O O11 0.936629 0.500000 0.250000
O O12 0.000000 0.273391 0.250000
O O13 0.939250 0.343151 0.000000
#
# Coordination Sequence:
#
# PCOD9391999 Si02
#       4
#     8   8   8   8
#     4   9  19  32  48  69  95 123 155 190 232 278
#     4  10  20  35  52  72  94 122 155 191 231 276
#     4   9  15  25  38  55  80 111 143 181 222 265
#     4  10  16  22  32  49  74 108 146 182 217 261
#
# _framework density 17.883475000000001
#
# number of rings (size 3 to 8) (size 9 to 14) (size 15 to 20)
#    0.000    2.500    0.000    6.750    0.000    3.500 
#    0.000    2.500    0.000    0.000    0.000    0.000 
#    0.000    1.000    0.000   11.500    0.000    7.250 
#
# Total GULP energy -178224.127012 kJ/mol
# GULP energy per Si atom -5569.503969 kJ/mol
# Density = 1.784277 g / cm^3
# Si number density = 17.883475 Si / 1000 Ang^3
#
#
#
# Elastic Constant Matrix: (Units=GPa)
#
#
# Indices 1 2 3 4 5 6 
#
# 1 240.0532 44.3702 59.6584 0.0000 0.0000 0.0000
# 2 44.3702 16.0761 9.3806 0.0000 0.0000 0.0000
# 3 59.6584 9.3806 86.2481 0.0000 0.0000 0.0000
# 4 0.0000 0.0000 0.0000 5.6478 0.0000 0.0000
# 5 0.0000 0.0000 0.0000 0.0000 32.8988 0.0000
# 6 0.0000 0.0000 0.0000 0.0000 0.0000 -8.5381
#
#
#
# Elastic Compliance Matrix: (Units=1/GPa)
#
#
# Indices 1 2 3 4 5 6 
#
# 1 0.009664 -0.024316 -0.004040 0.000000 0.000000 0.000000
# 2 -0.024316 0.127601 0.002941 0.000000 0.000000 0.000000
# 3 -0.004040 0.002941 0.014069 0.000000 0.000000 0.000000
# 4 0.000000 0.000000 0.000000 0.177060 0.000000 0.000000
# 5 0.000000 0.000000 0.000000 0.000000 0.030396 0.000000
# 6 0.000000 0.000000 0.000000 0.000000 0.000000 -0.117122
#
#
# Mechanical properties :
#
#
# Convention : Reuss Voigt Hill
#
# Bulk Modulus (GPa) = 9.94979 63.24398 36.59689
# Shear Modulus (GPa) = 15.33746 21.26624 18.30185
#
# Velocity S-wave (km/s) = 2.93171 3.45216 3.20252
# Velocity P-wave (km/s) = 4.12743 7.16457 5.84666
#
# Compressibility (1/GPa) = 0.10050459
#
# Stress axis : x y z
#
# Youngs Moduli (GPa) = 103.47389 7.83694 71.07743
#
# Poissons Ratio (x) = 0.19056 0.28716
# Poissons Ratio (y) = 2.51608 -0.20907
# Poissons Ratio (z) = 0.41805 -0.02305
#
# Static dielectric constant tensor:
#      x y z
#    x 1.713290 0.000000 0.000000 
#    y 0.000000 1.567830 0.000000 
#    z 0.000000 0.000000 1.604360 
# 
# From -- ./inp_files/1658.got.cif
#   From: 2010.05.17/outbox.cif.g08.bks.cpg/sg49_1_cif.got.tgz:1658.got - 2010.06.03 21:02:19.
