data_PCOD9391577
_publ_section_title
;
Structure prediction by ZEFSAII (Michael W. Deem and Ramdas Pophale) SiO2 
 PCOD9391577
Probable space group: P N N N
;
_chemical_formula_sum "Si O2"
_cell_formula_units_Z 48
_cell_length_a 9.581960
_cell_length_b 8.321955
_cell_length_c 27.700875
_cell_angle_alpha 90.000000
_cell_angle_beta 90.000000
_cell_angle_gamma 90.000000
_cell_volume 2208.885499
_symmetry_space_group_name_H-M "P N N N"
_symmetry_group_IT_number 48
_space_group.IT_coordinate_system_code '2'
_symmetry_cell_setting 'orthorhombic'
loop_
_space_group_symop_operation_xyz
x,y,z
1/2-x,1/2-y,z
x,1/2-y,1/2-z
1/2-x,y,1/2-z
-x,-y,-z
1/2+x,1/2+y,-z
-x,1/2+y,1/2+z
1/2+x,-y,1/2+z
loop_
_atom_site_type_symbol
_atom_site_label
_atom_site_fract_x
_atom_site_fract_y
_atom_site_fract_z
Si Si1 0.677914 0.420821 0.445241
Si Si2 0.012096 0.759001 0.303749
Si Si3 0.908816 0.418956 0.943612
Si Si4 0.424944 0.377717 0.906281
Si Si5 0.755831 0.995079 0.697620
Si Si6 0.175414 0.404929 0.400813
O O1 0.750000 0.250000 0.435775
O O2 0.652066 0.439296 0.502692
O O3 0.519896 0.445171 0.427168
O O4 0.774831 0.562358 0.424035
O O5 0.942969 0.750000 0.250000
O O6 0.931049 0.694796 0.351493
O O7 0.089383 0.930882 0.311960
O O8 0.143136 0.639259 0.299166
O O9 0.773532 0.440420 0.911147
O O10 0.996594 0.255996 0.938617
O O11 0.521218 0.537489 0.912386
O O12 0.750000 0.920379 0.750000
O O13 0.688724 0.889637 0.656111
O O14 0.250000 0.250000 0.424449
#
# Coordination Sequence:
#
# PCOD9391577 Si02
#       6
#     8   8   8   8   8   8
#     4  11  25  42  61  89 122 160 199 255 311 365
#     4   8  14  28  56  88 113 150 200 252 295 356
#     4  11  24  41  62  85 119 162 207 246 298 369
#     4  11  21  39  63  87 120 162 207 254 302 367
#     4   8  14  27  49  83 121 153 190 241 301 356
#     4  11  21  33  56  89 123 159 197 251 303 351
#
# _framework density 21.730415000000001
#
# number of rings (size 3 to 8) (size 9 to 14) (size 15 to 20)
#    0.000    2.000    1.667    4.000    0.000    5.667 
#    0.000    0.000    0.000    2.000    0.000    1.167 
#    0.000    0.000    0.000    0.000    0.000    0.000 
#
# Total GULP energy -267385.705513 kJ/mol
# GULP energy per Si atom -5570.535532 kJ/mol
# Density = 2.168096 g / cm^3
# Si number density = 21.730415 Si / 1000 Ang^3
#
#
#
# Elastic Constant Matrix: (Units=GPa)
#
#
# Indices 1 2 3 4 5 6 
#
# 1 107.1092 24.3755 30.9276 0.0000 0.0000 0.0000
# 2 24.3755 82.6141 -2.7095 0.0000 0.0000 0.0000
# 3 30.9276 -2.7095 92.2876 0.0000 0.0000 0.0000
# 4 0.0000 0.0000 0.0000 6.0345 0.0000 0.0000
# 5 0.0000 0.0000 0.0000 0.0000 -47.0638 0.0000
# 6 0.0000 0.0000 0.0000 0.0000 0.0000 23.2056
#
#
#
# Elastic Compliance Matrix: (Units=1/GPa)
#
#
# Indices 1 2 3 4 5 6 
#
# 1 0.011236 -0.003442 -0.003866 0.000000 0.000000 0.000000
# 2 -0.003442 0.013171 0.001540 0.000000 0.000000 0.000000
# 3 -0.003866 0.001540 0.012177 0.000000 0.000000 0.000000
# 4 0.000000 0.000000 0.000000 0.165715 0.000000 0.000000
# 5 0.000000 0.000000 0.000000 0.000000 -0.021248 0.000000
# 6 0.000000 0.000000 0.000000 0.000000 0.000000 0.043093
#
#
# Mechanical properties :
#
#
# Convention : Reuss Voigt Hill
#
# Bulk Modulus (GPa) = 39.92563 43.02201 41.47382
# Shear Modulus (GPa) = 20.48935 11.72976 16.10956
#
# Velocity S-wave (km/s) = 3.07398 2.32585 2.72570
# Velocity P-wave (km/s) = 5.56886 5.20133 5.38823
#
# Compressibility (1/GPa) = 0.02504657
#
# Stress axis : x y z
#
# Youngs Moduli (GPa) = 88.99942 75.92685 82.12440
#
# Poissons Ratio (x) = 0.26134 0.31753
# Poissons Ratio (y) = 0.30634 -0.12649
# Poissons Ratio (z) = 0.34412 -0.11694
#
# Static dielectric constant tensor:
#      x y z
#    x 1.800690 0.000000 0.000000 
#    y 0.000000 2.076610 0.000000 
#    z 0.000000 0.000000 1.947270 
# 
# From -- ./inp_files/9470.got.cif
#   From: 2010.05.17/outbox.cif.g08.bks.cpg/sg48_5_cif.got.tgz:9470.got - 2010.06.03 20:39:00.
