data_PCOD9391220
_publ_section_title
;
Structure prediction by ZEFSAII (Michael W. Deem and Ramdas Pophale) SiO2 
 PCOD9391220
Probable space group: P N N N
;
_chemical_formula_sum "Si O2"
_cell_formula_units_Z 58
_cell_length_a 8.480872
_cell_length_b 11.722151
_cell_length_c 33.443718
_cell_angle_alpha 90.000000
_cell_angle_beta 90.000000
_cell_angle_gamma 90.000000
_cell_volume 3324.775861
_symmetry_space_group_name_H-M "P N N N"
_symmetry_group_IT_number 48
_space_group.IT_coordinate_system_code '2'
_symmetry_cell_setting 'orthorhombic'
loop_
_space_group_symop_operation_xyz
x,y,z
1/2-x,1/2-y,z
x,1/2-y,1/2-z
1/2-x,y,1/2-z
-x,-y,-z
1/2+x,1/2+y,-z
-x,1/2+y,1/2+z
1/2+x,-y,1/2+z
loop_
_atom_site_type_symbol
_atom_site_label
_atom_site_fract_x
_atom_site_fract_y
_atom_site_fract_z
Si Si1 0.803994 0.133272 0.158554
Si Si2 0.863526 0.358119 0.483309
Si Si3 0.982224 0.680794 0.815235
Si Si4 0.750000 0.750000 0.750000
Si Si5 0.934521 0.771055 0.050523
Si Si6 0.103190 0.539554 0.037192
Si Si7 0.702967 0.875463 0.896652
Si Si8 0.031344 0.999287 0.905835
O O1 0.750000 0.250000 0.134503
O O2 0.955187 0.187333 0.180968
O O3 0.650047 0.114775 0.185923
O O4 0.849429 0.031930 0.129863
O O5 0.750000 0.250000 0.474344
O O6 0.771338 0.431805 0.517048
O O7 0.906030 0.430836 0.444736
O O8 0.017505 0.313565 0.506212
O O9 0.863784 0.676389 0.778580
O O10 0.890947 0.643937 0.855412
O O11 0.750000 0.750000 0.052689
O O12 0.032679 0.655113 0.055760
O O13 0.977248 0.869274 0.082049
O O14 0.104500 0.442054 0.070204
O O15 0.000000 0.500000 0.000000
O O16 0.750000 0.750000 0.911227
O O17 0.863033 0.948243 0.892905
#
# Coordination Sequence:
#
# PCOD9391220 Si02
#       8
#     8   8   8   2   8   8   8   8
#     4   8  19  36  50  85 117 155 188 220 284 353
#     4  10  23  37  48  75 101 150 201 262 303 339
#     4   9  21  34  58  87 121 152 182 226 298 366
#     4  12  16  38  60  92 128 152 184 228 292 382
#     4  11  25  38  51  75 103 152 209 259 312 338
#     4  11  26  38  54  74 112 154 208 263 308 351
#     4  12  23  37  57  85 110 158 195 242 307 365
#     4  12  21  35  58  73 115 148 205 253 291 369
#
# _framework density 17.444786000000001
#
# number of rings (size 3 to 8) (size 9 to 14) (size 15 to 20)
#    0.828    0.552    3.448    1.655    9.655    1.103 
#    0.000    0.000    0.000    0.000    0.000    0.000 
#    0.000    8.828    1.103    0.000    0.000    0.000 
#
# Total GULP energy -323447.124743 kJ/mol
# GULP energy per Si atom -5576.674565 kJ/mol
# Density = 1.740508 g / cm^3
# Si number density = 17.444786 Si / 1000 Ang^3
#
#
#
# Elastic Constant Matrix: (Units=GPa)
#
#
# Indices 1 2 3 4 5 6 
#
# 1 104.1478 28.2348 48.1873 0.0000 0.0000 0.0000
# 2 28.2348 85.1877 33.2518 0.0000 0.0000 0.0000
# 3 48.1873 33.2518 87.3104 0.0000 0.0000 0.0000
# 4 0.0000 0.0000 0.0000 13.9160 0.0000 0.0000
# 5 0.0000 0.0000 0.0000 0.0000 14.4448 0.0000
# 6 0.0000 0.0000 0.0000 0.0000 0.0000 22.0945
#
#
#
# Elastic Compliance Matrix: (Units=1/GPa)
#
#
# Indices 1 2 3 4 5 6 
#
# 1 0.013122 -0.001788 -0.006561 0.000000 0.000000 0.000000
# 2 -0.001788 0.014032 -0.004357 0.000000 0.000000 0.000000
# 3 -0.006561 -0.004357 0.016734 0.000000 0.000000 0.000000
# 4 0.000000 0.000000 0.000000 0.071860 0.000000 0.000000
# 5 0.000000 0.000000 0.000000 0.000000 0.069229 0.000000
# 6 0.000000 0.000000 0.000000 0.000000 0.000000 0.045260
#
#
# Mechanical properties :
#
#
# Convention : Reuss Voigt Hill
#
# Bulk Modulus (GPa) = 54.12651 55.11041 54.61846
# Shear Modulus (GPa) = 19.09787 21.22253 20.16020
#
# Velocity S-wave (km/s) = 3.31231 3.49170 3.40318
# Velocity P-wave (km/s) = 6.76189 6.92213 6.84248
#
# Compressibility (1/GPa) = 0.01847524
#
# Stress axis : x y z
#
# Youngs Moduli (GPa) = 76.20612 71.26455 59.75839
#
# Poissons Ratio (x) = 0.12743 0.39209
# Poissons Ratio (y) = 0.13627 0.26038
# Poissons Ratio (z) = 0.50001 0.31051
#
# Static dielectric constant tensor:
#      x y z
#    x 1.668190 0.000000 0.000000 
#    y 0.000000 1.609730 0.000000 
#    z 0.000000 0.000000 1.579130 
# 
# From -- ./inp_files/38806.got.cif
#   From: 2010.05.17/outbox.cif.g08.bks.cpg/sg48_20_cif.got.tgz:38806.got - 2010.06.03 20:39:00.
