data_PCOD9391500
_publ_section_title
;
Structure prediction by ZEFSAII (Michael W. Deem and Ramdas Pophale) SiO2 
 PCOD9391500
Probable space group: P N N N
;
_chemical_formula_sum "Si O2"
_cell_formula_units_Z 18
_cell_length_a 5.073675
_cell_length_b 5.187236
_cell_length_c 28.729769
_cell_angle_alpha 90.000000
_cell_angle_beta 90.000000
_cell_angle_gamma 90.000000
_cell_volume 756.120105
_symmetry_space_group_name_H-M "P N N N"
_symmetry_group_IT_number 48
_space_group.IT_coordinate_system_code '2'
_symmetry_cell_setting 'orthorhombic'
loop_
_space_group_symop_operation_xyz
x,y,z
1/2-x,1/2-y,z
x,1/2-y,1/2-z
1/2-x,y,1/2-z
-x,-y,-z
1/2+x,1/2+y,-z
-x,1/2+y,1/2+z
1/2+x,-y,1/2+z
loop_
_atom_site_type_symbol
_atom_site_label
_atom_site_fract_x
_atom_site_fract_y
_atom_site_fract_z
Si Si1 0.750000 0.250000 0.314013
Si Si2 0.996552 0.574850 0.945793
Si Si3 0.750000 0.750000 0.125564
Si Si4 0.250000 0.250000 0.250000
O O1 0.825320 0.504138 0.343147
O O2 0.483194 0.344066 0.286188
O O3 0.750000 0.750000 0.935883
O O4 0.250000 0.750000 0.938294
O O5 0.025602 0.341390 0.910296
O O6 0.000000 0.500000 0.000000
#
# Coordination Sequence:
#
# PCOD9391500 Si02
#       4
#     4   8   4   2
#     4  11  28  50  82 110 152 192 258 324 400 481
#     4  12  27  46  73 110 161 213 259 312 375 444
#     4  12  28  49  79 120 150 206 265 317 376 476
#     4  10  28  56  78 112 148 196 242 336 424 464
#
# _framework density 23.805738000000002
#
# number of rings (size 3 to 8) (size 9 to 14) (size 15 to 20)
#    0.000    0.444    4.444    1.333    3.111   10.667 
#    0.000    0.000    0.000    0.000    0.000    0.000 
#    0.000    0.000    0.000    0.000    0.000    0.000 
#
# Total GULP energy -100383.855326 kJ/mol
# GULP energy per Si atom -5576.880851 kJ/mol
# Density = 2.375156 g / cm^3
# Si number density = 23.805738 Si / 1000 Ang^3
#
#
#
# Elastic Constant Matrix: (Units=GPa)
#
#
# Indices 1 2 3 4 5 6 
#
# 1 223.0749 55.5349 42.1041 0.0000 0.0000 0.0000
# 2 55.5349 151.4880 65.6726 0.0000 0.0000 0.0000
# 3 42.1041 65.6726 127.7835 0.0000 0.0000 0.0000
# 4 0.0000 0.0000 0.0000 -52.8554 0.0000 0.0000
# 5 0.0000 0.0000 0.0000 0.0000 32.6780 0.0000
# 6 0.0000 0.0000 0.0000 0.0000 0.0000 46.8649
#
#
#
# Elastic Compliance Matrix: (Units=1/GPa)
#
#
# Indices 1 2 3 4 5 6 
#
# 1 0.005014 -0.001444 -0.000910 0.000000 0.000000 0.000000
# 2 -0.001444 0.008909 -0.004103 0.000000 0.000000 0.000000
# 3 -0.000910 -0.004103 0.010234 0.000000 0.000000 0.000000
# 4 0.000000 0.000000 0.000000 -0.018920 0.000000 0.000000
# 5 0.000000 0.000000 0.000000 0.000000 0.030602 0.000000
# 6 0.000000 0.000000 0.000000 0.000000 0.000000 0.021338
#
#
# Mechanical properties :
#
#
# Convention : Reuss Voigt Hill
#
# Bulk Modulus (GPa) = 88.93756 92.10774 90.52265
# Shear Modulus (GPa) = 67.71489 27.93984 47.82736
#
# Velocity S-wave (km/s) = 5.33915 3.42959 4.48713
# Velocity P-wave (km/s) = 8.68617 7.37958 8.05939
#
# Compressibility (1/GPa) = 0.01124384
#
# Stress axis : x y z
#
# Youngs Moduli (GPa) = 199.44321 112.24446 97.71000
#
# Poissons Ratio (x) = 0.16203 0.08894
# Poissons Ratio (y) = 0.28790 0.40091
# Poissons Ratio (z) = 0.18153 0.46055
#
# Static dielectric constant tensor:
#      x y z
#    x 1.868990 0.000000 0.000000 
#    y 0.000000 1.908360 0.000000 
#    z 0.000000 0.000000 2.040620 
# 
# From -- ./inp_files/6709.got.cif
#   From: 2010.05.17/outbox.cif.g08.bks.cpg/sg48_4_cif.got.tgz:6709.got - 2010.06.03 20:39:00.
