data_PCOD9391891
_publ_section_title
;
Structure prediction by ZEFSAII (Michael W. Deem and Ramdas Pophale) SiO2 
 PCOD9391891
Probable space group: P N N N
;
_chemical_formula_sum "Si O2"
_cell_formula_units_Z 48
_cell_length_a 9.934731
_cell_length_b 8.427130
_cell_length_c 28.201490
_cell_angle_alpha 90.000000
_cell_angle_beta 90.000000
_cell_angle_gamma 90.000000
_cell_volume 2361.064549
_symmetry_space_group_name_H-M "P N N N"
_symmetry_group_IT_number 48
_space_group.IT_coordinate_system_code '2'
_symmetry_cell_setting 'orthorhombic'
loop_
_space_group_symop_operation_xyz
x,y,z
1/2-x,1/2-y,z
x,1/2-y,1/2-z
1/2-x,y,1/2-z
-x,-y,-z
1/2+x,1/2+y,-z
-x,1/2+y,1/2+z
1/2+x,-y,1/2+z
loop_
_atom_site_type_symbol
_atom_site_label
_atom_site_fract_x
_atom_site_fract_y
_atom_site_fract_z
Si Si1 0.026897 0.072002 0.597014
Si Si2 0.961492 0.063970 0.896741
Si Si3 0.278983 0.065432 0.049458
Si Si4 0.588620 0.442501 0.197494
Si Si5 0.091124 0.561958 0.804538
Si Si6 0.715473 0.068041 0.447578
O O1 0.979385 0.251662 0.591598
O O2 0.018534 0.020524 0.651770
O O3 0.179772 0.043515 0.580562
O O4 0.932592 0.963955 0.563971
O O5 0.813943 0.000697 0.908301
O O6 0.006969 0.030293 0.843114
O O7 0.066102 0.969854 0.930249
O O8 0.250000 0.250000 0.041440
O O9 0.238049 0.969232 0.002606
O O10 0.748646 0.472703 0.192018
O O11 0.573482 0.252225 0.191615
O O12 0.549229 0.485043 0.251327
O O13 0.750000 0.250000 0.436582
#
# Coordination Sequence:
#
# PCOD9391891 Si02
#       6
#     8   8   8   8   8   8
#     4  12  24  40  62  93 126 159 201 251 303 358
#     4  12  24  40  62  93 126 159 201 251 303 358
#     4  12  26  44  63  86 121 164 204 249 305 363
#     4   9  18  35  61  91 122 158 201 247 297 354
#     4   9  18  35  61  91 122 158 201 247 297 354
#     4  12  24  42  65  90 121 160 206 251 297 357
#
# _framework density 20.329812
#
# number of rings (size 3 to 8) (size 9 to 14) (size 15 to 20)
#    0.000    1.000    1.667    8.000    0.000    0.667 
#    0.000    2.500    0.000    5.000    0.000    0.000 
#    0.000    0.000    0.000    0.000    0.000    0.000 
#
# Total GULP energy -268595.827242 kJ/mol
# GULP energy per Si atom -5595.746401 kJ/mol
# Density = 2.028354 g / cm^3
# Si number density = 20.329812 Si / 1000 Ang^3
#
#
#
# Elastic Constant Matrix: (Units=GPa)
#
#
# Indices 1 2 3 4 5 6 
#
# 1 25.6866 -4.6848 -5.5861 0.0000 0.0000 0.0000
# 2 -4.6848 49.8399 -7.1131 0.0000 0.0000 0.0000
# 3 -5.5861 -7.1131 88.7653 0.0000 0.0000 0.0000
# 4 0.0000 0.0000 0.0000 23.8645 0.0000 0.0000
# 5 0.0000 0.0000 0.0000 0.0000 -2.8064 0.0000
# 6 0.0000 0.0000 0.0000 0.0000 0.0000 21.5470
#
#
#
# Elastic Compliance Matrix: (Units=1/GPa)
#
#
# Indices 1 2 3 4 5 6 
#
# 1 0.040322 0.004200 0.002874 0.000000 0.000000 0.000000
# 2 0.004200 0.020734 0.001926 0.000000 0.000000 0.000000
# 3 0.002874 0.001926 0.011601 0.000000 0.000000 0.000000
# 4 0.000000 0.000000 0.000000 0.041903 0.000000 0.000000
# 5 0.000000 0.000000 0.000000 0.000000 -0.356333 0.000000
# 6 0.000000 0.000000 0.000000 0.000000 0.000000 0.046410
#
#
# Mechanical properties :
#
#
# Convention : Reuss Voigt Hill
#
# Bulk Modulus (GPa) = 11.03057 14.39154 12.71106
# Shear Modulus (GPa) = -27.30087 20.63273 -3.33407
#
# Velocity S-wave (km/s) = -3.66853 3.18921 -1.28201
# Velocity P-wave (km/s) = 3.53647 4.54486 2.01856
#
# Compressibility (1/GPa) = 0.09065714
#
# Stress axis : x y z
#
# Youngs Moduli (GPa) = 24.80043 48.23012 86.20057
#
# Poissons Ratio (x) = -0.20258 -0.24775
# Poissons Ratio (y) = -0.10417 -0.16601
# Poissons Ratio (z) = -0.07128 -0.09288
#
# Static dielectric constant tensor:
#      x y z
#    x 1.674530 0.000000 0.000000 
#    y 0.000000 1.698860 0.000000 
#    z 0.000000 0.000000 1.722550 
# 
# From -- ./inp_files/38704.got.cif
#   From: 2010.05.17/outbox.cif.g08.bks.cpg/sg48_20_cif.got.tgz:38704.got - 2010.06.03 20:39:00.
