data_PCOD9391442
_publ_section_title
;
Structure prediction by ZEFSAII (Michael W. Deem and Ramdas Pophale) SiO2 
 PCOD9391442
Probable space group: P N N N
;
_chemical_formula_sum "Si O2"
_cell_formula_units_Z 32
_cell_length_a 7.488160
_cell_length_b 10.898130
_cell_length_c 13.998515
_cell_angle_alpha 90.000000
_cell_angle_beta 90.000000
_cell_angle_gamma 90.000000
_cell_volume 1142.375990
_symmetry_space_group_name_H-M "P N N N"
_symmetry_group_IT_number 48
_space_group.IT_coordinate_system_code '2'
_symmetry_cell_setting 'orthorhombic'
loop_
_space_group_symop_operation_xyz
x,y,z
1/2-x,1/2-y,z
x,1/2-y,1/2-z
1/2-x,y,1/2-z
-x,-y,-z
1/2+x,1/2+y,-z
-x,1/2+y,1/2+z
1/2+x,-y,1/2+z
loop_
_atom_site_type_symbol
_atom_site_label
_atom_site_fract_x
_atom_site_fract_y
_atom_site_fract_z
Si Si1 0.934291 0.819493 0.042659
Si Si2 0.546481 0.676260 0.652488
Si Si3 0.818619 0.947075 0.355466
Si Si4 0.781750 0.423607 0.860607
O O1 0.750000 0.750000 0.087007
O O2 0.541505 0.739457 0.940160
O O3 0.874747 0.147510 0.912667
O O4 0.832688 0.948690 0.063970
O O5 0.561833 0.750000 0.750000
O O6 0.375453 0.588974 0.657452
O O7 0.701631 0.572285 0.636865
O O8 0.750000 0.907295 0.250000
O O9 0.012787 0.888934 0.386111
O O10 0.750000 0.394911 0.750000
#
# Coordination Sequence:
#
# PCOD9391442 Si02
#       4
#     8   8   8   8
#     4  12  27  51  90 127 186 241 307 382 469 529
#     4  10  27  54  91 134 179 246 320 381 450 533
#     4  10  24  55  86 129 174 234 317 379 446 560
#     4  10  24  54  88 127 177 237 318 375 439 563
#
# _framework density 28.011793999999998
#
# number of rings (size 3 to 8) (size 9 to 14) (size 15 to 20)
#    1.500    0.000    2.500    0.000    3.500    4.000 
#    9.000    2.500    5.500    0.000    0.000    0.000 
#    0.000    0.000    0.000    0.000    0.000    0.000 
#
# Total GULP energy -178775.115873 kJ/mol
# GULP energy per Si atom -5586.722371 kJ/mol
# Density = 2.794804 g / cm^3
# Si number density = 28.011794 Si / 1000 Ang^3
#
#
#
# Elastic Constant Matrix: (Units=GPa)
#
#
# Indices 1 2 3 4 5 6 
#
# 1 267.9448 123.5291 128.6244 0.0000 0.0000 0.0000
# 2 123.5291 136.0557 109.6996 0.0000 0.0000 0.0000
# 3 128.6244 109.6996 273.5504 0.0000 0.0000 0.0000
# 4 0.0000 0.0000 0.0000 51.5272 0.0000 0.0000
# 5 0.0000 0.0000 0.0000 0.0000 34.9584 0.0000
# 6 0.0000 0.0000 0.0000 0.0000 0.0000 0.1402
#
#
#
# Elastic Compliance Matrix: (Units=1/GPa)
#
#
# Indices 1 2 3 4 5 6 
#
# 1 0.006612 -0.005167 -0.001037 0.000000 0.000000 0.000000
# 2 -0.005167 0.014900 -0.003546 0.000000 0.000000 0.000000
# 3 -0.001037 -0.003546 0.005565 0.000000 0.000000 0.000000
# 4 0.000000 0.000000 0.000000 0.019407 0.000000 0.000000
# 5 0.000000 0.000000 0.000000 0.000000 0.028605 0.000000
# 6 0.000000 0.000000 0.000000 0.000000 0.000000 7.134347
#
#
# Mechanical properties :
#
#
# Convention : Reuss Voigt Hill
#
# Bulk Modulus (GPa) = 131.96391 155.69522 143.82957
# Shear Modulus (GPa) = 0.69142 38.37166 19.53154
#
# Velocity S-wave (km/s) = 0.49736 3.70515 2.64344
# Velocity P-wave (km/s) = 6.89509 8.60272 7.79580
#
# Compressibility (1/GPa) = 0.00757783
#
# Stress axis : x y z
#
# Youngs Moduli (GPa) = 151.23777 67.11258 179.69376
#
# Poissons Ratio (x) = 0.34680 0.18631
# Poissons Ratio (y) = 0.78150 0.63713
# Poissons Ratio (z) = 0.15680 0.23796
#
# Static dielectric constant tensor:
#      x y z
#    x 2.062540 0.000000 0.000000 
#    y 0.000000 3.318730 0.000000 
#    z 0.000000 0.000000 2.391740 
# 
# From -- ./inp_files/24857.got.cif
#   From: 2010.05.17/outbox.cif.g08.bks.cpg/sg48_13_cif.got.tgz:24857.got - 2010.06.03 20:39:00.
