data_PCOD9391050
_publ_section_title
;
Structure prediction by ZEFSAII (Michael W. Deem and Ramdas Pophale) SiO2 
 PCOD9391050
Probable space group: P N N N
;
_chemical_formula_sum "Si O2"
_cell_formula_units_Z 26
_cell_length_a 7.246431
_cell_length_b 6.607103
_cell_length_c 24.805289
_cell_angle_alpha 90.000000
_cell_angle_beta 90.000000
_cell_angle_gamma 90.000000
_cell_volume 1187.625543
_symmetry_space_group_name_H-M "P N N N"
_symmetry_group_IT_number 48
_space_group.IT_coordinate_system_code '2'
_symmetry_cell_setting 'orthorhombic'
loop_
_space_group_symop_operation_xyz
x,y,z
1/2-x,1/2-y,z
x,1/2-y,1/2-z
1/2-x,y,1/2-z
-x,-y,-z
1/2+x,1/2+y,-z
-x,1/2+y,1/2+z
1/2+x,-y,1/2+z
loop_
_atom_site_type_symbol
_atom_site_label
_atom_site_fract_x
_atom_site_fract_y
_atom_site_fract_z
Si Si1 0.750000 0.750000 0.075846
Si Si2 0.719329 0.017711 0.985109
Si Si3 0.393118 0.561025 0.663933
Si Si4 0.250000 0.250000 0.383428
Si Si5 0.250000 0.250000 0.750000
O O1 0.857684 0.594847 0.114317
O O2 0.665528 0.596152 0.031884
O O3 0.750000 0.250000 0.987138
O O4 0.774927 0.929937 0.927004
O O5 0.500000 0.000000 0.000000
O O6 0.250000 0.750000 0.666254
O O7 0.584568 0.674269 0.653769
O O8 0.369870 0.406624 0.713955
#
# Coordination Sequence:
#
# PCOD9391050 Si02
#       5
#     4   8   8   4   2
#     4  10  22  39  64  97 147 190 231 278 344 412
#     4  11  24  39  63 107 153 199 238 278 337 426
#     4  11  24  47  73 101 138 182 238 303 372 427
#     4  11  26  41  71 109 141 195 237 290 353 442
#     4  10  26  50  74 102 128 178 232 324 384 438
#
# _framework density 21.892423999999998
#
# number of rings (size 3 to 8) (size 9 to 14) (size 15 to 20)
#    0.000    1.231    3.077    1.385    4.308    2.462 
#    0.000    4.615    0.000    0.000    0.000    0.000 
#    0.000    0.000    0.000    0.000    0.000    0.000 
#
# Total GULP energy -144940.881475 kJ/mol
# GULP energy per Si atom -5574.649288 kJ/mol
# Density = 2.184260 g / cm^3
# Si number density = 21.892424 Si / 1000 Ang^3
#
#
#
# Elastic Constant Matrix: (Units=GPa)
#
#
# Indices 1 2 3 4 5 6 
#
# 1 152.3484 97.3555 69.0560 0.0000 0.0000 0.0000
# 2 97.3555 240.7134 74.6290 0.0000 0.0000 0.0000
# 3 69.0560 74.6290 145.4044 0.0000 0.0000 0.0000
# 4 0.0000 0.0000 0.0000 -222.5410 0.0000 0.0000
# 5 0.0000 0.0000 0.0000 0.0000 342.8518 0.0000
# 6 0.0000 0.0000 0.0000 0.0000 0.0000 42.3420
#
#
#
# Elastic Compliance Matrix: (Units=1/GPa)
#
#
# Indices 1 2 3 4 5 6 
#
# 1 0.009939 -0.003040 -0.003160 0.000000 0.000000 0.000000
# 2 -0.003040 0.005870 -0.001569 0.000000 0.000000 0.000000
# 3 -0.003160 -0.001569 0.009183 0.000000 0.000000 0.000000
# 4 0.000000 0.000000 0.000000 -0.004494 0.000000 0.000000
# 5 0.000000 0.000000 0.000000 0.000000 0.002917 0.000000
# 6 0.000000 0.000000 0.000000 0.000000 0.000000 0.023617
#
#
# Mechanical properties :
#
#
# Convention : Reuss Voigt Hill
#
# Bulk Modulus (GPa) = 105.77038 113.39414 109.58226
# Shear Modulus (GPa) = 76.07700 52.35894 64.21797
#
# Velocity S-wave (km/s) = 5.90134 4.89575 5.42191
# Velocity P-wave (km/s) = 9.73925 9.15786 9.45302
#
# Compressibility (1/GPa) = 0.00945444
#
# Stress axis : x y z
#
# Youngs Moduli (GPa) = 100.61450 170.34737 108.89136
#
# Poissons Ratio (x) = 0.51787 0.34409
# Poissons Ratio (y) = 0.30588 0.17087
# Poissons Ratio (z) = 0.31793 0.26730
#
# Static dielectric constant tensor:
#      x y z
#    x 2.526530 0.000000 0.000000 
#    y 0.000000 1.857240 0.000000 
#    z 0.000000 0.000000 1.832950 
# 
# From -- ./inp_files/35589.got.cif
#   From: 2010.05.17/outbox.cif.g08.bks.cpg/sg48_18_cif.got.tgz:35589.got - 2010.06.03 20:39:00.
