data_PCOD9391285
_publ_section_title
;
Structure prediction by ZEFSAII (Michael W. Deem and Ramdas Pophale) SiO2 
 PCOD9391285
Probable space group: P N N N
;
_chemical_formula_sum "Si O2"
_cell_formula_units_Z 24
_cell_length_a 16.952034
_cell_length_b 4.916882
_cell_length_c 11.759660
_cell_angle_alpha 90.000000
_cell_angle_beta 90.000000
_cell_angle_gamma 90.000000
_cell_volume 980.181194
_symmetry_space_group_name_H-M "P N N N"
_symmetry_group_IT_number 48
_space_group.IT_coordinate_system_code '2'
_symmetry_cell_setting 'orthorhombic'
loop_
_space_group_symop_operation_xyz
x,y,z
1/2-x,1/2-y,z
x,1/2-y,1/2-z
1/2-x,y,1/2-z
-x,-y,-z
1/2+x,1/2+y,-z
-x,1/2+y,1/2+z
1/2+x,-y,1/2+z
loop_
_atom_site_type_symbol
_atom_site_label
_atom_site_fract_x
_atom_site_fract_y
_atom_site_fract_z
Si Si1 0.590656 0.062064 0.091899
Si Si2 0.470510 0.750000 0.250000
Si Si3 0.389139 0.452564 0.048247
Si Si4 0.750000 0.250000 0.438406
O O1 0.530112 0.939969 0.179107
O O2 0.681348 0.097848 0.131359
O O3 0.597697 0.858719 0.984175
O O4 0.567097 0.358370 0.046885
O O5 0.416602 0.563714 0.168819
O O6 0.299522 0.543872 0.018160
#
# Coordination Sequence:
#
# PCOD9391285 Si02
#       4
#     8   4   8   4
#     4  10  23  43  68  95 144 174 232 282 345 404
#     4  12  24  41  73 108 134 184 236 286 348 409
#     4  10  23  42  69  96 141 180 227 288 339 405
#     4   8  22  45  63  90 144 182 220 296 328 414
#
# _framework density 24.485268000000001
#
# number of rings (size 3 to 8) (size 9 to 14) (size 15 to 20)
#    2.000    0.000    0.000    3.000    0.000    6.000 
#    0.000    5.000    7.333    0.000    0.000    0.000 
#    0.000    0.000    0.000    0.000    0.000    0.000 
#
# Total GULP energy -134141.793660 kJ/mol
# GULP energy per Si atom -5589.241402 kJ/mol
# Density = 2.442954 g / cm^3
# Si number density = 24.485268 Si / 1000 Ang^3
#
#
#
# Elastic Constant Matrix: (Units=GPa)
#
#
# Indices 1 2 3 4 5 6 
#
# 1 116.9823 25.7302 28.3643 0.0000 0.0000 0.0000
# 2 25.7302 108.4619 21.4661 0.0000 0.0000 0.0000
# 3 28.3643 21.4661 83.3155 0.0000 0.0000 0.0000
# 4 0.0000 0.0000 0.0000 35.8881 0.0000 0.0000
# 5 0.0000 0.0000 0.0000 0.0000 16.1795 0.0000
# 6 0.0000 0.0000 0.0000 0.0000 0.0000 37.6192
#
#
#
# Elastic Compliance Matrix: (Units=1/GPa)
#
#
# Indices 1 2 3 4 5 6 
#
# 1 0.009613 -0.001720 -0.002829 0.000000 0.000000 0.000000
# 2 -0.001720 0.010023 -0.001997 0.000000 0.000000 0.000000
# 3 -0.002829 -0.001997 0.013480 0.000000 0.000000 0.000000
# 4 0.000000 0.000000 0.000000 0.027864 0.000000 0.000000
# 5 0.000000 0.000000 0.000000 0.000000 0.061806 0.000000
# 6 0.000000 0.000000 0.000000 0.000000 0.000000 0.026582
#
#
# Mechanical properties :
#
#
# Convention : Reuss Voigt Hill
#
# Bulk Modulus (GPa) = 49.94228 51.09788 50.52008
# Shear Modulus (GPa) = 29.56191 33.48397 31.52294
#
# Velocity S-wave (km/s) = 3.47844 3.70200 3.59196
# Velocity P-wave (km/s) = 6.04764 6.25997 6.15472
#
# Compressibility (1/GPa) = 0.02002311
#
# Stress axis : x y z
#
# Youngs Moduli (GPa) = 104.02875 99.76909 74.18260
#
# Poissons Ratio (x) = 0.17165 0.20989
# Poissons Ratio (y) = 0.17898 0.14812
# Poissons Ratio (z) = 0.29433 0.19921
#
# Static dielectric constant tensor:
#      x y z
#    x 2.028620 0.000000 0.000000 
#    y 0.000000 1.919370 0.000000 
#    z 0.000000 0.000000 1.962770 
# 
# From -- ./inp_files/21724.got.cif
#   From: 2010.05.17/outbox.cif.g08.bks.cpg/sg48_11_cif.got.tgz:21724.got - 2010.06.03 20:39:00.
