data_PCOD9391416
_publ_section_title
;
Structure prediction by ZEFSAII (Michael W. Deem and Ramdas Pophale) SiO2 
 PCOD9391416
Probable space group: P N N N
;
_chemical_formula_sum "Si O2"
_cell_formula_units_Z 30
_cell_length_a 5.267888
_cell_length_b 12.914510
_cell_length_c 18.934731
_cell_angle_alpha 90.000000
_cell_angle_beta 90.000000
_cell_angle_gamma 90.000000
_cell_volume 1288.171260
_symmetry_space_group_name_H-M "P N N N"
_symmetry_group_IT_number 48
_space_group.IT_coordinate_system_code '2'
_symmetry_cell_setting 'orthorhombic'
loop_
_space_group_symop_operation_xyz
x,y,z
1/2-x,1/2-y,z
x,1/2-y,1/2-z
1/2-x,y,1/2-z
-x,-y,-z
1/2+x,1/2+y,-z
-x,1/2+y,1/2+z
1/2+x,-y,1/2+z
loop_
_atom_site_type_symbol
_atom_site_label
_atom_site_fract_x
_atom_site_fract_y
_atom_site_fract_z
Si Si1 0.250000 0.750000 0.250000
Si Si2 0.497830 0.178521 0.164817
Si Si3 0.500522 0.178452 0.007960
Si Si4 0.613989 0.640075 0.358366
Si Si5 0.750000 0.014223 0.250000
O O1 0.401987 0.672657 0.301585
O O2 0.750000 0.250000 0.169245
O O3 0.507844 0.130104 0.086022
O O4 0.528478 0.089878 0.223085
O O5 0.250000 0.250000 0.171148
O O6 0.250000 0.250000 0.011460
O O7 0.750000 0.250000 0.999973
O O8 0.479562 0.111665 0.936608
O O9 0.750000 0.750000 0.367536
O O10 0.791805 0.558194 0.318240
#
# Coordination Sequence:
#
# PCOD9391416 Si02
#       5
#     2   8   8   8   4
#     4  12  18  36  64  90 142 170 206 276 334 412
#     4  10  24  46  65  93 132 181 233 280 324 388
#     4   9  19  39  66  88 130 182 219 270 335 391
#     4  11  22  39  61 101 137 173 217 276 343 412
#     4  12  24  40  68 100 136 176 224 280 342 400
#
# _framework density 23.288826
#
# number of rings (size 3 to 8) (size 9 to 14) (size 15 to 20)
#    0.000    1.600    4.000    0.400    0.000    5.333 
#    0.000    0.000    0.000   14.400    0.000    0.000 
#    0.000    0.000    0.000    0.000    0.000    0.000 
#
# Total GULP energy -167406.804058 kJ/mol
# GULP energy per Si atom -5580.226802 kJ/mol
# Density = 2.323582 g / cm^3
# Si number density = 23.288826 Si / 1000 Ang^3
#
#
#
# Elastic Constant Matrix: (Units=GPa)
#
#
# Indices 1 2 3 4 5 6 
#
# 1 125.3099 38.9818 38.0479 0.0000 0.0000 0.0000
# 2 38.9818 112.3608 64.4040 0.0000 0.0000 0.0000
# 3 38.0479 64.4040 242.9697 0.0000 0.0000 0.0000
# 4 0.0000 0.0000 0.0000 -131.2534 0.0000 0.0000
# 5 0.0000 0.0000 0.0000 0.0000 34.0232 0.0000
# 6 0.0000 0.0000 0.0000 0.0000 0.0000 11.2718
#
#
#
# Elastic Compliance Matrix: (Units=1/GPa)
#
#
# Indices 1 2 3 4 5 6 
#
# 1 0.009042 -0.002742 -0.000689 0.000000 0.000000 0.000000
# 2 -0.002742 0.011326 -0.002573 0.000000 0.000000 0.000000
# 3 -0.000689 -0.002573 0.004906 0.000000 0.000000 0.000000
# 4 0.000000 0.000000 0.000000 -0.007619 0.000000 0.000000
# 5 0.000000 0.000000 0.000000 0.000000 0.029392 0.000000
# 6 0.000000 0.000000 0.000000 0.000000 0.000000 0.088717
#
#
# Mechanical properties :
#
#
# Convention : Reuss Voigt Hill
#
# Bulk Modulus (GPa) = 75.38099 84.83419 80.10759
# Shear Modulus (GPa) = 32.85282 5.42210 19.13746
#
# Velocity S-wave (km/s) = 3.75996 1.52750 2.86972
# Velocity P-wave (km/s) = 7.16156 6.29421 6.74185
#
# Compressibility (1/GPa) = 0.01326594
#
# Stress axis : x y z
#
# Youngs Moduli (GPa) = 110.58893 88.29310 203.84785
#
# Poissons Ratio (x) = 0.24211 0.14048
# Poissons Ratio (y) = 0.30325 0.52445
# Poissons Ratio (z) = 0.07621 0.22716
#
# Static dielectric constant tensor:
#      x y z
#    x 1.884720 0.000000 0.000000 
#    y 0.000000 1.917750 0.000000 
#    z 0.000000 0.000000 1.987780 
# 
# From -- ./inp_files/4842.got.cif
#   From: 2010.05.17/outbox.cif.g08.bks.cpg/sg48_3_cif.got.tgz:4842.got - 2010.06.03 20:39:00.
