data_PCOD9391719
_publ_section_title
;
Structure prediction by ZEFSAII (Michael W. Deem and Ramdas Pophale) SiO2 
 PCOD9391719
Probable space group: P N N N
;
_chemical_formula_sum "Si O2"
_cell_formula_units_Z 40
_cell_length_a 18.293281
_cell_length_b 9.682475
_cell_length_c 11.115009
_cell_angle_alpha 90.000000
_cell_angle_beta 90.000000
_cell_angle_gamma 90.000000
_cell_volume 1968.737477
_symmetry_space_group_name_H-M "P N N N"
_symmetry_group_IT_number 48
_space_group.IT_coordinate_system_code '2'
_symmetry_cell_setting 'orthorhombic'
loop_
_space_group_symop_operation_xyz
x,y,z
1/2-x,1/2-y,z
x,1/2-y,1/2-z
1/2-x,y,1/2-z
-x,-y,-z
1/2+x,1/2+y,-z
-x,1/2+y,1/2+z
1/2+x,-y,1/2+z
loop_
_atom_site_type_symbol
_atom_site_label
_atom_site_fract_x
_atom_site_fract_y
_atom_site_fract_z
Si Si1 0.557226 0.180282 0.381685
Si Si2 0.336434 0.584183 0.249544
Si Si3 0.413152 0.538634 0.497859
Si Si4 0.903495 0.564870 0.520548
Si Si5 0.665662 0.794331 0.121786
O O1 0.549988 0.250000 0.250000
O O2 0.590430 0.302345 0.461826
O O3 0.481130 0.128185 0.438881
O O4 0.600690 0.037446 0.404084
O O5 0.344178 0.750000 0.250000
O O6 0.250000 0.551886 0.250000
O O7 0.378983 0.525953 0.365450
O O8 0.372097 0.520601 0.131096
O O9 0.500000 0.500000 0.500000
O O10 0.363798 0.445572 0.587122
O O11 0.860135 0.700064 0.487304
O O12 0.750000 0.750000 0.130335
O O13 0.631426 0.750000 0.250000
#
# Coordination Sequence:
#
# PCOD9391719 Si02
#       5
#     8   8   8   8   8
#     4  11  23  41  64  97 132 170 227 285 340 407
#     4  11  24  43  68  98 137 183 233 287 355 427
#     4  12  23  42  69 100 135 179 231 287 346 419
#     4  11  23  43  65  95 134 173 224 290 340 407
#     4  11  25  44  66  98 138 179 222 278 349 419
#
# _framework density 20.317589999999999
#
# number of rings (size 3 to 8) (size 9 to 14) (size 15 to 20)
#    0.000    0.800    4.000    3.600    0.000    2.400 
#    0.000    2.000    0.000    4.800    0.000    0.000 
#    0.000    0.000    0.000    0.000    0.000    0.000 
#
# Total GULP energy -223017.175628 kJ/mol
# GULP energy per Si atom -5575.429391 kJ/mol
# Density = 2.027135 g / cm^3
# Si number density = 20.317590 Si / 1000 Ang^3
#
#
#
# Elastic Constant Matrix: (Units=GPa)
#
#
# Indices 1 2 3 4 5 6 
#
# 1 77.1287 33.5518 23.3805 0.0000 0.0000 0.0000
# 2 33.5518 113.7162 39.0739 0.0000 0.0000 0.0000
# 3 23.3805 39.0739 116.4124 0.0000 0.0000 0.0000
# 4 0.0000 0.0000 0.0000 45.3806 0.0000 0.0000
# 5 0.0000 0.0000 0.0000 0.0000 34.9088 0.0000
# 6 0.0000 0.0000 0.0000 0.0000 0.0000 28.1030
#
#
#
# Elastic Compliance Matrix: (Units=1/GPa)
#
#
# Indices 1 2 3 4 5 6 
#
# 1 0.015182 -0.003879 -0.001747 0.000000 0.000000 0.000000
# 2 -0.003879 0.010931 -0.002890 0.000000 0.000000 0.000000
# 3 -0.001747 -0.002890 0.009911 0.000000 0.000000 0.000000
# 4 0.000000 0.000000 0.000000 0.022036 0.000000 0.000000
# 5 0.000000 0.000000 0.000000 0.000000 0.028646 0.000000
# 6 0.000000 0.000000 0.000000 0.000000 0.000000 0.035583
#
#
# Mechanical properties :
#
#
# Convention : Reuss Voigt Hill
#
# Bulk Modulus (GPa) = 52.65349 55.47439 54.06394
# Shear Modulus (GPa) = 34.32794 35.76188 35.04491
#
# Velocity S-wave (km/s) = 4.11489 4.19996 4.15764
# Velocity P-wave (km/s) = 6.96764 7.13319 7.05090
#
# Compressibility (1/GPa) = 0.01899209
#
# Stress axis : x y z
#
# Youngs Moduli (GPa) = 65.86541 91.47950 100.89691
#
# Poissons Ratio (x) = 0.35487 0.17629
# Poissons Ratio (y) = 0.25551 0.29160
# Poissons Ratio (z) = 0.11508 0.26438
#
# Static dielectric constant tensor:
#      x y z
#    x 1.713260 0.000000 0.000000 
#    y 0.000000 1.690830 0.000000 
#    z 0.000000 0.000000 1.745160 
# 
# From -- ./inp_files/10717.got.cif
#   From: 2010.05.17/outbox.cif.g08.bks.cpg/sg48_6_cif.got.tgz:10717.got - 2010.06.03 20:39:00.
