data_PCOD9391058
_publ_section_title
;
Structure prediction by ZEFSAII (Michael W. Deem and Ramdas Pophale) SiO2 
 PCOD9391058
Probable space group: P N N N
;
_chemical_formula_sum "Si O2"
_cell_formula_units_Z 48
_cell_length_a 14.306436
_cell_length_b 6.292280
_cell_length_c 27.125981
_cell_angle_alpha 90.000000
_cell_angle_beta 90.000000
_cell_angle_gamma 90.000000
_cell_volume 2441.883552
_symmetry_space_group_name_H-M "P N N N"
_symmetry_group_IT_number 48
_space_group.IT_coordinate_system_code '2'
_symmetry_cell_setting 'orthorhombic'
loop_
_space_group_symop_operation_xyz
x,y,z
1/2-x,1/2-y,z
x,1/2-y,1/2-z
1/2-x,y,1/2-z
-x,-y,-z
1/2+x,1/2+y,-z
-x,1/2+y,1/2+z
1/2+x,-y,1/2+z
loop_
_atom_site_type_symbol
_atom_site_label
_atom_site_fract_x
_atom_site_fract_y
_atom_site_fract_z
Si Si1 0.016453 0.977803 0.165816
Si Si2 0.413091 0.250000 0.250000
Si Si3 0.395862 0.086150 0.993223
Si Si4 0.358314 0.223608 0.100533
Si Si5 0.656650 0.871315 0.399699
Si Si6 0.653454 0.112886 0.819973
Si Si7 0.750000 0.250000 0.042340
O O1 0.071162 0.778994 0.188116
O O2 0.918985 0.913124 0.142165
O O3 0.020052 0.148514 0.209113
O O4 0.080073 0.089171 0.123559
O O5 0.350783 0.426772 0.278794
O O6 0.385156 0.227420 0.944130
O O7 0.320619 0.896178 0.988629
O O8 0.372193 0.215392 0.042392
O O9 0.500000 0.000000 0.000000
O O10 0.250000 0.250000 0.112680
O O11 0.375752 0.000983 0.128497
O O12 0.750000 0.750000 0.382217
O O13 0.689059 0.092429 0.424001
O O14 0.750000 0.250000 0.821354
#
# Coordination Sequence:
#
# PCOD9391058 Si02
#       7
#     8   4   8   8   8   8   4
#     4  11  23  42  64  88 127 163 212 270 330 386
#     4  10  26  41  62  95 120 164 216 261 332 403
#     4  11  23  37  60  93 129 171 219 260 318 383
#     4  11  22  36  56  94 130 166 212 250 310 395
#     4  10  23  42  65  92 122 172 221 266 325 387
#     4  11  23  41  63  91 130 170 205 259 326 395
#     4  10  22  40  60  89 130 172 211 266 314 372
#
# _framework density 19.656959000000001
#
# number of rings (size 3 to 8) (size 9 to 14) (size 15 to 20)
#    0.000    1.333    1.667    4.000    1.167   11.333 
#    0.000    0.000    0.000    7.500    0.000    0.000 
#    0.000    0.000    0.000    0.000    0.000    0.000 
#
# Total GULP energy -268154.348986 kJ/mol
# GULP energy per Si atom -5586.548937 kJ/mol
# Density = 1.961222 g / cm^3
# Si number density = 19.656959 Si / 1000 Ang^3
#
#
#
# Elastic Constant Matrix: (Units=GPa)
#
#
# Indices 1 2 3 4 5 6 
#
# 1 118.8005 40.9831 45.3139 0.0000 0.0000 0.0000
# 2 40.9831 91.0022 29.4500 0.0000 0.0000 0.0000
# 3 45.3139 29.4500 77.4049 0.0000 0.0000 0.0000
# 4 0.0000 0.0000 0.0000 22.3664 0.0000 0.0000
# 5 0.0000 0.0000 0.0000 0.0000 22.1550 0.0000
# 6 0.0000 0.0000 0.0000 0.0000 0.0000 14.8200
#
#
#
# Elastic Compliance Matrix: (Units=1/GPa)
#
#
# Indices 1 2 3 4 5 6 
#
# 1 0.011736 -0.003492 -0.005542 0.000000 0.000000 0.000000
# 2 -0.003492 0.013571 -0.003119 0.000000 0.000000 0.000000
# 3 -0.005542 -0.003119 0.017350 0.000000 0.000000 0.000000
# 4 0.000000 0.000000 0.000000 0.044710 0.000000 0.000000
# 5 0.000000 0.000000 0.000000 0.000000 0.045137 0.000000
# 6 0.000000 0.000000 0.000000 0.000000 0.000000 0.067476
#
#
# Mechanical properties :
#
#
# Convention : Reuss Voigt Hill
#
# Bulk Modulus (GPa) = 54.49231 57.63352 56.06292
# Shear Modulus (GPa) = 21.70120 23.29897 22.50009
#
# Velocity S-wave (km/s) = 3.32625 3.44652 3.38692
# Velocity P-wave (km/s) = 6.52179 6.72468 6.62401
#
# Compressibility (1/GPa) = 0.01835121
#
# Stress axis : x y z
#
# Youngs Moduli (GPa) = 85.20874 73.68820 57.63677
#
# Poissons Ratio (x) = 0.25731 0.31941
# Poissons Ratio (y) = 0.29754 0.17977
# Poissons Ratio (z) = 0.47221 0.22984
#
# Static dielectric constant tensor:
#      x y z
#    x 1.725820 0.000000 0.000000 
#    y 0.000000 1.268400 0.000000 
#    z 0.000000 0.000000 2.175340 
# 
# From -- ./inp_files/24465.got.cif
#   From: 2010.05.17/outbox.cif.g08.bks.cpg/sg48_13_cif.got.tgz:24465.got - 2010.06.03 20:39:00.
