data_PCOD9391525
_publ_section_title
;
Structure prediction by ZEFSAII (Michael W. Deem and Ramdas Pophale) SiO2 
 PCOD9391525
Probable space group: P N N N
;
_chemical_formula_sum "Si O2"
_cell_formula_units_Z 64
_cell_length_a 13.738169
_cell_length_b 19.595232
_cell_length_c 11.826158
_cell_angle_alpha 90.000000
_cell_angle_beta 90.000000
_cell_angle_gamma 90.000000
_cell_volume 3183.632586
_symmetry_space_group_name_H-M "P N N N"
_symmetry_group_IT_number 48
_space_group.IT_coordinate_system_code '2'
_symmetry_cell_setting 'orthorhombic'
loop_
_space_group_symop_operation_xyz
x,y,z
1/2-x,1/2-y,z
x,1/2-y,1/2-z
1/2-x,y,1/2-z
-x,-y,-z
1/2+x,1/2+y,-z
-x,1/2+y,1/2+z
1/2+x,-y,1/2+z
loop_
_atom_site_type_symbol
_atom_site_label
_atom_site_fract_x
_atom_site_fract_y
_atom_site_fract_z
Si Si1 0.677678 0.479519 0.849377
Si Si2 0.765493 0.669870 0.124104
Si Si3 0.540460 0.537903 0.150652
Si Si4 0.450682 0.086599 0.886996
Si Si5 0.027699 0.670778 0.717239
Si Si6 0.376047 0.108441 0.445910
Si Si7 0.907287 0.424967 0.084035
Si Si8 0.820814 0.415036 0.411402
O O1 0.750000 0.459992 0.750000
O O2 0.564901 0.492752 0.818639
O O3 0.701973 0.554122 0.897558
O O4 0.675365 0.427293 0.953366
O O5 0.750000 0.750000 0.133283
O O6 0.750000 0.639770 0.250000
O O7 0.867531 0.640166 0.078537
O O8 0.682252 0.648822 0.038773
O O9 0.545466 0.592749 0.251014
O O10 0.626712 0.481698 0.145822
O O11 0.544373 0.569176 0.024850
O O12 0.420403 0.006936 0.904556
O O13 0.549052 0.094283 0.960379
O O14 0.032047 0.750000 0.750000
O O15 0.034310 0.620793 0.825727
O O16 0.118232 0.648077 0.637031
O O17 0.930742 0.652362 0.647055
O O18 0.794104 0.410673 0.109261
#
# Coordination Sequence:
#
# PCOD9391525 Si02
#       8
#     8   8   8   8   8   8   8   8
#     4  11  21  37  66 103 139 172 228 291 355 413
#     4  11  25  42  68  99 131 180 231 274 345 431
#     4  11  19  38  68  97 131 177 224 285 347 407
#     4  11  22  41  65 101 133 168 226 295 337 405
#     4  12  26  43  67  94 135 183 230 275 342 427
#     4  11  22  43  66  92 130 180 220 272 346 411
#     4  11  25  39  65  99 135 170 226 291 346 388
#     4  11  21  40  65  96 132 177 229 277 346 411
#
# _framework density 20.102823999999998
#
# number of rings (size 3 to 8) (size 9 to 14) (size 15 to 20)
#    0.000    0.875    5.000    3.375    1.750    4.000 
#    0.000    0.000    0.000    0.000    0.000    0.875 
#    0.000    0.000    0.000    0.000    0.000    0.000 
#
# Total GULP energy -356877.084256 kJ/mol
# GULP energy per Si atom -5576.204442 kJ/mol
# Density = 2.005707 g / cm^3
# Si number density = 20.102824 Si / 1000 Ang^3
#
#
#
# Elastic Constant Matrix: (Units=GPa)
#
#
# Indices 1 2 3 4 5 6 
#
# 1 68.4226 16.0630 35.4269 0.0000 0.0000 0.0000
# 2 16.0630 91.7270 33.2225 0.0000 0.0000 0.0000
# 3 35.4269 33.2225 109.6564 0.0000 0.0000 0.0000
# 4 0.0000 0.0000 0.0000 26.7905 0.0000 0.0000
# 5 0.0000 0.0000 0.0000 0.0000 36.7197 0.0000
# 6 0.0000 0.0000 0.0000 0.0000 0.0000 10.9020
#
#
#
# Elastic Compliance Matrix: (Units=1/GPa)
#
#
# Indices 1 2 3 4 5 6 
#
# 1 0.017659 -0.001153 -0.005356 0.000000 0.000000 0.000000
# 2 -0.001153 0.012321 -0.003361 0.000000 0.000000 0.000000
# 3 -0.005356 -0.003361 0.011868 0.000000 0.000000 0.000000
# 4 0.000000 0.000000 0.000000 0.037327 0.000000 0.000000
# 5 0.000000 0.000000 0.000000 0.000000 0.027233 0.000000
# 6 0.000000 0.000000 0.000000 0.000000 0.000000 0.091726
#
#
# Mechanical properties :
#
#
# Convention : Reuss Voigt Hill
#
# Bulk Modulus (GPa) = 45.22904 48.80342 47.01623
# Shear Modulus (GPa) = 22.19845 27.22202 24.71024
#
# Velocity S-wave (km/s) = 3.32662 3.68386 3.50979
# Velocity P-wave (km/s) = 6.10761 6.51337 6.31375
#
# Compressibility (1/GPa) = 0.02210969
#
# Stress axis : x y z
#
# Youngs Moduli (GPa) = 56.62935 81.16302 84.26127
#
# Poissons Ratio (x) = 0.09354 0.45129
# Poissons Ratio (y) = 0.06527 0.28316
# Poissons Ratio (z) = 0.30330 0.27275
#
# Static dielectric constant tensor:
#      x y z
#    x 1.833750 0.000000 0.000000 
#    y 0.000000 1.223540 0.000000 
#    z 0.000000 0.000000 1.784720 
# 
# From -- ./inp_files/21580.got.cif
#   From: 2010.05.17/outbox.cif.g08.bks.cpg/sg48_11_cif.got.tgz:21580.got - 2010.06.03 20:39:00.
