data_PCOD9391120
_publ_section_title
;
Structure prediction by ZEFSAII (Michael W. Deem and Ramdas Pophale) SiO2 
 PCOD9391120
Probable space group: P N N N
;
_chemical_formula_sum "Si O2"
_cell_formula_units_Z 48
_cell_length_a 25.894585
_cell_length_b 4.973372
_cell_length_c 15.591546
_cell_angle_alpha 90.000000
_cell_angle_beta 90.000000
_cell_angle_gamma 90.000000
_cell_volume 2007.932367
_symmetry_space_group_name_H-M "P N N N"
_symmetry_group_IT_number 48
_space_group.IT_coordinate_system_code '2'
_symmetry_cell_setting 'orthorhombic'
loop_
_space_group_symop_operation_xyz
x,y,z
1/2-x,1/2-y,z
x,1/2-y,1/2-z
1/2-x,y,1/2-z
-x,-y,-z
1/2+x,1/2+y,-z
-x,1/2+y,1/2+z
1/2+x,-y,1/2+z
loop_
_atom_site_type_symbol
_atom_site_label
_atom_site_fract_x
_atom_site_fract_y
_atom_site_fract_z
Si Si1 0.668255 0.087594 0.670617
Si Si2 0.250000 0.250000 0.750000
Si Si3 0.487498 0.274558 0.100425
Si Si4 0.308071 0.867407 0.999620
Si Si5 0.750000 0.750000 0.750000
Si Si6 0.946470 0.764563 0.415955
Si Si7 0.332146 0.118393 0.607307
Si Si8 0.920181 0.750000 0.750000
O O1 0.691218 0.250000 0.750000
O O2 0.666671 0.279769 0.589352
O O3 0.708640 0.847094 0.676059
O O4 0.614485 0.968049 0.701496
O O5 0.290537 0.110799 0.684367
O O6 0.512282 0.559688 0.125447
O O7 0.455547 0.137297 0.175476
O O8 0.534350 0.070383 0.082921
O O9 0.450952 0.313105 0.017341
O O10 0.250000 0.750000 0.003626
O O11 0.335558 0.680959 0.929014
O O12 0.312114 0.171854 0.966329
O O13 0.890274 0.719833 0.375910
#
# Coordination Sequence:
#
# PCOD9391120 Si02
#       8
#     8   2   8   8   2   8   8   4
#     4  11  26  40  67 102 145 196 235 292 345 441
#     4  12  28  52  72 110 142 182 256 314 370 432
#     4  10  23  43  70 101 142 175 241 290 362 428
#     4  12  25  45  72 103 147 190 234 286 368 431
#     4  10  22  42  56  98 140 190 242 286 332 406
#     4  10  23  45  71 100 133 189 228 299 362 439
#     4  12  27  47  75 106 141 191 240 312 370 443
#     4  11  26  41  68 106 144 191 232 305 352 430
#
# _framework density 23.905189
#
# number of rings (size 3 to 8) (size 9 to 14) (size 15 to 20)
#    0.000    1.000    1.667    3.250   11.667    4.000 
#    0.000    0.000    0.000    0.000    0.000    0.000 
#    0.000    0.000    0.000    0.000    0.000    0.000 
#
# Total GULP energy -267944.134062 kJ/mol
# GULP energy per Si atom -5582.169460 kJ/mol
# Density = 2.385078 g / cm^3
# Si number density = 23.905189 Si / 1000 Ang^3
#
#
#
# Elastic Constant Matrix: (Units=GPa)
#
#
# Indices 1 2 3 4 5 6 
#
# 1 109.5763 7.5398 33.5315 0.0000 0.0000 0.0000
# 2 7.5398 72.4013 6.9699 0.0000 0.0000 0.0000
# 3 33.5315 6.9699 94.4715 0.0000 0.0000 0.0000
# 4 0.0000 0.0000 0.0000 0.8879 0.0000 0.0000
# 5 0.0000 0.0000 0.0000 0.0000 17.5098 0.0000
# 6 0.0000 0.0000 0.0000 0.0000 0.0000 22.4689
#
#
#
# Elastic Compliance Matrix: (Units=1/GPa)
#
#
# Indices 1 2 3 4 5 6 
#
# 1 0.010276 -0.000724 -0.003594 0.000000 0.000000 0.000000
# 2 -0.000724 0.013962 -0.000773 0.000000 0.000000 0.000000
# 3 -0.003594 -0.000773 0.011918 0.000000 0.000000 0.000000
# 4 0.000000 0.000000 0.000000 1.126203 0.000000 0.000000
# 5 0.000000 0.000000 0.000000 0.000000 0.057111 0.000000
# 6 0.000000 0.000000 0.000000 0.000000 0.000000 0.044506
#
#
# Mechanical properties :
#
#
# Convention : Reuss Voigt Hill
#
# Bulk Modulus (GPa) = 38.50112 41.39236 39.94674
# Shear Modulus (GPa) = 3.89768 23.40052 13.64910
#
# Velocity S-wave (km/s) = 1.27829 3.13211 2.39209
# Velocity P-wave (km/s) = 4.28012 5.51661 4.93723
#
# Compressibility (1/GPa) = 0.02597327
#
# Stress axis : x y z
#
# Youngs Moduli (GPa) = 97.31769 71.62429 83.90806
#
# Poissons Ratio (x) = 0.05187 0.30155
# Poissons Ratio (y) = 0.07047 0.06486
# Poissons Ratio (z) = 0.34974 0.05537
#
# Static dielectric constant tensor:
#      x y z
#    x 1.977620 0.000000 0.000000 
#    y 0.000000 1.942370 0.000000 
#    z 0.000000 0.000000 1.967410 
# 
# From -- ./inp_files/28818.got.cif
#   From: 2010.05.17/outbox.cif.g08.bks.cpg/sg48_15_cif.got.tgz:28818.got - 2010.06.03 20:39:00.
