data_PCOD9391509
_publ_section_title
;
Structure prediction by ZEFSAII (Michael W. Deem and Ramdas Pophale) SiO2 
 PCOD9391509
Probable space group: P N N N
;
_chemical_formula_sum "Si O2"
_cell_formula_units_Z 56
_cell_length_a 12.183494
_cell_length_b 12.722569
_cell_length_c 19.051115
_cell_angle_alpha 90.000000
_cell_angle_beta 90.000000
_cell_angle_gamma 90.000000
_cell_volume 2953.024617
_symmetry_space_group_name_H-M "P N N N"
_symmetry_group_IT_number 48
_space_group.IT_coordinate_system_code '2'
_symmetry_cell_setting 'orthorhombic'
loop_
_space_group_symop_operation_xyz
x,y,z
1/2-x,1/2-y,z
x,1/2-y,1/2-z
1/2-x,y,1/2-z
-x,-y,-z
1/2+x,1/2+y,-z
-x,1/2+y,1/2+z
1/2+x,-y,1/2+z
loop_
_atom_site_type_symbol
_atom_site_label
_atom_site_fract_x
_atom_site_fract_y
_atom_site_fract_z
Si Si1 0.325503 0.346702 0.940444
Si Si2 0.946908 0.121356 0.417928
Si Si3 0.380083 0.874104 0.762186
Si Si4 0.689455 0.360078 0.892388
Si Si5 0.476701 0.480104 0.855598
Si Si6 0.667634 0.516716 0.537725
Si Si7 0.541717 0.156677 0.472231
O O1 0.250000 0.250000 0.920207
O O2 0.370973 0.409423 0.873799
O O3 0.256744 0.417200 0.994670
O O4 0.435070 0.313477 0.982178
O O5 0.907043 0.090432 0.341195
O O6 0.883106 0.063883 0.480896
O O7 0.930350 0.245849 0.423238
O O8 0.072701 0.090302 0.431695
O O9 0.404889 0.750000 0.750000
O O10 0.250000 0.887398 0.750000
O O11 0.450510 0.944659 0.708875
O O12 0.750000 0.250000 0.873685
O O13 0.584684 0.406158 0.849657
O O14 0.779580 0.450741 0.899338
O O15 0.639191 0.353240 0.971519
O O16 0.484422 0.554644 0.925362
#
# Coordination Sequence:
#
# PCOD9391509 Si02
#       7
#     8   8   8   8   8   8   8
#     4  11  20  34  58  91 125 163 200 258 313 358
#     4  11  23  35  58  93 122 155 204 251 308 372
#     4  11  24  40  63  89 127 165 196 248 316 392
#     4  11  21  35  62  93 124 164 208 262 312 360
#     4  11  22  38  60  92 131 168 205 250 313 383
#     4  11  21  36  59  85 123 156 202 263 305 348
#     4  11  19  33  59  96 126 154 201 255 315 371
#
# _framework density 18.963608000000001
#
# number of rings (size 3 to 8) (size 9 to 14) (size 15 to 20)
#    0.000    1.000    7.143    1.714    0.000    0.000 
#    0.000    0.714    0.000    9.857    0.000    0.000 
#    0.000    0.000    0.000    0.000    0.000    0.000 
#
# Total GULP energy -312579.741178 kJ/mol
# GULP energy per Si atom -5581.781092 kJ/mol
# Density = 1.892045 g / cm^3
# Si number density = 18.963608 Si / 1000 Ang^3
#
#
#
# Elastic Constant Matrix: (Units=GPa)
#
#
# Indices 1 2 3 4 5 6 
#
# 1 71.2521 28.2204 28.3305 0.0000 0.0000 0.0000
# 2 28.2204 97.5283 19.8553 0.0000 0.0000 0.0000
# 3 28.3305 19.8553 30.2057 0.0000 0.0000 0.0000
# 4 0.0000 0.0000 0.0000 28.8961 0.0000 0.0000
# 5 0.0000 0.0000 0.0000 0.0000 13.8026 0.0000
# 6 0.0000 0.0000 0.0000 0.0000 0.0000 33.1164
#
#
#
# Elastic Compliance Matrix: (Units=1/GPa)
#
#
# Indices 1 2 3 4 5 6 
#
# 1 0.022941 -0.002606 -0.019804 0.000000 0.000000 0.000000
# 2 -0.002606 0.012134 -0.005531 0.000000 0.000000 0.000000
# 3 -0.019804 -0.005531 0.055316 0.000000 0.000000 0.000000
# 4 0.000000 0.000000 0.000000 0.034607 0.000000 0.000000
# 5 0.000000 0.000000 0.000000 0.000000 0.072450 0.000000
# 6 0.000000 0.000000 0.000000 0.000000 0.000000 0.030197
#
#
# Mechanical properties :
#
#
# Convention : Reuss Voigt Hill
#
# Bulk Modulus (GPa) = 28.97831 39.08870 34.03351
# Shear Modulus (GPa) = 16.94745 23.33503 20.14124
#
# Velocity S-wave (km/s) = 2.99270 3.51168 3.26252
# Velocity P-wave (km/s) = 5.22071 6.09096 5.67255
#
# Compressibility (1/GPa) = 0.03450857
#
# Stress axis : x y z
#
# Youngs Moduli (GPa) = 43.58995 82.41502 18.07785
#
# Poissons Ratio (x) = 0.21481 0.35801
# Poissons Ratio (y) = 0.11361 0.09999
# Poissons Ratio (z) = 0.86324 0.45586
#
# Static dielectric constant tensor:
#      x y z
#    x 1.669280 0.000000 0.000000 
#    y 0.000000 1.687670 0.000000 
#    z 0.000000 0.000000 1.636130 
# 
# From -- ./inp_files/20244.got.cif
#   From: 2010.05.17/outbox.cif.g08.bks.cpg/sg48_11_cif.got.tgz:20244.got - 2010.06.03 20:39:00.
