data_PCOD9391155
_publ_section_title
;
Structure prediction by ZEFSAII (Michael W. Deem and Ramdas Pophale) SiO2 
 PCOD9391155
Probable space group: P N N N
;
_chemical_formula_sum "Si O2"
_cell_formula_units_Z 50
_cell_length_a 15.019341
_cell_length_b 17.072964
_cell_length_c 8.721045
_cell_angle_alpha 90.000000
_cell_angle_beta 90.000000
_cell_angle_gamma 90.000000
_cell_volume 2236.291070
_symmetry_space_group_name_H-M "P N N N"
_symmetry_group_IT_number 48
_space_group.IT_coordinate_system_code '2'
_symmetry_cell_setting 'orthorhombic'
loop_
_space_group_symop_operation_xyz
x,y,z
1/2-x,1/2-y,z
x,1/2-y,1/2-z
1/2-x,y,1/2-z
-x,-y,-z
1/2+x,1/2+y,-z
-x,1/2+y,1/2+z
1/2+x,-y,1/2+z
loop_
_atom_site_type_symbol
_atom_site_label
_atom_site_fract_x
_atom_site_fract_y
_atom_site_fract_z
Si Si1 0.268902 0.487466 0.934164
Si Si2 0.912529 0.950466 0.544624
Si Si3 0.492781 0.768904 0.589864
Si Si4 0.879367 0.123084 0.905486
Si Si5 0.517104 0.834507 0.169271
Si Si6 0.750000 0.250000 0.750000
Si Si7 0.158276 0.139717 0.160151
O O1 0.250000 0.488955 0.750000
O O2 0.175294 0.500594 0.020339
O O3 0.330321 0.553758 0.010041
O O4 0.313205 0.408999 0.008304
O O5 0.905670 0.885335 0.406759
O O6 0.901293 0.908833 0.711952
O O7 0.000000 0.000000 0.500000
O O8 0.452783 0.750000 0.750000
O O9 0.448884 0.845595 0.527919
O O10 0.469087 0.697606 0.481245
O O11 0.597663 0.787712 0.605769
O O12 0.812188 0.191607 0.849694
O O13 0.948086 0.112790 0.763816
O O14 0.539401 0.750000 0.250000
O O15 0.250000 0.157369 0.250000
#
# Coordination Sequence:
#
# PCOD9391155 Si02
#       7
#     8   8   8   8   8   2   8
#     4  11  28  44  65 106 142 188 245 303 379 435
#     4  11  24  43  70  99 142 189 247 297 369 447
#     4  11  22  43  73 103 137 177 245 294 378 432
#     4  11  26  44  71  99 145 190 239 307 366 454
#     4  10  22  43  68 103 135 192 239 298 376 447
#     4  12  24  44  70 100 140 190 248 292 376 440
#     4  10  24  45  67 100 141 186 235 304 369 449
#
# _framework density 22.358449
#
# number of rings (size 3 to 8) (size 9 to 14) (size 15 to 20)
#    0.000    1.280    4.000    0.960   12.320    2.240 
#    0.000    0.000    0.000    0.000    0.000    0.000 
#    0.000    0.000    0.000    0.000    0.000    0.000 
#
# Total GULP energy -278578.237907 kJ/mol
# GULP energy per Si atom -5571.564758 kJ/mol
# Density = 2.230756 g / cm^3
# Si number density = 22.358449 Si / 1000 Ang^3
#
#
#
# Elastic Constant Matrix: (Units=GPa)
#
#
# Indices 1 2 3 4 5 6 
#
# 1 74.1799 12.3007 19.7378 0.0000 0.0000 0.0000
# 2 12.3007 42.4100 33.1064 0.0000 0.0000 0.0000
# 3 19.7378 33.1064 161.6172 0.0000 0.0000 0.0000
# 4 0.0000 0.0000 0.0000 -19.0132 0.0000 0.0000
# 5 0.0000 0.0000 0.0000 0.0000 93.7056 0.0000
# 6 0.0000 0.0000 0.0000 0.0000 0.0000 56.2448
#
#
#
# Elastic Compliance Matrix: (Units=1/GPa)
#
#
# Indices 1 2 3 4 5 6 
#
# 1 0.014315 -0.003318 -0.001069 0.000000 0.000000 0.000000
# 2 -0.003318 0.028837 -0.005502 0.000000 0.000000 0.000000
# 3 -0.001069 -0.005502 0.007445 0.000000 0.000000 0.000000
# 4 0.000000 0.000000 0.000000 -0.052595 0.000000 0.000000
# 5 0.000000 0.000000 0.000000 0.000000 0.010672 0.000000
# 6 0.000000 0.000000 0.000000 0.000000 0.000000 0.017779
#
#
# Mechanical properties :
#
#
# Convention : Reuss Voigt Hill
#
# Bulk Modulus (GPa) = 32.44624 45.38855 38.91739
# Shear Modulus (GPa) = 88.49105 40.39158 64.44131
#
# Velocity S-wave (km/s) = 6.29796 4.25496 5.37443
# Velocity P-wave (km/s) = 8.21152 6.66964 7.48041
#
# Compressibility (1/GPa) = 0.03082022
#
# Stress axis : x y z
#
# Youngs Moduli (GPa) = 69.85549 34.67822 134.31865
#
# Poissons Ratio (x) = 0.11506 0.14354
# Poissons Ratio (y) = 0.23177 0.73900
# Poissons Ratio (z) = 0.07465 0.19079
#
# Static dielectric constant tensor:
#      x y z
#    x 1.943390 0.000000 0.000000 
#    y 0.000000 1.855430 0.000000 
#    z 0.000000 0.000000 1.873030 
# 
# From -- ./inp_files/12833.got.cif
#   From: 2010.05.17/outbox.cif.g08.bks.cpg/sg48_7_cif.got.tgz:12833.got - 2010.06.03 20:39:00.
