data_PCOD9391046
_publ_section_title
;
Structure prediction by ZEFSAII (Michael W. Deem and Ramdas Pophale) SiO2 
 PCOD9391046
Probable space group: P N N N
;
_chemical_formula_sum "Si O2"
_cell_formula_units_Z 40
_cell_length_a 7.769905
_cell_length_b 8.209757
_cell_length_c 28.304182
_cell_angle_alpha 90.000000
_cell_angle_beta 90.000000
_cell_angle_gamma 90.000000
_cell_volume 1805.496370
_symmetry_space_group_name_H-M "P N N N"
_symmetry_group_IT_number 48
_space_group.IT_coordinate_system_code '2'
_symmetry_cell_setting 'orthorhombic'
loop_
_space_group_symop_operation_xyz
x,y,z
1/2-x,1/2-y,z
x,1/2-y,1/2-z
1/2-x,y,1/2-z
-x,-y,-z
1/2+x,1/2+y,-z
-x,1/2+y,1/2+z
1/2+x,-y,1/2+z
loop_
_atom_site_type_symbol
_atom_site_label
_atom_site_fract_x
_atom_site_fract_y
_atom_site_fract_z
Si Si1 0.750000 0.750000 0.750000
Si Si2 0.996348 0.593372 0.429869
Si Si3 0.485591 0.507574 0.305820
Si Si4 0.656700 0.074771 0.094551
Si Si5 0.250000 0.750000 0.143752
Si Si6 0.250000 0.250000 0.750000
Si Si7 0.055789 0.256342 0.473746
O O1 0.612741 0.636674 0.721647
O O2 0.795350 0.563991 0.417594
O O3 0.039408 0.684781 0.479003
O O4 0.097404 0.681840 0.388725
O O5 0.057112 0.407523 0.437227
O O6 0.577582 0.447762 0.353966
O O7 0.327253 0.614489 0.323253
O O8 0.622422 0.625519 0.278618
O O9 0.750000 0.250000 0.093140
O O10 0.516889 0.098260 0.052747
O O11 0.250000 0.250000 0.489487
#
# Coordination Sequence:
#
# PCOD9391046 Si02
#       7
#     2   8   8   8   4   2   8
#     4  12  32  48  80 116 142 184 244 320 396 460
#     4  10  24  39  64 101 143 192 242 289 352 428
#     4  12  28  49  79 107 147 185 245 308 388 453
#     4  10  24  42  69 100 140 187 248 296 356 438
#     4  12  26  45  72 102 150 190 236 297 374 450
#     4  12  28  52  84 108 146 192 244 324 392 468
#     4  10  22  39  63  95 144 188 247 291 345 410
#
# _framework density 22.154572000000002
#
# number of rings (size 3 to 8) (size 9 to 14) (size 15 to 20)
#    0.000    1.200    0.000    3.600   19.600    0.800 
#    0.000    0.000    0.000    0.000    0.000    0.000 
#    0.000    0.000    0.000    0.000    0.000    0.000 
#
# Total GULP energy -223418.024097 kJ/mol
# GULP energy per Si atom -5585.450602 kJ/mol
# Density = 2.210415 g / cm^3
# Si number density = 22.154572 Si / 1000 Ang^3
#
#
#
# Elastic Constant Matrix: (Units=GPa)
#
#
# Indices 1 2 3 4 5 6 
#
# 1 88.4583 42.9728 36.8217 0.0000 0.0000 0.0000
# 2 42.9728 109.0200 60.3085 0.0000 0.0000 0.0000
# 3 36.8217 60.3085 102.6806 0.0000 0.0000 0.0000
# 4 0.0000 0.0000 0.0000 15.5596 0.0000 0.0000
# 5 0.0000 0.0000 0.0000 0.0000 27.3928 0.0000
# 6 0.0000 0.0000 0.0000 0.0000 0.0000 27.9794
#
#
#
# Elastic Compliance Matrix: (Units=1/GPa)
#
#
# Indices 1 2 3 4 5 6 
#
# 1 0.014480 -0.004200 -0.002726 0.000000 0.000000 0.000000
# 2 -0.004200 0.014805 -0.007190 0.000000 0.000000 0.000000
# 3 -0.002726 -0.007190 0.014939 0.000000 0.000000 0.000000
# 4 0.000000 0.000000 0.000000 0.064269 0.000000 0.000000
# 5 0.000000 0.000000 0.000000 0.000000 0.036506 0.000000
# 6 0.000000 0.000000 0.000000 0.000000 0.000000 0.035741
#
#
# Mechanical properties :
#
#
# Convention : Reuss Voigt Hill
#
# Bulk Modulus (GPa) = 62.52437 64.48500 63.50468
# Shear Modulus (GPa) = 23.33167 24.85677 24.09422
#
# Velocity S-wave (km/s) = 3.24872 3.35322 3.30138
# Velocity P-wave (km/s) = 6.50810 6.64546 6.57714
#
# Compressibility (1/GPa) = 0.01599376
#
# Stress axis : x y z
#
# Youngs Moduli (GPa) = 69.06285 67.54349 66.93759
#
# Poissons Ratio (x) = 0.28365 0.18246
# Poissons Ratio (y) = 0.29003 0.48127
# Poissons Ratio (z) = 0.18826 0.48562
#
# Static dielectric constant tensor:
#      x y z
#    x 1.479760 0.000000 0.000000 
#    y 0.000000 1.787120 0.000000 
#    z 0.000000 0.000000 1.798770 
# 
# From -- ./inp_files/37424.got.cif
#   From: 2010.05.17/outbox.cif.g08.bks.cpg/sg48_19_cif.got.tgz:37424.got - 2010.06.03 20:39:00.
