data_PCOD9391208
_publ_section_title
;
Structure prediction by ZEFSAII (Michael W. Deem and Ramdas Pophale) SiO2 
 PCOD9391208
Probable space group: P N N N
;
_chemical_formula_sum "Si O2"
_cell_formula_units_Z 36
_cell_length_a 22.453474
_cell_length_b 13.838462
_cell_length_c 5.095809
_cell_angle_alpha 90.000000
_cell_angle_beta 90.000000
_cell_angle_gamma 90.000000
_cell_volume 1583.377654
_symmetry_space_group_name_H-M "P N N N"
_symmetry_group_IT_number 48
_space_group.IT_coordinate_system_code '2'
_symmetry_cell_setting 'orthorhombic'
loop_
_space_group_symop_operation_xyz
x,y,z
1/2-x,1/2-y,z
x,1/2-y,1/2-z
1/2-x,y,1/2-z
-x,-y,-z
1/2+x,1/2+y,-z
-x,1/2+y,1/2+z
1/2+x,-y,1/2+z
loop_
_atom_site_type_symbol
_atom_site_label
_atom_site_fract_x
_atom_site_fract_y
_atom_site_fract_z
Si Si1 0.969936 0.750000 0.750000
Si Si2 0.750000 0.250000 0.750000
Si Si3 0.192127 0.091651 0.594644
Si Si4 0.388753 0.250000 0.750000
Si Si5 0.847258 0.096483 0.598350
Si Si6 0.414685 0.648760 0.877685
Si Si7 0.750000 0.750000 0.750000
O O1 0.929991 0.771261 0.501066
O O2 0.014990 0.836945 0.837464
O O3 0.794004 0.175861 0.596102
O O4 0.250000 0.053845 0.750000
O O5 0.145835 0.147046 0.787320
O O6 0.210553 0.184892 0.432374
O O7 0.176891 0.011280 0.376718
O O8 0.882435 0.079386 0.325113
O O9 0.891772 0.130072 0.830180
O O10 0.392159 0.750000 0.750000
#
# Coordination Sequence:
#
# PCOD9391208 Si02
#       7
#     4   2   8   4   8   8   2
#     4  10  23  44  81  95 140 196 253 298 384 424
#     4  12  22  44  64 108 142 186 238 282 366 464
#     4  12  28  44  72 107 153 191 252 306 377 443
#     4  12  23  47  72 106 133 207 252 310 360 438
#     4  12  26  40  73 106 143 193 235 294 376 453
#     4  10  22  47  67  97 146 187 225 305 369 424
#     4  12  22  52  64  92 156 202 228 314 364 422
#
# _framework density 22.736204000000001
#
# number of rings (size 3 to 8) (size 9 to 14) (size 15 to 20)
#    0.667    0.000    4.444    2.667    6.222    0.889 
#    0.000    6.667    0.000    0.000    0.000    0.000 
#    0.000    0.000    0.000    0.000    0.000    0.000 
#
# Total GULP energy -200603.350569 kJ/mol
# GULP energy per Si atom -5572.315294 kJ/mol
# Density = 2.268446 g / cm^3
# Si number density = 22.736204 Si / 1000 Ang^3
#
#
#
# Elastic Constant Matrix: (Units=GPa)
#
#
# Indices 1 2 3 4 5 6 
#
# 1 103.2195 16.4642 23.8047 0.0000 0.0000 0.0000
# 2 16.4642 109.5722 -7.0274 0.0000 0.0000 0.0000
# 3 23.8047 -7.0274 61.0341 0.0000 0.0000 0.0000
# 4 0.0000 0.0000 0.0000 61.4736 0.0000 0.0000
# 5 0.0000 0.0000 0.0000 0.0000 39.7261 0.0000
# 6 0.0000 0.0000 0.0000 0.0000 0.0000 -5.9737
#
#
#
# Elastic Compliance Matrix: (Units=1/GPa)
#
#
# Indices 1 2 3 4 5 6 
#
# 1 0.011044 -0.001950 -0.004532 0.000000 0.000000 0.000000
# 2 -0.001950 0.009539 0.001859 0.000000 0.000000 0.000000
# 3 -0.004532 0.001859 0.018366 0.000000 0.000000 0.000000
# 4 0.000000 0.000000 0.000000 0.016267 0.000000 0.000000
# 5 0.000000 0.000000 0.000000 0.000000 0.025172 0.000000
# 6 0.000000 0.000000 0.000000 0.000000 0.000000 -0.167401
#
#
# Mechanical properties :
#
#
# Convention : Reuss Voigt Hill
#
# Bulk Modulus (GPa) = 33.66760 37.81210 35.73985
# Shear Modulus (GPa) = -73.67554 35.08416 -19.29569
#
# Velocity S-wave (km/s) = -5.69867 3.93249 -2.91637
# Velocity P-wave (km/s) = 5.33477 6.10624 2.10077
#
# Compressibility (1/GPa) = 0.02970215
#
# Stress axis : x y z
#
# Youngs Moduli (GPa) = 90.54396 104.83661 54.44865
#
# Poissons Ratio (x) = 0.20445 0.24677
# Poissons Ratio (y) = 0.17658 -0.10121
# Poissons Ratio (z) = 0.41035 -0.19488
#
# Static dielectric constant tensor:
#      x y z
#    x 2.263120 0.000000 0.000000 
#    y 0.000000 1.985190 0.000000 
#    z 0.000000 0.000000 1.979510 
# 
# From -- ./inp_files/5766.got.cif
#   From: 2010.05.17/outbox.cif.g08.bks.cpg/sg48_3_cif.got.tgz:5766.got - 2010.06.03 20:39:00.
