data_PCOD9391225
_publ_section_title
;
Structure prediction by ZEFSAII (Michael W. Deem and Ramdas Pophale) SiO2 
 PCOD9391225
Probable space group: P N N N
;
_chemical_formula_sum "Si O2"
_cell_formula_units_Z 54
_cell_length_a 5.403755
_cell_length_b 22.669120
_cell_length_c 21.216011
_cell_angle_alpha 90.000000
_cell_angle_beta 90.000000
_cell_angle_gamma 90.000000
_cell_volume 2598.926777
_symmetry_space_group_name_H-M "P N N N"
_symmetry_group_IT_number 48
_space_group.IT_coordinate_system_code '2'
_symmetry_cell_setting 'orthorhombic'
loop_
_space_group_symop_operation_xyz
x,y,z
1/2-x,1/2-y,z
x,1/2-y,1/2-z
1/2-x,y,1/2-z
-x,-y,-z
1/2+x,1/2+y,-z
-x,1/2+y,1/2+z
1/2+x,-y,1/2+z
loop_
_atom_site_type_symbol
_atom_site_label
_atom_site_fract_x
_atom_site_fract_y
_atom_site_fract_z
Si Si1 0.250000 0.250000 0.750000
Si Si2 0.471667 0.069149 0.131284
Si Si3 0.409697 0.658886 0.191487
Si Si4 0.318375 0.375037 0.489086
Si Si5 0.750000 0.433967 0.250000
Si Si6 0.696600 0.988404 0.446525
Si Si7 0.586958 0.025818 0.675373
Si Si8 0.194397 0.819412 0.046173
O O1 0.359191 0.297960 0.800455
O O2 0.301782 0.109328 0.085948
O O3 0.598267 0.097217 0.193372
O O4 0.678681 0.045468 0.083120
O O5 0.336978 0.008773 0.155435
O O6 0.250000 0.682906 0.250000
O O7 0.435554 0.589477 0.206948
O O8 0.303441 0.662683 0.120650
O O9 0.361874 0.437406 0.525016
O O10 0.571185 0.342409 0.506310
O O11 0.068089 0.343012 0.515838
O O12 0.558221 0.476758 0.214689
O O13 0.550641 0.961225 0.388998
O O14 0.500000 0.000000 0.500000
O O15 0.250000 0.750000 0.046010
#
# Coordination Sequence:
#
# PCOD9391225 Si02
#       8
#     2   8   8   8   4   8   8   8
#     4  12  28  44  60  86 124 192 260 286 328 380
#     4  11  23  38  66  95 141 170 224 265 354 427
#     4  12  26  42  65  88 127 187 244 297 336 382
#     4  12  25  43  69  99 134 182 223 282 353 416
#     4  10  23  38  60  95 141 174 207 274 324 426
#     4  11  21  37  60  97 135 176 220 272 331 424
#     4  11  22  39  63  93 133 175 220 279 341 400
#     4  12  28  46  69  97 134 178 237 298 345 395
#
# _framework density 20.777806999999999
#
# number of rings (size 3 to 8) (size 9 to 14) (size 15 to 20)
#    0.000    0.593    2.963    5.556    6.222    2.370 
#    0.000    0.000    0.000    0.000    0.000    0.519 
#    0.000    0.000    0.000    0.000    0.000    0.000 
#
# Total GULP energy -300772.517542 kJ/mol
# GULP energy per Si atom -5569.861436 kJ/mol
# Density = 2.073052 g / cm^3
# Si number density = 20.777807 Si / 1000 Ang^3
#
#
#
# Elastic Constant Matrix: (Units=GPa)
#
#
# Indices 1 2 3 4 5 6 
#
# 1 72.0274 8.8925 31.5017 0.0000 0.0000 0.0000
# 2 8.8925 42.0199 3.9606 0.0000 0.0000 0.0000
# 3 31.5017 3.9606 120.0344 0.0000 0.0000 0.0000
# 4 0.0000 0.0000 0.0000 12.1788 0.0000 0.0000
# 5 0.0000 0.0000 0.0000 0.0000 45.3257 0.0000
# 6 0.0000 0.0000 0.0000 0.0000 0.0000 23.7794
#
#
#
# Elastic Compliance Matrix: (Units=1/GPa)
#
#
# Indices 1 2 3 4 5 6 
#
# 1 0.016054 -0.003010 -0.004114 0.000000 0.000000 0.000000
# 2 -0.003010 0.024437 -0.000016 0.000000 0.000000 0.000000
# 3 -0.004114 -0.000016 0.009411 0.000000 0.000000 0.000000
# 4 0.000000 0.000000 0.000000 0.082110 0.000000 0.000000
# 5 0.000000 0.000000 0.000000 0.000000 0.022063 0.000000
# 6 0.000000 0.000000 0.000000 0.000000 0.000000 0.042053
#
#
# Mechanical properties :
#
#
# Convention : Reuss Voigt Hill
#
# Bulk Modulus (GPa) = 28.07259 35.86572 31.96915
# Shear Modulus (GPa) = 22.49395 28.90526 25.69960
#
# Velocity S-wave (km/s) = 3.29385 3.73387 3.52074
# Velocity P-wave (km/s) = 5.29208 5.99067 5.65218
#
# Compressibility (1/GPa) = 0.03562194
#
# Stress axis : x y z
#
# Youngs Moduli (GPa) = 62.28793 40.92202 106.25677
#
# Poissons Ratio (x) = 0.12317 0.43714
# Poissons Ratio (y) = 0.18747 0.00175
# Poissons Ratio (z) = 0.25625 0.00067
#
# Static dielectric constant tensor:
#      x y z
#    x 1.932890 0.000000 0.000000 
#    y 0.000000 1.814240 0.000000 
#    z 0.000000 0.000000 1.834110 
# 
# From -- ./inp_files/32991.got.cif
#   From: 2010.05.17/outbox.cif.g08.bks.cpg/sg48_17_cif.got.tgz:32991.got - 2010.06.03 20:39:00.
