data_PCOD9391690
_publ_section_title
;
Structure prediction by ZEFSAII (Michael W. Deem and Ramdas Pophale) SiO2 
 PCOD9391690
Probable space group: P N N N
;
_chemical_formula_sum "Si O2"
_cell_formula_units_Z 28
_cell_length_a 6.875248
_cell_length_b 13.728097
_cell_length_c 13.187786
_cell_angle_alpha 90.000000
_cell_angle_beta 90.000000
_cell_angle_gamma 90.000000
_cell_volume 1244.716936
_symmetry_space_group_name_H-M "P N N N"
_symmetry_group_IT_number 48
_space_group.IT_coordinate_system_code '2'
_symmetry_cell_setting 'orthorhombic'
loop_
_space_group_symop_operation_xyz
x,y,z
1/2-x,1/2-y,z
x,1/2-y,1/2-z
1/2-x,y,1/2-z
-x,-y,-z
1/2+x,1/2+y,-z
-x,1/2+y,1/2+z
1/2+x,-y,1/2+z
loop_
_atom_site_type_symbol
_atom_site_label
_atom_site_fract_x
_atom_site_fract_y
_atom_site_fract_z
Si Si1 0.457432 0.904609 0.605490
Si Si2 0.813812 0.019546 0.566665
Si Si3 0.250000 0.750000 0.750000
Si Si4 0.536580 0.599843 0.233672
Si Si5 0.250000 0.750000 0.250000
O O1 0.329041 0.914485 0.503662
O O2 0.383157 0.817848 0.676929
O O3 0.688167 0.920193 0.585185
O O4 0.424625 0.005571 0.666120
O O5 0.911788 0.062631 0.669059
O O6 0.000000 0.000000 0.500000
O O7 0.750000 0.640333 0.250000
O O8 0.400558 0.683835 0.188206
#
# Coordination Sequence:
#
# PCOD9391690 Si02
#       5
#     8   8   2   8   2
#     4  11  24  44  75 106 152 194 255 319 391 462
#     4  11  22  44  74 104 147 200 244 324 385 460
#     4  12  24  50  78 114 152 208 260 318 398 482
#     4  12  23  46  72 103 144 193 247 321 375 464
#     4  12  26  42  72 100 136 194 250 292 398 440
#
# _framework density 22.495073000000001
#
# number of rings (size 3 to 8) (size 9 to 14) (size 15 to 20)
#    0.000    0.571    7.143    0.429    0.000    1.143 
#    0.000   11.429    0.000    0.000    0.000    0.000 
#    0.000    0.000    0.000    0.000    0.000    0.000 
#
# Total GULP energy -156010.679130 kJ/mol
# GULP energy per Si atom -5571.809969 kJ/mol
# Density = 2.244387 g / cm^3
# Si number density = 22.495073 Si / 1000 Ang^3
#
#
#
# Elastic Constant Matrix: (Units=GPa)
#
#
# Indices 1 2 3 4 5 6 
#
# 1 216.9724 67.0683 65.4789 0.0000 0.0000 0.0000
# 2 67.0683 123.6041 56.3260 0.0000 0.0000 0.0000
# 3 65.4789 56.3260 144.4420 0.0000 0.0000 0.0000
# 4 0.0000 0.0000 0.0000 33.2328 0.0000 0.0000
# 5 0.0000 0.0000 0.0000 0.0000 47.9671 0.0000
# 6 0.0000 0.0000 0.0000 0.0000 0.0000 -103.8381
#
#
#
# Elastic Compliance Matrix: (Units=1/GPa)
#
#
# Indices 1 2 3 4 5 6 
#
# 1 0.005871 -0.002399 -0.001726 0.000000 0.000000 0.000000
# 2 -0.002399 0.010819 -0.003131 0.000000 0.000000 0.000000
# 3 -0.001726 -0.003131 0.008927 0.000000 0.000000 0.000000
# 4 0.000000 0.000000 0.000000 0.030091 0.000000 0.000000
# 5 0.000000 0.000000 0.000000 0.000000 0.020848 0.000000
# 6 0.000000 0.000000 0.000000 0.000000 0.000000 -0.009630
#
#
# Mechanical properties :
#
#
# Convention : Reuss Voigt Hill
#
# Bulk Modulus (GPa) = 90.05795 95.86276 92.96035
# Shear Modulus (GPa) = 58.72679 15.21537 36.97108
#
# Velocity S-wave (km/s) = 5.11500 2.60357 4.05843
# Velocity P-wave (km/s) = 8.66058 7.19344 7.96088
#
# Compressibility (1/GPa) = 0.01110396
#
# Stress axis : x y z
#
# Youngs Moduli (GPa) = 170.31651 92.42850 112.02319
#
# Poissons Ratio (x) = 0.22177 0.19335
# Poissons Ratio (y) = 0.40864 0.35078
# Poissons Ratio (z) = 0.29397 0.28942
#
# Static dielectric constant tensor:
#      x y z
#    x 1.832340 0.000000 0.000000 
#    y 0.000000 1.919120 0.000000 
#    z 0.000000 0.000000 1.904340 
# 
# From -- ./inp_files/29142.got.cif
#   From: 2010.05.17/outbox.cif.g08.bks.cpg/sg48_15_cif.got.tgz:29142.got - 2010.06.03 20:39:00.
