data_PCOD9391290
_publ_section_title
;
Structure prediction by ZEFSAII (Michael W. Deem and Ramdas Pophale) SiO2 
 PCOD9391290
Probable space group: P N N N
;
_chemical_formula_sum "Si O2"
_cell_formula_units_Z 38
_cell_length_a 5.524748
_cell_length_b 19.027576
_cell_length_c 14.941076
_cell_angle_alpha 90.000000
_cell_angle_beta 90.000000
_cell_angle_gamma 90.000000
_cell_volume 1570.644195
_symmetry_space_group_name_H-M "P N N N"
_symmetry_group_IT_number 48
_space_group.IT_coordinate_system_code '2'
_symmetry_cell_setting 'orthorhombic'
loop_
_space_group_symop_operation_xyz
x,y,z
1/2-x,1/2-y,z
x,1/2-y,1/2-z
1/2-x,y,1/2-z
-x,-y,-z
1/2+x,1/2+y,-z
-x,1/2+y,1/2+z
1/2+x,-y,1/2+z
loop_
_atom_site_type_symbol
_atom_site_label
_atom_site_fract_x
_atom_site_fract_y
_atom_site_fract_z
Si Si1 0.053383 0.688353 0.593243
Si Si2 0.564957 0.477740 0.601370
Si Si3 0.141528 0.675747 0.151795
Si Si4 0.436332 0.527860 0.899689
Si Si5 0.250000 0.250000 0.250000
Si Si6 0.750000 0.750000 0.066332
O O1 0.250000 0.750000 0.590101
O O2 0.143713 0.608972 0.596231
O O3 0.906297 0.702556 0.683639
O O4 0.891115 0.700863 0.505194
O O5 0.500000 0.500000 0.500000
O O6 0.666229 0.398404 0.604299
O O7 0.293863 0.486684 0.642252
O O8 0.791593 0.521547 0.641143
O O9 0.250000 0.750000 0.115987
O O10 0.250000 0.668604 0.250000
O O11 0.864707 0.694533 0.135060
O O12 0.500000 0.500000 0.000000
#
# Coordination Sequence:
#
# PCOD9391290 Si02
#       6
#     8   8   8   8   2   4
#     4  11  25  45  79 115 152 212 270 341 396 497
#     4  10  23  44  72 107 148 200 256 331 392 489
#     4  11  27  47  71 108 157 208 271 329 407 471
#     4  10  23  42  74 109 151 191 262 325 398 474
#     4  10  26  48  72 112 168 198 276 330 426 462
#     4  11  24  42  80 105 148 204 278 330 398 480
#
# _framework density 24.193895999999999
#
# number of rings (size 3 to 8) (size 9 to 14) (size 15 to 20)
#    0.000    1.474    0.000    3.474   20.632    1.684 
#    1.895    0.000    0.000    0.000    0.000    0.000 
#    0.000    0.000    0.000    0.000    0.000    0.000 
#
# Total GULP energy -211814.912739 kJ/mol
# GULP energy per Si atom -5574.076651 kJ/mol
# Density = 2.413883 g / cm^3
# Si number density = 24.193896 Si / 1000 Ang^3
#
#
#
# Elastic Constant Matrix: (Units=GPa)
#
#
# Indices 1 2 3 4 5 6 
#
# 1 135.6544 30.0358 40.7629 0.0000 0.0000 0.0000
# 2 30.0358 192.4620 32.0258 0.0000 0.0000 0.0000
# 3 40.7629 32.0258 145.2790 0.0000 0.0000 0.0000
# 4 0.0000 0.0000 0.0000 17.4303 0.0000 0.0000
# 5 0.0000 0.0000 0.0000 0.0000 -385.1700 0.0000
# 6 0.0000 0.0000 0.0000 0.0000 0.0000 40.9272
#
#
#
# Elastic Compliance Matrix: (Units=1/GPa)
#
#
# Indices 1 2 3 4 5 6 
#
# 1 0.008208 -0.000932 -0.002098 0.000000 0.000000 0.000000
# 2 -0.000932 0.005499 -0.000951 0.000000 0.000000 0.000000
# 3 -0.002098 -0.000951 0.007681 0.000000 0.000000 0.000000
# 4 0.000000 0.000000 0.000000 0.057371 0.000000 0.000000
# 5 0.000000 0.000000 0.000000 0.000000 -0.002596 0.000000
# 6 0.000000 0.000000 0.000000 0.000000 0.000000 0.024434
#
#
# Mechanical properties :
#
#
# Convention : Reuss Voigt Hill
#
# Bulk Modulus (GPa) = 74.46910 75.44939 74.95924
# Shear Modulus (GPa) = 44.23401 -40.65779 1.78811
#
# Velocity S-wave (km/s) = 4.28052 -4.10383 0.86063
# Velocity P-wave (km/s) = 7.43487 2.96610 5.66017
#
# Compressibility (1/GPa) = 0.01342839
#
# Stress axis : x y z
#
# Youngs Moduli (GPa) = 121.82708 181.83496 130.18308
#
# Poissons Ratio (x) = 0.16946 0.27308
# Poissons Ratio (y) = 0.11354 0.12378
# Poissons Ratio (z) = 0.25556 0.17290
#
# Static dielectric constant tensor:
#      x y z
#    x 2.248240 0.000000 0.000000 
#    y 0.000000 1.946340 0.000000 
#    z 0.000000 0.000000 1.950940 
# 
# From -- ./inp_files/29321.got.cif
#   From: 2010.05.17/outbox.cif.g08.bks.cpg/sg48_15_cif.got.tgz:29321.got - 2010.06.03 20:39:00.
