data_PCOD9391580
_publ_section_title
;
Structure prediction by ZEFSAII (Michael W. Deem and Ramdas Pophale) SiO2 
 PCOD9391580
Probable space group: P N N N
;
_chemical_formula_sum "Si O2"
_cell_formula_units_Z 48
_cell_length_a 10.026825
_cell_length_b 25.417341
_cell_length_c 10.028295
_cell_angle_alpha 90.000000
_cell_angle_beta 90.000000
_cell_angle_gamma 90.000000
_cell_volume 2555.763430
_symmetry_space_group_name_H-M "P N N N"
_symmetry_group_IT_number 48
_space_group.IT_coordinate_system_code '2'
_symmetry_cell_setting 'orthorhombic'
loop_
_space_group_symop_operation_xyz
x,y,z
1/2-x,1/2-y,z
x,1/2-y,1/2-z
1/2-x,y,1/2-z
-x,-y,-z
1/2+x,1/2+y,-z
-x,1/2+y,1/2+z
1/2+x,-y,1/2+z
loop_
_atom_site_type_symbol
_atom_site_label
_atom_site_fract_x
_atom_site_fract_y
_atom_site_fract_z
Si Si1 0.051556 0.890344 0.037709
Si Si2 0.975765 0.080023 0.247105
Si Si3 0.170846 0.499946 0.122814
Si Si4 0.088074 0.689722 0.241315
Si Si5 0.155275 0.474039 0.636212
Si Si6 0.872938 0.393308 0.978820
O O1 0.028057 0.841201 0.133326
O O2 0.973988 0.939751 0.101275
O O3 0.000606 0.886572 0.885797
O O4 0.212213 0.895720 0.035398
O O5 0.904252 0.111011 0.365358
O O6 0.099198 0.051052 0.317129
O O7 0.890268 0.030284 0.193875
O O8 0.250000 0.522164 0.250000
O O9 0.262975 0.483353 0.999389
O O10 0.080352 0.548672 0.071800
O O11 0.043023 0.750000 0.250000
O O12 0.250000 0.690707 0.250000
O O13 0.066600 0.653328 0.110385
O O14 0.250000 0.449644 0.750000
#
# Coordination Sequence:
#
# PCOD9391580 Si02
#       6
#     8   8   8   8   8   8
#     4  11  21  37  56  79 116 149 187 235 280 333
#     4  12  22  35  51  83 121 156 188 223 276 342
#     4  12  22  35  53  81 122 161 188 224 273 338
#     4   9  20  38  60  82 105 142 193 243 290 334
#     4  12  23  36  52  83 122 157 192 224 270 342
#     4  11  21  35  55  82 113 152 188 228 281 334
#
# _framework density 18.781079999999999
#
# number of rings (size 3 to 8) (size 9 to 14) (size 15 to 20)
#    0.000    0.833    5.000    5.000    2.333    0.000 
#    0.000    0.833    0.000    4.500    0.000    0.000 
#    0.000    0.000    0.000    0.000    0.000    0.000 
#
# Total GULP energy -268038.556974 kJ/mol
# GULP energy per Si atom -5584.136604 kJ/mol
# Density = 1.873833 g / cm^3
# Si number density = 18.781080 Si / 1000 Ang^3
#
#
#
# Elastic Constant Matrix: (Units=GPa)
#
#
# Indices 1 2 3 4 5 6 
#
# 1 39.0192 18.7637 39.3646 0.0000 0.0000 0.0000
# 2 18.7637 116.8847 73.7003 0.0000 0.0000 0.0000
# 3 39.3646 73.7003 190.1442 0.0000 0.0000 0.0000
# 4 0.0000 0.0000 0.0000 15.7623 0.0000 0.0000
# 5 0.0000 0.0000 0.0000 0.0000 31.8338 0.0000
# 6 0.0000 0.0000 0.0000 0.0000 0.0000 13.2355
#
#
#
# Elastic Compliance Matrix: (Units=1/GPa)
#
#
# Indices 1 2 3 4 5 6 
#
# 1 0.032541 -0.001292 -0.006236 0.000000 0.000000 0.000000
# 2 -0.001292 0.011374 -0.004141 0.000000 0.000000 0.000000
# 3 -0.006236 -0.004141 0.008155 0.000000 0.000000 0.000000
# 4 0.000000 0.000000 0.000000 0.063442 0.000000 0.000000
# 5 0.000000 0.000000 0.000000 0.000000 0.031413 0.000000
# 6 0.000000 0.000000 0.000000 0.000000 0.000000 0.075554
#
#
# Mechanical properties :
#
#
# Convention : Reuss Voigt Hill
#
# Bulk Modulus (GPa) = 34.80415 67.74503 51.27459
# Shear Modulus (GPa) = 19.57747 26.44763 23.01255
#
# Velocity S-wave (km/s) = 3.23213 3.75668 3.50423
# Velocity P-wave (km/s) = 5.70093 7.41391 6.61312
#
# Compressibility (1/GPa) = 0.02873221
#
# Stress axis : x y z
#
# Youngs Moduli (GPa) = 30.73053 87.92019 122.61940
#
# Poissons Ratio (x) = 0.11357 0.76467
# Poissons Ratio (y) = 0.03970 0.50778
# Poissons Ratio (z) = 0.19164 0.36409
#
# Static dielectric constant tensor:
#      x y z
#    x 1.725710 0.000000 0.000000 
#    y 0.000000 1.648230 0.000000 
#    z 0.000000 0.000000 1.703560 
# 
# From -- ./inp_files/11262.got.cif
#   From: 2010.05.17/outbox.cif.g08.bks.cpg/sg48_6_cif.got.tgz:11262.got - 2010.06.03 20:39:00.
