data_PCOD9391259
_publ_section_title
;
Structure prediction by ZEFSAII (Michael W. Deem and Ramdas Pophale) SiO2 
 PCOD9391259
Probable space group: P N N N
;
_chemical_formula_sum "Si O2"
_cell_formula_units_Z 48
_cell_length_a 14.557195
_cell_length_b 9.294126
_cell_length_c 17.176631
_cell_angle_alpha 90.000000
_cell_angle_beta 90.000000
_cell_angle_gamma 90.000000
_cell_volume 2323.936416
_symmetry_space_group_name_H-M "P N N N"
_symmetry_group_IT_number 48
_space_group.IT_coordinate_system_code '2'
_symmetry_cell_setting 'orthorhombic'
loop_
_space_group_symop_operation_xyz
x,y,z
1/2-x,1/2-y,z
x,1/2-y,1/2-z
1/2-x,y,1/2-z
-x,-y,-z
1/2+x,1/2+y,-z
-x,1/2+y,1/2+z
1/2+x,-y,1/2+z
loop_
_atom_site_type_symbol
_atom_site_label
_atom_site_fract_x
_atom_site_fract_y
_atom_site_fract_z
Si Si1 0.352503 0.707811 0.572003
Si Si2 0.974815 0.771852 0.336646
Si Si3 0.854873 0.014855 0.281258
Si Si4 0.583992 0.019574 0.941001
Si Si5 0.973497 0.045617 0.125338
Si Si6 0.639526 0.758962 0.657220
O O1 0.250000 0.750000 0.590822
O O2 0.381495 0.620104 0.648606
O O3 0.346499 0.604951 0.496768
O O4 0.417765 0.847889 0.567889
O O5 0.012182 0.750000 0.250000
O O6 0.966043 0.626121 0.386297
O O7 0.046994 0.873189 0.377044
O O8 0.880483 0.858812 0.318277
O O9 0.750000 0.022436 0.250000
O O10 0.920866 0.053479 0.209010
O O11 0.608677 0.873249 0.897726
O O12 0.500000 0.000000 0.000000
O O13 0.077741 0.104297 0.130456
O O14 0.750000 0.750000 0.650307
O O15 0.619453 0.750000 0.750000
#
# Coordination Sequence:
#
# PCOD9391259 Si02
#       6
#     8   8   8   8   8   8
#     4  12  24  41  65 103 142 190 228 286 352 422
#     4  10  23  41  67 100 136 190 229 287 354 412
#     4  11  21  39  67 104 148 191 236 278 350 442
#     4  12  24  47  69  96 145 180 227 295 361 404
#     4  11  22  39  68 101 140 181 239 279 344 425
#     4  11  24  46  75 101 129 188 251 294 346 426
#
# _framework density 20.654609000000001
#
# number of rings (size 3 to 8) (size 9 to 14) (size 15 to 20)
#    0.000    0.833    5.000    3.500    0.000    5.000 
#    3.000    0.000    0.000    5.000    0.000    0.000 
#    0.000    0.000    0.000    0.000    0.000    0.000 
#
# Total GULP energy -267598.189850 kJ/mol
# GULP energy per Si atom -5574.962289 kJ/mol
# Density = 2.060760 g / cm^3
# Si number density = 20.654609 Si / 1000 Ang^3
#
#
#
# Elastic Constant Matrix: (Units=GPa)
#
#
# Indices 1 2 3 4 5 6 
#
# 1 75.0681 19.8218 -3.0788 0.0000 0.0000 0.0000
# 2 19.8218 120.6430 15.2197 0.0000 0.0000 0.0000
# 3 -3.0788 15.2197 59.2823 0.0000 0.0000 0.0000
# 4 0.0000 0.0000 0.0000 28.9877 0.0000 0.0000
# 5 0.0000 0.0000 0.0000 0.0000 2.9506 0.0000
# 6 0.0000 0.0000 0.0000 0.0000 0.0000 24.4094
#
#
#
# Elastic Compliance Matrix: (Units=1/GPa)
#
#
# Indices 1 2 3 4 5 6 
#
# 1 0.014031 -0.002478 0.001365 0.000000 0.000000 0.000000
# 2 -0.002478 0.009004 -0.002440 0.000000 0.000000 0.000000
# 3 0.001365 -0.002440 0.017566 0.000000 0.000000 0.000000
# 4 0.000000 0.000000 0.000000 0.034497 0.000000 0.000000
# 5 0.000000 0.000000 0.000000 0.000000 0.338919 0.000000
# 6 0.000000 0.000000 0.000000 0.000000 0.000000 0.040968
#
#
# Mechanical properties :
#
#
# Convention : Reuss Voigt Hill
#
# Bulk Modulus (GPa) = 29.85519 35.43543 32.64531
# Shear Modulus (GPa) = 10.56509 26.13826 18.35168
#
# Velocity S-wave (km/s) = 2.26412 3.56124 2.98401
# Velocity P-wave (km/s) = 4.61745 5.83980 5.26423
#
# Compressibility (1/GPa) = 0.03349502
#
# Stress axis : x y z
#
# Youngs Moduli (GPa) = 71.26869 111.06379 56.92873
#
# Poissons Ratio (x) = 0.27517 -0.07770
# Poissons Ratio (y) = 0.17657 0.13892
# Poissons Ratio (z) = -0.09727 0.27102
#
# Static dielectric constant tensor:
#      x y z
#    x 2.091020 0.000000 0.000000 
#    y 0.000000 1.929190 0.000000 
#    z 0.000000 0.000000 1.794070 
# 
# From -- ./inp_files/12747.got.cif
#   From: 2010.05.17/outbox.cif.g08.bks.cpg/sg48_7_cif.got.tgz:12747.got - 2010.06.03 20:39:00.
