data_PCOD9391222
_publ_section_title
;
Structure prediction by ZEFSAII (Michael W. Deem and Ramdas Pophale) SiO2 
 PCOD9391222
Probable space group: P N N N
;
_chemical_formula_sum "Si O2"
_cell_formula_units_Z 56
_cell_length_a 14.356017
_cell_length_b 12.197741
_cell_length_c 16.565320
_cell_angle_alpha 90.000000
_cell_angle_beta 90.000000
_cell_angle_gamma 90.000000
_cell_volume 2900.769372
_symmetry_space_group_name_H-M "P N N N"
_symmetry_group_IT_number 48
_space_group.IT_coordinate_system_code '2'
_symmetry_cell_setting 'orthorhombic'
loop_
_space_group_symop_operation_xyz
x,y,z
1/2-x,1/2-y,z
x,1/2-y,1/2-z
1/2-x,y,1/2-z
-x,-y,-z
1/2+x,1/2+y,-z
-x,1/2+y,1/2+z
1/2+x,-y,1/2+z
loop_
_atom_site_type_symbol
_atom_site_label
_atom_site_fract_x
_atom_site_fract_y
_atom_site_fract_z
Si Si1 0.982372 0.302871 0.161327
Si Si2 0.253906 0.935445 0.474823
Si Si3 0.676717 0.650866 0.574382
Si Si4 0.608998 0.530412 0.296040
Si Si5 0.814861 0.563511 0.368096
Si Si6 0.086045 0.212616 0.590393
Si Si7 0.895286 0.249561 0.501813
O O1 0.980890 0.250000 0.250000
O O2 0.933609 0.420983 0.168158
O O3 0.924733 0.236516 0.092518
O O4 0.087488 0.323022 0.129631
O O5 0.160191 0.866204 0.494159
O O6 0.328908 0.840609 0.458608
O O7 0.226063 0.033005 0.413779
O O8 0.303148 0.996483 0.550206
O O9 0.750000 0.750000 0.580899
O O10 0.638104 0.647675 0.482011
O O11 0.713797 0.551841 0.327471
O O12 0.613282 0.521721 0.199699
O O13 0.560666 0.636926 0.333648
O O14 0.847982 0.686670 0.385814
O O15 0.990816 0.250893 0.550269
#
# Coordination Sequence:
#
# PCOD9391222 Si02
#       7
#     8   8   8   8   8   8   8
#     4  11  23  41  59  87 122 159 206 242 307 362
#     4  11  20  40  58  93 119 155 207 247 310 355
#     4  11  21  39  64  84 116 161 204 254 288 351
#     4  11  21  36  59  91 123 161 185 247 306 369
#     4  11  21  34  60  90 122 154 191 243 304 364
#     4  11  20  38  59  90 120 157 205 242 300 365
#     4  10  23  37  62  87 121 160 199 256 300 361
#
# _framework density 19.305223999999999
#
# number of rings (size 3 to 8) (size 9 to 14) (size 15 to 20)
#    0.000    1.143    4.286    2.571    0.000    4.286 
#    2.571    0.000    0.000    0.000    0.000    2.000 
#    0.000    0.000    0.000    0.000    0.000    0.000 
#
# Total GULP energy -312243.217120 kJ/mol
# GULP energy per Si atom -5575.771734 kJ/mol
# Density = 1.926128 g / cm^3
# Si number density = 19.305224 Si / 1000 Ang^3
#
#
#
# Elastic Constant Matrix: (Units=GPa)
#
#
# Indices 1 2 3 4 5 6 
#
# 1 100.3500 50.3283 31.4225 0.0000 0.0000 0.0000
# 2 50.3283 111.3892 15.8605 0.0000 0.0000 0.0000
# 3 31.4225 15.8605 27.0807 0.0000 0.0000 0.0000
# 4 0.0000 0.0000 0.0000 14.9341 0.0000 0.0000
# 5 0.0000 0.0000 0.0000 0.0000 37.3087 0.0000
# 6 0.0000 0.0000 0.0000 0.0000 0.0000 16.2150
#
#
#
# Elastic Compliance Matrix: (Units=1/GPa)
#
#
# Indices 1 2 3 4 5 6 
#
# 1 0.018550 -0.005800 -0.018127 0.000000 0.000000 0.000000
# 2 -0.005800 0.011608 -0.000068 0.000000 0.000000 0.000000
# 3 -0.018127 -0.000068 0.058000 0.000000 0.000000 0.000000
# 4 0.000000 0.000000 0.000000 0.066961 0.000000 0.000000
# 5 0.000000 0.000000 0.000000 0.000000 0.026803 0.000000
# 6 0.000000 0.000000 0.000000 0.000000 0.000000 0.061671
#
#
# Mechanical properties :
#
#
# Convention : Reuss Voigt Hill
#
# Bulk Modulus (GPa) = 24.89620 48.22694 36.56157
# Shear Modulus (GPa) = 16.39479 23.10547 19.75013
#
# Velocity S-wave (km/s) = 2.91734 3.46331 3.20198
# Velocity P-wave (km/s) = 4.92665 6.40532 5.71402
#
# Compressibility (1/GPa) = 0.04016677
#
# Stress axis : x y z
#
# Youngs Moduli (GPa) = 53.90721 86.14760 17.24130
#
# Poissons Ratio (x) = 0.49969 0.31254
# Poissons Ratio (y) = 0.31268 0.00118
# Poissons Ratio (z) = 0.97720 0.00587
#
# Static dielectric constant tensor:
#      x y z
#    x 1.686270 0.000000 0.000000 
#    y 0.000000 1.689310 0.000000 
#    z 0.000000 0.000000 1.685860 
# 
# From -- ./inp_files/26529.got.cif
#   From: 2010.05.17/outbox.cif.g08.bks.cpg/sg48_14_cif.got.tgz:26529.got - 2010.06.03 20:39:00.
