data_PCOD9391603
_publ_section_title
;
Structure prediction by ZEFSAII (Michael W. Deem and Ramdas Pophale) SiO2 
 PCOD9391603
Probable space group: P N N N
;
_chemical_formula_sum "Si O2"
_cell_formula_units_Z 36
_cell_length_a 17.076050
_cell_length_b 5.543522
_cell_length_c 18.641745
_cell_angle_alpha 90.000000
_cell_angle_beta 90.000000
_cell_angle_gamma 90.000000
_cell_volume 1764.654777
_symmetry_space_group_name_H-M "P N N N"
_symmetry_group_IT_number 48
_space_group.IT_coordinate_system_code '2'
_symmetry_cell_setting 'orthorhombic'
loop_
_space_group_symop_operation_xyz
x,y,z
1/2-x,1/2-y,z
x,1/2-y,1/2-z
1/2-x,y,1/2-z
-x,-y,-z
1/2+x,1/2+y,-z
-x,1/2+y,1/2+z
1/2+x,-y,1/2+z
loop_
_atom_site_type_symbol
_atom_site_label
_atom_site_fract_x
_atom_site_fract_y
_atom_site_fract_z
Si Si1 0.387980 0.956567 0.060185
Si Si2 0.031153 0.683740 0.559761
Si Si3 0.051212 0.995981 0.786910
Si Si4 0.873149 0.416702 0.688453
Si Si5 0.250000 0.250000 0.115132
O O1 0.390905 0.744037 0.118398
O O2 0.456736 0.147529 0.079819
O O3 0.302790 0.073603 0.067273
O O4 0.407647 0.853893 0.981789
O O5 0.000000 0.500000 0.500000
O O6 0.064461 0.540598 0.627927
O O7 0.076641 0.250000 0.750000
O O8 0.956399 0.996605 0.781649
O O9 0.080912 0.750000 0.750000
O O10 0.838288 0.250000 0.750000
O O11 0.812567 0.616322 0.664582
#
# Coordination Sequence:
#
# PCOD9391603 Si02
#       5
#     8   8   8   8   4
#     4  11  23  38  57  83 125 169 219 263 324 377
#     4  11  21  39  62  87 118 173 205 274 319 385
#     4  11  23  40  62  91 126 168 217 266 321 386
#     4  11  24  38  54  85 127 176 219 253 301 376
#     4  12  24  39  52  84 122 181 220 272 308 405
#
# _framework density 20.400590999999999
#
# number of rings (size 3 to 8) (size 9 to 14) (size 15 to 20)
#    0.000    0.889    4.444    3.333    3.111    2.667 
#    0.000    0.000    0.000    0.000    0.000    0.000 
#    0.000   24.889    0.000    0.000    0.000    0.000 
#
# Total GULP energy -201252.989128 kJ/mol
# GULP energy per Si atom -5590.360809 kJ/mol
# Density = 2.035416 g / cm^3
# Si number density = 20.400591 Si / 1000 Ang^3
#
#
#
# Elastic Constant Matrix: (Units=GPa)
#
#
# Indices 1 2 3 4 5 6 
#
# 1 18.0430 -6.0361 -7.1656 0.0000 0.0000 0.0000
# 2 -6.0361 105.8516 42.4566 0.0000 0.0000 0.0000
# 3 -7.1656 42.4566 117.8015 0.0000 0.0000 0.0000
# 4 0.0000 0.0000 0.0000 41.4175 0.0000 0.0000
# 5 0.0000 0.0000 0.0000 0.0000 11.8083 0.0000
# 6 0.0000 0.0000 0.0000 0.0000 0.0000 26.2149
#
#
#
# Elastic Compliance Matrix: (Units=1/GPa)
#
#
# Indices 1 2 3 4 5 6 
#
# 1 0.057223 0.002182 0.002694 0.000000 0.000000 0.000000
# 2 0.002182 0.011127 -0.003877 0.000000 0.000000 0.000000
# 3 0.002694 -0.003877 0.010050 0.000000 0.000000 0.000000
# 4 0.000000 0.000000 0.000000 0.024144 0.000000 0.000000
# 5 0.000000 0.000000 0.000000 0.000000 0.084686 0.000000
# 6 0.000000 0.000000 0.000000 0.000000 0.000000 0.038146
#
#
# Mechanical properties :
#
#
# Convention : Reuss Voigt Hill
#
# Bulk Modulus (GPa) = 12.43801 33.35621 22.89711
# Shear Modulus (GPa) = 19.98573 30.05089 25.01831
#
# Velocity S-wave (km/s) = 3.13335 3.84218 3.50573
# Velocity P-wave (km/s) = 4.38186 6.00577 5.25690
#
# Compressibility (1/GPa) = 0.08039874
#
# Stress axis : x y z
#
# Youngs Moduli (GPa) = 17.47540 89.87253 99.50051
#
# Poissons Ratio (x) = -0.19615 -0.26807
# Poissons Ratio (y) = -0.03814 0.38581
# Poissons Ratio (z) = -0.04708 0.34848
#
# Static dielectric constant tensor:
#      x y z
#    x 1.698950 0.000000 0.000000 
#    y 0.000000 1.818430 0.000000 
#    z 0.000000 0.000000 1.753520 
# 
# From -- ./inp_files/32106.got.cif
#   From: 2010.05.17/outbox.cif.g08.bks.cpg/sg48_17_cif.got.tgz:32106.got - 2010.06.03 20:39:00.
