data_PCOD9391786
_publ_section_title
;
Structure prediction by ZEFSAII (Michael W. Deem and Ramdas Pophale) SiO2 
 PCOD9391786
Probable space group: P N N N
;
_chemical_formula_sum "Si O2"
_cell_formula_units_Z 32
_cell_length_a 15.090400
_cell_length_b 11.700534
_cell_length_c 8.154672
_cell_angle_alpha 90.000000
_cell_angle_beta 90.000000
_cell_angle_gamma 90.000000
_cell_volume 1439.835682
_symmetry_space_group_name_H-M "P N N N"
_symmetry_group_IT_number 48
_space_group.IT_coordinate_system_code '2'
_symmetry_cell_setting 'orthorhombic'
loop_
_space_group_symop_operation_xyz
x,y,z
1/2-x,1/2-y,z
x,1/2-y,1/2-z
1/2-x,y,1/2-z
-x,-y,-z
1/2+x,1/2+y,-z
-x,1/2+y,1/2+z
1/2+x,-y,1/2+z
loop_
_atom_site_type_symbol
_atom_site_label
_atom_site_fract_x
_atom_site_fract_y
_atom_site_fract_z
Si Si1 0.667217 0.498308 0.371678
Si Si2 0.661512 0.123708 0.817777
Si Si3 0.025442 0.419921 0.645482
Si Si4 0.856370 0.767788 0.555852
O O1 0.750000 0.519050 0.250000
O O2 0.672206 0.389191 0.487895
O O3 0.587015 0.498610 0.250618
O O4 0.639944 0.601639 0.494943
O O5 0.668562 0.250000 0.750000
O O6 0.750000 0.058147 0.750000
O O7 0.563641 0.096404 0.751566
O O8 0.082501 0.312277 0.566037
O O9 0.000000 0.500000 0.500000
O O10 0.750000 0.750000 0.536637
O O11 0.878305 0.750000 0.750000
#
# Coordination Sequence:
#
# PCOD9391786 Si02
#       4
#     8   8   8   8
#     4  12  24  44  74 108 145 195 257 322 382 451
#     4  11  26  47  68  96 142 199 249 305 373 459
#     4  12  25  44  71 110 149 194 244 311 388 453
#     4  11  24  42  73 114 153 195 252 321 388 458
#
# _framework density 22.22476
#
# number of rings (size 3 to 8) (size 9 to 14) (size 15 to 20)
#    0.000    0.500    2.500    6.000    3.500    2.000 
#    0.000    7.500    0.000    0.000    0.000    0.000 
#    0.000    0.000    0.000    0.000    0.000    0.000 
#
# Total GULP energy -178188.842773 kJ/mol
# GULP energy per Si atom -5568.401337 kJ/mol
# Density = 2.217418 g / cm^3
# Si number density = 22.224760 Si / 1000 Ang^3
#
#
#
# Elastic Constant Matrix: (Units=GPa)
#
#
# Indices 1 2 3 4 5 6 
#
# 1 166.2450 2.4009 63.9975 0.0000 0.0000 0.0000
# 2 2.4009 59.9198 40.2608 0.0000 0.0000 0.0000
# 3 63.9975 40.2608 174.0941 0.0000 0.0000 0.0000
# 4 0.0000 0.0000 0.0000 47.9730 0.0000 0.0000
# 5 0.0000 0.0000 0.0000 0.0000 41.6772 0.0000
# 6 0.0000 0.0000 0.0000 0.0000 0.0000 29.3626
#
#
#
# Elastic Compliance Matrix: (Units=1/GPa)
#
#
# Indices 1 2 3 4 5 6 
#
# 1 0.007159 0.001754 -0.003037 0.000000 0.000000 0.000000
# 2 0.001754 0.020189 -0.005314 0.000000 0.000000 0.000000
# 3 -0.003037 -0.005314 0.008089 0.000000 0.000000 0.000000
# 4 0.000000 0.000000 0.000000 0.020845 0.000000 0.000000
# 5 0.000000 0.000000 0.000000 0.000000 0.023994 0.000000
# 6 0.000000 0.000000 0.000000 0.000000 0.000000 0.034057
#
#
# Mechanical properties :
#
#
# Convention : Reuss Voigt Hill
#
# Bulk Modulus (GPa) = 44.95701 68.17526 56.56614
# Shear Modulus (GPa) = 37.05296 43.37587 40.21441
#
# Velocity S-wave (km/s) = 4.08756 4.42259 4.25837
# Velocity P-wave (km/s) = 6.52302 7.53797 7.04879
#
# Compressibility (1/GPa) = 0.02224347
#
# Stress axis : x y z
#
# Youngs Moduli (GPa) = 139.68154 49.53196 123.61879
#
# Poissons Ratio (x) = -0.08688 0.37547
# Poissons Ratio (y) = -0.24500 0.65687
# Poissons Ratio (z) = 0.42426 0.26320
#
# Static dielectric constant tensor:
#      x y z
#    x 2.754000 0.000000 0.000000 
#    y 0.000000 1.885660 0.000000 
#    z 0.000000 0.000000 2.078200 
# 
# From -- ./inp_files/11895.got.cif
#   From: 2010.05.17/outbox.cif.g08.bks.cpg/sg48_6_cif.got.tgz:11895.got - 2010.06.03 20:39:00.
