data_PCOD9391532
_publ_section_title
;
Structure prediction by ZEFSAII (Michael W. Deem and Ramdas Pophale) SiO2 
 PCOD9391532
Probable space group: P N N N
;
_chemical_formula_sum "Si O2"
_cell_formula_units_Z 56
_cell_length_a 10.937814
_cell_length_b 8.838332
_cell_length_c 21.924072
_cell_angle_alpha 90.000000
_cell_angle_beta 90.000000
_cell_angle_gamma 90.000000
_cell_volume 2119.444579
_symmetry_space_group_name_H-M "P N N N"
_symmetry_group_IT_number 48
_space_group.IT_coordinate_system_code '2'
_symmetry_cell_setting 'orthorhombic'
loop_
_space_group_symop_operation_xyz
x,y,z
1/2-x,1/2-y,z
x,1/2-y,1/2-z
1/2-x,y,1/2-z
-x,-y,-z
1/2+x,1/2+y,-z
-x,1/2+y,1/2+z
1/2+x,-y,1/2+z
loop_
_atom_site_type_symbol
_atom_site_label
_atom_site_fract_x
_atom_site_fract_y
_atom_site_fract_z
Si Si1 0.062197 0.546680 0.665427
Si Si2 0.805420 0.993529 0.472825
Si Si3 0.803258 0.594707 0.161772
Si Si4 0.454816 0.677278 0.083209
Si Si5 0.562757 0.295584 0.044808
Si Si6 0.566449 0.074728 0.775642
Si Si7 0.303568 0.520492 0.395778
O O1 0.207505 0.541348 0.678434
O O2 0.027132 0.666961 0.613538
O O3 0.048507 0.384109 0.631620
O O4 0.967021 0.535685 0.719842
O O5 0.684596 0.101524 0.466910
O O6 0.908796 0.120204 0.461537
O O7 0.815928 0.924065 0.540998
O O8 0.812273 0.897403 0.411810
O O9 0.750000 0.750000 0.186544
O O10 0.936448 0.574577 0.189727
O O11 0.394785 0.839824 0.089868
O O12 0.336000 0.573923 0.097665
O O13 0.511460 0.662800 0.015942
O O14 0.593700 0.250000 0.750000
O O15 0.663720 0.004594 0.823959
#
# Coordination Sequence:
#
# PCOD9391532 Si02
#       7
#     8   8   8   8   8   8   8
#     4  11  20  31  51  79 108 146 178 220 281 346
#     4   8  17  34  55  77 104 143 182 237 283 322
#     4  11  21  34  53  77 111 148 182 223 278 344
#     4   9  16  31  53  78 104 139 176 238 282 331
#     4   8  16  32  54  78 106 135 185 229 282 334
#     4  12  22  34  48  74 112 153 185 218 284 353
#     4   9  18  33  51  75 108 138 183 233 285 337
#
# _framework density 26.422018999999999
#
# number of rings (size 3 to 8) (size 9 to 14) (size 15 to 20)
#    0.000    2.286    2.857    2.571    0.000    1.143 
#    0.000    0.714    0.000    3.429    0.000    0.000 
#    0.000    2.286    0.000    0.000    0.000    0.000 
#
# Total GULP energy -312451.349504 kJ/mol
# GULP energy per Si atom -5579.488384 kJ/mol
# Density = 2.636188 g / cm^3
# Si number density = 26.422019 Si / 1000 Ang^3
#
#
#
# Elastic Constant Matrix: (Units=GPa)
#
#
# Indices 1 2 3 4 5 6 
#
# 1 69.9245 11.5250 31.8177 0.0000 0.0000 0.0000
# 2 11.5250 36.0738 22.9610 0.0000 0.0000 0.0000
# 3 31.8177 22.9610 247.2612 0.0000 0.0000 0.0000
# 4 0.0000 0.0000 0.0000 26.4888 0.0000 0.0000
# 5 0.0000 0.0000 0.0000 0.0000 29.0592 0.0000
# 6 0.0000 0.0000 0.0000 0.0000 0.0000 21.2087
#
#
#
# Elastic Compliance Matrix: (Units=1/GPa)
#
#
# Indices 1 2 3 4 5 6 
#
# 1 0.015707 -0.003966 -0.001653 0.000000 0.000000 0.000000
# 2 -0.003966 0.030464 -0.002319 0.000000 0.000000 0.000000
# 3 -0.001653 -0.002319 0.004472 0.000000 0.000000 0.000000
# 4 0.000000 0.000000 0.000000 0.037752 0.000000 0.000000
# 5 0.000000 0.000000 0.000000 0.000000 0.034412 0.000000
# 6 0.000000 0.000000 0.000000 0.000000 0.000000 0.047150
#
#
# Mechanical properties :
#
#
# Convention : Reuss Voigt Hill
#
# Bulk Modulus (GPa) = 28.76205 53.98522 41.37363
# Shear Modulus (GPa) = 25.32646 34.48174 29.90410
#
# Velocity S-wave (km/s) = 3.09938 3.61645 3.36785
# Velocity P-wave (km/s) = 4.87006 6.15748 5.55122
#
# Compressibility (1/GPa) = 0.03476804
#
# Stress axis : x y z
#
# Youngs Moduli (GPa) = 63.66611 32.82589 223.59842
#
# Poissons Ratio (x) = 0.13019 0.36958
# Poissons Ratio (y) = 0.25250 0.51842
# Poissons Ratio (z) = 0.10523 0.07611
#
# Static dielectric constant tensor:
#      x y z
#    x 2.149210 0.000000 0.000000 
#    y 0.000000 2.109020 0.000000 
#    z 0.000000 0.000000 2.220730 
# 
# From -- ./inp_files/34172.got.cif
#   From: 2010.05.17/outbox.cif.g08.bks.cpg/sg48_18_cif.got.tgz:34172.got - 2010.06.03 20:39:00.
