data_PCOD9391691
_publ_section_title
;
Structure prediction by ZEFSAII (Michael W. Deem and Ramdas Pophale) SiO2 
 PCOD9391691
Probable space group: P N N N
;
_chemical_formula_sum "Si O2"
_cell_formula_units_Z 34
_cell_length_a 10.923739
_cell_length_b 8.761158
_cell_length_c 13.757152
_cell_angle_alpha 90.000000
_cell_angle_beta 90.000000
_cell_angle_gamma 90.000000
_cell_volume 1316.622775
_symmetry_space_group_name_H-M "P N N N"
_symmetry_group_IT_number 48
_space_group.IT_coordinate_system_code '2'
_symmetry_cell_setting 'orthorhombic'
loop_
_space_group_symop_operation_xyz
x,y,z
1/2-x,1/2-y,z
x,1/2-y,1/2-z
1/2-x,y,1/2-z
-x,-y,-z
1/2+x,1/2+y,-z
-x,1/2+y,1/2+z
1/2+x,-y,1/2+z
loop_
_atom_site_type_symbol
_atom_site_label
_atom_site_fract_x
_atom_site_fract_y
_atom_site_fract_z
Si Si1 0.059104 0.497487 0.388910
Si Si2 0.750000 0.750000 0.250000
Si Si3 0.179474 0.027046 0.447094
Si Si4 0.441147 0.750000 0.750000
Si Si5 0.250000 0.750000 0.585859
Si Si6 0.541520 0.832343 0.116267
O O1 0.199090 0.438860 0.388488
O O2 0.000000 0.500000 0.500000
O O3 0.004593 0.391071 0.304248
O O4 0.025783 0.672250 0.362469
O O5 0.657453 0.848949 0.186445
O O6 0.240763 0.895405 0.515693
O O7 0.068128 0.952338 0.388263
O O8 0.111144 0.154761 0.511617
O O9 0.357315 0.705525 0.659096
#
# Coordination Sequence:
#
# PCOD9391691 Si02
#       6
#     8   2   8   4   4   8
#     4  12  23  48  78 116 166 216 282 360 440 534
#     4  12  28  44  74 114 160 206 292 360 428 532
#     4  11  23  49  82 112 164 224 278 355 455 524
#     4  11  26  38  80 121 162 218 288 354 424 523
#     4  11  22  44  74 119 162 214 282 355 418 520
#     4  11  26  44  81 115 155 221 285 355 443 529
#
# _framework density 25.823647000000001
#
# number of rings (size 3 to 8) (size 9 to 14) (size 15 to 20)
#    0.000    0.706    4.706    1.412    3.294    0.000 
#    0.000    2.353   10.353    5.647    0.000    0.000 
#    0.000    0.000    0.000    0.000    0.000    0.000 
#
# Total GULP energy -189799.992768 kJ/mol
# GULP energy per Si atom -5582.352728 kJ/mol
# Density = 2.576487 g / cm^3
# Si number density = 25.823647 Si / 1000 Ang^3
#
#
#
# Elastic Constant Matrix: (Units=GPa)
#
#
# Indices 1 2 3 4 5 6 
#
# 1 216.2904 49.3324 66.5880 0.0000 0.0000 0.0000
# 2 49.3324 112.0886 50.6396 0.0000 0.0000 0.0000
# 3 66.5880 50.6396 114.2175 0.0000 0.0000 0.0000
# 4 0.0000 0.0000 0.0000 43.4836 0.0000 0.0000
# 5 0.0000 0.0000 0.0000 0.0000 80.0911 0.0000
# 6 0.0000 0.0000 0.0000 0.0000 0.0000 26.3433
#
#
#
# Elastic Compliance Matrix: (Units=1/GPa)
#
#
# Indices 1 2 3 4 5 6 
#
# 1 0.005777 -0.001277 -0.002802 0.000000 0.000000 0.000000
# 2 -0.001277 0.011438 -0.004327 0.000000 0.000000 0.000000
# 3 -0.002802 -0.004327 0.012307 0.000000 0.000000 0.000000
# 4 0.000000 0.000000 0.000000 0.022997 0.000000 0.000000
# 5 0.000000 0.000000 0.000000 0.000000 0.012486 0.000000
# 6 0.000000 0.000000 0.000000 0.000000 0.000000 0.037960
#
#
# Mechanical properties :
#
#
# Convention : Reuss Voigt Hill
#
# Bulk Modulus (GPa) = 78.67054 86.19071 82.43062
# Shear Modulus (GPa) = 40.31782 48.38602 44.35192
#
# Velocity S-wave (km/s) = 3.95558 4.33333 4.14876
# Velocity P-wave (km/s) = 7.16888 7.64762 7.41212
#
# Compressibility (1/GPa) = 0.01271124
#
# Stress axis : x y z
#
# Youngs Moduli (GPa) = 173.09209 87.42567 81.25333
#
# Poissons Ratio (x) = 0.11162 0.22767
# Poissons Ratio (y) = 0.22100 0.35158
# Poissons Ratio (z) = 0.48501 0.37829
#
# Static dielectric constant tensor:
#      x y z
#    x 2.066760 0.000000 0.000000 
#    y 0.000000 4.808220 0.000000 
#    z 0.000000 0.000000 2.075390 
# 
# From -- ./inp_files/19555.got.cif
#   From: 2010.05.17/outbox.cif.g08.bks.cpg/sg48_10_cif.got.tgz:19555.got - 2010.06.03 20:39:00.
