data_PCOD9391687
_publ_section_title
;
Structure prediction by ZEFSAII (Michael W. Deem and Ramdas Pophale) SiO2 
 PCOD9391687
Probable space group: P N N N
;
_chemical_formula_sum "Si O2"
_cell_formula_units_Z 64
_cell_length_a 14.912058
_cell_length_b 18.033075
_cell_length_c 12.469563
_cell_angle_alpha 90.000000
_cell_angle_beta 90.000000
_cell_angle_gamma 90.000000
_cell_volume 3353.193432
_symmetry_space_group_name_H-M "P N N N"
_symmetry_group_IT_number 48
_space_group.IT_coordinate_system_code '2'
_symmetry_cell_setting 'orthorhombic'
loop_
_space_group_symop_operation_xyz
x,y,z
1/2-x,1/2-y,z
x,1/2-y,1/2-z
1/2-x,y,1/2-z
-x,-y,-z
1/2+x,1/2+y,-z
-x,1/2+y,1/2+z
1/2+x,-y,1/2+z
loop_
_atom_site_type_symbol
_atom_site_label
_atom_site_fract_x
_atom_site_fract_y
_atom_site_fract_z
Si Si1 0.357726 0.757421 0.876550
Si Si2 0.857726 0.742580 0.876550
Si Si3 0.661992 0.474114 0.820953
Si Si4 1.000000 0.879067 0.558877
Si Si5 1.000000 0.040344 0.666365
Si Si6 0.161992 0.025885 0.820953
Si Si7 0.602920 0.102642 0.476072
Si Si8 0.897080 0.897358 0.976072
O O1 0.250000 0.750000 0.888879
O O2 0.377325 0.750000 0.750000
O O3 0.411302 0.830107 0.915884
O O4 0.394091 0.687124 0.941249
O O5 0.750000 0.750000 0.888878
O O6 0.877325 0.750000 0.750000
O O7 0.911303 0.669893 0.915885
O O8 0.894091 0.812877 0.941249
O O9 0.750000 0.481778 0.750000
O O10 0.585674 0.447862 0.740275
O O11 0.634552 0.551788 0.876744
O O12 0.664206 0.418202 0.922128
O O13 1.000000 0.907189 0.436783
O O14 0.999999 0.954388 0.628358
O O15 0.085674 0.052137 0.740275
O O16 0.250000 0.018222 0.750000
O O17 0.134553 0.948211 0.876744
O O18 0.164206 0.081797 0.922128
O O19 0.500000 0.083021 0.503434
#
# Coordination Sequence:
#
# PCOD9391687 Si02
#       8
#     8   8   8   8   8   8   8   8
#     4  11  25  41  64  95 129 165 214 267 329 381
#     4  11  25  41  64  95 129 165 214 267 329 381
#     4  11  24  40  68  95 129 169 218 265 321 383
#     4  11  25  41  65  94 134 168 210 273 320 385
#     4  11  24  42  65  97 132 168 218 267 329 376
#     4  11  24  40  68  95 129 169 218 265 321 383
#     4  11  22  44  67  92 128 173 218 265 318 391
#     4  11  22  44  67  92 128 173 218 265 318 391
#
# _framework density 19.086282000000001
#
# number of rings (size 3 to 8) (size 9 to 14) (size 15 to 20)
#    0.000    1.000    3.750    2.625   10.500    2.000 
#    0.000    2.500    0.000    0.000    0.000    0.000 
#    0.000    0.000    0.000    0.000    0.000    0.000 
#
# Total GULP energy -357522.415520 kJ/mol
# GULP energy per Si atom -5586.287743 kJ/mol
# Density = 1.904284 g / cm^3
# Si number density = 19.086282 Si / 1000 Ang^3
#
#
#
# Elastic Constant Matrix: (Units=GPa)
#
#
# Indices 1 2 3 4 5 6 
#
# 1 96.7886 12.3304 39.5338 0.0000 0.0000 0.0000
# 2 12.3304 101.9133 39.9923 0.0000 0.0000 0.0000
# 3 39.5338 39.9923 119.2181 0.0000 0.0000 0.0000
# 4 0.0000 0.0000 0.0000 19.7682 0.0000 0.0000
# 5 0.0000 0.0000 0.0000 0.0000 35.7955 0.0000
# 6 0.0000 0.0000 0.0000 0.0000 0.0000 6.4450
#
#
#
# Elastic Compliance Matrix: (Units=1/GPa)
#
#
# Indices 1 2 3 4 5 6 
#
# 1 0.011952 0.000126 -0.004006 0.000000 0.000000 0.000000
# 2 0.000126 0.011301 -0.003833 0.000000 0.000000 0.000000
# 3 -0.004006 -0.003833 0.011002 0.000000 0.000000 0.000000
# 4 0.000000 0.000000 0.000000 0.050586 0.000000 0.000000
# 5 0.000000 0.000000 0.000000 0.000000 0.027936 0.000000
# 6 0.000000 0.000000 0.000000 0.000000 0.000000 0.155158
#
#
# Mechanical properties :
#
#
# Convention : Reuss Voigt Hill
#
# Bulk Modulus (GPa) = 53.10689 55.73701 54.42195
# Shear Modulus (GPa) = 17.26296 27.47265 22.36780
#
# Velocity S-wave (km/s) = 3.01070 3.79805 3.42706
# Velocity P-wave (km/s) = 6.32225 6.96417 6.65096
#
# Compressibility (1/GPa) = 0.01882995
#
# Stress axis : x y z
#
# Youngs Moduli (GPa) = 83.66909 88.48731 90.89291
#
# Poissons Ratio (x) = -0.01113 0.36407
# Poissons Ratio (y) = -0.01052 0.34837
# Poissons Ratio (z) = 0.33514 0.33915
#
# Static dielectric constant tensor:
#      x y z
#    x 2.888560 0.000000 0.000000 
#    y 0.000000 1.650720 0.000000 
#    z 0.000000 0.000000 1.629910 
# 
# From -- ./inp_files/21548.got.cif
#   From: 2010.05.17/outbox.cif.g08.bks.cpg/sg48_11_cif.got.tgz:21548.got - 2010.06.03 20:39:00.
