data_PCOD9391997
_publ_section_title
;
Structure prediction by ZEFSAII (Michael W. Deem and Ramdas Pophale) SiO2 
 PCOD9391997
Probable space group: P C C M
;
_chemical_formula_sum "Si O2"
_cell_formula_units_Z 64
_cell_length_a 15.071206
_cell_length_b 30.817940
_cell_length_c 8.461174
_cell_angle_alpha 90.000000
_cell_angle_beta 90.000000
_cell_angle_gamma 90.000000
_cell_volume 3929.906678
_symmetry_space_group_name_H-M "P C C M"
_symmetry_group_IT_number 49
_symmetry_cell_setting 'orthorhombic'
loop_
_space_group_symop_operation_xyz
x,y,z
-x,-y,z
x,-y,1/2-z
-x,y,1/2-z
-x,-y,-z
x,y,-z
-x,y,1/2+z
x,-y,1/2+z
loop_
_atom_site_type_symbol
_atom_site_label
_atom_site_fract_x
_atom_site_fract_y
_atom_site_fract_z
Si Si1 0.398203 0.954955 0.812692
Si Si2 0.097345 0.642105 0.692401
Si Si3 0.601085 0.865284 0.188738
Si Si4 0.846581 0.453229 0.683872
Si Si5 0.367811 0.546429 0.684642
Si Si6 0.264926 0.305637 0.814920
Si Si7 0.398249 0.231745 0.191292
Si Si8 0.592305 0.635529 0.682719
O O1 0.500000 0.954535 0.750000
O O2 0.356863 0.909298 0.757036
O O3 0.357682 0.000000 0.750000
O O4 0.401099 0.956154 0.000000
O O5 0.101841 0.641311 0.500000
O O6 0.118163 0.592695 0.750327
O O7 0.171008 0.677019 0.748786
O O8 0.000000 0.653992 0.750000
O O9 0.500000 0.864928 0.250000
O O10 0.633518 0.817155 0.232697
O O11 0.601023 0.868861 0.000000
O O12 0.876278 0.500000 0.750000
O O13 0.870272 0.453629 0.500000
O O14 0.739578 0.451697 0.696978
O O15 0.395496 0.500000 0.750000
O O16 0.391182 0.552559 0.500000
O O17 0.405840 0.584154 0.793319
O O18 0.325228 0.266258 0.748931
O O19 0.329386 0.346494 0.790728
O O20 0.251961 0.296137 0.000000
O O21 0.500000 0.238207 0.250000
O O22 0.402589 0.234841 0.000000
O O23 0.500000 0.653069 0.750000
O O24 0.604203 0.647146 0.500000
#
# Coordination Sequence:
#
# PCOD9391997 Si02
#       8
#     8   8   8   8   8   8   8   8
#     4  10  16  22  32  48  72 107 146 189 233 270
#     4  10  21  37  55  75  98 122 148 181 223 269
#     4   9  15  24  36  55  79 107 145 187 228 272
#     4   9  18  33  53  74  96 121 142 173 213 257
#     4  10  19  35  54  73  96 121 149 179 217 258
#     4  10  20  38  55  70  95 123 151 190 233 272
#     4   9  18  30  48  68  90 120 153 191 235 276
#     4  12  24  36  52  74  96 123 154 185 221 264
#
# _framework density 16.285374000000001
#
# number of rings (size 3 to 8) (size 9 to 14) (size 15 to 20)
#    0.000    2.125    1.250    4.500    0.000    4.000 
#    0.000    2.500    0.000    0.000    0.000    0.000 
#    0.000    0.000    0.000    0.000    0.000    0.625 
#
# Total GULP energy -356638.730514 kJ/mol
# GULP energy per Si atom -5572.480164 kJ/mol
# Density = 1.624831 g / cm^3
# Si number density = 16.285374 Si / 1000 Ang^3
#
#
#
# Elastic Constant Matrix: (Units=GPa)
#
#
# Indices 1 2 3 4 5 6 
#
# 1 70.1717 39.3465 9.1916 0.0000 0.0000 0.0000
# 2 39.3465 135.4018 18.3761 0.0000 0.0000 0.0000
# 3 9.1916 18.3761 36.8685 0.0000 0.0000 0.0000
# 4 0.0000 0.0000 0.0000 19.6931 0.0000 0.0000
# 5 0.0000 0.0000 0.0000 0.0000 14.1728 0.0000
# 6 0.0000 0.0000 0.0000 0.0000 0.0000 16.5265
#
#
#
# Elastic Compliance Matrix: (Units=1/GPa)
#
#
# Indices 1 2 3 4 5 6 
#
# 1 0.017151 -0.004723 -0.001922 0.000000 0.000000 0.000000
# 2 -0.004723 0.009222 -0.003419 0.000000 0.000000 0.000000
# 3 -0.001922 -0.003419 0.029307 0.000000 0.000000 0.000000
# 4 0.000000 0.000000 0.000000 0.050779 0.000000 0.000000
# 5 0.000000 0.000000 0.000000 0.000000 0.070558 0.000000
# 6 0.000000 0.000000 0.000000 0.000000 0.000000 0.060509
#
#
# Mechanical properties :
#
#
# Convention : Reuss Voigt Hill
#
# Bulk Modulus (GPa) = 28.12792 41.80782 34.96787
# Shear Modulus (GPa) = 18.55264 21.78032 20.16648
#
# Velocity S-wave (km/s) = 3.37890 3.66104 3.52279
# Velocity P-wave (km/s) = 5.70368 6.60293 6.16971
#
# Compressibility (1/GPa) = 0.03555187
#
# Stress axis : x y z
#
# Youngs Moduli (GPa) = 58.30644 108.43757 34.12203
#
# Poissons Ratio (x) = 0.51216 0.06557
# Poissons Ratio (y) = 0.27538 0.11666
# Poissons Ratio (z) = 0.11205 0.37074
#
# Static dielectric constant tensor:
#      x y z
#    x 1.543440 0.000000 0.000000 
#    y 0.000000 1.621240 0.000000 
#    z 0.000000 0.000000 1.557140 
# 
# From -- ./inp_files/4514.got.cif
#   From: 2010.05.17/outbox.cif.g08.bks.cpg/sg49_3_cif.got.tgz:4514.got - 2010.06.03 21:02:19.
