data_PCOD9391711
_publ_section_title
;
Structure prediction by ZEFSAII (Michael W. Deem and Ramdas Pophale) SiO2 
 PCOD9391711
Probable space group: P N N N
;
_chemical_formula_sum "Si O2"
_cell_formula_units_Z 36
_cell_length_a 11.717735
_cell_length_b 5.405061
_cell_length_c 25.950822
_cell_angle_alpha 90.000000
_cell_angle_beta 90.000000
_cell_angle_gamma 90.000000
_cell_volume 1643.597192
_symmetry_space_group_name_H-M "P N N N"
_symmetry_group_IT_number 48
_space_group.IT_coordinate_system_code '2'
_symmetry_cell_setting 'orthorhombic'
loop_
_space_group_symop_operation_xyz
x,y,z
1/2-x,1/2-y,z
x,1/2-y,1/2-z
1/2-x,y,1/2-z
-x,-y,-z
1/2+x,1/2+y,-z
-x,1/2+y,1/2+z
1/2+x,-y,1/2+z
loop_
_atom_site_type_symbol
_atom_site_label
_atom_site_fract_x
_atom_site_fract_y
_atom_site_fract_z
Si Si1 0.014108 0.787452 0.689903
Si Si2 0.117744 0.797670 0.156071
Si Si3 0.823037 0.545057 0.035603
Si Si4 0.750000 0.250000 0.373147
Si Si5 0.054051 0.804280 0.039945
O O1 0.041962 0.750000 0.750000
O O2 0.133483 0.761570 0.658705
O O3 0.933213 0.550787 0.679140
O O4 0.953650 0.050298 0.674092
O O5 0.250000 0.750000 0.169560
O O6 0.108610 0.857609 0.094809
O O7 0.750000 0.750000 0.006571
O O8 0.749915 0.472298 0.085433
O O9 0.945554 0.636245 0.054443
O O10 0.857876 0.338970 0.995497
O O11 0.000000 0.000000 0.000000
#
# Coordination Sequence:
#
# PCOD9391711 Si02
#       5
#     8   8   8   4   8
#     4  12  28  52  80 109 147 203 262 326 394 444
#     4  12  28  49  76 113 153 197 260 318 382 466
#     4  11  23  40  69 101 152 195 239 297 373 450
#     4  12  25  48  72 116 152 194 253 324 378 468
#     4  11  25  43  66 108 150 202 245 298 371 466
#
# _framework density 21.903176999999999
#
# number of rings (size 3 to 8) (size 9 to 14) (size 15 to 20)
#    0.000    0.444    2.222    5.667    7.778    2.667 
#    0.000    2.222    0.000    0.000    0.000    0.000 
#    0.000    0.000    0.000    0.000    0.000    0.000 
#
# Total GULP energy -200967.978703 kJ/mol
# GULP energy per Si atom -5582.443853 kJ/mol
# Density = 2.185332 g / cm^3
# Si number density = 21.903177 Si / 1000 Ang^3
#
#
#
# Elastic Constant Matrix: (Units=GPa)
#
#
# Indices 1 2 3 4 5 6 
#
# 1 108.9134 20.6529 6.5590 0.0000 0.0000 0.0000
# 2 20.6529 115.7202 23.8826 0.0000 0.0000 0.0000
# 3 6.5590 23.8826 125.0844 0.0000 0.0000 0.0000
# 4 0.0000 0.0000 0.0000 27.1268 0.0000 0.0000
# 5 0.0000 0.0000 0.0000 0.0000 21.0848 0.0000
# 6 0.0000 0.0000 0.0000 0.0000 0.0000 52.8011
#
#
#
# Elastic Compliance Matrix: (Units=1/GPa)
#
#
# Indices 1 2 3 4 5 6 
#
# 1 0.009507 -0.001659 -0.000182 0.000000 0.000000 0.000000
# 2 -0.001659 0.009286 -0.001686 0.000000 0.000000 0.000000
# 3 -0.000182 -0.001686 0.008326 0.000000 0.000000 0.000000
# 4 0.000000 0.000000 0.000000 0.036864 0.000000 0.000000
# 5 0.000000 0.000000 0.000000 0.000000 0.047427 0.000000
# 6 0.000000 0.000000 0.000000 0.000000 0.000000 0.018939
#
#
# Mechanical properties :
#
#
# Convention : Reuss Voigt Hill
#
# Bulk Modulus (GPa) = 49.83796 50.21188 50.02492
# Shear Modulus (GPa) = 34.70021 40.11078 37.40550
#
# Velocity S-wave (km/s) = 3.98459 4.28398 4.13700
# Velocity P-wave (km/s) = 6.63117 6.88798 6.76079
#
# Compressibility (1/GPa) = 0.02006503
#
# Stress axis : x y z
#
# Youngs Moduli (GPa) = 105.18349 107.69347 120.10535
#
# Poissons Ratio (x) = 0.17869 0.02183
# Poissons Ratio (y) = 0.17453 0.20249
# Poissons Ratio (z) = 0.01911 0.18156
#
# Static dielectric constant tensor:
#      x y z
#    x 1.815770 0.000000 0.000000 
#    y 0.000000 1.938040 0.000000 
#    z 0.000000 0.000000 1.804170 
# 
# From -- ./inp_files/36131.got.cif
#   From: 2010.05.17/outbox.cif.g08.bks.cpg/sg48_19_cif.got.tgz:36131.got - 2010.06.03 20:39:00.
