data_PCOD9391642
_publ_section_title
;
Structure prediction by ZEFSAII (Michael W. Deem and Ramdas Pophale) SiO2 
 PCOD9391642
Probable space group: P N N N
;
_chemical_formula_sum "Si O2"
_cell_formula_units_Z 56
_cell_length_a 20.425372
_cell_length_b 16.967408
_cell_length_c 7.934362
_cell_angle_alpha 90.000000
_cell_angle_beta 90.000000
_cell_angle_gamma 90.000000
_cell_volume 2749.777088
_symmetry_space_group_name_H-M "P N N N"
_symmetry_group_IT_number 48
_space_group.IT_coordinate_system_code '2'
_symmetry_cell_setting 'orthorhombic'
loop_
_space_group_symop_operation_xyz
x,y,z
1/2-x,1/2-y,z
x,1/2-y,1/2-z
1/2-x,y,1/2-z
-x,-y,-z
1/2+x,1/2+y,-z
-x,1/2+y,1/2+z
1/2+x,-y,1/2+z
loop_
_atom_site_type_symbol
_atom_site_label
_atom_site_fract_x
_atom_site_fract_y
_atom_site_fract_z
Si Si1 0.399814 0.953893 0.554915
Si Si2 0.953255 0.604006 0.562559
Si Si3 0.286612 0.872368 0.427974
Si Si4 0.525956 0.733228 0.449369
Si Si5 0.159815 0.933921 0.580188
Si Si6 0.378591 0.733962 0.448642
Si Si7 0.439403 0.057027 0.051805
O O1 0.469976 0.913248 0.526723
O O2 0.350440 0.927264 0.408663
O O3 0.366572 0.928635 0.729446
O O4 0.412794 0.046781 0.559022
O O5 0.936386 0.695172 0.539151
O O6 0.941369 0.571379 0.748844
O O7 0.250000 0.856548 0.250000
O O8 0.236756 0.921033 0.546203
O O9 0.319561 0.792288 0.503649
O O10 0.526263 0.750000 0.250000
O O11 0.451668 0.744701 0.517324
O O12 0.549683 0.644382 0.476927
O O13 0.134199 0.856255 0.486439
O O14 0.126319 0.012054 0.504855
O O15 0.381598 0.750000 0.250000
O O16 0.500000 0.000000 0.000000
#
# Coordination Sequence:
#
# PCOD9391642 Si02
#       7
#     8   8   8   8   8   8   8
#     4  11  24  40  63  93 129 173 228 277 340 389
#     4  11  23  41  66  93 133 169 225 289 343 400
#     4  12  24  41  62  90 135 181 226 267 330 410
#     4  11  23  39  66  95 134 170 223 282 345 392
#     4  12  24  40  62  92 135 175 224 273 326 412
#     4  11  22  37  62  90 131 178 224 267 328 398
#     4  12  23  40  66  97 129 174 223 282 339 403
#
# _framework density 20.365286999999999
#
# number of rings (size 3 to 8) (size 9 to 14) (size 15 to 20)
#    0.000    0.571    5.714    3.000    2.000    0.571 
#    0.000    1.429    0.000    0.857    0.000    6.000 
#    0.000    0.000    0.000    0.000    0.000    0.000 
#
# Total GULP energy -312735.522837 kJ/mol
# GULP energy per Si atom -5584.562908 kJ/mol
# Density = 2.031894 g / cm^3
# Si number density = 20.365287 Si / 1000 Ang^3
#
#
#
# Elastic Constant Matrix: (Units=GPa)
#
#
# Indices 1 2 3 4 5 6 
#
# 1 67.9316 55.9279 19.3740 0.0000 0.0000 0.0000
# 2 55.9279 192.7496 39.4120 0.0000 0.0000 0.0000
# 3 19.3740 39.4120 74.2943 0.0000 0.0000 0.0000
# 4 0.0000 0.0000 0.0000 33.8833 0.0000 0.0000
# 5 0.0000 0.0000 0.0000 0.0000 18.4334 0.0000
# 6 0.0000 0.0000 0.0000 0.0000 0.0000 42.9537
#
#
#
# Elastic Compliance Matrix: (Units=1/GPa)
#
#
# Indices 1 2 3 4 5 6 
#
# 1 0.019704 -0.005234 -0.002361 0.000000 0.000000 0.000000
# 2 -0.005234 0.007210 -0.002460 0.000000 0.000000 0.000000
# 3 -0.002361 -0.002460 0.015381 0.000000 0.000000 0.000000
# 4 0.000000 0.000000 0.000000 0.029513 0.000000 0.000000
# 5 0.000000 0.000000 0.000000 0.000000 0.054249 0.000000
# 6 0.000000 0.000000 0.000000 0.000000 0.000000 0.023281
#
#
# Mechanical properties :
#
#
# Convention : Reuss Voigt Hill
#
# Bulk Modulus (GPa) = 45.07948 62.71149 53.89548
# Shear Modulus (GPa) = 28.27373 33.73818 31.00596
#
# Velocity S-wave (km/s) = 3.73007 4.07461 3.90614
# Velocity P-wave (km/s) = 6.38238 7.27989 6.84586
#
# Compressibility (1/GPa) = 0.02218304
#
# Stress axis : x y z
#
# Youngs Moduli (GPa) = 50.75224 138.69998 65.01684
#
# Poissons Ratio (x) = 0.72600 0.15353
# Poissons Ratio (y) = 0.26565 0.15992
# Poissons Ratio (z) = 0.11985 0.34116
#
# Static dielectric constant tensor:
#      x y z
#    x 1.782840 0.000000 0.000000 
#    y 0.000000 1.751820 0.000000 
#    z 0.000000 0.000000 1.786880 
# 
# From -- ./inp_files/13102.got.cif
#   From: 2010.05.17/outbox.cif.g08.bks.cpg/sg48_7_cif.got.tgz:13102.got - 2010.06.03 20:39:00.
