data_PCOD9391731
_publ_section_title
;
Structure prediction by ZEFSAII (Michael W. Deem and Ramdas Pophale) SiO2 
 PCOD9391731
Probable space group: P N N N
;
_chemical_formula_sum "Si O2"
_cell_formula_units_Z 64
_cell_length_a 18.862476
_cell_length_b 8.765010
_cell_length_c 18.862509
_cell_angle_alpha 90.000000
_cell_angle_beta 90.000000
_cell_angle_gamma 90.000000
_cell_volume 3118.534666
_symmetry_space_group_name_H-M "P N N N"
_symmetry_group_IT_number 48
_space_group.IT_coordinate_system_code '2'
_symmetry_cell_setting 'orthorhombic'
loop_
_space_group_symop_operation_xyz
x,y,z
1/2-x,1/2-y,z
x,1/2-y,1/2-z
1/2-x,y,1/2-z
-x,-y,-z
1/2+x,1/2+y,-z
-x,1/2+y,1/2+z
1/2+x,-y,1/2+z
loop_
_atom_site_type_symbol
_atom_site_label
_atom_site_fract_x
_atom_site_fract_y
_atom_site_fract_z
Si Si1 0.209879 0.397628 0.406612
Si Si2 0.032414 0.031481 0.919639
Si Si3 0.171261 0.274532 0.559134
Si Si4 0.338939 0.604085 0.399712
Si Si5 0.093392 0.102373 0.290121
Si Si6 0.399710 0.604083 0.161060
Si Si7 0.440868 0.725467 0.671261
Si Si8 0.580361 0.468519 0.467586
O O1 0.250000 0.250000 0.373764
O O2 0.193181 0.350555 0.485637
O O3 0.259734 0.546034 0.408611
O O4 0.137412 0.455285 0.373177
O O5 0.108646 0.114135 0.914071
O O6 0.973354 0.131163 0.878964
O O7 0.041351 0.879714 0.871983
O O8 0.000000 0.000000 0.000000
O O9 0.250000 0.250000 0.595403
O O10 0.128017 0.120286 0.541352
O O11 0.373174 0.455287 0.362588
O O12 0.351039 0.750000 0.351040
O O13 0.378965 0.631164 0.473355
O O14 0.126240 0.250000 0.250000
O O15 0.014367 0.149448 0.306820
O O16 0.091393 0.953968 0.240265
O O17 0.404600 0.750000 0.750000
O O18 0.414073 0.614133 0.608647
O O19 0.500000 0.500000 0.500000
#
# Coordination Sequence:
#
# PCOD9391731 Si02
#       8
#     8   8   8   8   8   8   8   8
#     4  11  23  42  67  95 151 195 236 292 368 440
#     4  12  23  40  73 106 140 182 244 302 354 434
#     4  11  24  44  67 105 142 182 233 304 376 432
#     4  12  24  41  65 105 144 188 248 300 357 437
#     4  11  23  42  67  95 151 195 236 292 368 440
#     4  12  24  41  65 105 144 188 248 300 357 437
#     4  11  24  44  67 105 142 182 233 304 376 432
#     4  12  23  40  73 106 140 182 244 302 354 434
#
# _framework density 20.522458
#
# number of rings (size 3 to 8) (size 9 to 14) (size 15 to 20)
#    0.000    0.500    7.500    3.750    0.000    0.500 
#    0.000    3.750    0.000    2.250    0.000    0.000 
#    0.000    0.000    0.000    0.000    0.000    0.000 
#
# Total GULP energy -356534.079536 kJ/mol
# GULP energy per Si atom -5570.844993 kJ/mol
# Density = 2.047575 g / cm^3
# Si number density = 20.522458 Si / 1000 Ang^3
#
#
#
# Elastic Constant Matrix: (Units=GPa)
#
#
# Indices 1 2 3 4 5 6 
#
# 1 112.2970 31.8412 29.1103 0.0000 0.0000 0.0000
# 2 31.8412 106.5892 31.8391 0.0000 0.0000 0.0000
# 3 29.1103 31.8391 112.2968 0.0000 0.0000 0.0000
# 4 0.0000 0.0000 0.0000 31.2589 0.0000 0.0000
# 5 0.0000 0.0000 0.0000 0.0000 1.8051 0.0000
# 6 0.0000 0.0000 0.0000 0.0000 0.0000 31.2571
#
#
#
# Elastic Compliance Matrix: (Units=1/GPa)
#
#
# Indices 1 2 3 4 5 6 
#
# 1 0.010096 -0.002441 -0.001925 0.000000 0.000000 0.000000
# 2 -0.002441 0.010840 -0.002441 0.000000 0.000000 0.000000
# 3 -0.001925 -0.002441 0.010096 0.000000 0.000000 0.000000
# 4 0.000000 0.000000 0.000000 0.031991 0.000000 0.000000
# 5 0.000000 0.000000 0.000000 0.000000 0.553994 0.000000
# 6 0.000000 0.000000 0.000000 0.000000 0.000000 0.031993
#
#
# Mechanical properties :
#
#
# Convention : Reuss Voigt Hill
#
# Bulk Modulus (GPa) = 57.40958 57.41825 57.41391
# Shear Modulus (GPa) = 7.48022 28.75703 18.11862
#
# Velocity S-wave (km/s) = 1.91123 3.74738 2.97453
# Velocity P-wave (km/s) = 5.73630 6.83834 6.31142
#
# Compressibility (1/GPa) = 0.01741870
#
# Stress axis : x y z
#
# Youngs Moduli (GPa) = 99.04801 92.25053 99.04902
#
# Poissons Ratio (x) = 0.22518 0.19068
# Poissons Ratio (y) = 0.24177 0.24175
# Poissons Ratio (z) = 0.19068 0.22515
#
# Static dielectric constant tensor:
#      x y z
#    x 1.932690 0.000000 0.000000 
#    y 0.000000 1.779680 0.000000 
#    z 0.000000 0.000000 1.932590 
# 
# From -- ./inp_files/34695.got.cif
#   From: 2010.05.17/outbox.cif.g08.bks.cpg/sg48_18_cif.got.tgz:34695.got - 2010.06.03 20:39:00.
