data_PCOD9391128
_publ_section_title
;
Structure prediction by ZEFSAII (Michael W. Deem and Ramdas Pophale) SiO2 
 PCOD9391128
Probable space group: P N N N
;
_chemical_formula_sum "Si O2"
_cell_formula_units_Z 36
_cell_length_a 10.754951
_cell_length_b 21.508677
_cell_length_c 6.833648
_cell_angle_alpha 90.000000
_cell_angle_beta 90.000000
_cell_angle_gamma 90.000000
_cell_volume 1580.792033
_symmetry_space_group_name_H-M "P N N N"
_symmetry_group_IT_number 48
_space_group.IT_coordinate_system_code '2'
_symmetry_cell_setting 'orthorhombic'
loop_
_space_group_symop_operation_xyz
x,y,z
1/2-x,1/2-y,z
x,1/2-y,1/2-z
1/2-x,y,1/2-z
-x,-y,-z
1/2+x,1/2+y,-z
-x,1/2+y,1/2+z
1/2+x,-y,1/2+z
loop_
_atom_site_type_symbol
_atom_site_label
_atom_site_fract_x
_atom_site_fract_y
_atom_site_fract_z
Si Si1 0.250000 0.750000 0.250000
Si Si2 0.430427 0.698208 0.918946
Si Si3 0.613399 0.062938 0.299878
Si Si4 0.626505 0.518234 0.843532
Si Si5 0.750000 0.750000 0.750000
Si Si6 0.798453 0.848569 0.030289
O O1 0.339069 0.787502 0.400072
O O2 0.431856 0.750000 0.750000
O O3 0.388440 0.636221 0.806328
O O4 0.568741 0.685725 0.002192
O O5 0.750000 0.038808 0.250000
O O6 0.487496 0.037315 0.201914
O O7 0.586774 0.038479 0.518045
O O8 0.750000 0.492338 0.750000
O O9 0.675202 0.582020 0.948226
O O10 0.705136 0.696030 0.594788
O O11 0.750000 0.851985 0.250000
#
# Coordination Sequence:
#
# PCOD9391128 Si02
#       6
#     2   8   8   8   2   8
#     4  12  26  40  64  94 128 184 226 284 328 422
#     4  11  25  46  65  96 140 176 229 286 343 409
#     4  10  22  42  66  93 131 180 225 279 344 413
#     4  10  22  42  65  98 135 172 227 287 342 402
#     4  12  22  40  66 100 132 180 210 282 350 418
#     4  11  24  42  69 100 134 175 223 282 346 420
#
# _framework density 22.773395000000001
#
# number of rings (size 3 to 8) (size 9 to 14) (size 15 to 20)
#    0.000    1.333    2.222    2.667    4.667    0.889 
#    4.000    0.000    0.000    0.000    0.000    0.000 
#    0.000    0.000    0.000    0.000    0.000    0.000 
#
# Total GULP energy -200444.815450 kJ/mol
# GULP energy per Si atom -5567.911540 kJ/mol
# Density = 2.272156 g / cm^3
# Si number density = 22.773395 Si / 1000 Ang^3
#
#
#
# Elastic Constant Matrix: (Units=GPa)
#
#
# Indices 1 2 3 4 5 6 
#
# 1 124.1515 -13.4507 4.4709 0.0000 0.0000 0.0000
# 2 -13.4507 91.6801 7.4409 0.0000 0.0000 0.0000
# 3 4.4709 7.4409 72.0454 0.0000 0.0000 0.0000
# 4 0.0000 0.0000 0.0000 29.2446 0.0000 0.0000
# 5 0.0000 0.0000 0.0000 0.0000 -16.2901 0.0000
# 6 0.0000 0.0000 0.0000 0.0000 0.0000 36.5605
#
#
#
# Elastic Compliance Matrix: (Units=1/GPa)
#
#
# Indices 1 2 3 4 5 6 
#
# 1 0.008214 0.001257 -0.000640 0.000000 0.000000 0.000000
# 2 0.001257 0.011192 -0.001234 0.000000 0.000000 0.000000
# 3 -0.000640 -0.001234 0.014047 0.000000 0.000000 0.000000
# 4 0.000000 0.000000 0.000000 0.034194 0.000000 0.000000
# 5 0.000000 0.000000 0.000000 0.000000 -0.061387 0.000000
# 6 0.000000 0.000000 0.000000 0.000000 0.000000 0.027352
#
#
# Mechanical properties :
#
#
# Convention : Reuss Voigt Hill
#
# Bulk Modulus (GPa) = 31.03639 31.64436 31.34038
# Shear Modulus (GPa) = 109.68338 29.19737 69.44038
#
# Velocity S-wave (km/s) = 6.94748 3.58450 5.52794
# Velocity P-wave (km/s) = 8.83259 5.57288 7.38484
#
# Compressibility (1/GPa) = 0.03222024
#
# Stress axis : x y z
#
# Youngs Moduli (GPa) = 121.74497 89.34912 71.18828
#
# Poissons Ratio (x) = -0.11231 0.04553
# Poissons Ratio (y) = -0.15303 0.08784
# Poissons Ratio (z) = 0.07786 0.11025
#
# Static dielectric constant tensor:
#      x y z
#    x 2.158480 0.000000 0.000000 
#    y 0.000000 1.804210 0.000000 
#    z 0.000000 0.000000 1.922450 
# 
# From -- ./inp_files/2255.got.cif
#   From: 2010.05.17/outbox.cif.g08.bks.cpg/sg48_2_cif.got.tgz:2255.got - 2010.06.03 20:39:00.
