data_PCOD9391201
_publ_section_title
;
Structure prediction by ZEFSAII (Michael W. Deem and Ramdas Pophale) SiO2 
 PCOD9391201
Probable space group: P N N N
;
_chemical_formula_sum "Si O2"
_cell_formula_units_Z 48
_cell_length_a 8.456422
_cell_length_b 30.503033
_cell_length_c 9.005427
_cell_angle_alpha 90.000000
_cell_angle_beta 90.000000
_cell_angle_gamma 90.000000
_cell_volume 2322.918550
_symmetry_space_group_name_H-M "P N N N"
_symmetry_group_IT_number 48
_space_group.IT_coordinate_system_code '2'
_symmetry_cell_setting 'orthorhombic'
loop_
_space_group_symop_operation_xyz
x,y,z
1/2-x,1/2-y,z
x,1/2-y,1/2-z
1/2-x,y,1/2-z
-x,-y,-z
1/2+x,1/2+y,-z
-x,1/2+y,1/2+z
1/2+x,-y,1/2+z
loop_
_atom_site_type_symbol
_atom_site_label
_atom_site_fract_x
_atom_site_fract_y
_atom_site_fract_z
Si Si1 0.250000 0.906930 0.250000
Si Si2 0.494535 0.640644 0.051008
Si Si3 0.562179 0.385166 0.269269
Si Si4 0.008451 0.449152 0.961379
Si Si5 0.250000 0.404649 0.750000
Si Si6 0.078883 0.292158 0.168078
Si Si7 0.064881 0.742315 0.425860
O O1 0.162777 0.876034 0.132198
O O2 0.368806 0.935930 0.152708
O O3 0.631290 0.626378 0.161543
O O4 0.482478 0.692658 0.031492
O O5 0.511717 0.615008 0.895654
O O6 0.750000 0.389254 0.250000
O O7 0.505006 0.420610 0.388238
O O8 0.515926 0.336909 0.325436
O O9 0.163176 0.434869 0.870617
O O10 0.000000 0.500000 0.000000
O O11 0.002859 0.250000 0.250000
O O12 0.250000 0.297835 0.250000
O O13 0.061976 0.275289 0.000200
O O14 0.250000 0.750000 0.471122
O O15 0.060053 0.750000 0.250000
#
# Coordination Sequence:
#
# PCOD9391201 Si02
#       7
#     4   8   8   8   4   8   8
#     4  10  22  46  69 102 144 174 233 284 350 424
#     4  11  23  44  69 105 142 186 234 289 349 427
#     4  12  25  43  73 100 135 185 235 285 354 418
#     4  11  27  47  75 103 141 181 233 295 359 431
#     4  10  28  44  71 106 140 182 227 296 364 412
#     4  11  26  43  63 101 143 182 233 290 340 414
#     4  11  24  41  71 102 140 189 241 283 344 418
#
# _framework density 20.663661999999999
#
# number of rings (size 3 to 8) (size 9 to 14) (size 15 to 20)
#    0.000    1.000    3.333    2.000    8.167    1.333 
#    0.000    3.333    0.000    0.000    0.000    0.000 
#    0.000    0.000    0.000    0.000    0.000    0.000 
#
# Total GULP energy -268231.169839 kJ/mol
# GULP energy per Si atom -5588.149372 kJ/mol
# Density = 2.061663 g / cm^3
# Si number density = 20.663662 Si / 1000 Ang^3
#
#
#
# Elastic Constant Matrix: (Units=GPa)
#
#
# Indices 1 2 3 4 5 6 
#
# 1 68.5776 34.7919 26.3246 0.0000 0.0000 0.0000
# 2 34.7919 145.4675 57.3279 0.0000 0.0000 0.0000
# 3 26.3246 57.3279 125.5219 0.0000 0.0000 0.0000
# 4 0.0000 0.0000 0.0000 49.7805 0.0000 0.0000
# 5 0.0000 0.0000 0.0000 0.0000 20.3653 0.0000
# 6 0.0000 0.0000 0.0000 0.0000 0.0000 -3.4535
#
#
#
# Elastic Compliance Matrix: (Units=1/GPa)
#
#
# Indices 1 2 3 4 5 6 
#
# 1 0.017033 -0.003251 -0.002087 0.000000 0.000000 0.000000
# 2 -0.003251 0.009004 -0.003430 0.000000 0.000000 0.000000
# 3 -0.002087 -0.003430 0.009971 0.000000 0.000000 0.000000
# 4 0.000000 0.000000 0.000000 0.020088 0.000000 0.000000
# 5 0.000000 0.000000 0.000000 0.000000 0.049103 0.000000
# 6 0.000000 0.000000 0.000000 0.000000 0.000000 -0.289559
#
#
# Mechanical properties :
#
#
# Convention : Reuss Voigt Hill
#
# Bulk Modulus (GPa) = 54.14147 64.05066 59.09607
# Shear Modulus (GPa) = -31.12054 28.07996 -1.52029
#
# Velocity S-wave (km/s) = -3.88500 3.69033 -0.85868
# Velocity P-wave (km/s) = 2.47667 7.01585 5.26099
#
# Compressibility (1/GPa) = 0.01847013
#
# Stress axis : x y z
#
# Youngs Moduli (GPa) = 58.71064 111.06329 100.28897
#
# Poissons Ratio (x) = 0.36109 0.20933
# Poissons Ratio (y) = 0.19088 0.34403
# Poissons Ratio (z) = 0.12254 0.38099
#
# Static dielectric constant tensor:
#      x y z
#    x 1.857360 0.000000 0.000000 
#    y 0.000000 1.661260 0.000000 
#    z 0.000000 0.000000 1.785040 
# 
# From -- ./inp_files/9534.got.cif
#   From: 2010.05.17/outbox.cif.g08.bks.cpg/sg48_5_cif.got.tgz:9534.got - 2010.06.03 20:39:00.
