data_PCOD9391677
_publ_section_title
;
Structure prediction by ZEFSAII (Michael W. Deem and Ramdas Pophale) SiO2 
 PCOD9391677
Probable space group: P N N N
;
_chemical_formula_sum "Si O2"
_cell_formula_units_Z 40
_cell_length_a 11.500747
_cell_length_b 15.336481
_cell_length_c 9.932580
_cell_angle_alpha 90.000000
_cell_angle_beta 90.000000
_cell_angle_gamma 90.000000
_cell_volume 1751.918272
_symmetry_space_group_name_H-M "P N N N"
_symmetry_group_IT_number 48
_space_group.IT_coordinate_system_code '2'
_symmetry_cell_setting 'orthorhombic'
loop_
_space_group_symop_operation_xyz
x,y,z
1/2-x,1/2-y,z
x,1/2-y,1/2-z
1/2-x,y,1/2-z
-x,-y,-z
1/2+x,1/2+y,-z
-x,1/2+y,1/2+z
1/2+x,-y,1/2+z
loop_
_atom_site_type_symbol
_atom_site_label
_atom_site_fract_x
_atom_site_fract_y
_atom_site_fract_z
Si Si1 0.876952 0.079532 0.256611
Si Si2 0.482992 0.113682 0.504741
Si Si3 0.273430 0.095901 0.895415
Si Si4 0.013053 0.178925 0.471065
Si Si5 0.879791 0.355003 0.767502
O O1 0.750000 0.125333 0.250000
O O2 0.937871 0.068849 0.110565
O O3 0.969032 0.137438 0.334875
O O4 0.839791 0.992861 0.343523
O O5 0.347588 0.089277 0.523747
O O6 0.493167 0.217150 0.473593
O O7 0.541363 0.105008 0.651684
O O8 0.250000 0.140778 0.750000
O O9 0.359384 0.150401 0.986504
O O10 0.930559 0.135193 0.584754
O O11 0.878275 0.250000 0.750000
O O12 0.750000 0.388730 0.750000
#
# Coordination Sequence:
#
# PCOD9391677 Si02
#       5
#     8   8   8   8   8
#     4  11  26  44  67 100 145 186 228 296 370 432
#     4  11  23  42  72 100 134 188 240 291 352 430
#     4  11  24  44  69  99 144 185 233 290 368 429
#     4  11  22  42  69 102 136 180 242 298 350 423
#     4   9  18  34  62  98 131 171 228 290 345 405
#
# _framework density 22.832113
#
# number of rings (size 3 to 8) (size 9 to 14) (size 15 to 20)
#    0.000    1.400    2.000    3.000    0.000    8.000 
#    3.600    2.000    0.000    0.000    0.000    0.000 
#    0.000    0.000    0.000    0.000    0.000    0.000 
#
# Total GULP energy -223455.291995 kJ/mol
# GULP energy per Si atom -5586.382300 kJ/mol
# Density = 2.278015 g / cm^3
# Si number density = 22.832113 Si / 1000 Ang^3
#
#
#
# Elastic Constant Matrix: (Units=GPa)
#
#
# Indices 1 2 3 4 5 6 
#
# 1 131.4677 20.3540 20.9571 0.0000 0.0000 0.0000
# 2 20.3540 88.5244 13.1172 0.0000 0.0000 0.0000
# 3 20.9571 13.1172 92.3441 0.0000 0.0000 0.0000
# 4 0.0000 0.0000 0.0000 50.6927 0.0000 0.0000
# 5 0.0000 0.0000 0.0000 0.0000 52.9079 0.0000
# 6 0.0000 0.0000 0.0000 0.0000 0.0000 27.7963
#
#
#
# Elastic Compliance Matrix: (Units=1/GPa)
#
#
# Indices 1 2 3 4 5 6 
#
# 1 0.008115 -0.001627 -0.001611 0.000000 0.000000 0.000000
# 2 -0.001627 0.011865 -0.001316 0.000000 0.000000 0.000000
# 3 -0.001611 -0.001316 0.011382 0.000000 0.000000 0.000000
# 4 0.000000 0.000000 0.000000 0.019727 0.000000 0.000000
# 5 0.000000 0.000000 0.000000 0.000000 0.018901 0.000000
# 6 0.000000 0.000000 0.000000 0.000000 0.000000 0.035976
#
#
# Mechanical properties :
#
#
# Convention : Reuss Voigt Hill
#
# Bulk Modulus (GPa) = 44.93524 46.79919 45.86721
# Shear Modulus (GPa) = 40.81916 43.47325 42.14621
#
# Velocity S-wave (km/s) = 4.23282 4.36826 4.30108
# Velocity P-wave (km/s) = 6.60397 6.78114 6.69314
#
# Compressibility (1/GPa) = 0.02225425
#
# Stress axis : x y z
#
# Youngs Moduli (GPa) = 123.22717 84.27811 87.86165
#
# Poissons Ratio (x) = 0.13714 0.14151
# Poissons Ratio (y) = 0.20052 0.11564
# Poissons Ratio (z) = 0.19846 0.11092
#
# Static dielectric constant tensor:
#      x y z
#    x 1.842660 0.000000 0.000000 
#    y 0.000000 1.891800 0.000000 
#    z 0.000000 0.000000 1.810740 
# 
# From -- ./inp_files/10683.got.cif
#   From: 2010.05.17/outbox.cif.g08.bks.cpg/sg48_6_cif.got.tgz:10683.got - 2010.06.03 20:39:00.
