data_PCOD9391167
_publ_section_title
;
Structure prediction by ZEFSAII (Michael W. Deem and Ramdas Pophale) SiO2 
 PCOD9391167
Probable space group: P N N N
;
_chemical_formula_sum "Si O2"
_cell_formula_units_Z 56
_cell_length_a 8.901411
_cell_length_b 11.903957
_cell_length_c 20.962176
_cell_angle_alpha 90.000000
_cell_angle_beta 90.000000
_cell_angle_gamma 90.000000
_cell_volume 2221.194382
_symmetry_space_group_name_H-M "P N N N"
_symmetry_group_IT_number 48
_space_group.IT_coordinate_system_code '2'
_symmetry_cell_setting 'orthorhombic'
loop_
_space_group_symop_operation_xyz
x,y,z
1/2-x,1/2-y,z
x,1/2-y,1/2-z
1/2-x,y,1/2-z
-x,-y,-z
1/2+x,1/2+y,-z
-x,1/2+y,1/2+z
1/2+x,-y,1/2+z
loop_
_atom_site_type_symbol
_atom_site_label
_atom_site_fract_x
_atom_site_fract_y
_atom_site_fract_z
Si Si1 0.924193 0.234241 0.150555
Si Si2 0.178711 0.497552 0.652659
Si Si3 0.216247 0.593815 0.092551
Si Si4 0.062604 0.639966 0.293709
Si Si5 0.517349 0.961161 0.810378
Si Si6 0.794829 0.568694 0.489147
Si Si7 0.000510 0.281923 0.003954
O O1 0.750000 0.250000 0.168601
O O2 0.024839 0.325878 0.187202
O O3 0.941464 0.265878 0.075924
O O4 0.937555 0.101516 0.161955
O O5 0.099430 0.383508 0.674751
O O6 0.338626 0.513432 0.686470
O O7 0.211115 0.494526 0.577634
O O8 0.317742 0.516535 0.046901
O O9 0.180616 0.858583 0.148950
O O10 0.095192 0.513970 0.127524
O O11 0.123448 0.676934 0.046357
O O12 0.066812 0.750000 0.250000
O O13 0.083692 0.533596 0.247048
O O14 0.918708 0.665504 0.486521
O O15 0.634270 0.627264 0.501388
#
# Coordination Sequence:
#
# PCOD9391167 Si02
#       7
#     8   8   8   8   8   8   8
#     4  10  22  43  76 113 147 196 261 329 395 462
#     4  11  25  49  75 113 157 204 270 326 394 477
#     4  12  24  49  79 112 160 207 263 338 403 480
#     4  12  31  51  72 112 162 212 267 322 396 483
#     4  11  24  48  76 106 151 210 265 321 390 479
#     4  11  24  44  78 116 153 204 264 326 408 478
#     4  11  23  42  75 116 157 201 252 330 407 478
#
# _framework density 25.211663000000001
#
# number of rings (size 3 to 8) (size 9 to 14) (size 15 to 20)
#    0.000    0.857    2.857    3.857    2.000    6.286 
#    2.571    2.143    0.000    1.714    0.000    0.000 
#    0.000    0.000    0.000    0.000    0.000    0.000 
#
# Total GULP energy -313941.341474 kJ/mol
# GULP energy per Si atom -5606.095383 kJ/mol
# Density = 2.515428 g / cm^3
# Si number density = 25.211663 Si / 1000 Ang^3
#
#
#
# Elastic Constant Matrix: (Units=GPa)
#
#
# Indices 1 2 3 4 5 6 
#
# 1 64.9779 69.6342 26.4869 0.0000 0.0000 0.0000
# 2 69.6342 156.9618 89.3657 0.0000 0.0000 0.0000
# 3 26.4869 89.3657 146.3615 0.0000 0.0000 0.0000
# 4 0.0000 0.0000 0.0000 56.1131 0.0000 0.0000
# 5 0.0000 0.0000 0.0000 0.0000 48.1758 0.0000
# 6 0.0000 0.0000 0.0000 0.0000 0.0000 23.5408
#
#
#
# Elastic Compliance Matrix: (Units=1/GPa)
#
#
# Indices 1 2 3 4 5 6 
#
# 1 0.030987 -0.016178 0.004271 0.000000 0.000000 0.000000
# 2 -0.016178 0.018213 -0.008193 0.000000 0.000000 0.000000
# 3 0.004271 -0.008193 0.011062 0.000000 0.000000 0.000000
# 4 0.000000 0.000000 0.000000 0.017821 0.000000 0.000000
# 5 0.000000 0.000000 0.000000 0.000000 0.020757 0.000000
# 6 0.000000 0.000000 0.000000 0.000000 0.000000 0.042479
#
#
# Mechanical properties :
#
#
# Convention : Reuss Voigt Hill
#
# Bulk Modulus (GPa) = 49.84917 82.14166 65.99541
# Shear Modulus (GPa) = 26.56658 37.75358 32.16008
#
# Velocity S-wave (km/s) = 3.24966 3.87391 3.57543
# Velocity P-wave (km/s) = 5.82199 7.25680 6.57863
#
# Compressibility (1/GPa) = 0.02006051
#
# Stress axis : x y z
#
# Youngs Moduli (GPa) = 32.27198 54.90685 90.40127
#
# Poissons Ratio (x) = 0.88830 -0.38606
# Poissons Ratio (y) = 0.52210 0.74062
# Poissons Ratio (z) = -0.13782 0.44983
#
# Static dielectric constant tensor:
#      x y z
#    x 1.958090 0.000000 0.000000 
#    y 0.000000 2.043540 0.000000 
#    z 0.000000 0.000000 1.974690 
# 
# From -- ./inp_files/34167.got.cif
#   From: 2010.05.17/outbox.cif.g08.bks.cpg/sg48_18_cif.got.tgz:34167.got - 2010.06.03 20:39:00.
