data_PCOD9391712
_publ_section_title
;
Structure prediction by ZEFSAII (Michael W. Deem and Ramdas Pophale) SiO2 
 PCOD9391712
Probable space group: P N N N
;
_chemical_formula_sum "Si O2"
_cell_formula_units_Z 58
_cell_length_a 23.110300
_cell_length_b 9.384326
_cell_length_c 11.783908
_cell_angle_alpha 90.000000
_cell_angle_beta 90.000000
_cell_angle_gamma 90.000000
_cell_volume 2555.630206
_symmetry_space_group_name_H-M "P N N N"
_symmetry_group_IT_number 48
_space_group.IT_coordinate_system_code '2'
_symmetry_cell_setting 'orthorhombic'
loop_
_space_group_symop_operation_xyz
x,y,z
1/2-x,1/2-y,z
x,1/2-y,1/2-z
1/2-x,y,1/2-z
-x,-y,-z
1/2+x,1/2+y,-z
-x,1/2+y,1/2+z
1/2+x,-y,1/2+z
loop_
_atom_site_type_symbol
_atom_site_label
_atom_site_fract_x
_atom_site_fract_y
_atom_site_fract_z
Si Si1 0.982490 0.841591 0.536524
Si Si2 0.828652 0.059979 0.415789
Si Si3 0.013964 0.879487 0.156976
Si Si4 0.637295 0.539904 0.832911
Si Si5 0.847405 0.647618 0.913185
Si Si6 0.750000 0.250000 0.250000
Si Si7 0.433027 0.900305 0.770371
Si Si8 0.818719 0.237922 0.881893
O O1 0.003991 0.711734 0.457681
O O2 0.914309 0.845827 0.549320
O O3 0.014093 0.837336 0.656234
O O4 0.000000 0.000000 0.500000
O O5 0.784906 0.144160 0.335012
O O6 0.885323 0.018566 0.344679
O O7 0.846006 0.165056 0.520724
O O8 0.809634 0.920818 0.487010
O O9 0.018396 0.750000 0.250000
O O10 0.960510 0.986315 0.183812
O O11 0.070404 0.983662 0.160645
O O12 0.659747 0.690380 0.877832
O O13 0.655339 0.550487 0.700282
O O14 0.668417 0.424157 0.909182
O O15 0.400408 0.750000 0.750000
O O16 0.750000 0.250000 0.882156
O O17 0.839517 0.250000 0.750000
#
# Coordination Sequence:
#
# PCOD9391712 Si02
#       8
#     8   8   8   8   8   2   8   8
#     4  12  22  40  64 101 145 193 243 293 354 432
#     4  12  24  48  75 102 145 189 252 315 357 427
#     4  12  23  39  67 102 148 198 244 289 361 452
#     4  11  23  40  69 109 146 184 232 299 382 443
#     4  11  23  42  67 103 154 187 222 305 376 439
#     4  12  28  52  82 106 132 200 270 306 344 430
#     4  12  25  41  65 103 150 196 245 302 365 446
#     4  11  23  42  76 109 133 178 250 311 370 433
#
# _framework density 22.694989
#
# number of rings (size 3 to 8) (size 9 to 14) (size 15 to 20)
#    0.000    0.414    6.897    2.069    0.000    3.310 
#    0.000    0.690    0.000    0.828    0.000    0.000 
#    0.000    0.000    0.000    0.000    0.000    0.000 
#
# Total GULP energy -323424.938296 kJ/mol
# GULP energy per Si atom -5576.292040 kJ/mol
# Density = 2.264333 g / cm^3
# Si number density = 22.694989 Si / 1000 Ang^3
#
#
#
# Elastic Constant Matrix: (Units=GPa)
#
#
# Indices 1 2 3 4 5 6 
#
# 1 48.2486 2.3604 14.7972 0.0000 0.0000 0.0000
# 2 2.3604 126.9511 50.2720 0.0000 0.0000 0.0000
# 3 14.7972 50.2720 91.9832 0.0000 0.0000 0.0000
# 4 0.0000 0.0000 0.0000 48.5139 0.0000 0.0000
# 5 0.0000 0.0000 0.0000 0.0000 -6.4824 0.0000
# 6 0.0000 0.0000 0.0000 0.0000 0.0000 25.6543
#
#
#
# Elastic Compliance Matrix: (Units=1/GPa)
#
#
# Indices 1 2 3 4 5 6 
#
# 1 0.021959 0.001264 -0.004224 0.000000 0.000000 0.000000
# 2 0.001264 0.010125 -0.005737 0.000000 0.000000 0.000000
# 3 -0.004224 -0.005737 0.014687 0.000000 0.000000 0.000000
# 4 0.000000 0.000000 0.000000 0.020613 0.000000 0.000000
# 5 0.000000 0.000000 0.000000 0.000000 -0.154263 0.000000
# 6 0.000000 0.000000 0.000000 0.000000 0.000000 0.038980
#
#
# Mechanical properties :
#
#
# Convention : Reuss Voigt Hill
#
# Bulk Modulus (GPa) = 34.03874 44.67138 39.35506
# Shear Modulus (GPa) = -241.39449 26.85404 -107.27023
#
# Velocity S-wave (km/s) = -10.32451 3.44358 -6.88249
# Velocity P-wave (km/s) = 11.27371 5.96130 6.76607
#
# Compressibility (1/GPa) = 0.02937829
#
# Stress axis : x y z
#
# Youngs Moduli (GPa) = 45.53852 98.76070 68.08920
#
# Poissons Ratio (x) = -0.12485 0.28758
# Poissons Ratio (y) = -0.05757 0.39065
# Poissons Ratio (z) = 0.19233 0.56662
#
# Static dielectric constant tensor:
#      x y z
#    x 1.980990 0.000000 0.000000 
#    y 0.000000 1.574370 0.000000 
#    z 0.000000 0.000000 1.867910 
# 
# From -- ./inp_files/23664.got.cif
#   From: 2010.05.17/outbox.cif.g08.bks.cpg/sg48_12_cif.got.tgz:23664.got - 2010.06.03 20:39:00.
