data_PCOD9391026
_publ_section_title
;
Structure prediction by ZEFSAII (Michael W. Deem and Ramdas Pophale) SiO2 
 PCOD9391026
Probable space group: P N N N
;
_chemical_formula_sum "Si O2"
_cell_formula_units_Z 40
_cell_length_a 29.022190
_cell_length_b 12.286567
_cell_length_c 5.101654
_cell_angle_alpha 90.000000
_cell_angle_beta 90.000000
_cell_angle_gamma 90.000000
_cell_volume 1819.163506
_symmetry_space_group_name_H-M "P N N N"
_symmetry_group_IT_number 48
_space_group.IT_coordinate_system_code '2'
_symmetry_cell_setting 'orthorhombic'
loop_
_space_group_symop_operation_xyz
x,y,z
1/2-x,1/2-y,z
x,1/2-y,1/2-z
1/2-x,y,1/2-z
-x,-y,-z
1/2+x,1/2+y,-z
-x,1/2+y,1/2+z
1/2+x,-y,1/2+z
loop_
_atom_site_type_symbol
_atom_site_label
_atom_site_fract_x
_atom_site_fract_y
_atom_site_fract_z
Si Si1 0.094793 0.440593 0.021169
Si Si2 0.651163 0.750000 0.250000
Si Si3 0.916011 0.250000 0.750000
Si Si4 0.494291 0.178704 0.988108
Si Si5 0.782214 0.574846 0.499705
Si Si6 0.368811 0.942531 0.520555
O O1 0.120766 0.329472 0.932650
O O2 0.040139 0.421455 0.004815
O O3 0.115156 0.525849 0.811123
O O4 0.106721 0.475591 0.314592
O O5 0.683902 0.824882 0.431346
O O6 0.885533 0.323500 0.561066
O O7 0.952130 0.328426 0.905083
O O8 0.474599 0.250000 0.750000
O O9 0.492135 0.250000 0.250000
O O10 0.750000 0.561635 0.250000
O O11 0.815271 0.469775 0.521193
O O12 0.750000 0.592287 0.750000
#
# Coordination Sequence:
#
# PCOD9391026 Si02
#       6
#     8   4   4   8   8   8
#     4  11  23  40  63 102 131 173 207 255 323 392
#     4  10  22  38  66  95 132 167 192 248 330 402
#     4  10  27  46  65  91 128 177 227 272 315 360
#     4  10  22  40  62  95 135 164 214 259 304 389
#     4  11  24  42  62  97 127 161 209 264 326 395
#     4  11  26  42  68  90 129 172 221 267 324 384
#
# _framework density 21.988126999999999
#
# number of rings (size 3 to 8) (size 9 to 14) (size 15 to 20)
#    0.600    0.800    1.000    3.900    5.600    8.000 
#    0.000    0.500    0.000    3.600    0.000    0.000 
#    0.000    0.000    0.000    0.000    0.000    0.000 
#
# Total GULP energy -223626.466284 kJ/mol
# GULP energy per Si atom -5590.661657 kJ/mol
# Density = 2.193808 g / cm^3
# Si number density = 21.988127 Si / 1000 Ang^3
#
#
#
# Elastic Constant Matrix: (Units=GPa)
#
#
# Indices 1 2 3 4 5 6 
#
# 1 140.5901 48.9780 24.6786 0.0000 0.0000 0.0000
# 2 48.9780 58.7078 -13.9439 0.0000 0.0000 0.0000
# 3 24.6786 -13.9439 79.1714 0.0000 0.0000 0.0000
# 4 0.0000 0.0000 0.0000 36.2176 0.0000 0.0000
# 5 0.0000 0.0000 0.0000 0.0000 44.9461 0.0000
# 6 0.0000 0.0000 0.0000 0.0000 0.0000 43.2404
#
#
#
# Elastic Compliance Matrix: (Units=1/GPa)
#
#
# Indices 1 2 3 4 5 6 
#
# 1 0.012144 -0.011512 -0.005813 0.000000 0.000000 0.000000
# 2 -0.011512 0.028690 0.008641 0.000000 0.000000 0.000000
# 3 -0.005813 0.008641 0.015965 0.000000 0.000000 0.000000
# 4 0.000000 0.000000 0.000000 0.027611 0.000000 0.000000
# 5 0.000000 0.000000 0.000000 0.000000 0.022249 0.000000
# 6 0.000000 0.000000 0.000000 0.000000 0.000000 0.023127
#
#
# Mechanical properties :
#
#
# Convention : Reuss Voigt Hill
#
# Bulk Modulus (GPa) = 25.36038 44.21052 34.78545
# Shear Modulus (GPa) = 31.19263 39.46459 35.32861
#
# Velocity S-wave (km/s) = 3.77053 4.24112 4.01273
# Velocity P-wave (km/s) = 5.52400 6.64327 6.10932
#
# Compressibility (1/GPa) = 0.03943158
#
# Stress axis : x y z
#
# Youngs Moduli (GPa) = 82.34815 34.85576 62.63850
#
# Poissons Ratio (x) = 0.40125 0.36410
# Poissons Ratio (y) = 0.94796 -0.54127
# Poissons Ratio (z) = 0.47867 -0.30119
#
# Static dielectric constant tensor:
#      x y z
#    x 1.769390 0.000000 0.000000 
#    y 0.000000 1.848590 0.000000 
#    z 0.000000 0.000000 1.753870 
# 
# From -- ./inp_files/6952.got.cif
#   From: 2010.05.17/outbox.cif.g08.bks.cpg/sg48_4_cif.got.tgz:6952.got - 2010.06.03 20:39:00.
