data_PCOD9391870
_publ_section_title
;
Structure prediction by ZEFSAII (Michael W. Deem and Ramdas Pophale) SiO2 
 PCOD9391870
Probable space group: P N N N
;
_chemical_formula_sum "Si O2"
_cell_formula_units_Z 48
_cell_length_a 15.158619
_cell_length_b 10.522062
_cell_length_c 12.995977
_cell_angle_alpha 90.000000
_cell_angle_beta 90.000000
_cell_angle_gamma 90.000000
_cell_volume 2072.857408
_symmetry_space_group_name_H-M "P N N N"
_symmetry_group_IT_number 48
_space_group.IT_coordinate_system_code '2'
_symmetry_cell_setting 'orthorhombic'
loop_
_space_group_symop_operation_xyz
x,y,z
1/2-x,1/2-y,z
x,1/2-y,1/2-z
1/2-x,y,1/2-z
-x,-y,-z
1/2+x,1/2+y,-z
-x,1/2+y,1/2+z
1/2+x,-y,1/2+z
loop_
_atom_site_type_symbol
_atom_site_label
_atom_site_fract_x
_atom_site_fract_y
_atom_site_fract_z
Si Si1 0.424270 0.607175 0.509161
Si Si2 0.524296 0.611199 0.807624
Si Si3 0.177622 0.503127 0.173645
Si Si4 0.653526 0.472297 0.278591
Si Si5 0.598017 0.750000 0.250000
Si Si6 0.561030 0.678345 0.025113
Si Si7 0.250000 0.250000 0.441750
O O1 0.500000 0.500000 0.500000
O O2 0.355033 0.591683 0.417963
O O3 0.373660 0.584490 0.613429
O O4 0.481901 0.732075 0.512914
O O5 0.534159 0.750000 0.750000
O O6 0.588951 0.528956 0.736269
O O7 0.422374 0.573410 0.798706
O O8 0.554651 0.584135 0.925664
O O9 0.250000 0.558441 0.250000
O O10 0.220490 0.371881 0.127190
O O11 0.750000 0.430290 0.250000
O O12 0.650075 0.625328 0.286376
O O13 0.548625 0.693256 0.148785
O O14 0.663228 0.720735 0.008886
#
# Coordination Sequence:
#
# PCOD9391870 Si02
#       7
#     8   8   8   8   4   8   4
#     4  12  21  45  66  95 140 192 217 274 368 424
#     4  12  21  43  70 100 134 174 231 289 334 403
#     4  12  21  34  66 107 136 169 233 291 345 402
#     4  12  27  43  69 101 138 183 233 282 348 415
#     4  12  27  44  64 100 141 172 221 286 358 410
#     4  12  25  40  70  99 140 178 225 285 349 416
#     4  12  19  33  64 102 132 165 221 296 342 390
#
# _framework density 23.15644
#
# number of rings (size 3 to 8) (size 9 to 14) (size 15 to 20)
#    0.000    0.000   10.000    0.500    4.667    1.000 
#    0.000    1.667    0.000    0.000    0.000    0.583 
#    0.000    0.000    0.000    0.000    0.000    0.000 
#
# Total GULP energy -267855.266976 kJ/mol
# GULP energy per Si atom -5580.318062 kJ/mol
# Density = 2.310373 g / cm^3
# Si number density = 23.156440 Si / 1000 Ang^3
#
#
#
# Elastic Constant Matrix: (Units=GPa)
#
#
# Indices 1 2 3 4 5 6 
#
# 1 162.5124 5.9399 50.6530 0.0000 0.0000 0.0000
# 2 5.9399 15.6344 1.8643 0.0000 0.0000 0.0000
# 3 50.6530 1.8643 153.3254 0.0000 0.0000 0.0000
# 4 0.0000 0.0000 0.0000 24.2271 0.0000 0.0000
# 5 0.0000 0.0000 0.0000 0.0000 45.5408 0.0000
# 6 0.0000 0.0000 0.0000 0.0000 0.0000 -19.0528
#
#
#
# Elastic Compliance Matrix: (Units=1/GPa)
#
#
# Indices 1 2 3 4 5 6 
#
# 1 0.006946 -0.002369 -0.002266 0.000000 0.000000 0.000000
# 2 -0.002369 0.064862 -0.000006 0.000000 0.000000 0.000000
# 3 -0.002266 -0.000006 0.007271 0.000000 0.000000 0.000000
# 4 0.000000 0.000000 0.000000 0.041276 0.000000 0.000000
# 5 0.000000 0.000000 0.000000 0.000000 0.021958 0.000000
# 6 0.000000 0.000000 0.000000 0.000000 0.000000 -0.052486
#
#
# Mechanical properties :
#
#
# Convention : Reuss Voigt Hill
#
# Bulk Modulus (GPa) = 14.32718 49.82073 32.07396
# Shear Modulus (GPa) = 40.85779 28.34401 34.60090
#
# Velocity S-wave (km/s) = 4.20506 3.50240 3.86971
# Velocity P-wave (km/s) = 5.45686 6.15770 5.81784
#
# Compressibility (1/GPa) = 0.06979742
#
# Stress axis : x y z
#
# Youngs Moduli (GPa) = 143.96290 15.41729 137.53747
#
# Poissons Ratio (x) = 0.03652 0.31166
# Poissons Ratio (y) = 0.34103 0.00084
# Poissons Ratio (z) = 0.32622 0.00009
#
# Static dielectric constant tensor:
#      x y z
#    x 1.701210 0.000000 0.000000 
#    y 0.000000 1.970400 0.000000 
#    z 0.000000 0.000000 1.959450 
# 
# From -- ./inp_files/27270.got.cif
#   From: 2010.05.17/outbox.cif.g08.bks.cpg/sg48_14_cif.got.tgz:27270.got - 2010.06.03 20:39:00.
