data_PCOD9391233
_publ_section_title
;
Structure prediction by ZEFSAII (Michael W. Deem and Ramdas Pophale) SiO2 
 PCOD9391233
Probable space group: P N N N
;
_chemical_formula_sum "Si O2"
_cell_formula_units_Z 48
_cell_length_a 9.298447
_cell_length_b 11.781944
_cell_length_c 22.938981
_cell_angle_alpha 90.000000
_cell_angle_beta 90.000000
_cell_angle_gamma 90.000000
_cell_volume 2513.052120
_symmetry_space_group_name_H-M "P N N N"
_symmetry_group_IT_number 48
_space_group.IT_coordinate_system_code '2'
_symmetry_cell_setting 'orthorhombic'
loop_
_space_group_symop_operation_xyz
x,y,z
1/2-x,1/2-y,z
x,1/2-y,1/2-z
1/2-x,y,1/2-z
-x,-y,-z
1/2+x,1/2+y,-z
-x,1/2+y,1/2+z
1/2+x,-y,1/2+z
loop_
_atom_site_type_symbol
_atom_site_label
_atom_site_fract_x
_atom_site_fract_y
_atom_site_fract_z
Si Si1 0.198822 0.519517 0.874835
Si Si2 0.916296 0.284501 0.054334
Si Si3 0.750000 0.563459 0.250000
Si Si4 0.502520 0.750000 0.250000
Si Si5 0.008578 0.462154 0.432505
Si Si6 0.882195 0.170491 0.873193
Si Si7 0.600026 0.807302 0.053533
O O1 0.107134 0.629226 0.892618
O O2 0.242936 0.510214 0.807927
O O3 0.349863 0.520586 0.907636
O O4 0.121974 0.409367 0.901331
O O5 0.750000 0.250000 0.038036
O O6 0.014464 0.174841 0.068544
O O7 0.998563 0.341344 0.000174
O O8 0.611830 0.644876 0.258277
O O9 0.412374 0.706640 0.193961
O O10 0.000000 0.500000 0.500000
O O11 0.119944 0.538127 0.393858
O O12 0.750000 0.250000 0.891987
O O13 0.018237 0.212019 0.909912
O O14 0.750000 0.750000 0.034665
#
# Coordination Sequence:
#
# PCOD9391233 Si02
#       7
#     8   8   4   4   8   8   8
#     4  11  22  38  64  91 122 167 214 262 320 386
#     4  10  23  39  58  87 128 166 209 257 316 397
#     4  11  20  38  67  88 126 159 210 279 318 380
#     4  11  21  40  62  92 124 160 212 270 328 376
#     4  11  21  39  60  88 129 165 202 256 320 381
#     4  12  24  38  64  92 125 168 210 261 326 383
#     4  12  20  38  59  93 125 164 207 264 328 375
#
# _framework density 19.100280999999999
#
# number of rings (size 3 to 8) (size 9 to 14) (size 15 to 20)
#    0.000    0.833    6.667    1.250    2.333    0.000 
#    3.000    3.750    0.000    0.000    0.000    0.000 
#    5.000    0.000    0.000    0.000    0.000    0.000 
#
# Total GULP energy -267420.317442 kJ/mol
# GULP energy per Si atom -5571.256613 kJ/mol
# Density = 1.905681 g / cm^3
# Si number density = 19.100281 Si / 1000 Ang^3
#
#
#
# Elastic Constant Matrix: (Units=GPa)
#
#
# Indices 1 2 3 4 5 6 
#
# 1 57.9174 19.8941 26.2792 0.0000 0.0000 0.0000
# 2 19.8941 102.5089 56.3086 0.0000 0.0000 0.0000
# 3 26.2792 56.3086 157.9640 0.0000 0.0000 0.0000
# 4 0.0000 0.0000 0.0000 25.1794 0.0000 0.0000
# 5 0.0000 0.0000 0.0000 0.0000 13.2970 0.0000
# 6 0.0000 0.0000 0.0000 0.0000 0.0000 23.6665
#
#
#
# Elastic Compliance Matrix: (Units=1/GPa)
#
#
# Indices 1 2 3 4 5 6 
#
# 1 0.019157 -0.002446 -0.002315 0.000000 0.000000 0.000000
# 2 -0.002446 0.012443 -0.004028 0.000000 0.000000 0.000000
# 3 -0.002315 -0.004028 0.008152 0.000000 0.000000 0.000000
# 4 0.000000 0.000000 0.000000 0.039715 0.000000 0.000000
# 5 0.000000 0.000000 0.000000 0.000000 0.075205 0.000000
# 6 0.000000 0.000000 0.000000 0.000000 0.000000 0.042254
#
#
# Mechanical properties :
#
#
# Convention : Reuss Voigt Hill
#
# Bulk Modulus (GPa) = 45.10208 58.15048 51.62628
# Shear Modulus (GPa) = 22.53321 26.82246 24.67783
#
# Velocity S-wave (km/s) = 3.43845 3.75146 3.59836
# Velocity P-wave (km/s) = 6.27921 7.01965 6.65973
#
# Compressibility (1/GPa) = 0.02217192
#
# Stress axis : x y z
#
# Youngs Moduli (GPa) = 52.20139 80.36747 122.67382
#
# Poissons Ratio (x) = 0.19659 0.28399
# Poissons Ratio (y) = 0.12769 0.49419
# Poissons Ratio (z) = 0.12084 0.32376
#
# Static dielectric constant tensor:
#      x y z
#    x 1.677670 0.000000 0.000000 
#    y 0.000000 1.841720 0.000000 
#    z 0.000000 0.000000 1.659150 
# 
# From -- ./inp_files/35888.got.cif
#   From: 2010.05.17/outbox.cif.g08.bks.cpg/sg48_18_cif.got.tgz:35888.got - 2010.06.03 20:39:00.
