data_PCOD9391639
_publ_section_title
;
Structure prediction by ZEFSAII (Michael W. Deem and Ramdas Pophale) SiO2 
 PCOD9391639
Probable space group: P N N N
;
_chemical_formula_sum "Si O2"
_cell_formula_units_Z 24
_cell_length_a 12.165680
_cell_length_b 4.747548
_cell_length_c 19.635782
_cell_angle_alpha 90.000000
_cell_angle_beta 90.000000
_cell_angle_gamma 90.000000
_cell_volume 1134.106801
_symmetry_space_group_name_H-M "P N N N"
_symmetry_group_IT_number 48
_space_group.IT_coordinate_system_code '2'
_symmetry_cell_setting 'orthorhombic'
loop_
_space_group_symop_operation_xyz
x,y,z
1/2-x,1/2-y,z
x,1/2-y,1/2-z
1/2-x,y,1/2-z
-x,-y,-z
1/2+x,1/2+y,-z
-x,1/2+y,1/2+z
1/2+x,-y,1/2+z
loop_
_atom_site_type_symbol
_atom_site_label
_atom_site_fract_x
_atom_site_fract_y
_atom_site_fract_z
Si Si1 0.457989 0.363462 0.403688
Si Si2 0.824157 0.502998 0.034291
Si Si3 0.876142 0.148254 0.825015
O O1 0.586949 0.342284 0.418689
O O2 0.390401 0.340393 0.473735
O O3 0.401485 0.172593 0.345380
O O4 0.444528 0.683892 0.380553
O O5 0.750000 0.250000 0.005335
O O6 0.750000 0.750000 0.066761
O O7 0.750000 0.250000 0.831716
O O8 0.910452 0.250000 0.750000
#
# Coordination Sequence:
#
# PCOD9391639 Si02
#       3
#     8   8   8
#     4  11  22  37  59  86 118 154 192 241 296 353
#     4  11  22  37  59  87 119 154 193 241 298 355
#     4  11  22  37  59  86 117 153 194 242 295 351
#
# _framework density 21.162027999999999
#
# number of rings (size 3 to 8) (size 9 to 14) (size 15 to 20)
#    0.000    1.000    0.000    9.000    0.000    8.000 
#    0.000    0.000    0.000   15.000    0.000    0.000 
#    0.000    0.000    0.000    0.000    0.000    0.000 
#
# Total GULP energy -133933.086557 kJ/mol
# GULP energy per Si atom -5580.545273 kJ/mol
# Density = 2.111386 g / cm^3
# Si number density = 21.162028 Si / 1000 Ang^3
#
#
#
# Elastic Constant Matrix: (Units=GPa)
#
#
# Indices 1 2 3 4 5 6 
#
# 1 99.5248 26.5474 24.5696 0.0000 0.0000 0.0000
# 2 26.5474 81.2180 -5.5705 0.0000 0.0000 0.0000
# 3 24.5696 -5.5705 52.4606 0.0000 0.0000 0.0000
# 4 0.0000 0.0000 0.0000 38.2598 0.0000 0.0000
# 5 0.0000 0.0000 0.0000 0.0000 15.9491 0.0000
# 6 0.0000 0.0000 0.0000 0.0000 0.0000 31.4158
#
#
#
# Elastic Compliance Matrix: (Units=1/GPa)
#
#
# Indices 1 2 3 4 5 6 
#
# 1 0.012908 -0.004668 -0.006541 0.000000 0.000000 0.000000
# 2 -0.004668 0.014091 0.003682 0.000000 0.000000 0.000000
# 3 -0.006541 0.003682 0.022516 0.000000 0.000000 0.000000
# 4 0.000000 0.000000 0.000000 0.026137 0.000000 0.000000
# 5 0.000000 0.000000 0.000000 0.000000 0.062700 0.000000
# 6 0.000000 0.000000 0.000000 0.000000 0.000000 0.031831
#
#
# Mechanical properties :
#
#
# Convention : Reuss Voigt Hill
#
# Bulk Modulus (GPa) = 29.01724 36.03293 32.52509
# Shear Modulus (GPa) = 25.41657 29.63540 27.52599
#
# Velocity S-wave (km/s) = 3.46937 3.74626 3.61047
# Velocity P-wave (km/s) = 5.45806 5.98136 5.72569
#
# Compressibility (1/GPa) = 0.03446227
#
# Stress axis : x y z
#
# Youngs Moduli (GPa) = 77.47426 70.96833 44.41236
#
# Poissons Ratio (x) = 0.33125 0.29049
# Poissons Ratio (y) = 0.36162 -0.16354
# Poissons Ratio (z) = 0.50674 -0.26132
#
# Static dielectric constant tensor:
#      x y z
#    x 1.843090 0.000000 0.000000 
#    y 0.000000 1.744800 0.000000 
#    z 0.000000 0.000000 1.740590 
# 
# From -- ./inp_files/33813.got.cif
#   From: 2010.05.17/outbox.cif.g08.bks.cpg/sg48_17_cif.got.tgz:33813.got - 2010.06.03 20:39:00.
