data_PCOD9391139
_publ_section_title
;
Structure prediction by ZEFSAII (Michael W. Deem and Ramdas Pophale) SiO2 
 PCOD9391139
Probable space group: P N N N
;
_chemical_formula_sum "Si O2"
_cell_formula_units_Z 28
_cell_length_a 8.714666
_cell_length_b 27.888772
_cell_length_c 5.120626
_cell_angle_alpha 90.000000
_cell_angle_beta 90.000000
_cell_angle_gamma 90.000000
_cell_volume 1244.523770
_symmetry_space_group_name_H-M "P N N N"
_symmetry_group_IT_number 48
_space_group.IT_coordinate_system_code '2'
_symmetry_cell_setting 'orthorhombic'
loop_
_space_group_symop_operation_xyz
x,y,z
1/2-x,1/2-y,z
x,1/2-y,1/2-z
1/2-x,y,1/2-z
-x,-y,-z
1/2+x,1/2+y,-z
-x,1/2+y,1/2+z
1/2+x,-y,1/2+z
loop_
_atom_site_type_symbol
_atom_site_label
_atom_site_fract_x
_atom_site_fract_y
_atom_site_fract_z
Si Si1 0.431860 0.543212 0.812990
Si Si2 0.500470 0.702605 0.426047
Si Si3 0.750000 0.250000 0.250000
Si Si4 0.435283 0.406337 0.709820
Si Si5 0.250000 0.250000 0.250000
O O1 0.250000 0.536479 0.750000
O O2 0.487404 0.441048 0.464159
O O3 0.500000 0.500000 0.000000
O O4 0.471539 0.584031 0.022585
O O5 0.503967 0.750000 0.250000
O O6 0.348163 0.713139 0.583044
O O7 0.519975 0.648644 0.340488
O O8 0.646279 0.713466 0.597645
O O9 0.250000 0.411567 0.750000
#
# Coordination Sequence:
#
# PCOD9391139 Si02
#       5
#     8   8   2   8   2
#     4  12  29  54  80 115 153 203 260 332 399 471
#     4  11  25  44  71 109 156 203 259 311 385 452
#     4  10  26  42  72 100 160 202 258 314 374 458
#     4  12  28  48  83 116 158 206 264 321 396 470
#     4  10  22  42  68 104 152 202 254 310 374 454
#
# _framework density 22.498564999999999
#
# number of rings (size 3 to 8) (size 9 to 14) (size 15 to 20)
#    0.000    0.571    0.000    6.000   14.000    4.571 
#    0.000    0.000    0.000    0.000    0.000    0.000 
#    0.000    0.000    0.000    0.000    0.000    0.000 
#
# Total GULP energy -156036.188583 kJ/mol
# GULP energy per Si atom -5572.721021 kJ/mol
# Density = 2.244736 g / cm^3
# Si number density = 22.498565 Si / 1000 Ang^3
#
#
#
# Elastic Constant Matrix: (Units=GPa)
#
#
# Indices 1 2 3 4 5 6 
#
# 1 203.2259 71.0008 92.3291 0.0000 0.0000 0.0000
# 2 71.0008 130.8671 43.2326 0.0000 0.0000 0.0000
# 3 92.3291 43.2326 148.2893 0.0000 0.0000 0.0000
# 4 0.0000 0.0000 0.0000 39.1741 0.0000 0.0000
# 5 0.0000 0.0000 0.0000 0.0000 46.5409 0.0000
# 6 0.0000 0.0000 0.0000 0.0000 0.0000 45.5771
#
#
#
# Elastic Compliance Matrix: (Units=1/GPa)
#
#
# Indices 1 2 3 4 5 6 
#
# 1 0.007734 -0.002883 -0.003975 0.000000 0.000000 0.000000
# 2 -0.002883 0.009530 -0.000984 0.000000 0.000000 0.000000
# 3 -0.003975 -0.000984 0.009505 0.000000 0.000000 0.000000
# 4 0.000000 0.000000 0.000000 0.025527 0.000000 0.000000
# 5 0.000000 0.000000 0.000000 0.000000 0.021486 0.000000
# 6 0.000000 0.000000 0.000000 0.000000 0.000000 0.021941
#
#
# Mechanical properties :
#
#
# Convention : Reuss Voigt Hill
#
# Bulk Modulus (GPa) = 90.19678 99.50082 94.84880
# Shear Modulus (GPa) = 43.44014 44.64641 44.04328
#
# Velocity S-wave (km/s) = 4.39885 4.45951 4.42928
# Velocity P-wave (km/s) = 8.12262 8.41651 8.27087
#
# Compressibility (1/GPa) = 0.01108687
#
# Stress axis : x y z
#
# Youngs Moduli (GPa) = 129.30705 104.92884 105.20668
#
# Poissons Ratio (x) = 0.30248 0.41816
# Poissons Ratio (y) = 0.37275 0.10348
# Poissons Ratio (z) = 0.51396 0.10321
#
# Static dielectric constant tensor:
#      x y z
#    x 1.816530 0.000000 0.000000 
#    y 0.000000 1.637140 0.000000 
#    z 0.000000 0.000000 1.849080 
# 
# From -- ./inp_files/932.got.cif
#   From: 2010.05.17/outbox.cif.g08.bks.cpg/sg48_1_cif.got.tgz:932.got - 2010.06.03 20:39:00.
