data_PCOD9391964
_publ_section_title
;
Structure prediction by ZEFSAII (Michael W. Deem and Ramdas Pophale) SiO2 
 PCOD9391964
Probable space group: P N N N
;
_chemical_formula_sum "Si O2"
_cell_formula_units_Z 58
_cell_length_a 18.000000
_cell_length_b 27.000000
_cell_length_c 6.000000
_cell_angle_alpha 90.000000
_cell_angle_beta 90.000000
_cell_angle_gamma 90.000000
_cell_volume 2916.000000
_symmetry_space_group_name_H-M "P N N N"
_symmetry_group_IT_number 48
_space_group.IT_coordinate_system_code '2'
_symmetry_cell_setting 'orthorhombic'
loop_
_space_group_symop_operation_xyz
x,y,z
1/2-x,1/2-y,z
x,1/2-y,1/2-z
1/2-x,y,1/2-z
-x,-y,-z
1/2+x,1/2+y,-z
-x,1/2+y,1/2+z
1/2+x,-y,1/2+z
loop_
_atom_site_type_symbol
_atom_site_label
_atom_site_fract_x
_atom_site_fract_y
_atom_site_fract_z
Si Si1 0.868168 0.680994 0.498775
Si Si2 0.547992 0.638808 0.361241
Si Si3 0.943727 0.402287 0.471732
Si Si4 0.975220 0.194544 0.248506
Si Si5 0.326254 0.519540 0.128668
Si Si6 0.250000 0.250000 0.250000
Si Si7 0.214774 0.418469 0.505188
Si Si8 0.950447 0.958857 0.623254
O O1 0.889342 0.675648 0.238092
O O2 0.802943 0.715555 0.594038
O O3 0.846802 0.623640 0.539812
O O4 0.945401 0.695321 0.617269
O O5 0.497442 0.673739 0.511926
O O6 0.576833 0.590137 0.490495
O O7 0.494423 0.613567 0.179813
O O8 0.926754 0.349504 0.357039
O O9 0.872368 0.434502 0.534031
O O10 0.996642 0.435725 0.314446
O O11 0.944836 0.250000 0.250000
O O12 0.250000 0.534245 0.250000
O O13 0.380937 0.490378 0.295170
O O14 0.310298 0.475094 0.955162
O O15 0.250000 0.403612 0.750000
O O16 0.250000 0.420321 0.250000
O O17 0.000000 0.000000 0.500000
#
# Coordination Sequence:
#
# PCOD9391964 Si02
#       8
#     8   8   8   8   8   2   8   8
#     4  11  24  41  62  85 129 176 239 284 345 403
#     4  10  22  39  67  90 124 171 228 283 331 410
#     4  10  22  40  64  97 127 174 226 279 340 415
#     4  10  22  43  65  92 123 163 233 290 345 410
#     4  11  24  40  63 102 138 179 224 285 349 415
#     4  12  24  48  58  88 130 180 242 298 358 390
#     4  11  26  43  61  91 139 188 229 272 351 428
#     4  11  22  39  68  93 136 179 231 272 341 420
#
# _framework density 19.890260999999999
#
# number of rings (size 3 to 8) (size 9 to 14) (size 15 to 20)
#    0.000    1.379    2.759    2.897    7.724    2.207 
#    2.483    0.690    0.000    0.000    0.000    2.897 
#    0.000    0.000    0.000    0.000    0.000    0.000 
#
# Total GULP energy -323362.144035 kJ/mol
# GULP energy per Si atom -5575.209380 kJ/mol
# Density = 1.984499 g / cm^3
# Si number density = 19.890261 Si / 1000 Ang^3
#
#
#
# Elastic Constant Matrix: (Units=GPa)
#
#
# Indices 1 2 3 4 5 6 
#
# 1 81.0196 48.2788 27.5907 0.0000 0.0000 0.0000
# 2 48.2788 150.5632 49.3422 0.0000 0.0000 0.0000
# 3 27.5907 49.3422 87.7257 0.0000 0.0000 0.0000
# 4 0.0000 0.0000 0.0000 19.1170 0.0000 0.0000
# 5 0.0000 0.0000 0.0000 0.0000 23.1568 0.0000
# 6 0.0000 0.0000 0.0000 0.0000 0.0000 31.9432
#
#
#
# Elastic Compliance Matrix: (Units=1/GPa)
#
#
# Indices 1 2 3 4 5 6 
#
# 1 0.015723 -0.004194 -0.002586 0.000000 0.000000 0.000000
# 2 -0.004194 0.009261 -0.003890 0.000000 0.000000 0.000000
# 3 -0.002586 -0.003890 0.014400 0.000000 0.000000 0.000000
# 4 0.000000 0.000000 0.000000 0.052309 0.000000 0.000000
# 5 0.000000 0.000000 0.000000 0.000000 0.043184 0.000000
# 6 0.000000 0.000000 0.000000 0.000000 0.000000 0.031306
#
#
# Mechanical properties :
#
#
# Convention : Reuss Voigt Hill
#
# Bulk Modulus (GPa) = 55.41924 63.30355 59.36140
# Shear Modulus (GPa) = 25.83471 27.78319 26.80895
#
# Velocity S-wave (km/s) = 3.60788 3.74147 3.67528
# Velocity P-wave (km/s) = 6.72895 7.11057 6.92239
#
# Compressibility (1/GPa) = 0.01804428
#
# Stress axis : x y z
#
# Youngs Moduli (GPa) = 63.60310 107.97473 69.44208
#
# Poissons Ratio (x) = 0.45285 0.17957
# Poissons Ratio (y) = 0.26675 0.27014
# Poissons Ratio (z) = 0.16447 0.42003
#
# Static dielectric constant tensor:
#      x y z
#    x 1.734300 0.000000 0.000000 
#    y 0.000000 1.703620 0.000000 
#    z 0.000000 0.000000 1.833330 
# 
# From -- ./inp_files/4653.got.cif
#   From: 2010.05.17/outbox.ucp.g08.bks.cvg/sg48_3_cif.got.tgz:4653.got - 2010.06.11 16:38:40.
