data_PCOD9391491
_publ_section_title
;
Structure prediction by ZEFSAII (Michael W. Deem and Ramdas Pophale) SiO2 
 PCOD9391491
Probable space group: P N N N
;
_chemical_formula_sum "Si O2"
_cell_formula_units_Z 20
_cell_length_a 5.645842
_cell_length_b 26.295130
_cell_length_c 5.205918
_cell_angle_alpha 90.000000
_cell_angle_beta 90.000000
_cell_angle_gamma 90.000000
_cell_volume 772.860952
_symmetry_space_group_name_H-M "P N N N"
_symmetry_group_IT_number 48
_space_group.IT_coordinate_system_code '2'
_symmetry_cell_setting 'orthorhombic'
loop_
_space_group_symop_operation_xyz
x,y,z
1/2-x,1/2-y,z
x,1/2-y,1/2-z
1/2-x,y,1/2-z
-x,-y,-z
1/2+x,1/2+y,-z
-x,1/2+y,1/2+z
1/2+x,-y,1/2+z
loop_
_atom_site_type_symbol
_atom_site_label
_atom_site_fract_x
_atom_site_fract_y
_atom_site_fract_z
Si Si1 0.411439 0.558007 0.499039
Si Si2 0.003895 0.691931 0.645934
Si Si3 0.250000 0.364203 0.750000
O O1 0.250000 0.564746 0.750000
O O2 0.500000 0.500000 0.500000
O O3 0.628799 0.596405 0.450253
O O4 0.250000 0.565279 0.250000
O O5 0.011103 0.750000 0.750000
O O6 0.750000 0.675083 0.750000
O O7 0.957397 0.674127 0.353298
O O8 0.250000 0.670422 0.750000
#
# Coordination Sequence:
#
# PCOD9391491 Si02
#       3
#     8   8   4
#     4  12  29  52  82 124 177 232 294 367 446 532
#     4  10  26  52  81 119 172 224 296 363 451 521
#     4  12  30  47  86 124 172 230 303 360 456 536
#
# _framework density 25.877879
#
# number of rings (size 3 to 8) (size 9 to 14) (size 15 to 20)
#    0.000    0.800    2.000    1.200   11.200    3.200 
#    0.000   16.000    0.000    0.000    0.000    0.000 
#    0.000    0.000    0.000    0.000    0.000    0.000 
#
# Total GULP energy -111668.600635 kJ/mol
# GULP energy per Si atom -5583.430032 kJ/mol
# Density = 2.581898 g / cm^3
# Si number density = 25.877879 Si / 1000 Ang^3
#
#
#
# Elastic Constant Matrix: (Units=GPa)
#
#
# Indices 1 2 3 4 5 6 
#
# 1 209.0220 65.7475 78.2656 0.0000 0.0000 0.0000
# 2 65.7475 251.3928 74.6079 0.0000 0.0000 0.0000
# 3 78.2656 74.6079 161.8311 0.0000 0.0000 0.0000
# 4 0.0000 0.0000 0.0000 27.4503 0.0000 0.0000
# 5 0.0000 0.0000 0.0000 0.0000 73.9165 0.0000
# 6 0.0000 0.0000 0.0000 0.0000 0.0000 28.4711
#
#
#
# Elastic Compliance Matrix: (Units=1/GPa)
#
#
# Indices 1 2 3 4 5 6 
#
# 1 0.005984 -0.000818 -0.002517 0.000000 0.000000 0.000000
# 2 -0.000818 0.004720 -0.001780 0.000000 0.000000 0.000000
# 3 -0.002517 -0.001780 0.008217 0.000000 0.000000 0.000000
# 4 0.000000 0.000000 0.000000 0.036429 0.000000 0.000000
# 5 0.000000 0.000000 0.000000 0.000000 0.013529 0.000000
# 6 0.000000 0.000000 0.000000 0.000000 0.000000 0.035123
#
#
# Mechanical properties :
#
#
# Convention : Reuss Voigt Hill
#
# Bulk Modulus (GPa) = 115.06560 117.72088 116.39324
# Shear Modulus (GPa) = 42.68741 52.87592 47.78167
#
# Velocity S-wave (km/s) = 4.06590 4.52518 4.30167
# Velocity P-wave (km/s) = 8.16109 8.53772 8.35153
#
# Compressibility (1/GPa) = 0.00869069
#
# Stress axis : x y z
#
# Youngs Moduli (GPa) = 167.11525 211.85561 121.69398
#
# Poissons Ratio (x) = 0.17331 0.30628
# Poissons Ratio (y) = 0.13671 0.21668
# Poissons Ratio (z) = 0.42060 0.37721
#
# Static dielectric constant tensor:
#      x y z
#    x 2.014160 0.000000 0.000000 
#    y 0.000000 2.237960 0.000000 
#    z 0.000000 0.000000 1.981770 
# 
# From -- ./inp_files/296.got.cif
#   From: 2010.05.17/outbox.cif.g08.bks.cpg/sg48_1_cif.got.tgz:296.got - 2010.06.03 20:39:00.
