data_PCOD9391521
_publ_section_title
;
Structure prediction by ZEFSAII (Michael W. Deem and Ramdas Pophale) SiO2 
 PCOD9391521
Probable space group: P N N N
;
_chemical_formula_sum "Si O2"
_cell_formula_units_Z 52
_cell_length_a 8.232209
_cell_length_b 19.422861
_cell_length_c 15.756831
_cell_angle_alpha 90.000000
_cell_angle_beta 90.000000
_cell_angle_gamma 90.000000
_cell_volume 2519.407785
_symmetry_space_group_name_H-M "P N N N"
_symmetry_group_IT_number 48
_space_group.IT_coordinate_system_code '2'
_symmetry_cell_setting 'orthorhombic'
loop_
_space_group_symop_operation_xyz
x,y,z
1/2-x,1/2-y,z
x,1/2-y,1/2-z
1/2-x,y,1/2-z
-x,-y,-z
1/2+x,1/2+y,-z
-x,1/2+y,1/2+z
1/2+x,-y,1/2+z
loop_
_atom_site_type_symbol
_atom_site_label
_atom_site_fract_x
_atom_site_fract_y
_atom_site_fract_z
Si Si1 0.430199 0.910704 0.734413
Si Si2 0.233240 0.108184 0.482023
Si Si3 0.366947 0.885213 0.025191
Si Si4 0.086433 0.292818 0.365129
Si Si5 0.349783 0.998518 0.162195
Si Si6 0.356055 0.506764 0.931683
Si Si7 0.250000 0.750000 0.945915
O O1 0.250000 0.882968 0.750000
O O2 0.546333 0.847569 0.709384
O O3 0.490936 0.959040 0.809867
O O4 0.418793 0.961606 0.654440
O O5 0.357710 0.164470 0.448694
O O6 0.226174 0.050444 0.407421
O O7 0.049691 0.131626 0.496332
O O8 0.285990 0.069949 0.567945
O O9 0.266083 0.816579 0.006325
O O10 0.369650 0.925070 0.115650
O O11 0.281970 0.942111 0.965794
O O12 0.250000 0.250000 0.346102
O O13 0.914694 0.256640 0.388811
O O14 0.250000 0.992901 0.250000
O O15 0.500000 0.500000 0.000000
#
# Coordination Sequence:
#
# PCOD9391521 Si02
#       7
#     8   8   8   8   8   8   4
#     4  12  23  40  64  97 138 175 226 280 346 406
#     4  11  21  41  63  93 129 174 229 280 329 391
#     4  11  22  39  66  95 129 175 234 272 330 408
#     4  12  25  44  67  95 138 181 229 275 338 404
#     4  11  22  39  64  99 135 170 216 291 348 388
#     4  11  19  37  65  92 124 171 228 286 323 385
#     4  12  24  42  70 100 128 184 236 272 326 424
#
# _framework density 20.639771
#
# number of rings (size 3 to 8) (size 9 to 14) (size 15 to 20)
#    0.000    0.615    6.154    4.615    0.000    0.000 
#    0.000    5.385    0.000    0.000    0.000    0.000 
#    0.000    0.000    0.000    0.000    0.000    0.000 
#
# Total GULP energy -290369.875875 kJ/mol
# GULP energy per Si atom -5584.036075 kJ/mol
# Density = 2.059279 g / cm^3
# Si number density = 20.639771 Si / 1000 Ang^3
#
#
#
# Elastic Constant Matrix: (Units=GPa)
#
#
# Indices 1 2 3 4 5 6 
#
# 1 139.0649 39.0348 33.5379 0.0000 0.0000 0.0000
# 2 39.0348 84.2778 42.5211 0.0000 0.0000 0.0000
# 3 33.5379 42.5211 85.6036 0.0000 0.0000 0.0000
# 4 0.0000 0.0000 0.0000 6.9106 0.0000 0.0000
# 5 0.0000 0.0000 0.0000 0.0000 30.8213 0.0000
# 6 0.0000 0.0000 0.0000 0.0000 0.0000 41.5543
#
#
#
# Elastic Compliance Matrix: (Units=1/GPa)
#
#
# Indices 1 2 3 4 5 6 
#
# 1 0.008475 -0.003003 -0.001829 0.000000 0.000000 0.000000
# 2 -0.003003 0.016897 -0.007217 0.000000 0.000000 0.000000
# 3 -0.001829 -0.007217 0.015983 0.000000 0.000000 0.000000
# 4 0.000000 0.000000 0.000000 0.144706 0.000000 0.000000
# 5 0.000000 0.000000 0.000000 0.000000 0.032445 0.000000
# 6 0.000000 0.000000 0.000000 0.000000 0.000000 0.024065
#
#
# Mechanical properties :
#
#
# Convention : Reuss Voigt Hill
#
# Bulk Modulus (GPa) = 57.94218 59.90377 58.92298
# Shear Modulus (GPa) = 18.35400 28.78073 23.56736
#
# Velocity S-wave (km/s) = 2.98527 3.73826 3.38278
# Velocity P-wave (km/s) = 6.32586 6.90791 6.62328
#
# Compressibility (1/GPa) = 0.01725858
#
# Stress axis : x y z
#
# Youngs Moduli (GPa) = 117.99777 59.18074 62.56618
#
# Poissons Ratio (x) = 0.17769 0.11442
# Poissons Ratio (y) = 0.35429 0.45154
# Poissons Ratio (z) = 0.21580 0.42710
#
# Static dielectric constant tensor:
#      x y z
#    x 1.872070 0.000000 0.000000 
#    y 0.000000 1.784790 0.000000 
#    z 0.000000 0.000000 1.757150 
# 
# From -- ./inp_files/25571.got.cif
#   From: 2010.05.17/outbox.cif.g08.bks.cpg/sg48_13_cif.got.tgz:25571.got - 2010.06.03 20:39:00.
