data_PCOD9391795
_publ_section_title
;
Structure prediction by ZEFSAII (Michael W. Deem and Ramdas Pophale) SiO2 
 PCOD9391795
Probable space group: P N N N
;
_chemical_formula_sum "Si O2"
_cell_formula_units_Z 30
_cell_length_a 9.162018
_cell_length_b 10.076573
_cell_length_c 14.157708
_cell_angle_alpha 90.000000
_cell_angle_beta 90.000000
_cell_angle_gamma 90.000000
_cell_volume 1307.064282
_symmetry_space_group_name_H-M "P N N N"
_symmetry_group_IT_number 48
_space_group.IT_coordinate_system_code '2'
_symmetry_cell_setting 'orthorhombic'
loop_
_space_group_symop_operation_xyz
x,y,z
1/2-x,1/2-y,z
x,1/2-y,1/2-z
1/2-x,y,1/2-z
-x,-y,-z
1/2+x,1/2+y,-z
-x,1/2+y,1/2+z
1/2+x,-y,1/2+z
loop_
_atom_site_type_symbol
_atom_site_label
_atom_site_fract_x
_atom_site_fract_y
_atom_site_fract_z
Si Si1 0.750000 0.515844 0.250000
Si Si2 0.179913 0.441623 0.100877
Si Si3 0.061294 0.162539 0.595937
Si Si4 0.250000 0.250000 0.250000
Si Si5 0.504461 0.526614 0.111590
O O1 0.651975 0.602954 0.318655
O O2 0.630359 0.455839 0.175115
O O3 0.144625 0.333471 0.180282
O O4 0.340860 0.483464 0.135214
O O5 0.084715 0.574198 0.093358
O O6 0.151154 0.369488 0.000237
O O7 0.029210 0.315310 0.615952
O O8 0.500000 0.500000 0.000000
#
# Coordination Sequence:
#
# PCOD9391795 Si02
#       5
#     4   8   8   2   8
#     4  12  25  42  70 107 144 191 246 303 374 457
#     4  11  25  44  71 100 146 191 246 309 378 455
#     4  11  24  44  69 108 143 191 252 303 373 462
#     4  12  24  44  70 100 136 196 244 308 396 450
#     4  12  23  42  73 105 147 192 244 310 378 452
#
# _framework density 22.952197999999999
#
# number of rings (size 3 to 8) (size 9 to 14) (size 15 to 20)
#    0.000    0.533    2.667    6.400    0.000    0.000 
#    0.000    4.000    0.000    4.800    0.000    0.000 
#    0.000    0.000    0.000    0.000    0.000    0.000 
#
# Total GULP energy -167475.445115 kJ/mol
# GULP energy per Si atom -5582.514837 kJ/mol
# Density = 2.289996 g / cm^3
# Si number density = 22.952198 Si / 1000 Ang^3
#
#
#
# Elastic Constant Matrix: (Units=GPa)
#
#
# Indices 1 2 3 4 5 6 
#
# 1 139.4066 13.3604 32.3701 0.0000 0.0000 0.0000
# 2 13.3604 19.5170 -9.0378 0.0000 0.0000 0.0000
# 3 32.3701 -9.0378 162.2969 0.0000 0.0000 0.0000
# 4 0.0000 0.0000 0.0000 18.6190 0.0000 0.0000
# 5 0.0000 0.0000 0.0000 0.0000 46.2055 0.0000
# 6 0.0000 0.0000 0.0000 0.0000 0.0000 31.2913
#
#
#
# Elastic Compliance Matrix: (Units=1/GPa)
#
#
# Indices 1 2 3 4 5 6 
#
# 1 0.008274 -0.006598 -0.002018 0.000000 0.000000 0.000000
# 2 -0.006598 0.057856 0.004538 0.000000 0.000000 0.000000
# 3 -0.002018 0.004538 0.006817 0.000000 0.000000 0.000000
# 4 0.000000 0.000000 0.000000 0.053709 0.000000 0.000000
# 5 0.000000 0.000000 0.000000 0.000000 0.021642 0.000000
# 6 0.000000 0.000000 0.000000 0.000000 0.000000 0.031958
#
#
# Mechanical properties :
#
#
# Convention : Reuss Voigt Hill
#
# Bulk Modulus (GPa) = 15.43447 43.84509 29.63978
# Shear Modulus (GPa) = 23.80851 38.19165 31.00008
#
# Velocity S-wave (km/s) = 3.22422 4.08360 3.67909
# Velocity P-wave (km/s) = 4.53872 6.43262 5.56681
#
# Compressibility (1/GPa) = 0.06479003
#
# Stress axis : x y z
#
# Youngs Moduli (GPa) = 120.85817 17.28434 146.69890
#
# Poissons Ratio (x) = 0.11405 0.29600
# Poissons Ratio (y) = 0.79748 -0.66570
# Poissons Ratio (z) = 0.24386 -0.07843
#
# Static dielectric constant tensor:
#      x y z
#    x 2.138150 0.000000 0.000000 
#    y 0.000000 1.927090 0.000000 
#    z 0.000000 0.000000 2.026080 
# 
# From -- ./inp_files/10207.got.cif
#   From: 2010.05.17/outbox.cif.g08.bks.cpg/sg48_6_cif.got.tgz:10207.got - 2010.06.03 20:39:00.
