data_PCOD9391199
_publ_section_title
;
Structure prediction by ZEFSAII (Michael W. Deem and Ramdas Pophale) SiO2 
 PCOD9391199
Probable space group: P N N N
;
_chemical_formula_sum "Si O2"
_cell_formula_units_Z 48
_cell_length_a 5.101643
_cell_length_b 18.993285
_cell_length_c 22.313812
_cell_angle_alpha 90.000000
_cell_angle_beta 90.000000
_cell_angle_gamma 90.000000
_cell_volume 2162.140537
_symmetry_space_group_name_H-M "P N N N"
_symmetry_group_IT_number 48
_space_group.IT_coordinate_system_code '2'
_symmetry_cell_setting 'orthorhombic'
loop_
_space_group_symop_operation_xyz
x,y,z
1/2-x,1/2-y,z
x,1/2-y,1/2-z
1/2-x,y,1/2-z
-x,-y,-z
1/2+x,1/2+y,-z
-x,1/2+y,1/2+z
1/2+x,-y,1/2+z
loop_
_atom_site_type_symbol
_atom_site_label
_atom_site_fract_x
_atom_site_fract_y
_atom_site_fract_z
Si Si1 0.987595 0.048870 0.290410
Si Si2 0.250000 0.250000 0.662622
Si Si3 0.250000 0.750000 0.526870
Si Si4 0.937781 0.112416 0.692168
Si Si5 0.879708 0.574508 0.515262
Si Si6 0.402067 0.657254 0.083017
Si Si7 0.391365 0.879085 0.916229
O O1 0.750000 0.073579 0.250000
O O2 0.250000 0.052944 0.250000
O O3 0.941909 0.965499 0.305106
O O4 0.971392 0.093891 0.350867
O O5 0.371509 0.319608 0.693013
O O6 0.475744 0.219997 0.620736
O O7 0.277258 0.811311 0.476758
O O8 0.434683 0.704788 0.571364
O O9 0.750000 0.119954 0.750000
O O10 0.775613 0.116207 0.629985
O O11 0.589867 0.578495 0.540965
O O12 0.000000 0.500000 0.500000
O O13 0.874802 0.612130 0.449875
O O14 0.085856 0.605534 0.565563
#
# Coordination Sequence:
#
# PCOD9391199 Si02
#       7
#     8   4   4   8   8   8   8
#     4  11  26  49  73 102 138 186 239 302 362 426
#     4  12  24  39  66  82 140 180 243 274 356 406
#     4  10  22  46  66 108 138 178 226 294 364 432
#     4  11  27  43  61  97 135 190 245 293 348 424
#     4  11  24  39  68 104 138 184 237 291 355 426
#     4  11  23  41  62  94 141 178 228 284 346 418
#     4  11  24  44  73 101 142 180 235 294 367 433
#
# _framework density 22.200222
#
# number of rings (size 3 to 8) (size 9 to 14) (size 15 to 20)
#    0.000    1.000    1.667    3.500    9.333    4.000 
#    0.000    0.417    0.000    1.000    0.000    0.000 
#    0.000    0.000    0.000    0.000    0.000    0.000 
#
# Total GULP energy -267486.698816 kJ/mol
# GULP energy per Si atom -5572.639559 kJ/mol
# Density = 2.214969 g / cm^3
# Si number density = 22.200222 Si / 1000 Ang^3
#
#
#
# Elastic Constant Matrix: (Units=GPa)
#
#
# Indices 1 2 3 4 5 6 
#
# 1 75.3434 10.3897 35.2939 0.0000 0.0000 0.0000
# 2 10.3897 54.7040 69.2065 0.0000 0.0000 0.0000
# 3 35.2939 69.2065 159.5133 0.0000 0.0000 0.0000
# 4 0.0000 0.0000 0.0000 -126.6479 0.0000 0.0000
# 5 0.0000 0.0000 0.0000 0.0000 33.3401 0.0000
# 6 0.0000 0.0000 0.0000 0.0000 0.0000 77.6420
#
#
#
# Elastic Compliance Matrix: (Units=1/GPa)
#
#
# Indices 1 2 3 4 5 6 
#
# 1 0.015026 0.002997 -0.004625 0.000000 0.000000 0.000000
# 2 0.002997 0.041120 -0.018503 0.000000 0.000000 0.000000
# 3 -0.004625 -0.018503 0.015320 0.000000 0.000000 0.000000
# 4 0.000000 0.000000 0.000000 -0.007896 0.000000 0.000000
# 5 0.000000 0.000000 0.000000 0.000000 0.029994 0.000000
# 6 0.000000 0.000000 0.000000 0.000000 0.000000 0.012880
#
#
# Mechanical properties :
#
#
# Convention : Reuss Voigt Hill
#
# Bulk Modulus (GPa) = 32.04744 57.70452 44.87598
# Shear Modulus (GPa) = 31.82548 8.51157 20.16852
#
# Velocity S-wave (km/s) = 3.79035 1.96018 3.01738
# Velocity P-wave (km/s) = 5.79851 5.58322 5.69188
#
# Compressibility (1/GPa) = 0.03120374
#
# Stress axis : x y z
#
# Youngs Moduli (GPa) = 66.55218 24.31922 65.27280
#
# Poissons Ratio (x) = -0.07290 0.30189
# Poissons Ratio (y) = -0.19949 1.20777
# Poissons Ratio (z) = 0.30781 0.44999
#
# Static dielectric constant tensor:
#      x y z
#    x 1.880330 0.000000 0.000000 
#    y 0.000000 1.951720 0.000000 
#    z 0.000000 0.000000 0.710600 
# 
# From -- ./inp_files/32898.got.cif
#   From: 2010.05.17/outbox.cif.g08.bks.cpg/sg48_17_cif.got.tgz:32898.got - 2010.06.03 20:39:00.
