data_PCOD9391204
_publ_section_title
;
Structure prediction by ZEFSAII (Michael W. Deem and Ramdas Pophale) SiO2 
 PCOD9391204
Probable space group: P N N N
;
_chemical_formula_sum "Si O2"
_cell_formula_units_Z 34
_cell_length_a 5.680192
_cell_length_b 13.725310
_cell_length_c 19.173567
_cell_angle_alpha 90.000000
_cell_angle_beta 90.000000
_cell_angle_gamma 90.000000
_cell_volume 1494.817224
_symmetry_space_group_name_H-M "P N N N"
_symmetry_group_IT_number 48
_space_group.IT_coordinate_system_code '2'
_symmetry_cell_setting 'orthorhombic'
loop_
_space_group_symop_operation_xyz
x,y,z
1/2-x,1/2-y,z
x,1/2-y,1/2-z
1/2-x,y,1/2-z
-x,-y,-z
1/2+x,1/2+y,-z
-x,1/2+y,1/2+z
1/2+x,-y,1/2+z
loop_
_atom_site_type_symbol
_atom_site_label
_atom_site_fract_x
_atom_site_fract_y
_atom_site_fract_z
Si Si1 0.307806 0.580665 0.521352
Si Si2 0.750000 0.250000 0.250000
Si Si3 0.080775 0.517765 0.385613
Si Si4 0.496726 0.212177 0.671153
Si Si5 0.424696 0.339503 0.364115
O O1 0.500000 0.500000 0.500000
O O2 0.161355 0.586840 0.450648
O O3 0.447794 0.664899 0.560459
O O4 0.133838 0.542191 0.581607
O O5 0.599221 0.320118 0.300245
O O6 0.001900 0.595158 0.328786
O O7 0.281086 0.441475 0.362275
O O8 0.750000 0.250000 0.643062
O O9 0.491668 0.250000 0.750000
O O10 0.250000 0.250000 0.637388
O O11 0.250000 0.250000 0.360166
#
# Coordination Sequence:
#
# PCOD9391204 Si02
#       5
#     8   2   8   8   8
#     4   9  21  43  70 104 139 180 234 288 367 426
#     4  12  26  48  64 106 142 196 244 300 356 458
#     4  10  22  46  73 102 142 184 233 304 359 433
#     4  10  24  48  68 104 144 187 242 288 359 432
#     4  11  24  46  69 104 140 185 240 294 369 438
#
# _framework density 22.745255
#
# number of rings (size 3 to 8) (size 9 to 14) (size 15 to 20)
#    0.000    1.882    0.000    1.765    6.588    0.000 
#   31.765    0.000    0.000    0.000    0.000    0.000 
#    0.000    0.000    0.000    0.000    0.000    0.000 
#
# Total GULP energy -189720.457103 kJ/mol
# GULP energy per Si atom -5580.013444 kJ/mol
# Density = 2.269349 g / cm^3
# Si number density = 22.745255 Si / 1000 Ang^3
#
#
#
# Elastic Constant Matrix: (Units=GPa)
#
#
# Indices 1 2 3 4 5 6 
#
# 1 144.7761 42.0835 30.5134 0.0000 0.0000 0.0000
# 2 42.0835 109.0984 54.3729 0.0000 0.0000 0.0000
# 3 30.5134 54.3729 83.3978 0.0000 0.0000 0.0000
# 4 0.0000 0.0000 0.0000 47.1380 0.0000 0.0000
# 5 0.0000 0.0000 0.0000 0.0000 38.8248 0.0000
# 6 0.0000 0.0000 0.0000 0.0000 0.0000 37.3257
#
#
#
# Elastic Compliance Matrix: (Units=1/GPa)
#
#
# Indices 1 2 3 4 5 6 
#
# 1 0.007879 -0.002374 -0.001335 0.000000 0.000000 0.000000
# 2 -0.002374 0.014293 -0.008450 0.000000 0.000000 0.000000
# 3 -0.001335 -0.008450 0.017988 0.000000 0.000000 0.000000
# 4 0.000000 0.000000 0.000000 0.021214 0.000000 0.000000
# 5 0.000000 0.000000 0.000000 0.000000 0.025757 0.000000
# 6 0.000000 0.000000 0.000000 0.000000 0.000000 0.026791
#
#
# Mechanical properties :
#
#
# Convention : Reuss Voigt Hill
#
# Bulk Modulus (GPa) = 63.12212 65.69020 64.40616
# Shear Modulus (GPa) = 34.83811 38.67786 36.75799
#
# Velocity S-wave (km/s) = 3.91789 4.12816 4.02440
# Velocity P-wave (km/s) = 6.94828 7.18789 7.06910
#
# Compressibility (1/GPa) = 0.01584231
#
# Stress axis : x y z
#
# Youngs Moduli (GPa) = 126.92639 69.96370 55.59127
#
# Poissons Ratio (x) = 0.16608 0.07421
# Poissons Ratio (y) = 0.30129 0.46976
# Poissons Ratio (z) = 0.16944 0.59121
#
# Static dielectric constant tensor:
#      x y z
#    x 1.922610 0.000000 0.000000 
#    y 0.000000 1.859990 0.000000 
#    z 0.000000 0.000000 1.870550 
# 
# From -- ./inp_files/3244.got.cif
#   From: 2010.05.17/outbox.cif.g08.bks.cpg/sg48_2_cif.got.tgz:3244.got - 2010.06.03 20:39:00.
