data_PCOD9391984
_publ_section_title
;
Structure prediction by ZEFSAII (Michael W. Deem and Ramdas Pophale) SiO2 
 PCOD9391984
Probable space group: P C C M
;
_chemical_formula_sum "Si O2"
_cell_formula_units_Z 48
_cell_length_a 7.716130
_cell_length_b 33.682541
_cell_length_c 8.613662
_cell_angle_alpha 90.000000
_cell_angle_beta 90.000000
_cell_angle_gamma 90.000000
_cell_volume 2238.680978
_symmetry_space_group_name_H-M "P C C M"
_symmetry_group_IT_number 49
_symmetry_cell_setting 'orthorhombic'
loop_
_space_group_symop_operation_xyz
x,y,z
-x,-y,z
x,-y,1/2-z
-x,y,1/2-z
-x,-y,-z
x,y,-z
-x,y,1/2+z
x,-y,1/2+z
loop_
_atom_site_type_symbol
_atom_site_label
_atom_site_fract_x
_atom_site_fract_y
_atom_site_fract_z
Si Si1 0.693306 0.040002 0.684481
Si Si2 0.802264 0.540516 0.314187
Si Si3 0.807645 0.875448 0.686195
Si Si4 0.801731 0.789626 0.313652
Si Si5 0.198236 0.708269 0.684724
Si Si6 0.197990 0.626890 0.186369
O O1 0.500000 0.038440 0.750000
O O2 0.696962 0.037957 0.500000
O O3 0.751794 0.083164 0.740045
O O4 0.783493 0.000000 0.750000
O O5 0.720438 0.500000 0.250000
O O6 0.808942 0.538154 0.500000
O O7 0.725267 0.583664 0.271042
O O8 0.000000 0.541068 0.250000
O O9 0.802416 0.879377 0.500000
O O10 0.721423 0.832808 0.727146
O O11 0.000000 0.870776 0.750000
O O12 0.808006 0.786760 0.500000
O O13 0.721180 0.749452 0.245374
O O14 0.000000 0.789952 0.250000
O O15 0.192228 0.708497 0.500000
O O16 0.278403 0.666966 0.744282
O O17 0.000000 0.708061 0.750000
O O18 0.000000 0.625808 0.250000
O O19 0.193252 0.630164 0.000000
#
# Coordination Sequence:
#
# PCOD9391984 Si02
#       6
#     8   8   8   8   8   8
#     4  11  22  38  58  78 102 131 163 198 235 278
#     4   9  15  20  26  33  43  61  87 125 172 224
#     4  10  20  34  52  76 102 129 161 196 237 281
#     4   9  16  26  40  57  81 108 134 167 207 254
#     4  10  16  21  31  45  63  87 116 149 188 237
#     4   9  15  21  27  36  50  70  99 134 177 228
#
# _framework density 21.441195
#
# number of rings (size 3 to 8) (size 9 to 14) (size 15 to 20)
#    0.000    2.333    0.000    8.000    0.000    4.333 
#    0.000    1.667    0.000    0.000    0.000    0.000 
#    0.000    0.000    0.000    0.000    0.000    0.000 
#
# Total GULP energy -267459.978237 kJ/mol
# GULP energy per Si atom -5572.082880 kJ/mol
# Density = 2.139239 g / cm^3
# Si number density = 21.441195 Si / 1000 Ang^3
#
#
#
# Elastic Constant Matrix: (Units=GPa)
#
#
# Indices 1 2 3 4 5 6 
#
# 1 26.0889 22.5493 2.3502 0.0000 0.0000 0.0000
# 2 22.5493 311.2015 100.8918 0.0000 0.0000 0.0000
# 3 2.3502 100.8918 137.8860 0.0000 0.0000 0.0000
# 4 0.0000 0.0000 0.0000 48.0830 0.0000 0.0000
# 5 0.0000 0.0000 0.0000 0.0000 3.8670 0.0000
# 6 0.0000 0.0000 0.0000 0.0000 0.0000 73.0273
#
#
#
# Elastic Compliance Matrix: (Units=1/GPa)
#
#
# Indices 1 2 3 4 5 6 
#
# 1 0.041286 -0.003623 0.001947 0.000000 0.000000 0.000000
# 2 -0.003623 0.004531 -0.003253 0.000000 0.000000 0.000000
# 3 0.001947 -0.003253 0.009600 0.000000 0.000000 0.000000
# 4 0.000000 0.000000 0.000000 0.020797 0.000000 0.000000
# 5 0.000000 0.000000 0.000000 0.000000 0.258600 0.000000
# 6 0.000000 0.000000 0.000000 0.000000 0.000000 0.013694
#
#
# Mechanical properties :
#
#
# Convention : Reuss Voigt Hill
#
# Bulk Modulus (GPa) = 21.94976 80.75102 51.35039
# Shear Modulus (GPa) = 13.38504 48.28779 30.83642
#
# Velocity S-wave (km/s) = 2.50125 4.75078 3.79646
# Velocity P-wave (km/s) = 4.31289 8.23630 6.57410
#
# Compressibility (1/GPa) = 0.04555858
#
# Stress axis : x y z
#
# Youngs Moduli (GPa) = 24.22108 220.72224 104.17060
#
# Poissons Ratio (x) = 0.79964 -0.20283
# Poissons Ratio (y) = 0.08775 0.33890
# Poissons Ratio (z) = -0.04716 0.71808
#
# Static dielectric constant tensor:
#      x y z
#    x 1.668240 0.000000 0.000000 
#    y 0.000000 1.968830 0.000000 
#    z 0.000000 0.000000 1.704610 
# 
# From -- ./inp_files/3040.got.cif
#   From: 2010.05.17/outbox.cif.g08.bks.cpg/sg49_2_cif.got.tgz:3040.got - 2010.06.03 21:02:19.
