data_PCOD9391351
_publ_section_title
;
Structure prediction by ZEFSAII (Michael W. Deem and Ramdas Pophale) SiO2 
 PCOD9391351
Probable space group: P N N N
;
_chemical_formula_sum "Si O2"
_cell_formula_units_Z 64
_cell_length_a 23.810945
_cell_length_b 8.112153
_cell_length_c 14.240737
_cell_angle_alpha 90.000000
_cell_angle_beta 90.000000
_cell_angle_gamma 90.000000
_cell_volume 2750.712689
_symmetry_space_group_name_H-M "P N N N"
_symmetry_group_IT_number 48
_space_group.IT_coordinate_system_code '2'
_symmetry_cell_setting 'orthorhombic'
loop_
_space_group_symop_operation_xyz
x,y,z
1/2-x,1/2-y,z
x,1/2-y,1/2-z
1/2-x,y,1/2-z
-x,-y,-z
1/2+x,1/2+y,-z
-x,1/2+y,1/2+z
1/2+x,-y,1/2+z
loop_
_atom_site_type_symbol
_atom_site_label
_atom_site_fract_x
_atom_site_fract_y
_atom_site_fract_z
Si Si1 0.916866 0.089888 0.395928
Si Si2 0.588485 0.591077 0.995922
Si Si3 0.623031 0.575038 0.583740
Si Si4 0.765489 0.557458 0.008555
Si Si5 0.833591 0.401372 0.390801
Si Si6 0.976201 0.504804 0.801704
Si Si7 0.827376 0.928220 0.291897
Si Si8 0.479896 0.856410 0.390866
O O1 0.872602 0.240415 0.391454
O O2 0.912489 0.013938 0.499770
O O3 0.891827 0.957775 0.321791
O O4 0.979728 0.117616 0.358923
O O5 0.624053 0.551293 0.087726
O O6 0.527785 0.647558 0.030822
O O7 0.619808 0.731548 0.939562
O O8 0.577021 0.422456 0.939257
O O9 0.686805 0.514269 0.568294
O O10 0.588276 0.553346 0.678775
O O11 0.750000 0.750000 0.992444
O O12 0.713737 0.432376 0.029051
O O13 0.795942 0.555722 0.109692
O O14 0.811291 0.438932 0.287131
O O15 0.990694 0.487451 0.692468
O O16 0.978830 0.321863 0.845357
O O17 0.816465 0.750000 0.250000
#
# Coordination Sequence:
#
# PCOD9391351 Si02
#       8
#     8   8   8   8   8   8   8   8
#     4  11  24  37  59  94 134 172 211 273 333 402
#     4  11  22  40  62  97 127 172 222 268 333 415
#     4  11  23  40  64  91 130 167 221 278 332 400
#     4  11  22  41  64  89 123 177 222 275 334 399
#     4  12  23  38  61  91 128 167 226 266 330 407
#     4  11  23  42  63  94 134 177 218 272 346 402
#     4  11  22  36  60  89 128 173 217 267 324 400
#     4  10  24  39  66  93 133 177 218 271 342 416
#
# _framework density 23.266698000000002
#
# number of rings (size 3 to 8) (size 9 to 14) (size 15 to 20)
#    0.000    1.000    3.750    3.375    5.250    2.500 
#    0.000    2.500    0.000    0.750    0.000    1.750 
#    0.000    0.000    0.000    0.000    0.000    0.000 
#
# Total GULP energy -357633.769654 kJ/mol
# GULP energy per Si atom -5588.027651 kJ/mol
# Density = 2.321374 g / cm^3
# Si number density = 23.266698 Si / 1000 Ang^3
#
#
#
# Elastic Constant Matrix: (Units=GPa)
#
#
# Indices 1 2 3 4 5 6 
#
# 1 104.9117 23.2637 21.9327 0.0000 0.0000 0.0000
# 2 23.2637 91.2279 8.8440 0.0000 0.0000 0.0000
# 3 21.9327 8.8440 37.6116 0.0000 0.0000 0.0000
# 4 0.0000 0.0000 0.0000 25.3450 0.0000 0.0000
# 5 0.0000 0.0000 0.0000 0.0000 29.4057 0.0000
# 6 0.0000 0.0000 0.0000 0.0000 0.0000 31.7201
#
#
#
# Elastic Compliance Matrix: (Units=1/GPa)
#
#
# Indices 1 2 3 4 5 6 
#
# 1 0.011307 -0.002296 -0.006053 0.000000 0.000000 0.000000
# 2 -0.002296 0.011684 -0.001408 0.000000 0.000000 0.000000
# 3 -0.006053 -0.001408 0.030449 0.000000 0.000000 0.000000
# 4 0.000000 0.000000 0.000000 0.039456 0.000000 0.000000
# 5 0.000000 0.000000 0.000000 0.000000 0.034007 0.000000
# 6 0.000000 0.000000 0.000000 0.000000 0.000000 0.031526
#
#
# Mechanical properties :
#
#
# Convention : Reuss Voigt Hill
#
# Bulk Modulus (GPa) = 29.47852 37.98134 33.72993
# Shear Modulus (GPa) = 26.42001 29.27487 27.84744
#
# Velocity S-wave (km/s) = 3.37342 3.55100 3.46335
# Velocity P-wave (km/s) = 5.27926 5.75957 5.52464
#
# Compressibility (1/GPa) = 0.03392300
#
# Stress axis : x y z
#
# Youngs Moduli (GPa) = 88.44442 85.58948 32.84229
#
# Poissons Ratio (x) = 0.19655 0.19880
# Poissons Ratio (y) = 0.20310 0.04625
# Poissons Ratio (z) = 0.53538 0.12053
#
# Static dielectric constant tensor:
#      x y z
#    x 1.957890 0.000000 0.000000 
#    y 0.000000 1.944780 0.000000 
#    z 0.000000 0.000000 1.873850 
# 
# From -- ./inp_files/28649.got.cif
#   From: 2010.05.17/outbox.cif.g08.bks.cpg/sg48_15_cif.got.tgz:28649.got - 2010.06.03 20:39:00.
