data_PCOD9391439
_publ_section_title
;
Structure prediction by ZEFSAII (Michael W. Deem and Ramdas Pophale) SiO2 
 PCOD9391439
Probable space group: P N N N
;
_chemical_formula_sum "Si O2"
_cell_formula_units_Z 34
_cell_length_a 9.072615
_cell_length_b 28.032753
_cell_length_c 5.674978
_cell_angle_alpha 90.000000
_cell_angle_beta 90.000000
_cell_angle_gamma 90.000000
_cell_volume 1443.319285
_symmetry_space_group_name_H-M "P N N N"
_symmetry_group_IT_number 48
_space_group.IT_coordinate_system_code '2'
_symmetry_cell_setting 'orthorhombic'
loop_
_space_group_symop_operation_xyz
x,y,z
1/2-x,1/2-y,z
x,1/2-y,1/2-z
1/2-x,y,1/2-z
-x,-y,-z
1/2+x,1/2+y,-z
-x,1/2+y,1/2+z
1/2+x,-y,1/2+z
loop_
_atom_site_type_symbol
_atom_site_label
_atom_site_fract_x
_atom_site_fract_y
_atom_site_fract_z
Si Si1 0.750000 0.835336 0.250000
Si Si2 0.750000 0.393654 0.750000
Si Si3 0.750000 0.250000 0.750000
Si Si4 0.897710 0.462787 0.367950
Si Si5 0.003630 0.292320 0.433955
Si Si6 0.491013 0.377724 0.425875
O O1 0.634777 0.802364 0.385942
O O2 0.839926 0.867570 0.436784
O O3 0.835532 0.426284 0.562247
O O4 0.624211 0.367119 0.605474
O O5 0.642404 0.220889 0.577150
O O6 0.750000 0.484379 0.250000
O O7 0.000000 0.500000 0.500000
O O8 0.985370 0.430925 0.175465
O O9 0.036137 0.250000 0.250000
O O10 0.990697 0.340649 0.285270
#
# Coordination Sequence:
#
# PCOD9391439 Si02
#       6
#     4   4   2   8   8   8
#     4  12  28  49  70 112 152 198 246 314 366 443
#     4  10  24  49  74 105 148 188 239 304 369 440
#     4  12  30  48  76 106 148 194 246 308 362 436
#     4  10  24  49  76 111 148 194 252 314 379 458
#     4  12  29  49  73 112 149 199 253 302 372 447
#     4  11  26  48  76 108 149 199 248 306 379 443
#
# _framework density 23.556811
#
# number of rings (size 3 to 8) (size 9 to 14) (size 15 to 20)
#    0.000    0.941    0.000    3.882    0.000   28.706 
#   21.176    0.000    0.000    0.000    0.000    0.000 
#    0.000    0.000    0.000    0.000    0.000    0.000 
#
# Total GULP energy -190745.868010 kJ/mol
# GULP energy per Si atom -5610.172589 kJ/mol
# Density = 2.350319 g / cm^3
# Si number density = 23.556811 Si / 1000 Ang^3
#
#
#
# Elastic Constant Matrix: (Units=GPa)
#
#
# Indices 1 2 3 4 5 6 
#
# 1 206.7824 84.2482 102.1526 0.0000 0.0000 0.0000
# 2 84.2482 92.7801 44.3560 0.0000 0.0000 0.0000
# 3 102.1526 44.3560 135.5337 0.0000 0.0000 0.0000
# 4 0.0000 0.0000 0.0000 24.8076 0.0000 0.0000
# 5 0.0000 0.0000 0.0000 0.0000 53.6316 0.0000
# 6 0.0000 0.0000 0.0000 0.0000 0.0000 808.2776
#
#
#
# Elastic Compliance Matrix: (Units=1/GPa)
#
#
# Indices 1 2 3 4 5 6 
#
# 1 0.010331 -0.006708 -0.005591 0.000000 0.000000 0.000000
# 2 -0.006708 0.017133 -0.000551 0.000000 0.000000 0.000000
# 3 -0.005591 -0.000551 0.011773 0.000000 0.000000 0.000000
# 4 0.000000 0.000000 0.000000 0.040310 0.000000 0.000000
# 5 0.000000 0.000000 0.000000 0.000000 0.018646 0.000000
# 6 0.000000 0.000000 0.000000 0.000000 0.000000 0.001237
#
#
# Mechanical properties :
#
#
# Convention : Reuss Voigt Hill
#
# Bulk Modulus (GPa) = 73.87819 99.62331 86.75075
# Shear Modulus (GPa) = 38.56737 190.96598 114.76667
#
# Velocity S-wave (km/s) = 4.05063 9.01344 6.98748
# Velocity P-wave (km/s) = 7.30114 12.27621 10.09980
#
# Compressibility (1/GPa) = 0.01353579
#
# Stress axis : x y z
#
# Youngs Moduli (GPa) = 96.79389 58.36724 84.94124
#
# Poissons Ratio (x) = 0.39153 0.47494
# Poissons Ratio (y) = 0.64930 0.04681
# Poissons Ratio (z) = 0.54121 0.03217
#
# Static dielectric constant tensor:
#      x y z
#    x 1.867320 0.000000 0.000000 
#    y 0.000000 1.881550 0.000000 
#    z 0.000000 0.000000 1.852010 
# 
# From -- ./inp_files/1206.got.cif
#   From: 2010.05.17/outbox.cif.g08.bks.cpg/sg48_1_cif.got.tgz:1206.got - 2010.06.03 20:39:00.
