data_PCOD9391288
_publ_section_title
;
Structure prediction by ZEFSAII (Michael W. Deem and Ramdas Pophale) SiO2 
 PCOD9391288
Probable space group: P N N N
;
_chemical_formula_sum "Si O2"
_cell_formula_units_Z 32
_cell_length_a 15.328584
_cell_length_b 10.285013
_cell_length_c 8.666560
_cell_angle_alpha 90.000000
_cell_angle_beta 90.000000
_cell_angle_gamma 90.000000
_cell_volume 1366.323793
_symmetry_space_group_name_H-M "P N N N"
_symmetry_group_IT_number 48
_space_group.IT_coordinate_system_code '2'
_symmetry_cell_setting 'orthorhombic'
loop_
_space_group_symop_operation_xyz
x,y,z
1/2-x,1/2-y,z
x,1/2-y,1/2-z
1/2-x,y,1/2-z
-x,-y,-z
1/2+x,1/2+y,-z
-x,1/2+y,1/2+z
1/2+x,-y,1/2+z
loop_
_atom_site_type_symbol
_atom_site_label
_atom_site_fract_x
_atom_site_fract_y
_atom_site_fract_z
Si Si1 0.385493 0.803598 0.424476
Si Si2 0.729125 0.559709 0.922901
Si Si3 0.161013 0.570269 0.847310
Si Si4 0.922268 0.869495 0.132332
O O1 0.381836 0.750000 0.250000
O O2 0.369492 0.695361 0.556075
O O3 0.482191 0.861775 0.440346
O O4 0.312981 0.914965 0.424134
O O5 0.750000 0.598393 0.750000
O O6 0.813919 0.540080 0.027503
O O7 0.655550 0.641889 0.009051
O O8 0.250000 0.594541 0.750000
O O9 0.094069 0.502151 0.729945
O O10 0.915630 0.750000 0.250000
#
# Coordination Sequence:
#
# PCOD9391288 Si02
#       4
#     8   8   8   8
#     4  11  22  41  73 106 141 172 237 299 350 401
#     4  11  22  42  71 102 135 177 238 290 349 407
#     4  10  23  42  73 104 136 182 233 290 350 407
#     4  10  25  45  69  97 150 189 229 281 356 426
#
# _framework density 23.420511999999999
#
# number of rings (size 3 to 8) (size 9 to 14) (size 15 to 20)
#    0.000    1.500    2.500    1.500    0.000   15.500 
#    0.000    2.500    0.000    0.000    0.000    0.000 
#    0.000    0.000    0.000    0.000    0.000    0.000 
#
# Total GULP energy -179185.824773 kJ/mol
# GULP energy per Si atom -5599.557024 kJ/mol
# Density = 2.336721 g / cm^3
# Si number density = 23.420512 Si / 1000 Ang^3
#
#
#
# Elastic Constant Matrix: (Units=GPa)
#
#
# Indices 1 2 3 4 5 6 
#
# 1 104.9375 47.6727 61.2150 0.0000 0.0000 0.0000
# 2 47.6727 129.2128 58.2412 0.0000 0.0000 0.0000
# 3 61.2150 58.2412 183.7064 0.0000 0.0000 0.0000
# 4 0.0000 0.0000 0.0000 34.6208 0.0000 0.0000
# 5 0.0000 0.0000 0.0000 0.0000 45.3217 0.0000
# 6 0.0000 0.0000 0.0000 0.0000 0.0000 45.0159
#
#
#
# Elastic Compliance Matrix: (Units=1/GPa)
#
#
# Indices 1 2 3 4 5 6 
#
# 1 0.012932 -0.003301 -0.003263 0.000000 0.000000 0.000000
# 2 -0.003301 0.009872 -0.002030 0.000000 0.000000 0.000000
# 3 -0.003263 -0.002030 0.007174 0.000000 0.000000 0.000000
# 4 0.000000 0.000000 0.000000 0.028884 0.000000 0.000000
# 5 0.000000 0.000000 0.000000 0.000000 0.022064 0.000000
# 6 0.000000 0.000000 0.000000 0.000000 0.000000 0.022214
#
#
# Mechanical properties :
#
#
# Convention : Reuss Voigt Hill
#
# Bulk Modulus (GPa) = 78.17599 83.56824 80.87212
# Shear Modulus (GPa) = 40.13082 41.70688 40.91885
#
# Velocity S-wave (km/s) = 4.14392 4.22451 4.18441
# Velocity P-wave (km/s) = 7.50652 7.71715 7.61257
#
# Compressibility (1/GPa) = 0.01279165
#
# Stress axis : x y z
#
# Youngs Moduli (GPa) = 77.32534 101.29787 139.38661
#
# Poissons Ratio (x) = 0.33435 0.45481
# Poissons Ratio (y) = 0.25522 0.28294
# Poissons Ratio (z) = 0.25231 0.20562
#
# Static dielectric constant tensor:
#      x y z
#    x 1.866990 0.000000 0.000000 
#    y 0.000000 1.925840 0.000000 
#    z 0.000000 0.000000 1.887400 
# 
# From -- ./inp_files/11896.got.cif
#   From: 2010.05.17/outbox.cif.g08.bks.cpg/sg48_6_cif.got.tgz:11896.got - 2010.06.03 20:39:00.
