data_PCOD9391221
_publ_section_title
;
Structure prediction by ZEFSAII (Michael W. Deem and Ramdas Pophale) SiO2 
 PCOD9391221
Probable space group: P N N N
;
_chemical_formula_sum "Si O2"
_cell_formula_units_Z 58
_cell_length_a 23.007959
_cell_length_b 9.006599
_cell_length_c 14.267868
_cell_angle_alpha 90.000000
_cell_angle_beta 90.000000
_cell_angle_gamma 90.000000
_cell_volume 2956.636981
_symmetry_space_group_name_H-M "P N N N"
_symmetry_group_IT_number 48
_space_group.IT_coordinate_system_code '2'
_symmetry_cell_setting 'orthorhombic'
loop_
_space_group_symop_operation_xyz
x,y,z
1/2-x,1/2-y,z
x,1/2-y,1/2-z
1/2-x,y,1/2-z
-x,-y,-z
1/2+x,1/2+y,-z
-x,1/2+y,1/2+z
1/2+x,-y,1/2+z
loop_
_atom_site_type_symbol
_atom_site_label
_atom_site_fract_x
_atom_site_fract_y
_atom_site_fract_z
Si Si1 0.385217 0.460471 0.573320
Si Si2 0.454806 0.349269 0.920353
Si Si3 0.561520 0.428528 0.254728
Si Si4 0.916788 0.220109 0.564415
Si Si5 0.571768 0.524349 0.704618
Si Si6 0.250000 0.250000 0.250000
Si Si7 0.616825 0.523346 0.915911
Si Si8 0.333406 0.320112 0.406488
O O1 0.419699 0.305607 0.585819
O O2 0.385289 0.519542 0.679224
O O3 0.416049 0.596262 0.516848
O O4 0.332810 0.414530 0.502329
O O5 0.440755 0.469530 0.838974
O O6 0.521206 0.299061 0.924376
O O7 0.434202 0.420210 0.016788
O O8 0.564416 0.250000 0.250000
O O9 0.497663 0.461123 0.299656
O O10 0.871302 0.353937 0.554904
O O11 0.908064 0.128935 0.659017
O O12 0.594682 0.529825 0.809647
O O13 0.603445 0.646059 0.639880
O O14 0.289446 0.345973 0.321039
O O15 0.667549 0.644516 0.927704
#
# Coordination Sequence:
#
# PCOD9391221 Si02
#       8
#     8   8   8   8   8   2   8   8
#     4  10  23  37  52  80 117 158 199 239 291 346
#     4  11  22  33  49  75 112 161 205 235 268 345
#     4  12  23  33  53  80 121 166 201 231 279 356
#     4  11  21  32  49  73 112 160 197 236 280 339
#     4  11  21  33  49  79 117 157 198 239 285 348
#     4  12  20  44  68  90 110 148 200 258 324 348
#     4  11  20  33  50  78 110 149 198 240 290 334
#     4  10  23  38  61  82 112 147 194 256 298 365
#
# _framework density 19.616883000000001
#
# number of rings (size 3 to 8) (size 9 to 14) (size 15 to 20)
#    0.000    1.103    4.138    3.310    5.793    0.000 
#    0.000    0.000    0.000    6.621    0.000    7.724 
#    0.000    4.414    0.000    0.000    0.000    0.000 
#
# Total GULP energy -323147.877665 kJ/mol
# GULP energy per Si atom -5571.515132 kJ/mol
# Density = 1.957223 g / cm^3
# Si number density = 19.616883 Si / 1000 Ang^3
#
#
#
# Elastic Constant Matrix: (Units=GPa)
#
#
# Indices 1 2 3 4 5 6 
#
# 1 25.2433 2.4287 14.6377 0.0000 0.0000 0.0000
# 2 2.4287 150.6877 34.5547 0.0000 0.0000 0.0000
# 3 14.6377 34.5547 93.2240 0.0000 0.0000 0.0000
# 4 0.0000 0.0000 0.0000 28.7976 0.0000 0.0000
# 5 0.0000 0.0000 0.0000 0.0000 26.0270 0.0000
# 6 0.0000 0.0000 0.0000 0.0000 0.0000 2.9640
#
#
#
# Elastic Compliance Matrix: (Units=1/GPa)
#
#
# Indices 1 2 3 4 5 6 
#
# 1 0.043707 0.000950 -0.007215 0.000000 0.000000 0.000000
# 2 0.000950 0.007273 -0.002845 0.000000 0.000000 0.000000
# 3 -0.007215 -0.002845 0.012914 0.000000 0.000000 0.000000
# 4 0.000000 0.000000 0.000000 0.034725 0.000000 0.000000
# 5 0.000000 0.000000 0.000000 0.000000 0.038422 0.000000
# 6 0.000000 0.000000 0.000000 0.000000 0.000000 0.337382
#
#
# Mechanical properties :
#
#
# Convention : Reuss Voigt Hill
#
# Bulk Modulus (GPa) = 21.89408 41.37748 31.63578
# Shear Modulus (GPa) = 9.84509 26.05998 17.95254
#
# Velocity S-wave (km/s) = 2.24267 3.64874 3.02844
# Velocity P-wave (km/s) = 4.22980 6.23616 5.32827
#
# Compressibility (1/GPa) = 0.04567444
#
# Stress axis : x y z
#
# Youngs Moduli (GPa) = 22.87979 137.48809 77.43360
#
# Poissons Ratio (x) = -0.13062 0.55867
# Poissons Ratio (y) = -0.02174 0.22031
# Poissons Ratio (z) = 0.16507 0.39117
#
# Static dielectric constant tensor:
#      x y z
#    x 1.697320 0.000000 0.000000 
#    y 0.000000 1.806860 0.000000 
#    z 0.000000 0.000000 1.734970 
# 
# From -- ./inp_files/28614.got.cif
#   From: 2010.05.17/outbox.cif.g08.bks.cpg/sg48_15_cif.got.tgz:28614.got - 2010.06.03 20:39:00.
