data_PCOD9391357
_publ_section_title
;
Structure prediction by ZEFSAII (Michael W. Deem and Ramdas Pophale) SiO2 
 PCOD9391357
Probable space group: P N N N
;
_chemical_formula_sum "Si O2"
_cell_formula_units_Z 64
_cell_length_a 30.038682
_cell_length_b 8.914530
_cell_length_c 10.836910
_cell_angle_alpha 90.000000
_cell_angle_beta 90.000000
_cell_angle_gamma 90.000000
_cell_volume 2901.915691
_symmetry_space_group_name_H-M "P N N N"
_symmetry_group_IT_number 48
_space_group.IT_coordinate_system_code '2'
_symmetry_cell_setting 'orthorhombic'
loop_
_space_group_symop_operation_xyz
x,y,z
1/2-x,1/2-y,z
x,1/2-y,1/2-z
1/2-x,y,1/2-z
-x,-y,-z
1/2+x,1/2+y,-z
-x,1/2+y,1/2+z
1/2+x,-y,1/2+z
loop_
_atom_site_type_symbol
_atom_site_label
_atom_site_fract_x
_atom_site_fract_y
_atom_site_fract_z
Si Si1 0.378555 0.835214 0.877312
Si Si2 0.587933 0.693402 0.015915
Si Si3 0.151021 0.542168 0.492361
Si Si4 0.106498 0.921088 0.268307
Si Si5 0.963960 0.524680 0.110026
Si Si6 0.475574 0.088697 0.297508
Si Si7 0.661138 0.561476 0.522982
Si Si8 0.752192 0.433185 0.600120
O O1 0.379445 0.750000 0.750000
O O2 0.428017 0.891894 0.908493
O O3 0.357029 0.709801 0.963782
O O4 0.349493 0.986377 0.890872
O O5 0.561079 0.818061 0.090920
O O6 0.617872 0.561295 0.073863
O O7 0.549327 0.616125 0.928421
O O8 0.630315 0.790927 0.958855
O O9 0.130631 0.529520 0.355738
O O10 0.202848 0.514283 0.469172
O O11 0.092029 0.750000 0.250000
O O12 0.064670 0.027322 0.285916
O O13 0.139794 0.947037 0.378138
O O14 0.984304 0.515033 0.249287
O O15 0.000000 0.500000 0.000000
O O16 0.489533 0.250000 0.250000
O O17 0.712947 0.540853 0.549447
O O18 0.750000 0.250000 0.578022
O O19 0.750000 0.448366 0.750000
#
# Coordination Sequence:
#
# PCOD9391357 Si02
#       8
#     8   8   8   8   8   8   8   8
#     4  11  24  42  65  88 126 176 222 271 328 387
#     4  10  24  40  64  90 135 172 210 270 339 398
#     4  11  23  40  63  96 130 171 210 265 324 396
#     4  11  19  34  61  92 127 163 206 252 332 393
#     4  11  22  40  64  86 122 174 225 276 327 383
#     4  11  19  35  59  89 118 166 214 264 323 395
#     4  11  20  39  62  97 131 176 205 257 344 390
#     4  11  20  35  64 103 136 161 210 265 320 402
#
# _framework density 22.054396000000001
#
# number of rings (size 3 to 8) (size 9 to 14) (size 15 to 20)
#    0.000    1.125    6.250    1.125    0.000    0.500 
#    0.000    7.500    0.000    0.000    0.000    3.500 
#    0.000    0.000    0.000    0.000    0.000    0.000 
#
# Total GULP energy -356275.761906 kJ/mol
# GULP energy per Si atom -5566.808780 kJ/mol
# Density = 2.200420 g / cm^3
# Si number density = 22.054396 Si / 1000 Ang^3
#
#
#
# Elastic Constant Matrix: (Units=GPa)
#
#
# Indices 1 2 3 4 5 6 
#
# 1 143.0725 31.5423 29.9889 0.0000 0.0000 0.0000
# 2 31.5423 68.0589 17.2407 0.0000 0.0000 0.0000
# 3 29.9889 17.2407 42.1375 0.0000 0.0000 0.0000
# 4 0.0000 0.0000 0.0000 19.3683 0.0000 0.0000
# 5 0.0000 0.0000 0.0000 0.0000 12.3895 0.0000
# 6 0.0000 0.0000 0.0000 0.0000 0.0000 57.1787
#
#
#
# Elastic Compliance Matrix: (Units=1/GPa)
#
#
# Indices 1 2 3 4 5 6 
#
# 1 0.008647 -0.002732 -0.005037 0.000000 0.000000 0.000000
# 2 -0.002732 0.017255 -0.005116 0.000000 0.000000 0.000000
# 3 -0.005037 -0.005116 0.029409 0.000000 0.000000 0.000000
# 4 0.000000 0.000000 0.000000 0.051631 0.000000 0.000000
# 5 0.000000 0.000000 0.000000 0.000000 0.080713 0.000000
# 6 0.000000 0.000000 0.000000 0.000000 0.000000 0.017489
#
#
# Mechanical properties :
#
#
# Convention : Reuss Voigt Hill
#
# Bulk Modulus (GPa) = 33.84817 45.64587 39.74702
# Shear Modulus (GPa) = 20.76743 29.42044 25.09393
#
# Velocity S-wave (km/s) = 3.07195 3.65635 3.37682
# Velocity P-wave (km/s) = 5.28805 6.21024 5.76760
#
# Compressibility (1/GPa) = 0.02954370
#
# Stress axis : x y z
#
# Youngs Moduli (GPa) = 115.64117 57.95362 34.00262
#
# Poissons Ratio (x) = 0.15832 0.17126
# Poissons Ratio (y) = 0.31591 0.17395
# Poissons Ratio (z) = 0.58244 0.29648
#
# Static dielectric constant tensor:
#      x y z
#    x 1.857570 0.000000 0.000000 
#    y 0.000000 1.883160 0.000000 
#    z 0.000000 0.000000 1.877020 
# 
# From -- ./inp_files/23835.got.cif
#   From: 2010.05.17/outbox.cif.g08.bks.cpg/sg48_12_cif.got.tgz:23835.got - 2010.06.03 20:39:00.
