data_PCOD9391445
_publ_section_title
;
Structure prediction by ZEFSAII (Michael W. Deem and Ramdas Pophale) SiO2 
 PCOD9391445
Probable space group: P N N N
;
_chemical_formula_sum "Si O2"
_cell_formula_units_Z 54
_cell_length_a 10.400606
_cell_length_b 16.540721
_cell_length_c 16.110704
_cell_angle_alpha 90.000000
_cell_angle_beta 90.000000
_cell_angle_gamma 90.000000
_cell_volume 2771.581152
_symmetry_space_group_name_H-M "P N N N"
_symmetry_group_IT_number 48
_space_group.IT_coordinate_system_code '2'
_symmetry_cell_setting 'orthorhombic'
loop_
_space_group_symop_operation_xyz
x,y,z
1/2-x,1/2-y,z
x,1/2-y,1/2-z
1/2-x,y,1/2-z
-x,-y,-z
1/2+x,1/2+y,-z
-x,1/2+y,1/2+z
1/2+x,-y,1/2+z
loop_
_atom_site_type_symbol
_atom_site_label
_atom_site_fract_x
_atom_site_fract_y
_atom_site_fract_z
Si Si1 0.250000 0.931996 0.750000
Si Si2 0.557010 0.564595 0.179378
Si Si3 0.444574 0.201510 0.998674
Si Si4 0.695176 0.042543 0.562754
Si Si5 0.750000 0.250000 0.750000
Si Si6 0.697738 0.340823 0.417871
Si Si7 0.333590 0.368616 0.978407
Si Si8 0.080325 0.877159 0.343319
O O1 0.207928 0.877830 0.672891
O O2 0.137202 0.986593 0.790900
O O3 0.429251 0.558263 0.120920
O O4 0.651785 0.616664 0.120509
O O5 0.506250 0.598629 0.265892
O O6 0.436817 0.299055 0.000874
O O7 0.301983 0.167745 0.006155
O O8 0.494960 0.165106 0.912571
O O9 0.546854 0.165643 0.061885
O O10 0.727716 0.104339 0.486844
O O11 0.825227 0.053307 0.618884
O O12 0.663117 0.955851 0.521996
O O13 0.828223 0.192295 0.690440
O O14 0.750000 0.250000 0.423166
#
# Coordination Sequence:
#
# PCOD9391445 Si02
#       8
#     4   8   8   8   2   8   8   8
#     4  12  27  40  68  97 130 176 220 277 334 374
#     4  12  23  43  65 100 134 165 218 272 331 397
#     4  10  25  41  70  95 134 170 219 270 329 398
#     4  11  24  42  71  94 130 177 221 267 327 394
#     4  12  20  40  56 102 128 168 216 256 346 380
#     4  11  25  45  67  97 127 177 227 276 319 393
#     4  11  23  43  65 100 129 177 212 269 335 390
#     4  11  24  39  67  99 134 175 214 279 326 401
#
# _framework density 19.483464000000001
#
# number of rings (size 3 to 8) (size 9 to 14) (size 15 to 20)
#    0.000    0.889    2.963    3.333    8.296    1.185 
#    0.000    1.481    0.000    0.000    0.000    0.000 
#    0.000    0.000    0.000    0.000    0.000    0.000 
#
# Total GULP energy -301233.955373 kJ/mol
# GULP energy per Si atom -5578.406581 kJ/mol
# Density = 1.943912 g / cm^3
# Si number density = 19.483464 Si / 1000 Ang^3
#
#
#
# Elastic Constant Matrix: (Units=GPa)
#
#
# Indices 1 2 3 4 5 6 
#
# 1 99.2021 47.6718 47.4622 0.0000 0.0000 0.0000
# 2 47.6718 119.6404 59.5929 0.0000 0.0000 0.0000
# 3 47.4622 59.5929 124.8471 0.0000 0.0000 0.0000
# 4 0.0000 0.0000 0.0000 27.1515 0.0000 0.0000
# 5 0.0000 0.0000 0.0000 0.0000 17.1700 0.0000
# 6 0.0000 0.0000 0.0000 0.0000 0.0000 48.0376
#
#
#
# Elastic Compliance Matrix: (Units=1/GPa)
#
#
# Indices 1 2 3 4 5 6 
#
# 1 0.013460 -0.003692 -0.003354 0.000000 0.000000 0.000000
# 2 -0.003692 0.011978 -0.004314 0.000000 0.000000 0.000000
# 3 -0.003354 -0.004314 0.011344 0.000000 0.000000 0.000000
# 4 0.000000 0.000000 0.000000 0.036830 0.000000 0.000000
# 5 0.000000 0.000000 0.000000 0.000000 0.058241 0.000000
# 6 0.000000 0.000000 0.000000 0.000000 0.000000 0.020817
#
#
# Mechanical properties :
#
#
# Convention : Reuss Voigt Hill
#
# Bulk Modulus (GPa) = 71.11911 72.57150 71.84531
# Shear Modulus (GPa) = 27.76558 31.06932 29.41745
#
# Velocity S-wave (km/s) = 3.77912 3.99764 3.88992
# Velocity P-wave (km/s) = 7.45814 7.65747 7.55846
#
# Compressibility (1/GPa) = 0.01406092
#
# Stress axis : x y z
#
# Youngs Moduli (GPa) = 74.29610 83.48380 88.15081
#
# Poissons Ratio (x) = 0.30824 0.29570
# Poissons Ratio (y) = 0.27432 0.38028
# Poissons Ratio (z) = 0.24922 0.36014
#
# Static dielectric constant tensor:
#      x y z
#    x 1.552770 0.000000 0.000000 
#    y 0.000000 1.691290 0.000000 
#    z 0.000000 0.000000 1.587480 
# 
# From -- ./inp_files/26565.got.cif
#   From: 2010.05.17/outbox.cif.g08.bks.cpg/sg48_14_cif.got.tgz:26565.got - 2010.06.03 20:39:00.
