data_PCOD9391619
_publ_section_title
;
Structure prediction by ZEFSAII (Michael W. Deem and Ramdas Pophale) SiO2 
 PCOD9391619
Probable space group: P N N N
;
_chemical_formula_sum "Si O2"
_cell_formula_units_Z 32
_cell_length_a 10.796664
_cell_length_b 7.167516
_cell_length_c 18.625607
_cell_angle_alpha 90.000000
_cell_angle_beta 90.000000
_cell_angle_gamma 90.000000
_cell_volume 1441.347477
_symmetry_space_group_name_H-M "P N N N"
_symmetry_group_IT_number 48
_space_group.IT_coordinate_system_code '2'
_symmetry_cell_setting 'orthorhombic'
loop_
_space_group_symop_operation_xyz
x,y,z
1/2-x,1/2-y,z
x,1/2-y,1/2-z
1/2-x,y,1/2-z
-x,-y,-z
1/2+x,1/2+y,-z
-x,1/2+y,1/2+z
1/2+x,-y,1/2+z
loop_
_atom_site_type_symbol
_atom_site_label
_atom_site_fract_x
_atom_site_fract_y
_atom_site_fract_z
Si Si1 0.985132 0.794839 0.832560
Si Si2 0.141775 0.597781 0.407335
Si Si3 0.804464 0.045644 0.065044
Si Si4 0.034926 0.065658 0.579714
O O1 0.007369 0.750000 0.750000
O O2 0.098283 0.902582 0.872905
O O3 0.976542 0.594203 0.870587
O O4 0.872014 0.935424 0.848658
O O5 0.250000 0.750000 0.395444
O O6 0.148896 0.493211 0.485075
O O7 0.022577 0.733117 0.408058
O O8 0.750000 0.250000 0.047471
O O9 0.683073 0.932770 0.088345
O O10 0.000000 0.000000 0.500000
#
# Coordination Sequence:
#
# PCOD9391619 Si02
#       4
#     8   8   8   8
#     4  11  25  43  66 100 138 180 225 286 353 408
#     4  11  22  43  69  98 136 179 236 286 329 416
#     4   9  19  38  68 102 129 173 230 287 330 407
#     4  11  21  41  69 103 134 177 229 283 341 403
#
# _framework density 22.201447999999999
#
# number of rings (size 3 to 8) (size 9 to 14) (size 15 to 20)
#    0.000    1.500    7.500    0.750    0.000    7.500 
#    0.000    3.750    0.000    9.000    0.000    0.000 
#    0.000    0.000    0.000    0.000    0.000    0.000 
#
# Total GULP energy -178644.997473 kJ/mol
# GULP energy per Si atom -5582.656171 kJ/mol
# Density = 2.215092 g / cm^3
# Si number density = 22.201448 Si / 1000 Ang^3
#
#
#
# Elastic Constant Matrix: (Units=GPa)
#
#
# Indices 1 2 3 4 5 6 
#
# 1 54.5882 28.5438 11.8337 0.0000 0.0000 0.0000
# 2 28.5438 108.5830 37.9331 0.0000 0.0000 0.0000
# 3 11.8337 37.9331 119.9237 0.0000 0.0000 0.0000
# 4 0.0000 0.0000 0.0000 30.2026 0.0000 0.0000
# 5 0.0000 0.0000 0.0000 0.0000 -0.4369 0.0000
# 6 0.0000 0.0000 0.0000 0.0000 0.0000 42.4144
#
#
#
# Elastic Compliance Matrix: (Units=1/GPa)
#
#
# Indices 1 2 3 4 5 6 
#
# 1 0.021253 -0.005457 -0.000371 0.000000 0.000000 0.000000
# 2 -0.005457 0.011755 -0.003180 0.000000 0.000000 0.000000
# 3 -0.000371 -0.003180 0.009381 0.000000 0.000000 0.000000
# 4 0.000000 0.000000 0.000000 0.033110 0.000000 0.000000
# 5 0.000000 0.000000 0.000000 0.000000 -2.289063 0.000000
# 6 0.000000 0.000000 0.000000 0.000000 0.000000 0.023577
#
#
# Mechanical properties :
#
#
# Convention : Reuss Voigt Hill
#
# Bulk Modulus (GPa) = 41.02900 48.85733 44.94317
# Shear Modulus (GPa) = -2.31070 28.08831 12.88881
#
# Velocity S-wave (km/s) = -1.02130 3.56076 2.41205
# Velocity P-wave (km/s) = 4.13881 6.24176 5.29572
#
# Compressibility (1/GPa) = 0.02437300
#
# Stress axis : x y z
#
# Youngs Moduli (GPa) = 47.05223 85.07058 106.59830
#
# Poissons Ratio (x) = 0.46425 0.03955
# Poissons Ratio (y) = 0.25678 0.33895
# Poissons Ratio (z) = 0.01746 0.27050
#
# Static dielectric constant tensor:
#      x y z
#    x 2.199950 0.000000 0.000000 
#    y 0.000000 1.983470 0.000000 
#    z 0.000000 0.000000 1.842680 
# 
# From -- ./inp_files/26050.got.cif
#   From: 2010.05.17/outbox.cif.g08.bks.cpg/sg48_14_cif.got.tgz:26050.got - 2010.06.03 20:39:00.
