data_PCOD9391807
_publ_section_title
;
Structure prediction by ZEFSAII (Michael W. Deem and Ramdas Pophale) SiO2 
 PCOD9391807
Probable space group: P N N N
;
_chemical_formula_sum "Si O2"
_cell_formula_units_Z 40
_cell_length_a 10.226137
_cell_length_b 26.414108
_cell_length_c 7.823209
_cell_angle_alpha 90.000000
_cell_angle_beta 90.000000
_cell_angle_gamma 90.000000
_cell_volume 2113.160522
_symmetry_space_group_name_H-M "P N N N"
_symmetry_group_IT_number 48
_space_group.IT_coordinate_system_code '2'
_symmetry_cell_setting 'orthorhombic'
loop_
_space_group_symop_operation_xyz
x,y,z
1/2-x,1/2-y,z
x,1/2-y,1/2-z
1/2-x,y,1/2-z
-x,-y,-z
1/2+x,1/2+y,-z
-x,1/2+y,1/2+z
1/2+x,-y,1/2+z
loop_
_atom_site_type_symbol
_atom_site_label
_atom_site_fract_x
_atom_site_fract_y
_atom_site_fract_z
Si Si1 0.092452 0.690780 0.253586
Si Si2 0.227774 0.950947 0.452624
Si Si3 0.003606 0.379650 0.050463
Si Si4 0.235572 0.067880 0.953441
Si Si5 0.034099 0.618146 0.562887
O O1 0.059910 0.750000 0.250000
O O2 0.250000 0.685565 0.250000
O O3 0.044883 0.662714 0.424514
O O4 0.032317 0.662082 0.090572
O O5 0.250000 0.945238 0.250000
O O6 0.088743 0.927646 0.505038
O O7 0.339762 0.917781 0.542772
O O8 0.240845 0.009413 0.500622
O O9 0.973700 0.363071 0.243110
O O10 0.152330 0.397812 0.037088
O O11 0.250000 0.073779 0.750000
O O12 0.093841 0.085399 0.016810
#
# Coordination Sequence:
#
# PCOD9391807 Si02
#       5
#     8   8   8   8   8
#     4  11  24  45  71  97 127 169 217 273 326 372
#     4  12  22  40  62  94 133 175 216 260 312 383
#     4  12  23  42  64  95 132 167 215 269 315 383
#     4  12  24  40  62  94 133 175 212 258 324 385
#     4  12  23  42  64  95 132 167 215 269 315 383
#
# _framework density 18.928993999999999
#
# number of rings (size 3 to 8) (size 9 to 14) (size 15 to 20)
#    0.000    0.200    6.000    4.800    0.000    0.800 
#    0.000    4.000    0.000    2.400    0.000    0.000 
#    0.000    0.000    0.000    0.000    0.000    0.000 
#
# Total GULP energy -223903.863920 kJ/mol
# GULP energy per Si atom -5597.596598 kJ/mol
# Density = 1.888591 g / cm^3
# Si number density = 18.928994 Si / 1000 Ang^3
#
#
#
# Elastic Constant Matrix: (Units=GPa)
#
#
# Indices 1 2 3 4 5 6 
#
# 1 43.1947 -0.1468 -19.3769 0.0000 0.0000 0.0000
# 2 -0.1468 122.1931 31.8172 0.0000 0.0000 0.0000
# 3 -19.3769 31.8172 154.9924 0.0000 0.0000 0.0000
# 4 0.0000 0.0000 0.0000 12.1015 0.0000 0.0000
# 5 0.0000 0.0000 0.0000 0.0000 24.9602 0.0000
# 6 0.0000 0.0000 0.0000 0.0000 0.0000 -10.4918
#
#
#
# Elastic Compliance Matrix: (Units=1/GPa)
#
#
# Indices 1 2 3 4 5 6 
#
# 1 0.024603 -0.000815 0.003243 0.000000 0.000000 0.000000
# 2 -0.000815 0.008673 -0.001882 0.000000 0.000000 0.000000
# 3 0.003243 -0.001882 0.007244 0.000000 0.000000 0.000000
# 4 0.000000 0.000000 0.000000 0.082635 0.000000 0.000000
# 5 0.000000 0.000000 0.000000 0.000000 0.040064 0.000000
# 6 0.000000 0.000000 0.000000 0.000000 0.000000 -0.095312
#
#
# Mechanical properties :
#
#
# Convention : Reuss Voigt Hill
#
# Bulk Modulus (GPa) = 24.03172 38.32967 31.18069
# Shear Modulus (GPa) = 61.96977 25.85307 43.91142
#
# Velocity S-wave (km/s) = 5.72792 3.69967 4.82165
# Velocity P-wave (km/s) = 7.51457 6.20832 6.89246
#
# Compressibility (1/GPa) = 0.04161167
#
# Stress axis : x y z
#
# Youngs Moduli (GPa) = 40.64532 115.30162 138.04955
#
# Poissons Ratio (x) = 0.09396 -0.44771
# Poissons Ratio (y) = 0.03312 0.25985
# Poissons Ratio (z) = -0.13182 0.21703
#
# Static dielectric constant tensor:
#      x y z
#    x 1.634700 0.000000 0.000000 
#    y 0.000000 1.615810 0.000000 
#    z 0.000000 0.000000 1.671980 
# 
# From -- ./inp_files/9220.got.cif
#   From: 2010.05.17/outbox.cif.g08.bks.cpg/sg48_5_cif.got.tgz:9220.got - 2010.06.03 20:39:00.
