data_PCOD9391305
_publ_section_title
;
Structure prediction by ZEFSAII (Michael W. Deem and Ramdas Pophale) SiO2 
 PCOD9391305
Probable space group: P N N N
;
_chemical_formula_sum "Si O2"
_cell_formula_units_Z 38
_cell_length_a 5.140422
_cell_length_b 27.853614
_cell_length_c 12.739483
_cell_angle_alpha 90.000000
_cell_angle_beta 90.000000
_cell_angle_gamma 90.000000
_cell_volume 1824.030643
_symmetry_space_group_name_H-M "P N N N"
_symmetry_group_IT_number 48
_space_group.IT_coordinate_system_code '2'
_symmetry_cell_setting 'orthorhombic'
loop_
_space_group_symop_operation_xyz
x,y,z
1/2-x,1/2-y,z
x,1/2-y,1/2-z
1/2-x,y,1/2-z
-x,-y,-z
1/2+x,1/2+y,-z
-x,1/2+y,1/2+z
1/2+x,-y,1/2+z
loop_
_atom_site_type_symbol
_atom_site_label
_atom_site_fract_x
_atom_site_fract_y
_atom_site_fract_z
Si Si1 0.750000 0.531930 0.750000
Si Si2 0.750000 0.398290 0.250000
Si Si3 0.386004 0.963118 0.417542
Si Si4 0.594694 0.666837 0.402173
Si Si5 0.250000 0.250000 0.750000
Si Si6 0.250000 0.413421 0.750000
Si Si7 0.125960 0.638076 0.524426
O O1 0.500513 0.566587 0.748782
O O2 0.699699 0.496367 0.651674
O O3 0.816852 0.366074 0.352061
O O4 0.591647 0.944675 0.331815
O O5 0.309944 0.915652 0.480668
O O6 0.500000 0.000000 0.500000
O O7 0.611186 0.713501 0.329538
O O8 0.573968 0.622484 0.319671
O O9 0.342304 0.671083 0.472560
O O10 0.845709 0.654211 0.476531
#
# Coordination Sequence:
#
# PCOD9391305 Si02
#       7
#     4   4   8   8   2   4   8
#     4  12  24  38  56  86 118 176 236 282 296 364
#     4  12  25  40  61  85 127 175 228 252 314 377
#     4  11  22  37  58  87 127 179 231 277 315 359
#     4  10  23  43  70  95 132 155 205 268 345 394
#     4  10  24  46  82 112 120 158 208 264 344 438
#     4   9  21  39  54  90 127 167 204 273 328 376
#     4  11  24  42  61  93 131 178 208 272 322 377
#
# _framework density 20.832985000000001
#
# number of rings (size 3 to 8) (size 9 to 14) (size 15 to 20)
#    0.000    1.263    2.105    3.158    2.947   10.947 
#    0.000    0.000    0.000    3.789    0.000    0.000 
#    0.000    0.000    0.000    0.000    0.000    0.000 
#
# Total GULP energy -212048.016690 kJ/mol
# GULP energy per Si atom -5580.210966 kJ/mol
# Density = 2.078557 g / cm^3
# Si number density = 20.832985 Si / 1000 Ang^3
#
#
#
# Elastic Constant Matrix: (Units=GPa)
#
#
# Indices 1 2 3 4 5 6 
#
# 1 76.4900 15.7677 17.4413 0.0000 0.0000 0.0000
# 2 15.7677 86.0913 41.1891 0.0000 0.0000 0.0000
# 3 17.4413 41.1891 152.4775 0.0000 0.0000 0.0000
# 4 0.0000 0.0000 0.0000 20.1262 0.0000 0.0000
# 5 0.0000 0.0000 0.0000 0.0000 25.1354 0.0000
# 6 0.0000 0.0000 0.0000 0.0000 0.0000 -66.3239
#
#
#
# Elastic Compliance Matrix: (Units=1/GPa)
#
#
# Indices 1 2 3 4 5 6 
#
# 1 0.013724 -0.002024 -0.001023 0.000000 0.000000 0.000000
# 2 -0.002024 0.013638 -0.003453 0.000000 0.000000 0.000000
# 3 -0.001023 -0.003453 0.007608 0.000000 0.000000 0.000000
# 4 0.000000 0.000000 0.000000 0.049686 0.000000 0.000000
# 5 0.000000 0.000000 0.000000 0.000000 0.039785 0.000000
# 6 0.000000 0.000000 0.000000 0.000000 0.000000 -0.015078
#
#
# Mechanical properties :
#
#
# Convention : Reuss Voigt Hill
#
# Bulk Modulus (GPa) = 45.51503 51.53946 48.52725
# Shear Modulus (GPa) = 38.55443 11.83159 25.19301
#
# Velocity S-wave (km/s) = 4.30658 2.38571 3.48125
# Velocity P-wave (km/s) = 6.82816 5.69050 6.28513
#
# Compressibility (1/GPa) = 0.02197076
#
# Stress axis : x y z
#
# Youngs Moduli (GPa) = 72.86433 73.32390 131.44027
#
# Poissons Ratio (x) = 0.14842 0.13447
# Poissons Ratio (y) = 0.14749 0.45381
# Poissons Ratio (z) = 0.07455 0.25316
#
# Static dielectric constant tensor:
#      x y z
#    x 1.799630 0.000000 0.000000 
#    y 0.000000 1.277580 0.000000 
#    z 0.000000 0.000000 1.913300 
# 
# From -- ./inp_files/2611.got.cif
#   From: 2010.05.17/outbox.cif.g08.bks.cpg/sg48_2_cif.got.tgz:2611.got - 2010.06.03 20:39:00.
