data_PCOD9391514
_publ_section_title
;
Structure prediction by ZEFSAII (Michael W. Deem and Ramdas Pophale) SiO2 
 PCOD9391514
Probable space group: P N N N
;
_chemical_formula_sum "Si O2"
_cell_formula_units_Z 38
_cell_length_a 8.796628
_cell_length_b 16.956788
_cell_length_c 11.345888
_cell_angle_alpha 90.000000
_cell_angle_beta 90.000000
_cell_angle_gamma 90.000000
_cell_volume 1692.381655
_symmetry_space_group_name_H-M "P N N N"
_symmetry_group_IT_number 48
_space_group.IT_coordinate_system_code '2'
_symmetry_cell_setting 'orthorhombic'
loop_
_space_group_symop_operation_xyz
x,y,z
1/2-x,1/2-y,z
x,1/2-y,1/2-z
1/2-x,y,1/2-z
-x,-y,-z
1/2+x,1/2+y,-z
-x,1/2+y,1/2+z
1/2+x,-y,1/2+z
loop_
_atom_site_type_symbol
_atom_site_label
_atom_site_fract_x
_atom_site_fract_y
_atom_site_fract_z
Si Si1 0.873654 0.016534 0.153479
Si Si2 0.250000 0.250000 0.750000
Si Si3 0.641733 0.872769 0.651263
Si Si4 0.250000 0.635677 0.250000
Si Si5 0.519778 0.655749 0.091376
Si Si6 0.337492 0.981189 0.054753
O O1 0.750000 0.993362 0.250000
O O2 0.998516 0.077396 0.201238
O O3 0.959238 0.938801 0.106748
O O4 0.774143 0.052696 0.046694
O O5 0.352444 0.303726 0.831602
O O6 0.750000 0.835228 0.750000
O O7 0.563350 0.824974 0.544109
O O8 0.754371 0.938573 0.594961
O O9 0.362797 0.677686 0.157481
O O10 0.152239 0.578501 0.164062
O O11 0.500000 0.000000 0.000000
#
# Coordination Sequence:
#
# PCOD9391514 Si02
#       6
#     8   2   8   4   8   8
#     4  11  19  35  58  95 132 159 201 254 339 401
#     4  12  28  46  62  84 116 170 236 254 306 382
#     4  11  20  37  59  95 127 157 201 258 330 395
#     4  12  20  39  60  90 132 161 212 258 322 388
#     4  11  23  40  60  85 121 172 210 262 308 376
#     4  11  20  30  55  93 131 167 189 249 327 394
#
# _framework density 22.453564
#
# number of rings (size 3 to 8) (size 9 to 14) (size 15 to 20)
#    0.000    0.842    6.316    3.789    2.947    0.421 
#    0.000    0.526    0.000    0.000    0.000    0.000 
#    0.000    0.000    0.000    0.000    0.000    0.000 
#
# Total GULP energy -212257.914413 kJ/mol
# GULP energy per Si atom -5585.734590 kJ/mol
# Density = 2.240246 g / cm^3
# Si number density = 22.453564 Si / 1000 Ang^3
#
#
#
# Elastic Constant Matrix: (Units=GPa)
#
#
# Indices 1 2 3 4 5 6 
#
# 1 168.6001 21.9204 62.0583 0.0000 0.0000 0.0000
# 2 21.9204 35.4580 14.2402 0.0000 0.0000 0.0000
# 3 62.0583 14.2402 129.8740 0.0000 0.0000 0.0000
# 4 0.0000 0.0000 0.0000 99.7144 0.0000 0.0000
# 5 0.0000 0.0000 0.0000 0.0000 70.3445 0.0000
# 6 0.0000 0.0000 0.0000 0.0000 0.0000 201.7765
#
#
#
# Elastic Compliance Matrix: (Units=1/GPa)
#
#
# Indices 1 2 3 4 5 6 
#
# 1 0.007564 -0.003373 -0.003244 0.000000 0.000000 0.000000
# 2 -0.003373 0.031006 -0.001788 0.000000 0.000000 0.000000
# 3 -0.003244 -0.001788 0.009446 0.000000 0.000000 0.000000
# 4 0.000000 0.000000 0.000000 0.010029 0.000000 0.000000
# 5 0.000000 0.000000 0.000000 0.000000 0.014216 0.000000
# 6 0.000000 0.000000 0.000000 0.000000 0.000000 0.004956
#
#
# Mechanical properties :
#
#
# Convention : Reuss Voigt Hill
#
# Bulk Modulus (GPa) = 32.04625 58.92999 45.48812
# Shear Modulus (GPa) = 47.87954 90.08128 68.98041
#
# Velocity S-wave (km/s) = 4.62278 6.34082 5.54870
# Velocity P-wave (km/s) = 6.54192 8.93925 7.83285
#
# Compressibility (1/GPa) = 0.03120490
#
# Stress axis : x y z
#
# Youngs Moduli (GPa) = 132.20557 32.25213 105.86347
#
# Poissons Ratio (x) = 0.10879 0.34347
# Poissons Ratio (y) = 0.44594 0.18927
# Poissons Ratio (z) = 0.42894 0.05766
#
# Static dielectric constant tensor:
#      x y z
#    x 1.816140 0.000000 0.000000 
#    y 0.000000 1.807260 0.000000 
#    z 0.000000 0.000000 1.166190 
# 
# From -- ./inp_files/10743.got.cif
#   From: 2010.05.17/outbox.cif.g08.bks.cpg/sg48_6_cif.got.tgz:10743.got - 2010.06.03 20:39:00.
