data_PCOD9391124
_publ_section_title
;
Structure prediction by ZEFSAII (Michael W. Deem and Ramdas Pophale) SiO2 
 PCOD9391124
Probable space group: P N N N
;
_chemical_formula_sum "Si O2"
_cell_formula_units_Z 24
_cell_length_a 22.268736
_cell_length_b 8.995573
_cell_length_c 5.172908
_cell_angle_alpha 90.000000
_cell_angle_beta 90.000000
_cell_angle_gamma 90.000000
_cell_volume 1036.237139
_symmetry_space_group_name_H-M "P N N N"
_symmetry_group_IT_number 48
_space_group.IT_coordinate_system_code '2'
_symmetry_cell_setting 'orthorhombic'
loop_
_space_group_symop_operation_xyz
x,y,z
1/2-x,1/2-y,z
x,1/2-y,1/2-z
1/2-x,y,1/2-z
-x,-y,-z
1/2+x,1/2+y,-z
-x,1/2+y,1/2+z
1/2+x,-y,1/2+z
loop_
_atom_site_type_symbol
_atom_site_label
_atom_site_fract_x
_atom_site_fract_y
_atom_site_fract_z
Si Si1 0.155114 0.654356 0.478407
Si Si2 0.976440 0.416642 0.745629
Si Si3 0.682960 0.819203 0.496234
O O1 0.185222 0.750000 0.250000
O O2 0.094063 0.602279 0.327556
O O3 0.186581 0.496356 0.528375
O O4 0.147400 0.750000 0.750000
O O5 0.000369 0.250000 0.750000
O O6 0.000000 0.500000 0.500000
O O7 0.000000 0.500000 0.000000
O O8 0.750000 0.750000 0.498684
O O9 0.650789 0.750000 0.250000
O O10 0.653058 0.750000 0.750000
#
# Coordination Sequence:
#
# PCOD9391124 Si02
#       3
#     8   8   8
#     4  11  23  42  65  93 130 175 219 268 330 397
#     4  11  23  40  61  92 128 168 216 267 323 389
#     4  10  22  42  64  95 130 165 217 274 325 392
#
# _framework density 23.160720999999999
#
# number of rings (size 3 to 8) (size 9 to 14) (size 15 to 20)
#    0.000    1.333    0.000    7.000    0.000    4.000 
#    0.000   20.000    0.000    0.000    0.000    0.000 
#    0.000    0.000    0.000    0.000    0.000    0.000 
#
# Total GULP energy -133793.468203 kJ/mol
# GULP energy per Si atom -5574.727842 kJ/mol
# Density = 2.310801 g / cm^3
# Si number density = 23.160721 Si / 1000 Ang^3
#
#
#
# Elastic Constant Matrix: (Units=GPa)
#
#
# Indices 1 2 3 4 5 6 
#
# 1 98.3640 45.7498 29.1745 0.0000 0.0000 0.0000
# 2 45.7498 255.9037 115.0764 0.0000 0.0000 0.0000
# 3 29.1745 115.0764 275.5228 0.0000 0.0000 0.0000
# 4 0.0000 0.0000 0.0000 66.1197 0.0000 0.0000
# 5 0.0000 0.0000 0.0000 0.0000 -50.7702 0.0000
# 6 0.0000 0.0000 0.0000 0.0000 0.0000 32.4898
#
#
#
# Elastic Compliance Matrix: (Units=1/GPa)
#
#
# Indices 1 2 3 4 5 6 
#
# 1 0.011129 -0.001797 -0.000428 0.000000 0.000000 0.000000
# 2 -0.001797 0.005102 -0.001940 0.000000 0.000000 0.000000
# 3 -0.000428 -0.001940 0.004485 0.000000 0.000000 0.000000
# 4 0.000000 0.000000 0.000000 0.015124 0.000000 0.000000
# 5 0.000000 0.000000 0.000000 0.000000 -0.019697 0.000000
# 6 0.000000 0.000000 0.000000 0.000000 0.000000 0.030779
#
#
# Mechanical properties :
#
#
# Convention : Reuss Voigt Hill
#
# Bulk Modulus (GPa) = 80.74319 112.19910 96.47114
# Shear Modulus (GPa) = 84.20104 38.88718 61.54411
#
# Velocity S-wave (km/s) = 6.03606 4.10202 5.16046
# Velocity P-wave (km/s) = 9.13874 8.42522 8.78922
#
# Compressibility (1/GPa) = 0.01238495
#
# Stress axis : x y z
#
# Youngs Moduli (GPa) = 89.85439 196.01566 222.95415
#
# Poissons Ratio (x) = 0.35229 0.09537
# Poissons Ratio (y) = 0.16149 0.43264
# Poissons Ratio (z) = 0.03844 0.38036
#
# Static dielectric constant tensor:
#      x y z
#    x 1.801320 0.000000 0.000000 
#    y 0.000000 1.832440 0.000000 
#    z 0.000000 0.000000 1.643530 
# 
# From -- ./inp_files/6144.got.cif
#   From: 2010.05.17/outbox.cif.g08.bks.cpg/sg48_4_cif.got.tgz:6144.got - 2010.06.03 20:39:00.
