data_PCOD9391006
_publ_section_title
;
Structure prediction by ZEFSAII (Michael W. Deem and Ramdas Pophale) SiO2 
 PCOD9391006
Probable space group: P N N N
;
_chemical_formula_sum "Si O2"
_cell_formula_units_Z 48
_cell_length_a 31.445408
_cell_length_b 8.122990
_cell_length_c 8.572985
_cell_angle_alpha 90.000000
_cell_angle_beta 90.000000
_cell_angle_gamma 90.000000
_cell_volume 2189.803857
_symmetry_space_group_name_H-M "P N N N"
_symmetry_group_IT_number 48
_space_group.IT_coordinate_system_code '2'
_symmetry_cell_setting 'orthorhombic'
loop_
_space_group_symop_operation_xyz
x,y,z
1/2-x,1/2-y,z
x,1/2-y,1/2-z
1/2-x,y,1/2-z
-x,-y,-z
1/2+x,1/2+y,-z
-x,1/2+y,1/2+z
1/2+x,-y,1/2+z
loop_
_atom_site_type_symbol
_atom_site_label
_atom_site_fract_x
_atom_site_fract_y
_atom_site_fract_z
Si Si1 0.159299 0.533580 0.438022
Si Si2 0.511930 0.749507 0.936256
Si Si3 0.420298 0.412323 0.861899
Si Si4 0.564412 0.063780 0.053650
Si Si5 0.343132 0.565650 0.421065
Si Si6 0.751411 0.442100 0.940649
O O1 0.121933 0.460519 0.543148
O O2 0.160120 0.734275 0.432133
O O3 0.153246 0.496802 0.254809
O O4 0.206758 0.479650 0.490883
O O5 0.513775 0.750000 0.750000
O O6 0.463519 0.778483 0.994901
O O7 0.540031 0.613558 0.022378
O O8 0.537812 0.912148 0.987407
O O9 0.414419 0.250000 0.750000
O O10 0.433137 0.551584 0.739393
O O11 0.612354 0.036577 0.001230
O O12 0.298351 0.496993 0.486861
O O13 0.750000 0.250000 0.987943
O O14 0.750000 0.444554 0.750000
#
# Coordination Sequence:
#
# PCOD9391006 Si02
#       6
#     8   8   8   8   8   8
#     4   9  17  32  57  86 113 147 182 225 280 332
#     4  10  22  40  57  74 105 150 188 230 274 331
#     4  10  22  39  56  78 111 150 187 233 277 334
#     4  10  22  38  54  82 109 143 184 230 285 330
#     4   9  17  32  56  88 114 141 182 230 277 334
#     4   7  12  26  51  82 114 139 172 218 270 325
#
# _framework density 21.919771999999998
#
# number of rings (size 3 to 8) (size 9 to 14) (size 15 to 20)
#    0.000    2.833    0.000    3.000    2.333    0.667 
#   15.000    0.833    0.000   10.000    0.000   15.167 
#    0.000    0.000    0.000    0.000    0.000    0.000 
#
# Total GULP energy -267434.889191 kJ/mol
# GULP energy per Si atom -5571.560191 kJ/mol
# Density = 2.186988 g / cm^3
# Si number density = 21.919772 Si / 1000 Ang^3
#
#
#
# Elastic Constant Matrix: (Units=GPa)
#
#
# Indices 1 2 3 4 5 6 
#
# 1 230.0558 38.2845 75.4698 0.0000 0.0000 0.0000
# 2 38.2845 39.7708 12.9100 0.0000 0.0000 0.0000
# 3 75.4698 12.9100 73.1187 0.0000 0.0000 0.0000
# 4 0.0000 0.0000 0.0000 21.5800 0.0000 0.0000
# 5 0.0000 0.0000 0.0000 0.0000 26.0883 0.0000
# 6 0.0000 0.0000 0.0000 0.0000 0.0000 26.7075
#
#
#
# Elastic Compliance Matrix: (Units=1/GPa)
#
#
# Indices 1 2 3 4 5 6 
#
# 1 0.007378 -0.004912 -0.006748 0.000000 0.000000 0.000000
# 2 -0.004912 0.029943 -0.000217 0.000000 0.000000 0.000000
# 3 -0.006748 -0.000217 0.020679 0.000000 0.000000 0.000000
# 4 0.000000 0.000000 0.000000 0.046339 0.000000 0.000000
# 5 0.000000 0.000000 0.000000 0.000000 0.038331 0.000000
# 6 0.000000 0.000000 0.000000 0.000000 0.000000 0.037443
#
#
# Mechanical properties :
#
#
# Convention : Reuss Voigt Hill
#
# Bulk Modulus (GPa) = 29.19987 66.25266 47.72627
# Shear Modulus (GPa) = 23.22537 29.29390 26.25963
#
# Velocity S-wave (km/s) = 3.25862 3.65967 3.46495
# Velocity P-wave (km/s) = 5.24484 6.93889 6.15047
#
# Compressibility (1/GPa) = 0.03424672
#
# Stress axis : x y z
#
# Youngs Moduli (GPa) = 135.54298 33.39714 48.35714
#
# Poissons Ratio (x) = 0.16403 0.32630
# Poissons Ratio (y) = 0.66574 0.01050
# Poissons Ratio (z) = 0.91461 0.00725
#
# Static dielectric constant tensor:
#      x y z
#    x 1.865190 0.000000 0.000000 
#    y 0.000000 1.902030 0.000000 
#    z 0.000000 0.000000 1.787680 
# 
# From -- ./inp_files/16826.got.cif
#   From: 2010.05.17/outbox.cif.g08.bks.cpg/sg48_9_cif.got.tgz:16826.got - 2010.06.03 20:39:00.
