data_PCOD9391661
_publ_section_title
;
Structure prediction by ZEFSAII (Michael W. Deem and Ramdas Pophale) SiO2 
 PCOD9391661
Probable space group: P N N N
;
_chemical_formula_sum "Si O2"
_cell_formula_units_Z 58
_cell_length_a 10.651157
_cell_length_b 24.880686
_cell_length_c 9.780490
_cell_angle_alpha 90.000000
_cell_angle_beta 90.000000
_cell_angle_gamma 90.000000
_cell_volume 2591.909002
_symmetry_space_group_name_H-M "P N N N"
_symmetry_group_IT_number 48
_space_group.IT_coordinate_system_code '2'
_symmetry_cell_setting 'orthorhombic'
loop_
_space_group_symop_operation_xyz
x,y,z
1/2-x,1/2-y,z
x,1/2-y,1/2-z
1/2-x,y,1/2-z
-x,-y,-z
1/2+x,1/2+y,-z
-x,1/2+y,1/2+z
1/2+x,-y,1/2+z
loop_
_atom_site_type_symbol
_atom_site_label
_atom_site_fract_x
_atom_site_fract_y
_atom_site_fract_z
Si Si1 0.787181 0.982055 0.398870
Si Si2 0.570534 0.417772 0.287263
Si Si3 0.750000 0.250000 0.250000
Si Si4 0.625729 0.500222 0.844096
Si Si5 0.918698 0.169875 0.077310
Si Si6 0.069398 0.378794 0.966797
Si Si7 0.783831 0.812931 0.902581
Si Si8 0.395324 0.620736 0.209534
O O1 0.750000 0.960395 0.250000
O O2 0.842210 0.041071 0.370456
O O3 0.672829 0.986096 0.504061
O O4 0.890171 0.941329 0.456816
O O5 0.466677 0.456070 0.218261
O O6 0.621792 0.383123 0.161979
O O7 0.513902 0.375902 0.396409
O O8 0.840024 0.216120 0.150105
O O9 0.750000 0.501005 0.750000
O O10 0.570479 0.440215 0.835810
O O11 0.068084 0.178615 0.087079
O O12 0.898614 0.160452 0.917838
O O13 0.986786 0.364324 0.834904
O O14 0.196721 0.345365 0.991135
O O15 0.750000 0.750000 0.912990
O O16 0.750000 0.832367 0.750000
O O17 0.250000 0.618204 0.250000
#
# Coordination Sequence:
#
# PCOD9391661 Si02
#       8
#     8   8   2   8   8   8   8   8
#     4  12  26  38  64 103 154 197 245 305 366 451
#     4  12  24  43  72 106 142 206 250 295 371 458
#     4  12  32  56  80 108 148 188 274 318 378 472
#     4  11  22  41  64 103 151 202 244 292 362 461
#     4  12  29  49  82 108 141 200 253 320 380 460
#     4  12  25  44  73 108 156 195 243 318 382 443
#     4  11  25  49  79 108 136 186 259 323 382 443
#     4  11  27  46  71 109 160 199 246 308 386 457
#
# _framework density 22.377329
#
# number of rings (size 3 to 8) (size 9 to 14) (size 15 to 20)
#    0.000    0.414    4.138    4.552    8.690    1.103 
#    0.000    3.103    0.000    0.000    0.000    0.000 
#    0.000    0.000    0.000    0.000    0.000    0.000 
#
# Total GULP energy -324870.510927 kJ/mol
# GULP energy per Si atom -5601.215706 kJ/mol
# Density = 2.232640 g / cm^3
# Si number density = 22.377329 Si / 1000 Ang^3
#
#
#
# Elastic Constant Matrix: (Units=GPa)
#
#
# Indices 1 2 3 4 5 6 
#
# 1 130.4855 54.1594 74.8411 0.0000 0.0000 0.0000
# 2 54.1594 82.5432 42.2399 0.0000 0.0000 0.0000
# 3 74.8411 42.2399 169.2885 0.0000 0.0000 0.0000
# 4 0.0000 0.0000 0.0000 16.3035 0.0000 0.0000
# 5 0.0000 0.0000 0.0000 0.0000 38.1082 0.0000
# 6 0.0000 0.0000 0.0000 0.0000 0.0000 35.1134
#
#
#
# Elastic Compliance Matrix: (Units=1/GPa)
#
#
# Indices 1 2 3 4 5 6 
#
# 1 0.012514 -0.006167 -0.003994 0.000000 0.000000 0.000000
# 2 -0.006167 0.016928 -0.001497 0.000000 0.000000 0.000000
# 3 -0.003994 -0.001497 0.008046 0.000000 0.000000 0.000000
# 4 0.000000 0.000000 0.000000 0.061336 0.000000 0.000000
# 5 0.000000 0.000000 0.000000 0.000000 0.026241 0.000000
# 6 0.000000 0.000000 0.000000 0.000000 0.000000 0.028479
#
#
# Mechanical properties :
#
#
# Convention : Reuss Voigt Hill
#
# Bulk Modulus (GPa) = 70.56263 80.53312 75.54788
# Shear Modulus (GPa) = 27.53545 31.97680 29.75612
#
# Velocity S-wave (km/s) = 3.51166 3.78429 3.65052
# Velocity P-wave (km/s) = 6.93137 7.42707 7.18350
#
# Compressibility (1/GPa) = 0.01417181
#
# Stress axis : x y z
#
# Youngs Moduli (GPa) = 79.91053 59.07530 124.28310
#
# Poissons Ratio (x) = 0.36433 0.49633
# Poissons Ratio (y) = 0.49283 0.18607
# Poissons Ratio (z) = 0.31912 0.08845
#
# Static dielectric constant tensor:
#      x y z
#    x 1.900550 0.000000 0.000000 
#    y 0.000000 1.805630 0.000000 
#    z 0.000000 0.000000 1.831800 
# 
# From -- ./inp_files/11454.got.cif
#   From: 2010.05.17/outbox.cif.g08.bks.cpg/sg48_6_cif.got.tgz:11454.got - 2010.06.03 20:39:00.
