data_PCOD9391868
_publ_section_title
;
Structure prediction by ZEFSAII (Michael W. Deem and Ramdas Pophale) SiO2 
 PCOD9391868
Probable space group: P N N N
;
_chemical_formula_sum "Si O2"
_cell_formula_units_Z 18
_cell_length_a 4.727005
_cell_length_b 18.019685
_cell_length_c 8.330435
_cell_angle_alpha 90.000000
_cell_angle_beta 90.000000
_cell_angle_gamma 90.000000
_cell_volume 709.579298
_symmetry_space_group_name_H-M "P N N N"
_symmetry_group_IT_number 48
_space_group.IT_coordinate_system_code '2'
_symmetry_cell_setting 'orthorhombic'
loop_
_space_group_symop_operation_xyz
x,y,z
1/2-x,1/2-y,z
x,1/2-y,1/2-z
1/2-x,y,1/2-z
-x,-y,-z
1/2+x,1/2+y,-z
-x,1/2+y,1/2+z
1/2+x,-y,1/2+z
loop_
_atom_site_type_symbol
_atom_site_label
_atom_site_fract_x
_atom_site_fract_y
_atom_site_fract_z
Si Si1 0.330483 0.071610 0.062107
Si Si2 0.855355 0.327716 0.504634
Si Si3 0.750000 0.750000 0.750000
O O1 0.250000 0.059414 0.250000
O O2 0.568350 0.134418 0.047062
O O3 0.067361 0.102665 0.950958
O O4 0.500000 0.000000 0.000000
O O5 0.750000 0.250000 0.587476
O O6 0.044791 0.296682 0.361747
#
# Coordination Sequence:
#
# PCOD9391868 Si02
#       3
#     8   8   2
#     4  12  24  39  60  94 133 168 212 270 341 402
#     4  12  21  36  63  93 126 162 213 278 331 384
#     4  12  18  32  66  92 124 140 216 280 328 364
#
# _framework density 25.367142000000001
#
# number of rings (size 3 to 8) (size 9 to 14) (size 15 to 20)
#    0.000    0.000    6.667    6.000    0.000    0.000 
#    0.000    0.000    0.000    1.333   11.556    0.000 
#    0.000    0.000    0.000    0.000    0.000    0.000 
#
# Total GULP energy -100261.282292 kJ/mol
# GULP energy per Si atom -5570.071238 kJ/mol
# Density = 2.530941 g / cm^3
# Si number density = 25.367142 Si / 1000 Ang^3
#
#
#
# Elastic Constant Matrix: (Units=GPa)
#
#
# Indices 1 2 3 4 5 6 
#
# 1 227.8044 64.5751 43.8566 0.0000 0.0000 0.0000
# 2 64.5751 201.3200 59.8055 0.0000 0.0000 0.0000
# 3 43.8566 59.8055 83.3041 0.0000 0.0000 0.0000
# 4 0.0000 0.0000 0.0000 -5.2879 0.0000 0.0000
# 5 0.0000 0.0000 0.0000 0.0000 -6.6231 0.0000
# 6 0.0000 0.0000 0.0000 0.0000 0.0000 94.9489
#
#
#
# Elastic Compliance Matrix: (Units=1/GPa)
#
#
# Indices 1 2 3 4 5 6 
#
# 1 0.005056 -0.001056 -0.001903 0.000000 0.000000 0.000000
# 2 -0.001056 0.006534 -0.004135 0.000000 0.000000 0.000000
# 3 -0.001903 -0.004135 0.015975 0.000000 0.000000 0.000000
# 4 0.000000 0.000000 0.000000 -0.189112 0.000000 0.000000
# 5 0.000000 0.000000 0.000000 0.000000 -0.150986 0.000000
# 6 0.000000 0.000000 0.000000 0.000000 0.000000 0.010532
#
#
# Mechanical properties :
#
#
# Convention : Reuss Voigt Hill
#
# Bulk Modulus (GPa) = 74.76282 94.32254 84.54268
# Shear Modulus (GPa) = -17.64584 39.55365 10.95390
#
# Velocity S-wave (km/s) = -2.64032 3.95301 2.08027
# Velocity P-wave (km/s) = 4.49903 7.62226 6.25859
#
# Compressibility (1/GPa) = 0.01337563
#
# Stress axis : x y z
#
# Youngs Moduli (GPa) = 197.80242 153.03604 62.59819
#
# Poissons Ratio (x) = 0.16164 0.11914
# Poissons Ratio (y) = 0.20892 0.25885
# Poissons Ratio (z) = 0.37648 0.63282
#
# Static dielectric constant tensor:
#      x y z
#    x 1.994580 0.000000 0.000000 
#    y 0.000000 2.341610 0.000000 
#    z 0.000000 0.000000 2.030830 
# 
# From -- ./inp_files/4736.got.cif
#   From: 2010.05.17/outbox.cif.g08.bks.cpg/sg48_3_cif.got.tgz:4736.got - 2010.06.03 20:39:00.
