data_PCOD9391052
_publ_section_title
;
Structure prediction by ZEFSAII (Michael W. Deem and Ramdas Pophale) SiO2 
 PCOD9391052
Probable space group: P N N N
;
_chemical_formula_sum "Si O2"
_cell_formula_units_Z 48
_cell_length_a 7.715172
_cell_length_b 15.103993
_cell_length_c 19.237200
_cell_angle_alpha 90.000000
_cell_angle_beta 90.000000
_cell_angle_gamma 90.000000
_cell_volume 2241.709067
_symmetry_space_group_name_H-M "P N N N"
_symmetry_group_IT_number 48
_space_group.IT_coordinate_system_code '2'
_symmetry_cell_setting 'orthorhombic'
loop_
_space_group_symop_operation_xyz
x,y,z
1/2-x,1/2-y,z
x,1/2-y,1/2-z
1/2-x,y,1/2-z
-x,-y,-z
1/2+x,1/2+y,-z
-x,1/2+y,1/2+z
1/2+x,-y,1/2+z
loop_
_atom_site_type_symbol
_atom_site_label
_atom_site_fract_x
_atom_site_fract_y
_atom_site_fract_z
Si Si1 0.355706 0.840673 0.088492
Si Si2 0.026661 0.930425 0.060343
Si Si3 0.048907 0.251513 0.477743
Si Si4 0.051874 0.712185 0.678065
Si Si5 0.085970 0.505508 0.698294
Si Si6 0.452040 0.155828 0.775089
O O1 0.250000 0.750000 0.106418
O O2 0.221698 0.921900 0.090482
O O3 0.510205 0.848979 0.143638
O O4 0.438289 0.827017 0.012364
O O5 0.899408 0.955847 0.123702
O O6 0.009037 0.837630 0.020759
O O7 0.000000 0.000000 0.000000
O O8 0.250000 0.250000 0.492762
O O9 0.023326 0.257477 0.395545
O O10 0.250000 0.750000 0.676489
O O11 0.975432 0.750000 0.750000
O O12 0.033133 0.605788 0.681785
O O13 0.250000 0.518272 0.750000
O O14 0.972861 0.433067 0.740393
O O15 0.524935 0.250000 0.750000
O O16 0.250000 0.156977 0.750000
#
# Coordination Sequence:
#
# PCOD9391052 Si02
#       6
#     8   8   8   8   8   8
#     4  10  23  42  69  99 135 192 234 278 366 437
#     4  11  23  44  69  97 141 178 237 298 346 426
#     4  11  25  43  69 101 138 184 241 296 356 428
#     4  11  22  45  73  94 132 191 245 292 354 422
#     4  11  23  40  71 104 137 185 233 293 357 428
#     4  10  22  39  67 102 144 179 220 292 358 438
#
# _framework density 21.412233000000001
#
# number of rings (size 3 to 8) (size 9 to 14) (size 15 to 20)
#    0.000    1.333    3.333    3.500    7.000    2.667 
#    3.000    2.500    0.000    0.000    0.000    0.000 
#    0.000    0.000    0.000    0.000    0.000    0.000 
#
# Total GULP energy -267404.453537 kJ/mol
# GULP energy per Si atom -5570.926115 kJ/mol
# Density = 2.136350 g / cm^3
# Si number density = 21.412233 Si / 1000 Ang^3
#
#
#
# Elastic Constant Matrix: (Units=GPa)
#
#
# Indices 1 2 3 4 5 6 
#
# 1 83.6295 10.5494 35.7619 0.0000 0.0000 0.0000
# 2 10.5494 81.4970 22.1966 0.0000 0.0000 0.0000
# 3 35.7619 22.1966 173.4312 0.0000 0.0000 0.0000
# 4 0.0000 0.0000 0.0000 -55.7850 0.0000 0.0000
# 5 0.0000 0.0000 0.0000 0.0000 36.1572 0.0000
# 6 0.0000 0.0000 0.0000 0.0000 0.0000 -5.7717
#
#
#
# Elastic Compliance Matrix: (Units=1/GPa)
#
#
# Indices 1 2 3 4 5 6 
#
# 1 0.013192 -0.001002 -0.002592 0.000000 0.000000 0.000000
# 2 -0.001002 0.012790 -0.001430 0.000000 0.000000 0.000000
# 3 -0.002592 -0.001430 0.006484 0.000000 0.000000 0.000000
# 4 0.000000 0.000000 0.000000 -0.017926 0.000000 0.000000
# 5 0.000000 0.000000 0.000000 0.000000 0.027657 0.000000
# 6 0.000000 0.000000 0.000000 0.000000 0.000000 -0.173260
#
#
# Mechanical properties :
#
#
# Convention : Reuss Voigt Hill
#
# Bulk Modulus (GPa) = 44.60854 52.84149 48.72502
# Shear Modulus (GPa) = -44.03605 12.92341 -15.55632
#
# Velocity S-wave (km/s) = -4.53988 2.45940 -2.69832
# Velocity P-wave (km/s) = 2.56948 5.72683 3.61900
#
# Compressibility (1/GPa) = 0.02241723
#
# Stress axis : x y z
#
# Youngs Moduli (GPa) = 75.80185 78.18837 154.23703
#
# Poissons Ratio (x) = 0.07832 0.39979
# Poissons Ratio (y) = 0.07593 0.22061
# Poissons Ratio (z) = 0.19648 0.11183
#
# Static dielectric constant tensor:
#      x y z
#    x 1.891670 0.000000 0.000000 
#    y 0.000000 1.786630 0.000000 
#    z 0.000000 0.000000 1.797920 
# 
# From -- ./inp_files/30248.got.cif
#   From: 2010.05.17/outbox.cif.g08.bks.cpg/sg48_16_cif.got.tgz:30248.got - 2010.06.03 20:39:00.
