data_PCOD9391975
_publ_section_title
;
Structure prediction by ZEFSAII (Michael W. Deem and Ramdas Pophale) SiO2 
 PCOD9391975
Probable space group: P N N N
;
_chemical_formula_sum "Si O2"
_cell_formula_units_Z 56
_cell_length_a 15.000000
_cell_length_b 15.000000
_cell_length_c 12.000000
_cell_angle_alpha 90.000000
_cell_angle_beta 90.000000
_cell_angle_gamma 90.000000
_cell_volume 2700.000000
_symmetry_space_group_name_H-M "P N N N"
_symmetry_group_IT_number 48
_space_group.IT_coordinate_system_code '2'
_symmetry_cell_setting 'orthorhombic'
loop_
_space_group_symop_operation_xyz
x,y,z
1/2-x,1/2-y,z
x,1/2-y,1/2-z
1/2-x,y,1/2-z
-x,-y,-z
1/2+x,1/2+y,-z
-x,1/2+y,1/2+z
1/2+x,-y,1/2+z
loop_
_atom_site_type_symbol
_atom_site_label
_atom_site_fract_x
_atom_site_fract_y
_atom_site_fract_z
Si Si1 0.151893 0.786379 0.045775
Si Si2 0.952321 0.394144 0.914213
Si Si3 0.348062 0.547954 0.202915
Si Si4 0.067720 0.080080 0.037765
Si Si5 0.122371 0.002082 0.625521
Si Si6 0.589748 0.345272 0.185068
Si Si7 0.273059 0.146013 0.616942
O O1 0.250000 0.750000 0.072798
O O2 0.081292 0.707218 0.069925
O O3 0.130191 0.866631 0.127828
O O4 0.155221 0.825863 0.919834
O O5 0.907661 0.446132 0.811889
O O6 0.054992 0.412525 0.882466
O O7 0.916335 0.440686 0.026525
O O8 0.250000 0.553280 0.250000
O O9 0.363662 0.463639 0.124845
O O10 0.002957 0.139970 0.116329
O O11 0.128159 0.122937 0.937376
O O12 0.000000 0.000000 0.000000
O O13 0.114927 0.932608 0.734729
O O14 0.215207 0.053149 0.595412
O O15 0.586791 0.250000 0.250000
O O16 0.250000 0.250000 0.577688
O O17 0.250000 0.151287 0.750000
#
# Coordination Sequence:
#
# PCOD9391975 Si02
#       7
#     8   8   8   8   8   8   8
#     4  12  26  42  68 110 148 186 243 313 378 452
#     4  11  24  42  71 103 143 195 240 300 376 453
#     4  12  24  43  70 107 148 188 244 300 376 451
#     4  12  26  49  76 107 144 195 254 312 368 452
#     4  11  25  48  73 101 147 196 242 303 382 452
#     4  12  26  48  74 109 148 192 251 310 380 453
#     4  11  28  48  73 105 146 192 251 309 370 452
#
# _framework density 20.740741
#
# number of rings (size 3 to 8) (size 9 to 14) (size 15 to 20)
#    0.000    0.429    5.714    2.143    2.000    0.286 
#    7.714    0.000    0.000    0.000    0.000    0.000 
#    0.000    0.000    0.000    0.000    0.000    0.000 
#
# Total GULP energy -311976.320699 kJ/mol
# GULP energy per Si atom -5571.005727 kJ/mol
# Density = 2.069353 g / cm^3
# Si number density = 20.740741 Si / 1000 Ang^3
#
#
#
# Elastic Constant Matrix: (Units=GPa)
#
#
# Indices 1 2 3 4 5 6 
#
# 1 66.7370 15.7642 -0.5916 0.0000 0.0000 0.0000
# 2 15.7642 76.0435 -11.0112 0.0000 0.0000 0.0000
# 3 -0.5916 -11.0112 73.8067 0.0000 0.0000 0.0000
# 4 0.0000 0.0000 0.0000 113.6893 0.0000 0.0000
# 5 0.0000 0.0000 0.0000 0.0000 43.5424 0.0000
# 6 0.0000 0.0000 0.0000 0.0000 0.0000 40.4546
#
#
#
# Elastic Compliance Matrix: (Units=1/GPa)
#
#
# Indices 1 2 3 4 5 6 
#
# 1 0.015766 -0.003322 -0.000369 0.000000 0.000000 0.000000
# 2 -0.003322 0.014141 0.002083 0.000000 0.000000 0.000000
# 3 -0.000369 0.002083 0.013857 0.000000 0.000000 0.000000
# 4 0.000000 0.000000 0.000000 0.008796 0.000000 0.000000
# 5 0.000000 0.000000 0.000000 0.000000 0.022966 0.000000
# 6 0.000000 0.000000 0.000000 0.000000 0.000000 0.024719
#
#
# Mechanical properties :
#
#
# Convention : Reuss Voigt Hill
#
# Bulk Modulus (GPa) = 24.66273 24.99000 24.82636
# Shear Modulus (GPa) = 42.74400 53.69898 48.22149
#
# Velocity S-wave (km/s) = 4.54461 5.09380 4.82702
# Velocity P-wave (km/s) = 6.28130 6.83159 6.56222
#
# Compressibility (1/GPa) = 0.04054701
#
# Stress axis : x y z
#
# Youngs Moduli (GPa) = 63.42944 70.71839 72.16718
#
# Poissons Ratio (x) = 0.23491 0.02664
# Poissons Ratio (y) = 0.21070 -0.15032
# Poissons Ratio (z) = 0.02342 -0.14731
#
# Static dielectric constant tensor:
#      x y z
#    x 0.767500 0.000000 0.000000 
#    y 0.000000 1.766240 0.000000 
#    z 0.000000 0.000000 1.258950 
# 
# From -- ./inp_files/21325.got.cif
#   From: 2010.05.17/outbox.ucp.g08.bks.cvg/sg48_11_cif.got.tgz:21325.got - 2010.06.11 16:38:40.
