data_PCOD9391084
_publ_section_title
;
Structure prediction by ZEFSAII (Michael W. Deem and Ramdas Pophale) SiO2 
 PCOD9391084
Probable space group: P N N N
;
_chemical_formula_sum "Si O2"
_cell_formula_units_Z 48
_cell_length_a 14.073215
_cell_length_b 6.006453
_cell_length_c 26.251715
_cell_angle_alpha 90.000000
_cell_angle_beta 90.000000
_cell_angle_gamma 90.000000
_cell_volume 2219.060211
_symmetry_space_group_name_H-M "P N N N"
_symmetry_group_IT_number 48
_space_group.IT_coordinate_system_code '2'
_symmetry_cell_setting 'orthorhombic'
loop_
_space_group_symop_operation_xyz
x,y,z
1/2-x,1/2-y,z
x,1/2-y,1/2-z
1/2-x,y,1/2-z
-x,-y,-z
1/2+x,1/2+y,-z
-x,1/2+y,1/2+z
1/2+x,-y,1/2+z
loop_
_atom_site_type_symbol
_atom_site_label
_atom_site_fract_x
_atom_site_fract_y
_atom_site_fract_z
Si Si1 0.750000 0.750000 0.750000
Si Si2 0.516447 0.385579 0.376939
Si Si3 0.117903 0.070816 0.056396
Si Si4 0.750000 0.750000 0.250000
Si Si5 0.146423 0.852922 0.700523
Si Si6 0.886769 0.101880 0.699602
Si Si7 0.042174 0.197046 0.534687
Si Si8 0.250000 0.750000 0.111897
O O1 0.683985 0.595058 0.715758
O O2 0.600162 0.252966 0.351030
O O3 0.480228 0.504592 0.325406
O O4 0.562762 0.567705 0.413703
O O5 0.433293 0.245136 0.404504
O O6 0.214470 0.958272 0.077520
O O7 0.040871 0.873293 0.047865
O O8 0.121006 0.186963 0.000852
O O9 0.677772 0.605737 0.285480
O O10 0.250000 0.750000 0.699018
O O11 0.094479 0.750000 0.750000
O O12 0.898053 0.250000 0.750000
O O13 0.836835 0.217681 0.651066
O O14 0.000000 0.000000 0.500000
#
# Coordination Sequence:
#
# PCOD9391084 Si02
#       8
#     2   8   8   2   8   8   8   4
#     4  12  22  40  52  78 152 172 218 260 308 374
#     4  11  23  38  69  92 126 175 216 270 346 375
#     4  10  22  40  69  91 131 167 219 273 326 404
#     4   8  18  40  60  82 118 166 194 276 300 386
#     4   9  21  39  60  90 125 163 215 262 325 395
#     4  12  25  38  57  97 136 178 225 262 309 409
#     4   9  20  42  65  91 117 164 216 277 324 385
#     4  12  21  44  62  96 132 180 210 271 334 386
#
# _framework density 21.630780000000001
#
# number of rings (size 3 to 8) (size 9 to 14) (size 15 to 20)
#    0.000    1.833    3.333    1.000    2.333    2.667 
#    0.000    0.000   31.167    0.000    0.000    0.000 
#    0.000    0.000    0.000    0.000    0.000    0.000 
#
# Total GULP energy -267209.921067 kJ/mol
# GULP energy per Si atom -5566.873356 kJ/mol
# Density = 2.158155 g / cm^3
# Si number density = 21.630780 Si / 1000 Ang^3
#
#
#
# Elastic Constant Matrix: (Units=GPa)
#
#
# Indices 1 2 3 4 5 6 
#
# 1 22.7696 1.2849 37.9522 0.0000 0.0000 0.0000
# 2 1.2849 75.2318 47.0234 0.0000 0.0000 0.0000
# 3 37.9522 47.0234 141.1478 0.0000 0.0000 0.0000
# 4 0.0000 0.0000 0.0000 -73.9988 0.0000 0.0000
# 5 0.0000 0.0000 0.0000 0.0000 5.1005 0.0000
# 6 0.0000 0.0000 0.0000 0.0000 0.0000 24.0908
#
#
#
# Elastic Compliance Matrix: (Units=1/GPa)
#
#
# Indices 1 2 3 4 5 6 
#
# 1 0.096164 0.018338 -0.031966 0.000000 0.000000 0.000000
# 2 0.018338 0.020285 -0.011689 0.000000 0.000000 0.000000
# 3 -0.031966 -0.011689 0.019574 0.000000 0.000000 0.000000
# 4 0.000000 0.000000 0.000000 -0.013514 0.000000 0.000000
# 5 0.000000 0.000000 0.000000 0.000000 0.196060 0.000000
# 6 0.000000 0.000000 0.000000 0.000000 0.000000 0.041510
#
#
# Mechanical properties :
#
#
# Convention : Reuss Voigt Hill
#
# Bulk Modulus (GPa) = 11.71110 45.74112 28.72611
# Shear Modulus (GPa) = 11.38498 1.23109 6.30804
#
# Velocity S-wave (km/s) = 2.29668 0.75523 1.70955
# Velocity P-wave (km/s) = 3.52971 4.68537 4.14799
#
# Compressibility (1/GPa) = 0.08538905
#
# Stress axis : x y z
#
# Youngs Moduli (GPa) = 10.39892 49.29749 51.08835
#
# Poissons Ratio (x) = -0.90401 1.63309
# Poissons Ratio (y) = -0.19069 0.59715
# Poissons Ratio (z) = 0.33241 0.57622
#
# Static dielectric constant tensor:
#      x y z
#    x 2.424520 0.000000 0.000000 
#    y 0.000000 2.410880 0.000000 
#    z 0.000000 0.000000 1.718610 
# 
# From -- ./inp_files/37928.got.cif
#   From: 2010.05.17/outbox.cif.g08.bks.cpg/sg48_19_cif.got.tgz:37928.got - 2010.06.03 20:39:00.
