data_PCOD9391996
_publ_section_title
;
Structure prediction by ZEFSAII (Michael W. Deem and Ramdas Pophale) SiO2 
 PCOD9391996
Probable space group: P C C M
;
_chemical_formula_sum "Si O2"
_cell_formula_units_Z 48
_cell_length_a 10.083531
_cell_length_b 32.233076
_cell_length_c 8.578066
_cell_angle_alpha 90.000000
_cell_angle_beta 90.000000
_cell_angle_gamma 90.000000
_cell_volume 2788.070642
_symmetry_space_group_name_H-M "P C C M"
_symmetry_group_IT_number 49
_symmetry_cell_setting 'orthorhombic'
loop_
_space_group_symop_operation_xyz
x,y,z
-x,-y,z
x,-y,1/2-z
-x,y,1/2-z
-x,-y,-z
x,y,-z
-x,y,1/2+z
x,-y,1/2+z
loop_
_atom_site_type_symbol
_atom_site_label
_atom_site_fract_x
_atom_site_fract_y
_atom_site_fract_z
Si Si1 0.349148 0.871973 0.686792
Si Si2 0.651589 0.957211 0.685498
Si Si3 0.852955 0.289995 0.311504
Si Si4 0.351829 0.454948 0.812453
Si Si5 0.350355 0.780295 0.311898
Si Si6 0.146639 0.615515 0.311949
O O1 0.500000 0.870689 0.750000
O O2 0.351264 0.876008 0.500000
O O3 0.286846 0.913720 0.757569
O O4 0.295906 0.826334 0.729667
O O5 0.500000 0.956651 0.750000
O O6 0.646956 0.958453 0.500000
O O7 0.712274 0.000000 0.750000
O O8 0.855822 0.288974 0.500000
O O9 0.745845 0.256337 0.257407
O O10 0.819457 0.337279 0.263234
O O11 0.000000 0.280661 0.250000
O O12 0.308867 0.500000 0.750000
O O13 0.500000 0.447496 0.750000
O O14 0.252937 0.418578 0.760899
O O15 0.355457 0.456217 0.000000
O O16 0.500000 0.775714 0.250000
O O17 0.357063 0.778982 0.500000
O O18 0.143055 0.614923 0.500000
O O19 0.000000 0.606046 0.250000
#
# Coordination Sequence:
#
# PCOD9391996 Si02
#       6
#     8   8   8   8   8   8
#     4   9  15  24  36  53  78 109 141 178 220 264
#     4  10  16  22  32  48  72 105 142 179 217 264
#     4   9  18  34  51  70  95 124 156 194 234 277
#     4  10  20  34  51  73  99 129 160 195 234 278
#     4   9  18  30  46  67  93 121 153 190 231 276
#     4   9  19  34  52  72  96 124 158 195 235 278
#
# _framework density 17.216206
#
# number of rings (size 3 to 8) (size 9 to 14) (size 15 to 20)
#    0.000    2.667    0.000    4.500    0.000    3.667 
#    0.000    1.667    0.000    0.000    0.000    0.000 
#    0.000    0.667    0.000    7.667    0.000    4.833 
#
# Total GULP energy -267375.116606 kJ/mol
# GULP energy per Si atom -5570.314929 kJ/mol
# Density = 1.717702 g / cm^3
# Si number density = 17.216206 Si / 1000 Ang^3
#
#
#
# Elastic Constant Matrix: (Units=GPa)
#
#
# Indices 1 2 3 4 5 6 
#
# 1 57.0309 91.6269 18.7213 0.0000 0.0000 0.0000
# 2 91.6269 193.2329 43.3204 0.0000 0.0000 0.0000
# 3 18.7213 43.3204 52.7553 0.0000 0.0000 0.0000
# 4 0.0000 0.0000 0.0000 61.5756 0.0000 0.0000
# 5 0.0000 0.0000 0.0000 0.0000 18.9802 0.0000
# 6 0.0000 0.0000 0.0000 0.0000 0.0000 -7.6264
#
#
#
# Elastic Compliance Matrix: (Units=1/GPa)
#
#
# Indices 1 2 3 4 5 6 
#
# 1 0.074039 -0.035810 0.003131 0.000000 0.000000 0.000000
# 2 -0.035810 0.023662 -0.006723 0.000000 0.000000 0.000000
# 3 0.003131 -0.006723 0.023365 0.000000 0.000000 0.000000
# 4 0.000000 0.000000 0.000000 0.016240 0.000000 0.000000
# 5 0.000000 0.000000 0.000000 0.000000 0.052686 0.000000
# 6 0.000000 0.000000 0.000000 0.000000 0.000000 -0.131123
#
#
# Mechanical properties :
#
#
# Convention : Reuss Voigt Hill
#
# Bulk Modulus (GPa) = 23.66111 67.81737 45.73924
# Shear Modulus (GPa) = 32.94682 24.54257 28.74469
#
# Velocity S-wave (km/s) = 4.37934 3.77974 4.09054
# Velocity P-wave (km/s) = 6.27255 7.65021 6.99538
#
# Compressibility (1/GPa) = 0.04226344
#
# Stress axis : x y z
#
# Youngs Moduli (GPa) = 13.50643 42.26115 42.79947
#
# Poissons Ratio (x) = 1.51335 -0.13401
# Poissons Ratio (y) = 0.48366 0.28773
# Poissons Ratio (z) = -0.04229 0.28411
#
# Static dielectric constant tensor:
#      x y z
#    x 1.540020 0.000000 0.000000 
#    y 0.000000 1.650370 0.000000 
#    z 0.000000 0.000000 1.587370 
# 
# From -- ./inp_files/3038.got.cif
#   From: 2010.05.17/outbox.cif.g08.bks.cpg/sg49_2_cif.got.tgz:3038.got - 2010.06.03 21:02:19.
