data_PCOD9391076
_publ_section_title
;
Structure prediction by ZEFSAII (Michael W. Deem and Ramdas Pophale) SiO2 
 PCOD9391076
Probable space group: P N N N
;
_chemical_formula_sum "Si O2"
_cell_formula_units_Z 32
_cell_length_a 8.974796
_cell_length_b 11.068973
_cell_length_c 15.398517
_cell_angle_alpha 90.000000
_cell_angle_beta 90.000000
_cell_angle_gamma 90.000000
_cell_volume 1529.716005
_symmetry_space_group_name_H-M "P N N N"
_symmetry_group_IT_number 48
_space_group.IT_coordinate_system_code '2'
_symmetry_cell_setting 'orthorhombic'
loop_
_space_group_symop_operation_xyz
x,y,z
1/2-x,1/2-y,z
x,1/2-y,1/2-z
1/2-x,y,1/2-z
-x,-y,-z
1/2+x,1/2+y,-z
-x,1/2+y,1/2+z
1/2+x,-y,1/2+z
loop_
_atom_site_type_symbol
_atom_site_label
_atom_site_fract_x
_atom_site_fract_y
_atom_site_fract_z
Si Si1 0.070849 0.394786 0.754417
Si Si2 0.750000 0.750000 0.524686
Si Si3 0.750000 0.250000 0.027863
Si Si4 0.997694 0.574584 0.910666
Si Si5 0.004624 0.605574 0.432719
O O1 0.036734 0.250000 0.750000
O O2 0.250000 0.406326 0.750000
O O3 0.011309 0.476011 0.833842
O O4 0.002682 0.441052 0.664362
O O5 0.848978 0.842137 0.582615
O O6 0.636981 0.813962 0.458265
O O7 0.641277 0.164506 0.084944
O O8 0.851048 0.176614 0.961229
O O9 0.000000 0.500000 0.000000
O O10 0.000000 0.500000 0.500000
#
# Coordination Sequence:
#
# PCOD9391076 Si02
#       5
#     8   4   4   8   8
#     4  11  22  39  67  96 124 168 223 273 324 391
#     4  10  22  42  66  94 134 172 210 276 340 386
#     4  10  22  40  66  96 132 172 212 274 338 388
#     4  11  22  42  68  98 134 173 222 276 333 395
#     4  11  22  41  64  91 126 166 213 263 323 391
#
# _framework density 20.918915999999999
#
# number of rings (size 3 to 8) (size 9 to 14) (size 15 to 20)
#    0.000    1.250    0.000    9.000    0.000    0.000 
#    0.000   25.000    0.000    6.000    0.000    0.000 
#    0.000    0.000    0.000    0.000    0.000    0.000 
#
# Total GULP energy -178771.215270 kJ/mol
# GULP energy per Si atom -5586.600477 kJ/mol
# Density = 2.087130 g / cm^3
# Si number density = 20.918916 Si / 1000 Ang^3
#
#
#
# Elastic Constant Matrix: (Units=GPa)
#
#
# Indices 1 2 3 4 5 6 
#
# 1 105.8412 56.2798 42.0253 0.0000 0.0000 0.0000
# 2 56.2798 118.4597 85.6005 0.0000 0.0000 0.0000
# 3 42.0253 85.6005 199.0797 0.0000 0.0000 0.0000
# 4 0.0000 0.0000 0.0000 43.9017 0.0000 0.0000
# 5 0.0000 0.0000 0.0000 0.0000 12.0970 0.0000
# 6 0.0000 0.0000 0.0000 0.0000 0.0000 -57.9897
#
#
#
# Elastic Compliance Matrix: (Units=1/GPa)
#
#
# Indices 1 2 3 4 5 6 
#
# 1 0.012644 -0.005917 -0.000125 0.000000 0.000000 0.000000
# 2 -0.005917 0.015016 -0.005207 0.000000 0.000000 0.000000
# 3 -0.000125 -0.005207 0.007289 0.000000 0.000000 0.000000
# 4 0.000000 0.000000 0.000000 0.022778 0.000000 0.000000
# 5 0.000000 0.000000 0.000000 0.000000 0.082665 0.000000
# 6 0.000000 0.000000 0.000000 0.000000 0.000000 -0.017244
#
#
# Mechanical properties :
#
#
# Convention : Reuss Voigt Hill
#
# Bulk Modulus (GPa) = 80.32262 87.91020 84.11641
# Shear Modulus (GPa) = 33.37885 15.56679 24.47282
#
# Velocity S-wave (km/s) = 3.99887 2.73087 3.42408
# Velocity P-wave (km/s) = 7.73316 7.21519 7.47866
#
# Compressibility (1/GPa) = 0.01244979
#
# Stress axis : x y z
#
# Youngs Moduli (GPa) = 79.08946 66.59711 137.20051
#
# Poissons Ratio (x) = 0.39404 0.01715
# Poissons Ratio (y) = 0.46795 0.71446
# Poissons Ratio (z) = 0.00989 0.34680
#
# Static dielectric constant tensor:
#      x y z
#    x 1.758480 0.000000 0.000000 
#    y 0.000000 1.794600 0.000000 
#    z 0.000000 0.000000 1.718320 
# 
# From -- ./inp_files/10307.got.cif
#   From: 2010.05.17/outbox.cif.g08.bks.cpg/sg48_6_cif.got.tgz:10307.got - 2010.06.03 20:39:00.
