data_PCOD9391987
_publ_section_title
;
Structure prediction by ZEFSAII (Michael W. Deem and Ramdas Pophale) SiO2 
 PCOD9391987
Probable space group: P C C M
;
_chemical_formula_sum "Si O2"
_cell_formula_units_Z 40
_cell_length_a 27.910028
_cell_length_b 7.842887
_cell_length_c 8.565124
_cell_angle_alpha 90.000000
_cell_angle_beta 90.000000
_cell_angle_gamma 90.000000
_cell_volume 1874.864495
_symmetry_space_group_name_H-M "P C C M"
_symmetry_group_IT_number 49
_symmetry_cell_setting 'orthorhombic'
loop_
_space_group_symop_operation_xyz
x,y,z
-x,-y,z
x,-y,1/2-z
-x,y,1/2-z
-x,-y,-z
x,y,-z
-x,y,1/2+z
x,-y,1/2+z
loop_
_atom_site_type_symbol
_atom_site_label
_atom_site_fract_x
_atom_site_fract_y
_atom_site_fract_z
Si Si1 0.549590 0.804169 0.686598
Si Si2 0.351254 0.804214 0.686528
Si Si3 0.154127 0.809095 0.312718
Si Si4 0.951420 0.308960 0.686728
Si Si5 0.252190 0.803963 0.186282
O O1 0.500000 0.726570 0.750000
O O2 0.549443 0.807218 0.500000
O O3 0.599276 0.726527 0.749170
O O4 0.549645 0.000000 0.750000
O O5 0.351782 0.807419 0.500000
O O6 0.301428 0.726221 0.747702
O O7 0.351107 0.000000 0.750000
O O8 0.157034 0.802508 0.500000
O O9 0.101192 0.751373 0.263149
O O10 0.202068 0.723314 0.243627
O O11 0.156363 0.000000 0.250000
O O12 0.953092 0.500000 0.750000
O O13 0.953520 0.304805 0.500000
O O14 0.000000 0.221114 0.750000
O O15 0.252160 0.000000 0.250000
O O16 0.253518 0.808265 0.000000
#
# Coordination Sequence:
#
# PCOD9391987 Si02
#       5
#     8   8   8   8   8
#     4  10  16  22  29  40  58  84 122 167 213 259
#     4  10  16  23  33  46  66  94 128 169 214 262
#     4  10  20  33  49  72  97 124 155 193 234 277
#     4  10  21  36  55  75  98 126 159 192 230 276
#     4  10  17  26  40  58  80 108 139 177 221 268
#
# _framework density 21.334876000000001
#
# number of rings (size 3 to 8) (size 9 to 14) (size 15 to 20)
#    0.000    2.000    0.000   11.400    0.000    3.600 
#    0.000    2.000    0.000    0.000    0.000    0.000 
#    0.000    0.000    0.000    0.000    0.000    1.000 
#
# Total GULP energy -223078.783912 kJ/mol
# GULP energy per Si atom -5576.969598 kJ/mol
# Density = 2.128632 g / cm^3
# Si number density = 21.334876 Si / 1000 Ang^3
#
#
#
# Elastic Constant Matrix: (Units=GPa)
#
#
# Indices 1 2 3 4 5 6 
#
# 1 301.9979 22.9578 93.7547 0.0000 0.0000 0.0000
# 2 22.9578 18.4051 2.7305 0.0000 0.0000 0.0000
# 3 93.7547 2.7305 167.5004 0.0000 0.0000 0.0000
# 4 0.0000 0.0000 0.0000 -8.3690 0.0000 0.0000
# 5 0.0000 0.0000 0.0000 0.0000 46.5168 0.0000
# 6 0.0000 0.0000 0.0000 0.0000 0.0000 -221.6583
#
#
#
# Elastic Compliance Matrix: (Units=1/GPa)
#
#
# Indices 1 2 3 4 5 6 
#
# 1 0.004454 -0.005199 -0.002408 0.000000 0.000000 0.000000
# 2 -0.005199 0.060532 0.001923 0.000000 0.000000 0.000000
# 3 -0.002408 0.001923 0.007287 0.000000 0.000000 0.000000
# 4 0.000000 0.000000 0.000000 -0.119488 0.000000 0.000000
# 5 0.000000 0.000000 0.000000 0.000000 0.021498 0.000000
# 6 0.000000 0.000000 0.000000 0.000000 0.000000 -0.004511
#
#
# Mechanical properties :
#
#
# Convention : Reuss Voigt Hill
#
# Bulk Modulus (GPa) = 16.41902 80.75440 48.58671
# Shear Modulus (GPa) = 3471.45900 -12.13807 1729.66046
#
# Velocity S-wave (km/s) = 40.38145 -2.38782 28.50403
# Velocity P-wave (km/s) = 46.71111 5.50734 33.25852
#
# Compressibility (1/GPa) = 0.06090498
#
# Stress axis : x y z
#
# Youngs Moduli (GPa) = 224.50954 16.52021 137.23409
#
# Poissons Ratio (x) = 0.08588 0.33051
# Poissons Ratio (y) = 1.16714 -0.26391
# Poissons Ratio (z) = 0.54070 -0.03177
#
# Static dielectric constant tensor:
#      x y z
#    x 1.951290 0.000000 0.000000 
#    y 0.000000 1.827470 0.000000 
#    z 0.000000 0.000000 1.714720 
# 
# From -- ./inp_files/6667.got.cif
#   From: 2010.05.17/outbox.cif.g08.bks.cpg/sg49_4_cif.got.tgz:6667.got - 2010.06.03 21:02:19.
