data_PCOD9391497
_publ_section_title
;
Structure prediction by ZEFSAII (Michael W. Deem and Ramdas Pophale) SiO2 
 PCOD9391497
Probable space group: P N N N
;
_chemical_formula_sum "Si O2"
_cell_formula_units_Z 56
_cell_length_a 14.184432
_cell_length_b 8.759595
_cell_length_c 20.329100
_cell_angle_alpha 90.000000
_cell_angle_beta 90.000000
_cell_angle_gamma 90.000000
_cell_volume 2525.888228
_symmetry_space_group_name_H-M "P N N N"
_symmetry_group_IT_number 48
_space_group.IT_coordinate_system_code '2'
_symmetry_cell_setting 'orthorhombic'
loop_
_space_group_symop_operation_xyz
x,y,z
1/2-x,1/2-y,z
x,1/2-y,1/2-z
1/2-x,y,1/2-z
-x,-y,-z
1/2+x,1/2+y,-z
-x,1/2+y,1/2+z
1/2+x,-y,1/2+z
loop_
_atom_site_type_symbol
_atom_site_label
_atom_site_fract_x
_atom_site_fract_y
_atom_site_fract_z
Si Si1 0.750000 0.750000 0.095041
Si Si2 0.038562 0.250000 0.250000
Si Si3 0.289213 0.585778 0.393006
Si Si4 0.527585 0.293889 0.029193
Si Si5 0.546281 0.721999 0.120750
Si Si6 0.494130 0.052369 0.132051
Si Si7 0.405748 0.460982 0.141053
Si Si8 0.736986 0.412972 0.037839
O O1 0.655992 0.691735 0.131254
O O2 0.767359 0.586162 0.057627
O O3 0.983821 0.335805 0.192333
O O4 0.097284 0.128755 0.208980
O O5 0.250000 0.750000 0.364997
O O6 0.383184 0.496823 0.371640
O O7 0.199514 0.481769 0.382205
O O8 0.296566 0.613155 0.471032
O O9 0.533059 0.129180 0.065273
O O10 0.459587 0.375846 0.081914
O O11 0.623330 0.396006 0.025770
O O12 0.482233 0.279017 0.957114
O O13 0.468794 0.611692 0.151987
O O14 0.538843 0.891751 0.145962
O O15 0.750000 0.250000 0.077530
#
# Coordination Sequence:
#
# PCOD9391497 Si02
#       8
#     4   4   8   8   8   8   8   8
#     4  12  24  34  64 103 128 175 220 268 348 410
#     4  10  28  45  64  93 124 182 224 281 330 399
#     4  11  21  38  62  97 133 178 216 271 337 401
#     4  11  21  38  63  97 140 173 208 276 340 409
#     4  12  21  40  65  98 131 166 216 276 340 407
#     4  11  24  42  66  95 132 176 229 265 340 408
#     4  11  22  41  65  88 133 171 220 273 330 401
#     4  11  21  37  59  99 145 178 216 268 344 416
#
# _framework density 22.17042
#
# number of rings (size 3 to 8) (size 9 to 14) (size 15 to 20)
#    0.000    0.857    4.286    4.286    0.000    5.143 
#    0.000    0.714    0.000    2.571    0.000    0.000 
#    0.000    0.000    0.000    0.000    0.000    0.000 
#
# Total GULP energy -311888.670162 kJ/mol
# GULP energy per Si atom -5569.440539 kJ/mol
# Density = 2.211996 g / cm^3
# Si number density = 22.170420 Si / 1000 Ang^3
#
#
#
# Elastic Constant Matrix: (Units=GPa)
#
#
# Indices 1 2 3 4 5 6 
#
# 1 81.8860 -9.4236 14.7872 0.0000 0.0000 0.0000
# 2 -9.4236 114.7875 22.1529 0.0000 0.0000 0.0000
# 3 14.7872 22.1529 65.3862 0.0000 0.0000 0.0000
# 4 0.0000 0.0000 0.0000 -6.1208 0.0000 0.0000
# 5 0.0000 0.0000 0.0000 0.0000 -23.0799 0.0000
# 6 0.0000 0.0000 0.0000 0.0000 0.0000 28.8670
#
#
#
# Elastic Compliance Matrix: (Units=1/GPa)
#
#
# Indices 1 2 3 4 5 6 
#
# 1 0.013055 0.001756 -0.003547 0.000000 0.000000 0.000000
# 2 0.001756 0.009558 -0.003635 0.000000 0.000000 0.000000
# 3 -0.003547 -0.003635 0.017328 0.000000 0.000000 0.000000
# 4 0.000000 0.000000 0.000000 -0.163378 0.000000 0.000000
# 5 0.000000 0.000000 0.000000 0.000000 -0.043328 0.000000
# 6 0.000000 0.000000 0.000000 0.000000 0.000000 0.034642
#
#
# Mechanical properties :
#
#
# Convention : Reuss Voigt Hill
#
# Bulk Modulus (GPa) = 34.37930 35.23253 34.80592
# Shear Modulus (GPa) = -44.81257 15.56948 -14.62154
#
# Velocity S-wave (km/s) = -4.50074 2.65290 -2.57087
# Velocity P-wave (km/s) = 3.38650 5.03091 2.63075
#
# Compressibility (1/GPa) = 0.02908727
#
# Stress axis : x y z
#
# Youngs Moduli (GPa) = 76.59994 104.62964 57.71126
#
# Poissons Ratio (x) = -0.18377 0.20473
# Poissons Ratio (y) = -0.13454 0.20980
# Poissons Ratio (z) = 0.27173 0.38036
#
# Static dielectric constant tensor:
#      x y z
#    x 1.931670 0.000000 0.000000 
#    y 0.000000 1.966910 0.000000 
#    z 0.000000 0.000000 1.836630 
# 
# From -- ./inp_files/34494.got.cif
#   From: 2010.05.17/outbox.cif.g08.bks.cpg/sg48_18_cif.got.tgz:34494.got - 2010.06.03 20:39:00.
