data_PCOD9391369
_publ_section_title
;
Structure prediction by ZEFSAII (Michael W. Deem and Ramdas Pophale) SiO2 
 PCOD9391369
Probable space group: P N N N
;
_chemical_formula_sum "Si O2"
_cell_formula_units_Z 64
_cell_length_a 13.586620
_cell_length_b 9.170924
_cell_length_c 24.457937
_cell_angle_alpha 90.000000
_cell_angle_beta 90.000000
_cell_angle_gamma 90.000000
_cell_volume 3047.504428
_symmetry_space_group_name_H-M "P N N N"
_symmetry_group_IT_number 48
_space_group.IT_coordinate_system_code '2'
_symmetry_cell_setting 'orthorhombic'
loop_
_space_group_symop_operation_xyz
x,y,z
1/2-x,1/2-y,z
x,1/2-y,1/2-z
1/2-x,y,1/2-z
-x,-y,-z
1/2+x,1/2+y,-z
-x,1/2+y,1/2+z
1/2+x,-y,1/2+z
loop_
_atom_site_type_symbol
_atom_site_label
_atom_site_fract_x
_atom_site_fract_y
_atom_site_fract_z
Si Si1 0.089085 0.110017 0.993287
Si Si2 0.367400 0.081140 0.241303
Si Si3 0.750957 0.577266 0.922373
Si Si4 0.965694 0.906966 0.551500
Si Si5 0.443572 0.309489 0.870405
Si Si6 0.634259 0.583163 0.237262
Si Si7 0.340354 0.635892 0.164813
Si Si8 0.029616 0.513173 0.836977
O O1 0.096096 0.152987 0.930111
O O2 0.188850 0.056017 0.021928
O O3 0.058014 0.249070 0.028645
O O4 0.000000 0.000000 0.000000
O O5 0.401504 0.250000 0.250000
O O6 0.250000 0.089639 0.250000
O O7 0.386767 0.945861 0.282539
O O8 0.416999 0.028573 0.184974
O O9 0.750000 0.750000 0.909126
O O10 0.861355 0.525539 0.931141
O O11 0.702323 0.489872 0.873638
O O12 0.031480 0.898406 0.606319
O O13 0.000000 0.000000 0.500000
O O14 0.395950 0.421243 0.826421
O O15 0.562779 0.308282 0.866664
O O16 0.424181 0.141202 0.855739
O O17 0.599641 0.750000 0.250000
O O18 0.750000 0.578143 0.250000
O O19 0.584681 0.467436 0.278516
O O20 0.250000 0.750000 0.175881
#
# Coordination Sequence:
#
# PCOD9391369 Si02
#       8
#     8   8   8   8   8   8   8   8
#     4  11  23  41  64  92 129 170 220 264 323 389
#     4  11  25  38  60  93 129 175 216 259 329 405
#     4  10  24  41  64  92 131 171 216 271 325 393
#     4  11  23  41  64  92 124 169 215 265 322 385
#     4  11  21  39  65  96 129 170 217 274 332 385
#     4   9  20  39  65  95 127 165 219 276 324 383
#     4  12  24  39  66  95 134 171 215 273 331 392
#     4  11  22  41  64  95 131 166 219 269 328 391
#
# _framework density 21.000791
#
# number of rings (size 3 to 8) (size 9 to 14) (size 15 to 20)
#    0.000    1.250    3.750    2.250    5.250    2.250 
#    6.750    0.000    0.000    0.375    0.000    0.000 
#    0.000    0.000    0.000    0.000    0.000    0.000 
#
# Total GULP energy -356561.598654 kJ/mol
# GULP energy per Si atom -5571.274979 kJ/mol
# Density = 2.095299 g / cm^3
# Si number density = 21.000791 Si / 1000 Ang^3
#
#
#
# Elastic Constant Matrix: (Units=GPa)
#
#
# Indices 1 2 3 4 5 6 
#
# 1 54.6453 15.5512 33.1485 0.0000 0.0000 0.0000
# 2 15.5512 30.6543 35.4112 0.0000 0.0000 0.0000
# 3 33.1485 35.4112 177.2329 0.0000 0.0000 0.0000
# 4 0.0000 0.0000 0.0000 23.4165 0.0000 0.0000
# 5 0.0000 0.0000 0.0000 0.0000 32.8423 0.0000
# 6 0.0000 0.0000 0.0000 0.0000 0.0000 17.7893
#
#
#
# Elastic Compliance Matrix: (Units=1/GPa)
#
#
# Indices 1 2 3 4 5 6 
#
# 1 0.022190 -0.008402 -0.002472 0.000000 0.000000 0.000000
# 2 -0.008402 0.045592 -0.007538 0.000000 0.000000 0.000000
# 3 -0.002472 -0.007538 0.007611 0.000000 0.000000 0.000000
# 4 0.000000 0.000000 0.000000 0.042705 0.000000 0.000000
# 5 0.000000 0.000000 0.000000 0.000000 0.030449 0.000000
# 6 0.000000 0.000000 0.000000 0.000000 0.000000 0.056214
#
#
# Mechanical properties :
#
#
# Convention : Reuss Voigt Hill
#
# Bulk Modulus (GPa) = 25.92716 47.86161 36.89439
# Shear Modulus (GPa) = 19.65104 26.70440 23.17772
#
# Velocity S-wave (km/s) = 3.06229 3.56980 3.32574
# Velocity P-wave (km/s) = 4.98759 6.31120 5.68803
#
# Compressibility (1/GPa) = 0.03856959
#
# Stress axis : x y z
#
# Youngs Moduli (GPa) = 45.06475 21.93372 131.39556
#
# Poissons Ratio (x) = 0.18429 0.32475
# Poissons Ratio (y) = 0.37865 0.99043
# Poissons Ratio (z) = 0.11138 0.16533
#
# Static dielectric constant tensor:
#      x y z
#    x 1.809820 0.000000 0.000000 
#    y 0.000000 1.769070 0.000000 
#    z 0.000000 0.000000 1.796760 
# 
# From -- ./inp_files/36569.got.cif
#   From: 2010.05.17/outbox.cif.g08.bks.cpg/sg48_19_cif.got.tgz:36569.got - 2010.06.03 20:39:00.
