data_PCOD9391011
_publ_section_title
;
Structure prediction by ZEFSAII (Michael W. Deem and Ramdas Pophale) SiO2 
 PCOD9391011
Probable space group: P N N N
;
_chemical_formula_sum "Si O2"
_cell_formula_units_Z 56
_cell_length_a 9.228206
_cell_length_b 21.988457
_cell_length_c 14.609253
_cell_angle_alpha 90.000000
_cell_angle_beta 90.000000
_cell_angle_gamma 90.000000
_cell_volume 2964.422121
_symmetry_space_group_name_H-M "P N N N"
_symmetry_group_IT_number 48
_space_group.IT_coordinate_system_code '2'
_symmetry_cell_setting 'orthorhombic'
loop_
_space_group_symop_operation_xyz
x,y,z
1/2-x,1/2-y,z
x,1/2-y,1/2-z
1/2-x,y,1/2-z
-x,-y,-z
1/2+x,1/2+y,-z
-x,1/2+y,1/2+z
1/2+x,-y,1/2+z
loop_
_atom_site_type_symbol
_atom_site_label
_atom_site_fract_x
_atom_site_fract_y
_atom_site_fract_z
Si Si1 0.866335 0.870843 0.683107
Si Si2 0.186631 0.436057 0.665502
Si Si3 0.517097 0.250000 0.250000
Si Si4 0.327720 0.876015 0.504658
Si Si5 0.339086 0.938153 0.836380
Si Si6 0.850874 0.032912 0.841074
Si Si7 0.344048 0.406417 0.042737
Si Si8 0.750000 0.250000 0.086149
O O1 0.750000 0.899866 0.750000
O O2 0.774861 0.863679 0.590733
O O3 0.922247 0.810040 0.732377
O O4 0.997910 0.916782 0.671657
O O5 0.250000 0.397171 0.750000
O O6 0.300757 0.491486 0.662721
O O7 0.187429 0.409190 0.564738
O O8 0.023203 0.461410 0.680980
O O9 0.616194 0.251069 0.158482
O O10 0.223484 0.913698 0.570095
O O11 0.322012 0.907766 0.405481
O O12 0.489859 0.884030 0.546482
O O13 0.272946 0.807797 0.520815
O O14 0.250000 0.910664 0.750000
O O15 0.750000 0.033254 0.750000
O O16 0.834947 0.973112 0.907552
#
# Coordination Sequence:
#
# PCOD9391011 Si02
#       8
#     8   8   4   8   8   8   8   4
#     4  12  25  35  56  87 127 166 203 250 304 368
#     4  10  22  38  59  89 128 162 201 256 316 378
#     4  11  23  40  56  90 126 158 210 256 298 374
#     4  11  21  42  61  88 120 164 209 254 312 375
#     4  11  20  35  56  84 122 161 201 253 299 377
#     4  11  23  39  62  92 126 163 206 264 314 373
#     4  11  22  40  61  91 129 167 202 255 322 373
#     4  11  22  38  67  84 116 168 205 252 315 368
#
# _framework density 18.890696999999999
#
# number of rings (size 3 to 8) (size 9 to 14) (size 15 to 20)
#    0.000    1.000    4.286    4.071    6.000    1.714 
#    0.000    0.357    0.000    0.000    0.000    0.000 
#    0.000    0.000    0.000    0.000    0.000    0.000 
#
# Total GULP energy -312288.895731 kJ/mol
# GULP energy per Si atom -5576.587424 kJ/mol
# Density = 1.884770 g / cm^3
# Si number density = 18.890697 Si / 1000 Ang^3
#
#
#
# Elastic Constant Matrix: (Units=GPa)
#
#
# Indices 1 2 3 4 5 6 
#
# 1 126.8497 25.5076 65.6362 0.0000 0.0000 0.0000
# 2 25.5076 82.9156 42.0058 0.0000 0.0000 0.0000
# 3 65.6362 42.0058 123.1640 0.0000 0.0000 0.0000
# 4 0.0000 0.0000 0.0000 26.3470 0.0000 0.0000
# 5 0.0000 0.0000 0.0000 0.0000 36.8756 0.0000
# 6 0.0000 0.0000 0.0000 0.0000 0.0000 61.7402
#
#
#
# Elastic Compliance Matrix: (Units=1/GPa)
#
#
# Indices 1 2 3 4 5 6 
#
# 1 0.010902 -0.000496 -0.005640 0.000000 0.000000 0.000000
# 2 -0.000496 0.014602 -0.004716 0.000000 0.000000 0.000000
# 3 -0.005640 -0.004716 0.012733 0.000000 0.000000 0.000000
# 4 0.000000 0.000000 0.000000 0.037955 0.000000 0.000000
# 5 0.000000 0.000000 0.000000 0.000000 0.027118 0.000000
# 6 0.000000 0.000000 0.000000 0.000000 0.000000 0.016197
#
#
# Mechanical properties :
#
#
# Convention : Reuss Voigt Hill
#
# Bulk Modulus (GPa) = 60.48678 66.58093 63.53385
# Shear Modulus (GPa) = 34.07784 38.31122 36.19453
#
# Velocity S-wave (km/s) = 4.25190 4.50827 4.38196
# Velocity P-wave (km/s) = 7.49625 7.90071 7.70113
#
# Compressibility (1/GPa) = 0.01653254
#
# Stress axis : x y z
#
# Youngs Moduli (GPa) = 91.72897 68.48324 78.53318
#
# Poissons Ratio (x) = 0.03398 0.44296
# Poissons Ratio (y) = 0.04552 0.37034
# Poissons Ratio (z) = 0.51739 0.32295
#
# Static dielectric constant tensor:
#      x y z
#    x 1.685730 0.000000 0.000000 
#    y 0.000000 1.722960 0.000000 
#    z 0.000000 0.000000 1.726740 
# 
# From -- ./inp_files/25658.got.cif
#   From: 2010.05.17/outbox.cif.g08.bks.cpg/sg48_13_cif.got.tgz:25658.got - 2010.06.03 20:39:00.
