data_PCOD9391917
_publ_section_title
;
Structure prediction by ZEFSAII (Michael W. Deem and Ramdas Pophale) SiO2 
 PCOD9391917
Probable space group: P N N N
;
_chemical_formula_sum "Si O2"
_cell_formula_units_Z 32
_cell_length_a 15.272373
_cell_length_b 10.523729
_cell_length_c 8.059899
_cell_angle_alpha 90.000000
_cell_angle_beta 90.000000
_cell_angle_gamma 90.000000
_cell_volume 1295.405623
_symmetry_space_group_name_H-M "P N N N"
_symmetry_group_IT_number 48
_space_group.IT_coordinate_system_code '2'
_symmetry_cell_setting 'orthorhombic'
loop_
_space_group_symop_operation_xyz
x,y,z
1/2-x,1/2-y,z
x,1/2-y,1/2-z
1/2-x,y,1/2-z
-x,-y,-z
1/2+x,1/2+y,-z
-x,1/2+y,1/2+z
1/2+x,-y,1/2+z
loop_
_atom_site_type_symbol
_atom_site_label
_atom_site_fract_x
_atom_site_fract_y
_atom_site_fract_z
Si Si1 0.071854 0.135447 0.619142
Si Si2 0.595101 0.476235 0.073657
Si Si3 0.228262 0.473294 0.057357
Si Si4 0.890481 0.299221 0.057164
O O1 0.078008 0.250000 0.750000
O O2 0.980892 0.151241 0.522702
O O3 0.078676 0.007585 0.732064
O O4 0.151832 0.125307 0.491321
O O5 0.620983 0.343350 0.986370
O O6 0.500000 0.500000 0.000000
O O7 0.681114 0.557777 0.034496
O O8 0.250000 0.475783 0.250000
O O9 0.187843 0.607491 0.992330
O O10 0.894578 0.250000 0.250000
#
# Coordination Sequence:
#
# PCOD9391917 Si02
#       4
#     8   8   8   8
#     4  12  27  50  79 115 163 211 267 333 408 481
#     4  12  26  49  78 115 161 214 267 331 397 478
#     4  12  29  48  82 117 160 212 275 330 406 480
#     4  12  27  49  84 116 161 210 275 330 401 474
#
# _framework density 24.702688999999999
#
# number of rings (size 3 to 8) (size 9 to 14) (size 15 to 20)
#    0.000    0.000    5.000    3.750    3.500    4.000 
#    0.000    1.250    0.000    0.000    0.000    0.000 
#    0.000    0.000    0.000    0.000    0.000    0.000 
#
# Total GULP energy -178751.022917 kJ/mol
# GULP energy per Si atom -5585.969466 kJ/mol
# Density = 2.464646 g / cm^3
# Si number density = 24.702689 Si / 1000 Ang^3
#
#
#
# Elastic Constant Matrix: (Units=GPa)
#
#
# Indices 1 2 3 4 5 6 
#
# 1 252.1943 46.0427 102.6485 0.0000 0.0000 0.0000
# 2 46.0427 109.5251 40.7156 0.0000 0.0000 0.0000
# 3 102.6485 40.7156 184.7125 0.0000 0.0000 0.0000
# 4 0.0000 0.0000 0.0000 43.5168 0.0000 0.0000
# 5 0.0000 0.0000 0.0000 0.0000 63.1740 0.0000
# 6 0.0000 0.0000 0.0000 0.0000 0.0000 16.4406
#
#
#
# Elastic Compliance Matrix: (Units=1/GPa)
#
#
# Indices 1 2 3 4 5 6 
#
# 1 0.005272 -0.001228 -0.002659 0.000000 0.000000 0.000000
# 2 -0.001228 0.010231 -0.001573 0.000000 0.000000 0.000000
# 3 -0.002659 -0.001573 0.007238 0.000000 0.000000 0.000000
# 4 0.000000 0.000000 0.000000 0.022980 0.000000 0.000000
# 5 0.000000 0.000000 0.000000 0.000000 0.015829 0.000000
# 6 0.000000 0.000000 0.000000 0.000000 0.000000 0.060825
#
#
# Mechanical properties :
#
#
# Convention : Reuss Voigt Hill
#
# Bulk Modulus (GPa) = 84.58959 102.80506 93.69733
# Shear Modulus (GPa) = 36.43396 48.42796 42.43096
#
# Velocity S-wave (km/s) = 3.84461 4.43248 4.14897
# Velocity P-wave (km/s) = 7.35020 8.24034 7.80796
#
# Compressibility (1/GPa) = 0.01182179
#
# Stress axis : x y z
#
# Youngs Moduli (GPa) = 189.69728 97.74061 138.15673
#
# Poissons Ratio (x) = 0.11999 0.36735
# Poissons Ratio (y) = 0.23288 0.21732
# Poissons Ratio (z) = 0.50439 0.15375
#
# Static dielectric constant tensor:
#      x y z
#    x 1.917400 0.000000 0.000000 
#    y 0.000000 2.634450 0.000000 
#    z 0.000000 0.000000 2.085600 
# 
# From -- ./inp_files/11965.got.cif
#   From: 2010.05.17/outbox.cif.g08.bks.cpg/sg48_6_cif.got.tgz:11965.got - 2010.06.03 20:39:00.
