data_PCOD9391466
_publ_section_title
;
Structure prediction by ZEFSAII (Michael W. Deem and Ramdas Pophale) SiO2 
 PCOD9391466
Probable space group: P N N N
;
_chemical_formula_sum "Si O2"
_cell_formula_units_Z 20
_cell_length_a 5.339233
_cell_length_b 25.812477
_cell_length_c 5.797269
_cell_angle_alpha 90.000000
_cell_angle_beta 90.000000
_cell_angle_gamma 90.000000
_cell_volume 798.972825
_symmetry_space_group_name_H-M "P N N N"
_symmetry_group_IT_number 48
_space_group.IT_coordinate_system_code '2'
_symmetry_cell_setting 'orthorhombic'
loop_
_space_group_symop_operation_xyz
x,y,z
1/2-x,1/2-y,z
x,1/2-y,1/2-z
1/2-x,y,1/2-z
-x,-y,-z
1/2+x,1/2+y,-z
-x,1/2+y,1/2+z
1/2+x,-y,1/2+z
loop_
_atom_site_type_symbol
_atom_site_label
_atom_site_fract_x
_atom_site_fract_y
_atom_site_fract_z
Si Si1 0.502632 0.558293 0.595651
Si Si2 0.750000 0.861433 0.250000
Si Si3 0.501739 0.808298 0.645104
O O1 0.750000 0.560286 0.750000
O O2 0.500000 0.500000 0.500000
O O3 0.565687 0.599919 0.392809
O O4 0.250000 0.564547 0.750000
O O5 0.557785 0.821750 0.381610
O O6 0.502248 0.750000 0.750000
O O7 0.750000 0.832530 0.750000
O O8 0.250000 0.830185 0.750000
#
# Coordination Sequence:
#
# PCOD9391466 Si02
#       3
#     8   4   8
#     4  12  28  51  78 116 162 213 268 329 403 482
#     4  12  28  49  84 118 166 212 269 340 406 476
#     4  10  25  51  78 115 159 209 272 330 407 486
#
# _framework density 25.032136999999999
#
# number of rings (size 3 to 8) (size 9 to 14) (size 15 to 20)
#    0.000    0.800    2.000    2.400    0.000   14.400 
#    0.000   16.000    0.000    0.000    0.000    0.000 
#    0.000    0.000    0.000    0.000    0.000    0.000 
#
# Total GULP energy -111516.060961 kJ/mol
# GULP energy per Si atom -5575.803048 kJ/mol
# Density = 2.497516 g / cm^3
# Si number density = 25.032137 Si / 1000 Ang^3
#
#
#
# Elastic Constant Matrix: (Units=GPa)
#
#
# Indices 1 2 3 4 5 6 
#
# 1 282.3969 52.8599 88.6465 0.0000 0.0000 0.0000
# 2 52.8599 259.2906 103.1305 0.0000 0.0000 0.0000
# 3 88.6465 103.1305 130.3271 0.0000 0.0000 0.0000
# 4 0.0000 0.0000 0.0000 -781.8181 0.0000 0.0000
# 5 0.0000 0.0000 0.0000 0.0000 65.4503 0.0000
# 6 0.0000 0.0000 0.0000 0.0000 0.0000 -15.0128
#
#
#
# Elastic Compliance Matrix: (Units=1/GPa)
#
#
# Indices 1 2 3 4 5 6 
#
# 1 0.004537 0.000441 -0.003435 0.000000 0.000000 0.000000
# 2 0.000441 0.005671 -0.004788 0.000000 0.000000 0.000000
# 3 -0.003435 -0.004788 0.013798 0.000000 0.000000 0.000000
# 4 0.000000 0.000000 0.000000 -0.001279 0.000000 0.000000
# 5 0.000000 0.000000 0.000000 0.000000 0.015279 0.000000
# 6 0.000000 0.000000 0.000000 0.000000 0.000000 -0.066610
#
#
# Mechanical properties :
#
#
# Convention : Reuss Voigt Hill
#
# Bulk Modulus (GPa) = 118.44257 129.03206 123.73731
# Shear Modulus (GPa) = -488.92798 -117.78428 -303.35613
#
# Velocity S-wave (km/s) = -13.99086 -6.86698 -11.02042
# Velocity P-wave (km/s) = 14.61415 3.34894 10.60162
#
# Compressibility (1/GPa) = 0.00844291
#
# Stress axis : x y z
#
# Youngs Moduli (GPa) = 220.41879 176.33568 72.47288
#
# Poissons Ratio (x) = -0.07784 0.24896
# Poissons Ratio (y) = -0.09730 0.34699
# Poissons Ratio (z) = 0.75718 0.84426
#
# Static dielectric constant tensor:
#      x y z
#    x 1.848260 0.000000 0.000000 
#    y 0.000000 5.419540 0.000000 
#    z 0.000000 0.000000 1.563660 
# 
# From -- ./inp_files/284.got.cif
#   From: 2010.05.17/outbox.cif.g08.bks.cpg/sg48_1_cif.got.tgz:284.got - 2010.06.03 20:39:00.
