data_PCOD9391273
_publ_section_title
;
Structure prediction by ZEFSAII (Michael W. Deem and Ramdas Pophale) SiO2 
 PCOD9391273
Probable space group: P N N N
;
_chemical_formula_sum "Si O2"
_cell_formula_units_Z 48
_cell_length_a 16.131308
_cell_length_b 8.649211
_cell_length_c 16.848601
_cell_angle_alpha 90.000000
_cell_angle_beta 90.000000
_cell_angle_gamma 90.000000
_cell_volume 2350.768816
_symmetry_space_group_name_H-M "P N N N"
_symmetry_group_IT_number 48
_space_group.IT_coordinate_system_code '2'
_symmetry_cell_setting 'orthorhombic'
loop_
_space_group_symop_operation_xyz
x,y,z
1/2-x,1/2-y,z
x,1/2-y,1/2-z
1/2-x,y,1/2-z
-x,-y,-z
1/2+x,1/2+y,-z
-x,1/2+y,1/2+z
1/2+x,-y,1/2+z
loop_
_atom_site_type_symbol
_atom_site_label
_atom_site_fract_x
_atom_site_fract_y
_atom_site_fract_z
Si Si1 0.948461 0.851947 0.976037
Si Si2 0.658257 0.500554 0.647180
Si Si3 0.430829 0.709877 0.660554
Si Si4 0.762768 0.923888 0.004666
Si Si5 0.018433 0.422421 0.915120
Si Si6 0.750000 0.250000 0.399217
Si Si7 0.750000 0.250000 0.750000
Si Si8 0.250000 0.250000 0.250000
O O1 0.853727 0.906369 0.963680
O O2 0.999400 0.776840 0.901504
O O3 0.951154 0.742462 0.054483
O O4 0.000000 0.000000 0.000000
O O5 0.693529 0.550407 0.562152
O O6 0.565824 0.440961 0.633844
O O7 0.700344 0.358280 0.690786
O O8 0.686842 0.644620 0.700094
O O9 0.456614 0.750000 0.750000
O O10 0.422271 0.529072 0.636899
O O11 0.336853 0.765167 0.647217
O O12 0.750000 0.750000 0.041535
O O13 0.753986 0.086024 0.052245
O O14 0.000000 0.500000 0.000000
#
# Coordination Sequence:
#
# PCOD9391273 Si02
#       8
#     8   8   8   8   8   4   2   2
#     4  11  23  43  66 101 129 173 233 279 334 402
#     4  11  23  41  62  95 134 175 219 275 343 415
#     4  11  24  43  68  96 135 178 221 285 351 405
#     4  12  23  41  73  97 131 176 228 288 331 402
#     4  10  23  42  66  94 129 171 228 275 332 403
#     4  12  24  44  70 100 132 176 238 278 341 403
#     4  10  26  38  60  92 136 182 212 270 346 418
#     4  10  24  38  60  98 132 176 210 262 364 422
#
# _framework density 20.418849999999999
#
# number of rings (size 3 to 8) (size 9 to 14) (size 15 to 20)
#    0.000    1.000    2.500    5.750    3.500    1.333 
#    0.000    0.000    0.000    1.000    0.000    0.000 
#    0.000    0.000    0.000    0.000    0.000    0.000 
#
# Total GULP energy -267258.501866 kJ/mol
# GULP energy per Si atom -5567.885456 kJ/mol
# Density = 2.037238 g / cm^3
# Si number density = 20.418850 Si / 1000 Ang^3
#
#
#
# Elastic Constant Matrix: (Units=GPa)
#
#
# Indices 1 2 3 4 5 6 
#
# 1 100.5749 -1.9022 10.3051 0.0000 0.0000 0.0000
# 2 -1.9022 128.1288 46.0471 0.0000 0.0000 0.0000
# 3 10.3051 46.0471 87.8086 0.0000 0.0000 0.0000
# 4 0.0000 0.0000 0.0000 574.7644 0.0000 0.0000
# 5 0.0000 0.0000 0.0000 0.0000 21.7631 0.0000
# 6 0.0000 0.0000 0.0000 0.0000 0.0000 117.6003
#
#
#
# Elastic Compliance Matrix: (Units=1/GPa)
#
#
# Indices 1 2 3 4 5 6 
#
# 1 0.010116 0.000711 -0.001560 0.000000 0.000000 0.000000
# 2 0.000711 0.009667 -0.005153 0.000000 0.000000 0.000000
# 3 -0.001560 -0.005153 0.014274 0.000000 0.000000 0.000000
# 4 0.000000 0.000000 0.000000 0.001740 0.000000 0.000000
# 5 0.000000 0.000000 0.000000 0.000000 0.045949 0.000000
# 6 0.000000 0.000000 0.000000 0.000000 0.000000 0.008503
#
#
# Mechanical properties :
#
#
# Convention : Reuss Voigt Hill
#
# Bulk Modulus (GPa) = 45.34571 47.26804 46.30687
# Shear Modulus (GPa) = 45.61866 160.29638 102.95752
#
# Velocity S-wave (km/s) = 4.73180 8.86987 7.10860
# Velocity P-wave (km/s) = 7.21867 11.31808 9.49232
#
# Compressibility (1/GPa) = 0.02205280
#
# Stress axis : x y z
#
# Youngs Moduli (GPa) = 98.85210 103.44428 70.05916
#
# Poissons Ratio (x) = -0.07353 0.10929
# Poissons Ratio (y) = -0.07026 0.36100
# Poissons Ratio (z) = 0.15421 0.53303
#
# Static dielectric constant tensor:
#      x y z
#    x 2.734310 0.000000 0.000000 
#    y 0.000000 1.796510 0.000000 
#    z 0.000000 0.000000 1.699200 
# 
# From -- ./inp_files/31606.got.cif
#   From: 2010.05.17/outbox.cif.g08.bks.cpg/sg48_16_cif.got.tgz:31606.got - 2010.06.03 20:39:00.
