data_PCOD9391440
_publ_section_title
;
Structure prediction by ZEFSAII (Michael W. Deem and Ramdas Pophale) SiO2 
 PCOD9391440
Probable space group: P N N N
;
_chemical_formula_sum "Si O2"
_cell_formula_units_Z 34
_cell_length_a 5.810965
_cell_length_b 13.340009
_cell_length_c 18.569450
_cell_angle_alpha 90.000000
_cell_angle_beta 90.000000
_cell_angle_gamma 90.000000
_cell_volume 1439.472668
_symmetry_space_group_name_H-M "P N N N"
_symmetry_group_IT_number 48
_space_group.IT_coordinate_system_code '2'
_symmetry_cell_setting 'orthorhombic'
loop_
_space_group_symop_operation_xyz
x,y,z
1/2-x,1/2-y,z
x,1/2-y,1/2-z
1/2-x,y,1/2-z
-x,-y,-z
1/2+x,1/2+y,-z
-x,1/2+y,1/2+z
1/2+x,-y,1/2+z
loop_
_atom_site_type_symbol
_atom_site_label
_atom_site_fract_x
_atom_site_fract_y
_atom_site_fract_z
Si Si1 0.261237 0.628814 0.522799
Si Si2 0.750000 0.250000 0.250000
Si Si3 0.090029 0.507474 0.386324
Si Si4 0.491626 0.213579 0.667766
Si Si5 0.402102 0.349255 0.357328
O O1 0.250000 0.750000 0.516858
O O2 0.222421 0.570612 0.448629
O O3 0.499394 0.618113 0.565142
O O4 0.073882 0.574482 0.574929
O O5 0.597918 0.319037 0.301753
O O6 0.253057 0.443486 0.335363
O O7 0.972502 0.594416 0.340835
O O8 0.250000 0.250000 0.631352
O O9 0.484640 0.250000 0.750000
O O10 0.750000 0.250000 0.643365
O O11 0.250000 0.250000 0.364726
#
# Coordination Sequence:
#
# PCOD9391440 Si02
#       5
#     8   2   8   8   8
#     4  11  23  47  72 110 148 193 256 313 383 467
#     4  12  26  48  72 106 158 200 252 324 372 466
#     4  11  25  45  79 107 146 204 243 321 396 456
#     4  10  24  51  72 108 152 199 256 317 381 471
#     4  12  24  49  72 108 150 198 255 316 384 463
#
# _framework density 23.619759999999999
#
# number of rings (size 3 to 8) (size 9 to 14) (size 15 to 20)
#    0.000    0.941    3.529    1.765    3.294    0.000 
#   25.412    0.000    0.000    0.000    0.000    0.000 
#    0.000    0.000    0.000    0.000    0.000    0.000 
#
# Total GULP energy -189821.885646 kJ/mol
# GULP energy per Si atom -5582.996637 kJ/mol
# Density = 2.356600 g / cm^3
# Si number density = 23.619760 Si / 1000 Ang^3
#
#
#
# Elastic Constant Matrix: (Units=GPa)
#
#
# Indices 1 2 3 4 5 6 
#
# 1 130.6191 79.8009 20.7269 0.0000 0.0000 0.0000
# 2 79.8009 227.1920 51.1179 0.0000 0.0000 0.0000
# 3 20.7269 51.1179 86.2516 0.0000 0.0000 0.0000
# 4 0.0000 0.0000 0.0000 51.7105 0.0000 0.0000
# 5 0.0000 0.0000 0.0000 0.0000 9.1703 0.0000
# 6 0.0000 0.0000 0.0000 0.0000 0.0000 59.6290
#
#
#
# Elastic Compliance Matrix: (Units=1/GPa)
#
#
# Indices 1 2 3 4 5 6 
#
# 1 0.009757 -0.003346 -0.000362 0.000000 0.000000 0.000000
# 2 -0.003346 0.006226 -0.002886 0.000000 0.000000 0.000000
# 3 -0.000362 -0.002886 0.013391 0.000000 0.000000 0.000000
# 4 0.000000 0.000000 0.000000 0.019338 0.000000 0.000000
# 5 0.000000 0.000000 0.000000 0.000000 0.109048 0.000000
# 6 0.000000 0.000000 0.000000 0.000000 0.000000 0.016770
#
#
# Mechanical properties :
#
#
# Convention : Reuss Voigt Hill
#
# Bulk Modulus (GPa) = 61.77569 83.03937 72.40753
# Shear Modulus (GPa) = 25.89132 43.59641 34.74387
#
# Velocity S-wave (km/s) = 3.31444 4.30089 3.83948
# Velocity P-wave (km/s) = 6.39206 7.73929 7.09771
#
# Compressibility (1/GPa) = 0.01618760
#
# Stress axis : x y z
#
# Youngs Moduli (GPa) = 102.48637 160.61344 74.67527
#
# Poissons Ratio (x) = 0.53739 0.02702
# Poissons Ratio (y) = 0.34291 0.21551
# Poissons Ratio (z) = 0.03708 0.46352
#
# Static dielectric constant tensor:
#      x y z
#    x 1.997230 0.000000 0.000000 
#    y 0.000000 1.935020 0.000000 
#    z 0.000000 0.000000 1.989950 
# 
# From -- ./inp_files/35224.got.cif
#   From: 2010.05.17/outbox.cif.g08.bks.cpg/sg48_18_cif.got.tgz:35224.got - 2010.06.03 20:39:00.
