data_PCOD9391472
_publ_section_title
;
Structure prediction by ZEFSAII (Michael W. Deem and Ramdas Pophale) SiO2 
 PCOD9391472
Probable space group: P N N N
;
_chemical_formula_sum "Si O2"
_cell_formula_units_Z 16
_cell_length_a 4.752404
_cell_length_b 9.776293
_cell_length_c 12.693621
_cell_angle_alpha 90.000000
_cell_angle_beta 90.000000
_cell_angle_gamma 90.000000
_cell_volume 589.756979
_symmetry_space_group_name_H-M "P N N N"
_symmetry_group_IT_number 48
_space_group.IT_coordinate_system_code '2'
_symmetry_cell_setting 'orthorhombic'
loop_
_space_group_symop_operation_xyz
x,y,z
1/2-x,1/2-y,z
x,1/2-y,1/2-z
1/2-x,y,1/2-z
-x,-y,-z
1/2+x,1/2+y,-z
-x,1/2+y,1/2+z
1/2+x,-y,1/2+z
loop_
_atom_site_type_symbol
_atom_site_label
_atom_site_fract_x
_atom_site_fract_y
_atom_site_fract_z
Si Si1 0.859965 0.608728 0.924101
Si Si2 0.750000 0.250000 0.250000
Si Si3 0.250000 0.940953 0.250000
Si Si4 0.750000 0.750000 0.250000
O O1 0.750000 0.750000 0.975547
O O2 0.639610 0.523648 0.852554
O O3 0.058606 0.663766 0.830233
O O4 0.000000 0.500000 0.000000
O O5 0.512640 0.853759 0.205190
#
# Coordination Sequence:
#
# PCOD9391472 Si02
#       4
#     8   2   4   2
#     4  12  28  51  84 120 168 231 286 359 446 525
#     4  12  24  56  82 120 178 222 284 368 436 514
#     4  11  23  52  80 120 175 219 280 360 427 513
#     4  10  26  42  86 114 158 224 274 338 432 508
#
# _framework density 27.129815000000001
#
# number of rings (size 3 to 8) (size 9 to 14) (size 15 to 20)
#    0.000    0.500    5.000    1.500    3.500    6.000 
#    0.000    0.000    5.500    0.000    0.000    0.000 
#    0.000    0.000    0.000    0.000    0.000    0.000 
#
# Total GULP energy -89270.151040 kJ/mol
# GULP energy per Si atom -5579.384440 kJ/mol
# Density = 2.706807 g / cm^3
# Si number density = 27.129815 Si / 1000 Ang^3
#
#
#
# Elastic Constant Matrix: (Units=GPa)
#
#
# Indices 1 2 3 4 5 6 
#
# 1 125.9986 50.0829 38.1202 0.0000 0.0000 0.0000
# 2 50.0829 222.4271 109.8127 0.0000 0.0000 0.0000
# 3 38.1202 109.8127 152.9888 0.0000 0.0000 0.0000
# 4 0.0000 0.0000 0.0000 -118.3612 0.0000 0.0000
# 5 0.0000 0.0000 0.0000 0.0000 23.7876 0.0000
# 6 0.0000 0.0000 0.0000 0.0000 0.0000 60.7528
#
#
#
# Elastic Compliance Matrix: (Units=1/GPa)
#
#
# Indices 1 2 3 4 5 6 
#
# 1 0.008857 -0.001401 -0.001201 0.000000 0.000000 0.000000
# 2 -0.001401 0.007185 -0.004808 0.000000 0.000000 0.000000
# 3 -0.001201 -0.004808 0.010287 0.000000 0.000000 0.000000
# 4 0.000000 0.000000 0.000000 -0.008449 0.000000 0.000000
# 5 0.000000 0.000000 0.000000 0.000000 0.042039 0.000000
# 6 0.000000 0.000000 0.000000 0.000000 0.000000 0.016460
#
#
# Mechanical properties :
#
#
# Convention : Reuss Voigt Hill
#
# Bulk Modulus (GPa) = 86.89672 99.71623 93.30648
# Shear Modulus (GPa) = 52.61137 13.46244 33.03691
#
# Velocity S-wave (km/s) = 4.40846 2.23002 3.49339
# Velocity P-wave (km/s) = 7.61658 6.59285 7.12313
#
# Compressibility (1/GPa) = 0.01150791
#
# Stress axis : x y z
#
# Youngs Moduli (GPa) = 112.90531 139.17435 97.21033
#
# Poissons Ratio (x) = 0.19503 0.11675
# Poissons Ratio (y) = 0.15822 0.46741
# Poissons Ratio (z) = 0.13560 0.66919
#
# Static dielectric constant tensor:
#      x y z
#    x 2.147940 0.000000 0.000000 
#    y 0.000000 2.686670 0.000000 
#    z 0.000000 0.000000 2.091210 
# 
# From -- ./inp_files/1272.got.cif
#   From: 2010.05.17/outbox.cif.g08.bks.cpg/sg48_1_cif.got.tgz:1272.got - 2010.06.03 20:39:00.
