data_PCOD9391992
_publ_section_title
;
Structure prediction by ZEFSAII (Michael W. Deem and Ramdas Pophale) SiO2 
 PCOD9391992
Probable space group: P C C M
;
_chemical_formula_sum "Si O2"
_cell_formula_units_Z 52
_cell_length_a 29.894775
_cell_length_b 11.547259
_cell_length_c 8.987705
_cell_angle_alpha 90.000000
_cell_angle_beta 90.000000
_cell_angle_gamma 90.000000
_cell_volume 3102.580120
_symmetry_space_group_name_H-M "P C C M"
_symmetry_group_IT_number 49
_symmetry_cell_setting 'orthorhombic'
loop_
_space_group_symop_operation_xyz
x,y,z
-x,-y,z
x,-y,1/2-z
-x,y,1/2-z
-x,-y,-z
x,y,-z
-x,y,1/2+z
x,-y,1/2+z
loop_
_atom_site_type_symbol
_atom_site_label
_atom_site_fract_x
_atom_site_fract_y
_atom_site_fract_z
Si Si1 0.394867 0.625836 0.320338
Si Si2 0.543702 0.828766 0.165864
Si Si3 0.678749 0.217668 0.170923
Si Si4 0.134085 0.871977 0.322164
Si Si5 0.954836 0.869650 0.320247
Si Si6 0.234038 0.127655 0.177206
Si Si7 0.619694 0.000000 0.250000
O O1 0.398821 0.500000 0.250000
O O2 0.394553 0.621645 0.500000
O O3 0.435201 0.710767 0.270369
O O4 0.350567 0.690217 0.261465
O O5 0.500000 0.869641 0.250000
O O6 0.584488 0.919864 0.161795
O O7 0.528817 0.804326 0.000000
O O8 0.726435 0.199015 0.247699
O O9 0.652016 0.094471 0.174766
O O10 0.683265 0.253237 0.000000
O O11 0.125763 0.880693 0.500000
O O12 0.091545 0.815619 0.239967
O O13 0.183916 0.822192 0.300027
O O14 0.137412 0.000000 0.250000
O O15 0.956519 0.874479 0.500000
O O16 0.000000 0.816467 0.250000
O O17 0.953930 0.000000 0.250000
O O18 0.235567 0.000000 0.250000
O O19 0.241251 0.116838 0.000000
#
# Coordination Sequence:
#
# PCOD9391992 Si02
#       7
#     8   8   8   8   8   8   4
#     4  10  22  40  58  76  99 124 159 198 237 282
#     4  10  22  37  54  77 103 130 158 192 231 277
#     4  11  21  33  53  75  99 129 161 196 240 286
#     4   9  16  25  35  50  74 105 141 184 230 275
#     4  10  16  22  32  45  64  94 136 185 231 275
#     4  10  19  29  43  64  92 122 154 192 236 284
#     4  10  21  34  52  76 104 132 163 192 230 278
#
# _framework density 16.760245000000001
#
# number of rings (size 3 to 8) (size 9 to 14) (size 15 to 20)
#    0.000    2.000    0.769    5.308    0.000    7.692 
#    0.000    1.538    0.000    0.000    0.000    0.000 
#    0.000    0.000    0.000    0.000    0.000    0.769 
#
# Total GULP energy -289602.022261 kJ/mol
# GULP energy per Si atom -5569.269659 kJ/mol
# Density = 1.672210 g / cm^3
# Si number density = 16.760245 Si / 1000 Ang^3
#
#
#
# Elastic Constant Matrix: (Units=GPa)
#
#
# Indices 1 2 3 4 5 6 
#
# 1 139.8338 20.8935 58.7200 0.0000 0.0000 0.0000
# 2 20.8935 61.0373 17.4974 0.0000 0.0000 0.0000
# 3 58.7200 17.4974 109.5219 0.0000 0.0000 0.0000
# 4 0.0000 0.0000 0.0000 50.0211 0.0000 0.0000
# 5 0.0000 0.0000 0.0000 0.0000 12.7652 0.0000
# 6 0.0000 0.0000 0.0000 0.0000 0.0000 7.6057
#
#
#
# Elastic Compliance Matrix: (Units=1/GPa)
#
#
# Indices 1 2 3 4 5 6 
#
# 1 0.009427 -0.001863 -0.004757 0.000000 0.000000 0.000000
# 2 -0.001863 0.017538 -0.001803 0.000000 0.000000 0.000000
# 3 -0.004757 -0.001803 0.011969 0.000000 0.000000 0.000000
# 4 0.000000 0.000000 0.000000 0.019992 0.000000 0.000000
# 5 0.000000 0.000000 0.000000 0.000000 0.078338 0.000000
# 6 0.000000 0.000000 0.000000 0.000000 0.000000 0.131481
#
#
# Mechanical properties :
#
#
# Convention : Reuss Voigt Hill
#
# Bulk Modulus (GPa) = 45.27276 56.06829 50.67052
# Shear Modulus (GPa) = 17.06757 28.29721 22.68239
#
# Velocity S-wave (km/s) = 3.19460 4.11342 3.68277
# Velocity P-wave (km/s) = 6.37793 7.48906 6.95572
#
# Compressibility (1/GPa) = 0.02208834
#
# Stress axis : x y z
#
# Youngs Moduli (GPa) = 106.07564 57.01874 83.54978
#
# Poissons Ratio (x) = 0.10625 0.39742
# Poissons Ratio (y) = 0.19766 0.15063
# Poissons Ratio (z) = 0.50457 0.10280
#
# Static dielectric constant tensor:
#      x y z
#    x 1.635760 0.000000 0.000000 
#    y 0.000000 1.542240 0.000000 
#    z 0.000000 0.000000 1.574000 
# 
# From -- ./inp_files/6958.got.cif
#   From: 2010.05.17/outbox.cif.g08.bks.cpg/sg49_4_cif.got.tgz:6958.got - 2010.06.03 21:02:19.
