data_PCOD9391599
_publ_section_title
;
Structure prediction by ZEFSAII (Michael W. Deem and Ramdas Pophale) SiO2 
 PCOD9391599
Probable space group: P N N N
;
_chemical_formula_sum "Si O2"
_cell_formula_units_Z 48
_cell_length_a 7.998050
_cell_length_b 28.025308
_cell_length_c 10.383222
_cell_angle_alpha 90.000000
_cell_angle_beta 90.000000
_cell_angle_gamma 90.000000
_cell_volume 2327.376520
_symmetry_space_group_name_H-M "P N N N"
_symmetry_group_IT_number 48
_space_group.IT_coordinate_system_code '2'
_symmetry_cell_setting 'orthorhombic'
loop_
_space_group_symop_operation_xyz
x,y,z
1/2-x,1/2-y,z
x,1/2-y,1/2-z
1/2-x,y,1/2-z
-x,-y,-z
1/2+x,1/2+y,-z
-x,1/2+y,1/2+z
1/2+x,-y,1/2+z
loop_
_atom_site_type_symbol
_atom_site_label
_atom_site_fract_x
_atom_site_fract_y
_atom_site_fract_z
Si Si1 0.967435 0.600969 0.987626
Si Si2 0.072138 0.117486 0.011888
Si Si3 0.588821 0.309672 0.340746
Si Si4 0.920618 0.780008 0.906953
Si Si5 0.047027 0.047474 0.239501
Si Si6 0.949250 0.439648 0.734470
O O1 0.015794 0.561956 0.880490
O O2 0.065859 0.648015 0.941348
O O3 0.771717 0.612619 0.974133
O O4 0.989989 0.581570 0.130292
O O5 0.006670 0.092458 0.883953
O O6 0.043951 0.174150 0.006494
O O7 0.999961 0.087678 0.134269
O O8 0.750000 0.315025 0.250000
O O9 0.437444 0.304285 0.235684
O O10 0.566381 0.259283 0.411642
O O11 0.750000 0.750000 0.930540
O O12 0.250000 0.046898 0.250000
O O13 0.991548 0.993916 0.208217
O O14 0.750000 0.440727 0.750000
#
# Coordination Sequence:
#
# PCOD9391599 Si02
#       6
#     8   8   8   8   8   8
#     4  11  22  40  66  93 127 170 215 258 323 384
#     4  11  22  41  68  94 126 171 217 269 320 387
#     4  11  23  37  62 100 130 153 204 272 330 373
#     4  11  21  38  67  98 123 158 217 270 318 387
#     4   9  20  39  67  96 121 165 222 270 314 378
#     4  11  25  42  60  91 137 173 211 263 328 386
#
# _framework density 20.624078000000001
#
# number of rings (size 3 to 8) (size 9 to 14) (size 15 to 20)
#    0.000    1.333    3.333    3.500    2.333    0.000 
#    0.000    4.167    0.000    1.000    0.000    0.000 
#    0.000    0.000    0.000    0.000    0.000    0.000 
#
# Total GULP energy -267898.432252 kJ/mol
# GULP energy per Si atom -5581.217339 kJ/mol
# Density = 2.057714 g / cm^3
# Si number density = 20.624078 Si / 1000 Ang^3
#
#
#
# Elastic Constant Matrix: (Units=GPa)
#
#
# Indices 1 2 3 4 5 6 
#
# 1 59.6706 27.1142 6.1107 0.0000 0.0000 0.0000
# 2 27.1142 184.9171 63.3341 0.0000 0.0000 0.0000
# 3 6.1107 63.3341 104.6183 0.0000 0.0000 0.0000
# 4 0.0000 0.0000 0.0000 101.6278 0.0000 0.0000
# 5 0.0000 0.0000 0.0000 0.0000 18.9005 0.0000
# 6 0.0000 0.0000 0.0000 0.0000 0.0000 24.6596
#
#
#
# Elastic Compliance Matrix: (Units=1/GPa)
#
#
# Indices 1 2 3 4 5 6 
#
# 1 0.017994 -0.002875 0.000689 0.000000 0.000000 0.000000
# 2 -0.002875 0.007282 -0.004240 0.000000 0.000000 0.000000
# 3 0.000689 -0.004240 0.012085 0.000000 0.000000 0.000000
# 4 0.000000 0.000000 0.000000 0.009840 0.000000 0.000000
# 5 0.000000 0.000000 0.000000 0.000000 0.052909 0.000000
# 6 0.000000 0.000000 0.000000 0.000000 0.000000 0.040552
#
#
# Mechanical properties :
#
#
# Convention : Reuss Voigt Hill
#
# Bulk Modulus (GPa) = 40.79984 60.25823 50.52903
# Shear Modulus (GPa) = 30.92470 45.88070 38.40270
#
# Velocity S-wave (km/s) = 3.87647 4.72170 4.31981
# Velocity P-wave (km/s) = 6.31360 7.68159 7.03095
#
# Compressibility (1/GPa) = 0.02450990
#
# Stress axis : x y z
#
# Youngs Moduli (GPa) = 55.57322 137.33239 82.74528
#
# Poissons Ratio (x) = 0.39476 -0.05702
# Poissons Ratio (y) = 0.15975 0.35086
# Poissons Ratio (z) = -0.03830 0.58232
#
# Static dielectric constant tensor:
#      x y z
#    x 1.768490 0.000000 0.000000 
#    y 0.000000 1.791100 0.000000 
#    z 0.000000 0.000000 2.042220 
# 
# From -- ./inp_files/9450.got.cif
#   From: 2010.05.17/outbox.cif.g08.bks.cpg/sg48_5_cif.got.tgz:9450.got - 2010.06.03 20:39:00.
