data_PCOD9391115
_publ_section_title
;
Structure prediction by ZEFSAII (Michael W. Deem and Ramdas Pophale) SiO2 
 PCOD9391115
Probable space group: P N N N
;
_chemical_formula_sum "Si O2"
_cell_formula_units_Z 34
_cell_length_a 11.884162
_cell_length_b 15.065429
_cell_length_c 7.989881
_cell_angle_alpha 90.000000
_cell_angle_beta 90.000000
_cell_angle_gamma 90.000000
_cell_volume 1430.508285
_symmetry_space_group_name_H-M "P N N N"
_symmetry_group_IT_number 48
_space_group.IT_coordinate_system_code '2'
_symmetry_cell_setting 'orthorhombic'
loop_
_space_group_symop_operation_xyz
x,y,z
1/2-x,1/2-y,z
x,1/2-y,1/2-z
1/2-x,y,1/2-z
-x,-y,-z
1/2+x,1/2+y,-z
-x,1/2+y,1/2+z
1/2+x,-y,1/2+z
loop_
_atom_site_type_symbol
_atom_site_label
_atom_site_fract_x
_atom_site_fract_y
_atom_site_fract_z
Si Si1 0.070066 0.105540 0.201465
Si Si2 0.981069 0.932313 0.168429
Si Si3 0.750000 0.750000 0.750000
Si Si4 0.750000 0.032042 0.250000
Si Si5 0.624085 0.183764 0.094225
Si Si6 0.561951 0.250000 0.750000
O O1 0.167538 0.176932 0.163860
O O2 0.998704 0.144335 0.354833
O O3 0.003259 0.092848 0.027071
O O4 0.078551 0.999479 0.235643
O O5 0.988331 0.838090 0.253612
O O6 0.857943 0.974409 0.198485
O O7 0.706989 0.099799 0.106481
O O8 0.640670 0.250000 0.250000
O O9 0.628127 0.237506 0.923023
#
# Coordination Sequence:
#
# PCOD9391115 Si02
#       6
#     8   8   2   4   8   4
#     4  10  22  41  69  96 148 180 229 297 372 405
#     4  10  23  44  66 105 142 190 233 305 352 442
#     4  12  20  36  72 102 124 192 242 292 348 438
#     4  10  25  41  74  98 150 190 238 298 376 418
#     4  11  22  47  70 101 141 195 227 303 357 429
#     4  12  24  41  81 102 140 190 256 280 366 430
#
# _framework density 23.767776000000001
#
# number of rings (size 3 to 8) (size 9 to 14) (size 15 to 20)
#    0.000    1.412    3.529    0.353    0.000    9.882 
#    0.000    2.353    5.176    0.000    0.000    0.000 
#    0.000    0.000    0.000    0.000    0.000    0.000 
#
# Total GULP energy -189355.339423 kJ/mol
# GULP energy per Si atom -5569.274689 kJ/mol
# Density = 2.371368 g / cm^3
# Si number density = 23.767776 Si / 1000 Ang^3
#
#
#
# Elastic Constant Matrix: (Units=GPa)
#
#
# Indices 1 2 3 4 5 6 
#
# 1 97.2503 80.0862 37.2988 0.0000 0.0000 0.0000
# 2 80.0862 211.9814 50.0339 0.0000 0.0000 0.0000
# 3 37.2988 50.0339 148.9166 0.0000 0.0000 0.0000
# 4 0.0000 0.0000 0.0000 31.4008 0.0000 0.0000
# 5 0.0000 0.0000 0.0000 0.0000 48.0990 0.0000
# 6 0.0000 0.0000 0.0000 0.0000 0.0000 91.7333
#
#
#
# Elastic Compliance Matrix: (Units=1/GPa)
#
#
# Indices 1 2 3 4 5 6 
#
# 1 0.015498 -0.005364 -0.002079 0.000000 0.000000 0.000000
# 2 -0.005364 0.006980 -0.001002 0.000000 0.000000 0.000000
# 3 -0.002079 -0.001002 0.007573 0.000000 0.000000 0.000000
# 4 0.000000 0.000000 0.000000 0.031846 0.000000 0.000000
# 5 0.000000 0.000000 0.000000 0.000000 0.020790 0.000000
# 6 0.000000 0.000000 0.000000 0.000000 0.000000 0.010901
#
#
# Mechanical properties :
#
#
# Convention : Reuss Voigt Hill
#
# Bulk Modulus (GPa) = 75.98786 88.10957 82.04871
# Shear Modulus (GPa) = 43.52899 53.62861 48.57880
#
# Velocity S-wave (km/s) = 4.28416 4.75527 4.52585
# Velocity P-wave (km/s) = 7.51747 8.20375 7.86810
#
# Compressibility (1/GPa) = 0.01316000
#
# Stress axis : x y z
#
# Youngs Moduli (GPa) = 64.52566 143.25765 132.05573
#
# Poissons Ratio (x) = 0.76846 0.27459
# Poissons Ratio (y) = 0.34613 0.13229
# Poissons Ratio (z) = 0.13417 0.14351
#
# Static dielectric constant tensor:
#      x y z
#    x 1.987890 0.000000 0.000000 
#    y 0.000000 2.038930 0.000000 
#    z 0.000000 0.000000 1.977060 
# 
# From -- ./inp_files/12172.got.cif
#   From: 2010.05.17/outbox.cif.g08.bks.cpg/sg48_7_cif.got.tgz:12172.got - 2010.06.03 20:39:00.
