data_PCOD9391029
_publ_section_title
;
Structure prediction by ZEFSAII (Michael W. Deem and Ramdas Pophale) SiO2 
 PCOD9391029
Probable space group: P N N N
;
_chemical_formula_sum "Si O2"
_cell_formula_units_Z 44
_cell_length_a 9.128015
_cell_length_b 8.757447
_cell_length_c 27.364653
_cell_angle_alpha 90.000000
_cell_angle_beta 90.000000
_cell_angle_gamma 90.000000
_cell_volume 2187.478575
_symmetry_space_group_name_H-M "P N N N"
_symmetry_group_IT_number 48
_space_group.IT_coordinate_system_code '2'
_symmetry_cell_setting 'orthorhombic'
loop_
_space_group_symop_operation_xyz
x,y,z
1/2-x,1/2-y,z
x,1/2-y,1/2-z
1/2-x,y,1/2-z
-x,-y,-z
1/2+x,1/2+y,-z
-x,1/2+y,1/2+z
1/2+x,-y,1/2+z
loop_
_atom_site_type_symbol
_atom_site_label
_atom_site_fract_x
_atom_site_fract_y
_atom_site_fract_z
Si Si1 0.750000 0.750000 0.667046
Si Si2 0.410994 0.564620 0.428816
Si Si3 0.584377 0.731941 0.141265
Si Si4 0.250000 0.003738 0.250000
Si Si5 0.004222 0.750000 0.250000
Si Si6 0.919424 0.228583 0.470611
Si Si7 0.915009 0.551099 0.594942
O O1 0.779370 0.890674 0.703111
O O2 0.878911 0.690551 0.632014
O O3 0.480947 0.637432 0.380971
O O4 0.504380 0.418629 0.445986
O O5 0.423617 0.690575 0.471839
O O6 0.242966 0.518197 0.419591
O O7 0.750000 0.750000 0.122637
O O8 0.582612 0.751460 0.199517
O O9 0.513845 0.573611 0.122397
O O10 0.110642 0.895496 0.244270
O O11 0.750000 0.250000 0.456422
O O12 0.007236 0.375791 0.452058
#
# Coordination Sequence:
#
# PCOD9391029 Si02
#       7
#     4   8   8   4   4   8   8
#     4  11  20  40  66 102 122 176 218 279 314 402
#     4  11  25  43  67  96 131 177 228 273 330 411
#     4  12  26  43  66  98 135 172 221 281 345 394
#     4  10  22  38  70  98 132 164 234 264 336 398
#     4  11  23  40  66  98 130 176 208 284 332 410
#     4  11  24  42  65  97 135 174 219 278 339 393
#     4  12  23  44  68  96 133 175 227 276 328 410
#
# _framework density 20.114483
#
# number of rings (size 3 to 8) (size 9 to 14) (size 15 to 20)
#    0.000    0.727    3.636    4.091    2.545    5.818 
#    0.000    0.000    0.000    0.000    0.000    0.000 
#    0.000    0.000    0.000    0.000    0.000    0.000 
#
# Total GULP energy -246019.086674 kJ/mol
# GULP energy per Si atom -5591.342879 kJ/mol
# Density = 2.006870 g / cm^3
# Si number density = 20.114483 Si / 1000 Ang^3
#
#
#
# Elastic Constant Matrix: (Units=GPa)
#
#
# Indices 1 2 3 4 5 6 
#
# 1 158.3198 56.7765 51.8983 0.0000 0.0000 0.0000
# 2 56.7765 87.8261 56.1795 0.0000 0.0000 0.0000
# 3 51.8983 56.1795 127.3964 0.0000 0.0000 0.0000
# 4 0.0000 0.0000 0.0000 41.4801 0.0000 0.0000
# 5 0.0000 0.0000 0.0000 0.0000 24.3958 0.0000
# 6 0.0000 0.0000 0.0000 0.0000 0.0000 35.9861
#
#
#
# Elastic Compliance Matrix: (Units=1/GPa)
#
#
# Indices 1 2 3 4 5 6 
#
# 1 0.008406 -0.004518 -0.001432 0.000000 0.000000 0.000000
# 2 -0.004518 0.018288 -0.006224 0.000000 0.000000 0.000000
# 3 -0.001432 -0.006224 0.011178 0.000000 0.000000 0.000000
# 4 0.000000 0.000000 0.000000 0.024108 0.000000 0.000000
# 5 0.000000 0.000000 0.000000 0.000000 0.040991 0.000000
# 6 0.000000 0.000000 0.000000 0.000000 0.000000 0.027788
#
#
# Mechanical properties :
#
#
# Convention : Reuss Voigt Hill
#
# Bulk Modulus (GPa) = 73.94673 78.13899 76.04286
# Shear Modulus (GPa) = 31.32517 34.28494 32.80505
#
# Velocity S-wave (km/s) = 3.95060 4.13303 4.04284
# Velocity P-wave (km/s) = 7.59292 7.85540 7.72527
#
# Compressibility (1/GPa) = 0.01352325
#
# Stress axis : x y z
#
# Youngs Moduli (GPa) = 118.96167 54.67923 89.46423
#
# Poissons Ratio (x) = 0.24705 0.12811
# Poissons Ratio (y) = 0.53750 0.55685
# Poissons Ratio (z) = 0.17035 0.34034
#
# Static dielectric constant tensor:
#      x y z
#    x 1.669680 0.000000 0.000000 
#    y 0.000000 1.721730 0.000000 
#    z 0.000000 0.000000 1.727940 
# 
# From -- ./inp_files/38640.got.cif
#   From: 2010.05.17/outbox.cif.g08.bks.cpg/sg48_20_cif.got.tgz:38640.got - 2010.06.03 20:39:00.
