data_PCOD9391818
_publ_section_title
;
Structure prediction by ZEFSAII (Michael W. Deem and Ramdas Pophale) SiO2 
 PCOD9391818
Probable space group: P N N N
;
_chemical_formula_sum "Si O2"
_cell_formula_units_Z 26
_cell_length_a 10.410193
_cell_length_b 11.222767
_cell_length_c 8.508697
_cell_angle_alpha 90.000000
_cell_angle_beta 90.000000
_cell_angle_gamma 90.000000
_cell_volume 994.081030
_symmetry_space_group_name_H-M "P N N N"
_symmetry_group_IT_number 48
_space_group.IT_coordinate_system_code '2'
_symmetry_cell_setting 'orthorhombic'
loop_
_space_group_symop_operation_xyz
x,y,z
1/2-x,1/2-y,z
x,1/2-y,1/2-z
1/2-x,y,1/2-z
-x,-y,-z
1/2+x,1/2+y,-z
-x,1/2+y,1/2+z
1/2+x,-y,1/2+z
loop_
_atom_site_type_symbol
_atom_site_label
_atom_site_fract_x
_atom_site_fract_y
_atom_site_fract_z
Si Si1 0.861303 0.989142 0.875696
Si Si2 0.515856 0.888255 0.115714
Si Si3 0.081228 0.814251 0.914879
Si Si4 0.750000 0.750000 0.250000
O O1 0.750000 0.972588 0.750000
O O2 0.966430 0.067394 0.782223
O O3 0.834607 0.072420 0.027179
O O4 0.936282 0.867238 0.904778
O O5 0.656563 0.832687 0.143808
O O6 0.423380 0.787521 0.045488
O O7 0.500000 0.000000 0.000000
O O8 0.110760 0.750000 0.750000
#
# Coordination Sequence:
#
# PCOD9391818 Si02
#       4
#     8   8   8   2
#     4  11  26  48  76 111 161 203 264 336 398 481
#     4  12  26  47  76 114 151 209 267 318 402 481
#     4  11  24  47  74 116 155 206 269 321 403 481
#     4  12  28  52  80 106 172 216 254 338 398 464
#
# _framework density 26.154810999999999
#
# number of rings (size 3 to 8) (size 9 to 14) (size 15 to 20)
#    0.000    0.615    6.154    0.000    4.308    3.077 
#    0.000    1.538    0.000    0.000    0.000    0.000 
#    0.000    0.000    0.000    0.000    0.000    0.000 
#
# Total GULP energy -145618.295100 kJ/mol
# GULP energy per Si atom -5600.703658 kJ/mol
# Density = 2.609528 g / cm^3
# Si number density = 26.154811 Si / 1000 Ang^3
#
#
#
# Elastic Constant Matrix: (Units=GPa)
#
#
# Indices 1 2 3 4 5 6 
#
# 1 133.4828 28.0339 11.9589 0.0000 0.0000 0.0000
# 2 28.0339 130.7526 40.0235 0.0000 0.0000 0.0000
# 3 11.9589 40.0235 114.0039 0.0000 0.0000 0.0000
# 4 0.0000 0.0000 0.0000 42.5174 0.0000 0.0000
# 5 0.0000 0.0000 0.0000 0.0000 47.2292 0.0000
# 6 0.0000 0.0000 0.0000 0.0000 0.0000 43.1250
#
#
#
# Elastic Compliance Matrix: (Units=1/GPa)
#
#
# Indices 1 2 3 4 5 6 
#
# 1 0.007852 -0.001604 -0.000261 0.000000 0.000000 0.000000
# 2 -0.001604 0.008896 -0.002955 0.000000 0.000000 0.000000
# 3 -0.000261 -0.002955 0.009836 0.000000 0.000000 0.000000
# 4 0.000000 0.000000 0.000000 0.023520 0.000000 0.000000
# 5 0.000000 0.000000 0.000000 0.000000 0.021173 0.000000
# 6 0.000000 0.000000 0.000000 0.000000 0.000000 0.023188
#
#
# Mechanical properties :
#
#
# Convention : Reuss Voigt Hill
#
# Bulk Modulus (GPa) = 59.01149 59.80799 59.40974
# Shear Modulus (GPa) = 45.55666 46.45586 46.00626
#
# Velocity S-wave (km/s) = 4.17803 4.21906 4.19859
# Velocity P-wave (km/s) = 6.77391 6.83012 6.80207
#
# Compressibility (1/GPa) = 0.01694585
#
# Stress axis : x y z
#
# Youngs Moduli (GPa) = 127.36012 112.40494 101.66312
#
# Poissons Ratio (x) = 0.18026 0.02650
# Poissons Ratio (y) = 0.20424 0.30042
# Poissons Ratio (z) = 0.03320 0.33216
#
# Static dielectric constant tensor:
#      x y z
#    x 2.108600 0.000000 0.000000 
#    y 0.000000 2.074620 0.000000 
#    z 0.000000 0.000000 2.078290 
# 
# From -- ./inp_files/9806.got.cif
#   From: 2010.05.17/outbox.cif.g08.bks.cpg/sg48_5_cif.got.tgz:9806.got - 2010.06.03 20:39:00.
