data_PCOD9391468
_publ_section_title
;
Structure prediction by ZEFSAII (Michael W. Deem and Ramdas Pophale) SiO2 
 PCOD9391468
Probable space group: P N N N
;
_chemical_formula_sum "Si O2"
_cell_formula_units_Z 30
_cell_length_a 14.818912
_cell_length_b 5.538235
_cell_length_c 17.728559
_cell_angle_alpha 90.000000
_cell_angle_beta 90.000000
_cell_angle_gamma 90.000000
_cell_volume 1454.993777
_symmetry_space_group_name_H-M "P N N N"
_symmetry_group_IT_number 48
_space_group.IT_coordinate_system_code '2'
_symmetry_cell_setting 'orthorhombic'
loop_
_space_group_symop_operation_xyz
x,y,z
1/2-x,1/2-y,z
x,1/2-y,1/2-z
1/2-x,y,1/2-z
-x,-y,-z
1/2+x,1/2+y,-z
-x,1/2+y,1/2+z
1/2+x,-y,1/2+z
loop_
_atom_site_type_symbol
_atom_site_label
_atom_site_fract_x
_atom_site_fract_y
_atom_site_fract_z
Si Si1 0.403906 0.562204 0.182474
Si Si2 0.499448 0.750986 0.453158
Si Si3 0.150217 0.149563 0.667861
Si Si4 0.436083 0.750000 0.750000
Si Si5 0.750000 0.750000 0.750000
O O1 0.402885 0.750000 0.250000
O O2 0.416624 0.709396 0.105288
O O3 0.491845 0.396953 0.198352
O O4 0.314913 0.404627 0.195480
O O5 0.500000 0.500000 0.500000
O O6 0.586660 0.730060 0.399376
O O7 0.500000 0.000000 0.500000
O O8 0.250000 0.250000 0.655577
O O9 0.121456 0.250000 0.750000
O O10 0.129982 0.871381 0.687843
#
# Coordination Sequence:
#
# PCOD9391468 Si02
#       5
#     8   8   8   4   2
#     4  11  22  45  73 106 136 192 256 302 364 435
#     4  12  26  47  74 103 152 197 233 295 382 452
#     4  11  24  44  72 107 137 184 253 307 357 426
#     4  11  18  42  77 100 140 178 245 319 363 415
#     4  10  26  40  78 102 142 184 266 320 350 426
#
# _framework density 20.618642999999999
#
# number of rings (size 3 to 8) (size 9 to 14) (size 15 to 20)
#    0.000    0.800    5.333    2.000    3.733    2.133 
#    2.400    0.000    0.000    0.000    0.000    0.000 
#    0.000    0.000    0.000    0.000    0.000    0.000 
#
# Total GULP energy -167202.626948 kJ/mol
# GULP energy per Si atom -5573.420898 kJ/mol
# Density = 2.057171 g / cm^3
# Si number density = 20.618643 Si / 1000 Ang^3
#
#
#
# Elastic Constant Matrix: (Units=GPa)
#
#
# Indices 1 2 3 4 5 6 
#
# 1 167.7339 75.3925 61.9533 0.0000 0.0000 0.0000
# 2 75.3925 135.8598 81.7102 0.0000 0.0000 0.0000
# 3 61.9533 81.7102 152.8132 0.0000 0.0000 0.0000
# 4 0.0000 0.0000 0.0000 50.6691 0.0000 0.0000
# 5 0.0000 0.0000 0.0000 0.0000 10.3827 0.0000
# 6 0.0000 0.0000 0.0000 0.0000 0.0000 39.6624
#
#
#
# Elastic Compliance Matrix: (Units=1/GPa)
#
#
# Indices 1 2 3 4 5 6 
#
# 1 0.008115 -0.003721 -0.001300 0.000000 0.000000 0.000000
# 2 -0.003721 0.012556 -0.005205 0.000000 0.000000 0.000000
# 3 -0.001300 -0.005205 0.009854 0.000000 0.000000 0.000000
# 4 0.000000 0.000000 0.000000 0.019736 0.000000 0.000000
# 5 0.000000 0.000000 0.000000 0.000000 0.096314 0.000000
# 6 0.000000 0.000000 0.000000 0.000000 0.000000 0.025213
#
#
# Mechanical properties :
#
#
# Convention : Reuss Voigt Hill
#
# Bulk Modulus (GPa) = 99.28413 99.39097 99.33755
# Shear Modulus (GPa) = 25.56273 35.96626 30.76449
#
# Velocity S-wave (km/s) = 3.52488 4.18108 3.86692
# Velocity P-wave (km/s) = 8.05131 8.46272 8.25958
#
# Compressibility (1/GPa) = 0.01007210
#
# Stress axis : x y z
#
# Youngs Moduli (GPa) = 123.23516 79.64306 101.47883
#
# Poissons Ratio (x) = 0.29636 0.13193
# Poissons Ratio (y) = 0.45857 0.52822
# Poissons Ratio (z) = 0.16022 0.41456
#
# Static dielectric constant tensor:
#      x y z
#    x 1.744420 0.000000 0.000000 
#    y 0.000000 2.122790 0.000000 
#    z 0.000000 0.000000 1.726740 
# 
# From -- ./inp_files/2999.got.cif
#   From: 2010.05.17/outbox.cif.g08.bks.cpg/sg48_2_cif.got.tgz:2999.got - 2010.06.03 20:39:00.
