data_PCOD9391035
_publ_section_title
;
Structure prediction by ZEFSAII (Michael W. Deem and Ramdas Pophale) SiO2 
 PCOD9391035
Probable space group: P N N N
;
_chemical_formula_sum "Si O2"
_cell_formula_units_Z 44
_cell_length_a 19.659590
_cell_length_b 22.768999
_cell_length_c 5.163524
_cell_angle_alpha 90.000000
_cell_angle_beta 90.000000
_cell_angle_gamma 90.000000
_cell_volume 2311.344040
_symmetry_space_group_name_H-M "P N N N"
_symmetry_group_IT_number 48
_space_group.IT_coordinate_system_code '2'
_symmetry_cell_setting 'orthorhombic'
loop_
_space_group_symop_operation_xyz
x,y,z
1/2-x,1/2-y,z
x,1/2-y,1/2-z
1/2-x,y,1/2-z
-x,-y,-z
1/2+x,1/2+y,-z
-x,1/2+y,1/2+z
1/2+x,-y,1/2+z
loop_
_atom_site_type_symbol
_atom_site_label
_atom_site_fract_x
_atom_site_fract_y
_atom_site_fract_z
Si Si1 0.291774 0.123530 0.005583
Si Si2 0.418291 0.191113 0.851287
Si Si3 0.949618 0.443536 0.001619
Si Si4 0.706769 0.017738 0.998989
Si Si5 0.523919 0.250000 0.250000
Si Si6 0.523891 0.135363 0.498970
O O1 0.250000 0.139380 0.750000
O O2 0.366438 0.149803 0.995403
O O3 0.250000 0.145100 0.250000
O O4 0.296382 0.053058 0.015740
O O5 0.382513 0.250000 0.750000
O O6 0.450973 0.157536 0.606773
O O7 0.477558 0.214801 0.041394
O O8 0.973117 0.405374 0.247958
O O9 0.870742 0.461579 0.024190
O O10 0.952118 0.403769 0.742006
O O11 0.000000 0.500000 0.000000
O O12 0.750000 0.038307 0.750000
O O13 0.750000 0.034483 0.250000
O O14 0.559413 0.197368 0.412697
#
# Coordination Sequence:
#
# PCOD9391035 Si02
#       6
#     8   8   8   8   4   8
#     4  10  23  38  56  79 115 169 216 250 296 368
#     4  10  22  39  59  84 124 163 207 268 320 362
#     4  12  24  39  65 102 129 163 216 273 314 380
#     4  10  22  41  61  87 130 172 202 246 321 391
#     4  10  22  42  61  88 127 164 202 258 342 376
#     4  11  23  39  63  92 126 159 203 263 331 373
#
# _framework density 19.036543999999999
#
# number of rings (size 3 to 8) (size 9 to 14) (size 15 to 20)
#    0.000    1.455    1.818    2.727    5.091    3.273 
#    0.000    0.000    0.000    0.000    0.000    9.545 
#    0.000    0.000    0.000    0.000    0.000    0.000 
#
# Total GULP energy -245415.510779 kJ/mol
# GULP energy per Si atom -5577.625245 kJ/mol
# Density = 1.899322 g / cm^3
# Si number density = 19.036544 Si / 1000 Ang^3
#
#
#
# Elastic Constant Matrix: (Units=GPa)
#
#
# Indices 1 2 3 4 5 6 
#
# 1 101.0576 64.6027 49.8890 0.0000 0.0000 0.0000
# 2 64.6027 76.6288 73.9695 0.0000 0.0000 0.0000
# 3 49.8890 73.9695 166.6256 0.0000 0.0000 0.0000
# 4 0.0000 0.0000 0.0000 35.1971 0.0000 0.0000
# 5 0.0000 0.0000 0.0000 0.0000 23.0240 0.0000
# 6 0.0000 0.0000 0.0000 0.0000 0.0000 24.2995
#
#
#
# Elastic Compliance Matrix: (Units=1/GPa)
#
#
# Indices 1 2 3 4 5 6 
#
# 1 0.022242 -0.021563 0.002913 0.000000 0.000000 0.000000
# 2 -0.021563 0.043741 -0.012961 0.000000 0.000000 0.000000
# 3 0.002913 -0.012961 0.010883 0.000000 0.000000 0.000000
# 4 0.000000 0.000000 0.000000 0.028411 0.000000 0.000000
# 5 0.000000 0.000000 0.000000 0.000000 0.043433 0.000000
# 6 0.000000 0.000000 0.000000 0.000000 0.000000 0.041153
#
#
# Mechanical properties :
#
#
# Convention : Reuss Voigt Hill
#
# Bulk Modulus (GPa) = 73.29987 80.13713 76.71850
# Shear Modulus (GPa) = 19.40738 26.89417 23.15078
#
# Velocity S-wave (km/s) = 3.19639 3.76275 3.49108
# Velocity P-wave (km/s) = 7.22572 7.81445 7.52584
#
# Compressibility (1/GPa) = 0.01364259
#
# Stress axis : x y z
#
# Youngs Moduli (GPa) = 44.96025 22.86202 91.88479
#
# Poissons Ratio (x) = 0.49298 -0.26767
# Poissons Ratio (y) = 0.96949 1.19096
# Poissons Ratio (z) = -0.13097 0.29632
#
# Static dielectric constant tensor:
#      x y z
#    x 1.637420 0.000000 0.000000 
#    y 0.000000 1.693340 0.000000 
#    z 0.000000 0.000000 1.689060 
# 
# From -- ./inp_files/5167.got.cif
#   From: 2010.05.17/outbox.cif.g08.bks.cpg/sg48_3_cif.got.tgz:5167.got - 2010.06.03 20:39:00.
