data_PCOD9391742
_publ_section_title
;
Structure prediction by ZEFSAII (Michael W. Deem and Ramdas Pophale) SiO2 
 PCOD9391742
Probable space group: P N N N
;
_chemical_formula_sum "Si O2"
_cell_formula_units_Z 32
_cell_length_a 17.106318
_cell_length_b 8.524294
_cell_length_c 10.293430
_cell_angle_alpha 90.000000
_cell_angle_beta 90.000000
_cell_angle_gamma 90.000000
_cell_volume 1500.980591
_symmetry_space_group_name_H-M "P N N N"
_symmetry_group_IT_number 48
_space_group.IT_coordinate_system_code '2'
_symmetry_cell_setting 'orthorhombic'
loop_
_space_group_symop_operation_xyz
x,y,z
1/2-x,1/2-y,z
x,1/2-y,1/2-z
1/2-x,y,1/2-z
-x,-y,-z
1/2+x,1/2+y,-z
-x,1/2+y,1/2+z
1/2+x,-y,1/2+z
loop_
_atom_site_type_symbol
_atom_site_label
_atom_site_fract_x
_atom_site_fract_y
_atom_site_fract_z
Si Si1 0.604460 0.070890 0.455670
Si Si2 0.416858 0.928075 0.039567
Si Si3 0.963211 0.927635 0.795920
Si Si4 0.735435 0.928816 0.094855
O O1 0.585395 0.245953 0.502502
O O2 0.555665 0.039926 0.322789
O O3 0.573557 0.950068 0.562866
O O4 0.696234 0.045555 0.449288
O O5 0.418795 0.961413 0.194021
O O6 0.500000 0.000000 0.000000
O O7 0.346532 0.012527 0.962805
O O8 0.955301 0.750000 0.750000
O O9 0.750000 0.750000 0.049678
O O10 0.750000 0.927088 0.250000
#
# Coordination Sequence:
#
# PCOD9391742 Si02
#       4
#     8   8   8   8
#     4  11  25  44  69 105 142 182 236 290 354 418
#     4  12  24  43  71 101 139 185 232 284 350 420
#     4  11  23  43  70 103 140 183 233 289 352 417
#     4  11  26  45  69 103 141 182 234 293 352 418
#
# _framework density 21.319396000000001
#
# number of rings (size 3 to 8) (size 9 to 14) (size 15 to 20)
#    0.000    0.750    2.500    4.500    3.500    2.000 
#    0.000    5.000    0.000    0.000    0.000    0.000 
#    0.000    0.000    0.000    0.000    0.000    0.000 
#
# Total GULP energy -178823.961842 kJ/mol
# GULP energy per Si atom -5588.248808 kJ/mol
# Density = 2.127087 g / cm^3
# Si number density = 21.319396 Si / 1000 Ang^3
#
#
#
# Elastic Constant Matrix: (Units=GPa)
#
#
# Indices 1 2 3 4 5 6 
#
# 1 179.3725 67.3579 46.5024 0.0000 0.0000 0.0000
# 2 67.3579 130.3298 50.3078 0.0000 0.0000 0.0000
# 3 46.5024 50.3078 94.0322 0.0000 0.0000 0.0000
# 4 0.0000 0.0000 0.0000 24.7889 0.0000 0.0000
# 5 0.0000 0.0000 0.0000 0.0000 37.4682 0.0000
# 6 0.0000 0.0000 0.0000 0.0000 0.0000 37.9863
#
#
#
# Elastic Compliance Matrix: (Units=1/GPa)
#
#
# Indices 1 2 3 4 5 6 
#
# 1 0.007198 -0.002957 -0.001978 0.000000 0.000000 0.000000
# 2 -0.002957 0.010884 -0.004361 0.000000 0.000000 0.000000
# 3 -0.001978 -0.004361 0.013946 0.000000 0.000000 0.000000
# 4 0.000000 0.000000 0.000000 0.040341 0.000000 0.000000
# 5 0.000000 0.000000 0.000000 0.000000 0.026689 0.000000
# 6 0.000000 0.000000 0.000000 0.000000 0.000000 0.026325
#
#
# Mechanical properties :
#
#
# Convention : Reuss Voigt Hill
#
# Bulk Modulus (GPa) = 74.42003 81.34118 77.88060
# Shear Modulus (GPa) = 33.68055 36.01976 34.85015
#
# Velocity S-wave (km/s) = 3.97899 4.11485 4.04749
# Velocity P-wave (km/s) = 7.48951 7.79823 7.64543
#
# Compressibility (1/GPa) = 0.01343724
#
# Stress axis : x y z
#
# Youngs Moduli (GPa) = 138.92663 91.87557 71.70553
#
# Poissons Ratio (x) = 0.27165 0.14182
# Poissons Ratio (y) = 0.41076 0.31271
# Poissons Ratio (z) = 0.27478 0.40067
#
# Static dielectric constant tensor:
#      x y z
#    x 1.804060 0.000000 0.000000 
#    y 0.000000 1.749450 0.000000 
#    z 0.000000 0.000000 1.862460 
# 
# From -- ./inp_files/10097.got.cif
#   From: 2010.05.17/outbox.cif.g08.bks.cpg/sg48_6_cif.got.tgz:10097.got - 2010.06.03 20:39:00.
