data_PCOD9391787
_publ_section_title
;
Structure prediction by ZEFSAII (Michael W. Deem and Ramdas Pophale) SiO2 
 PCOD9391787
Probable space group: P N N N
;
_chemical_formula_sum "Si O2"
_cell_formula_units_Z 60
_cell_length_a 11.041419
_cell_length_b 9.005995
_cell_length_c 27.579372
_cell_angle_alpha 90.000000
_cell_angle_beta 90.000000
_cell_angle_gamma 90.000000
_cell_volume 2742.464188
_symmetry_space_group_name_H-M "P N N N"
_symmetry_group_IT_number 48
_space_group.IT_coordinate_system_code '2'
_symmetry_cell_setting 'orthorhombic'
loop_
_space_group_symop_operation_xyz
x,y,z
1/2-x,1/2-y,z
x,1/2-y,1/2-z
1/2-x,y,1/2-z
-x,-y,-z
1/2+x,1/2+y,-z
-x,1/2+y,1/2+z
1/2+x,-y,1/2+z
loop_
_atom_site_type_symbol
_atom_site_label
_atom_site_fract_x
_atom_site_fract_y
_atom_site_fract_z
Si Si1 0.250000 0.250000 0.954003
Si Si2 0.488387 0.028054 0.856605
Si Si3 0.504173 0.049539 0.347728
Si Si4 0.892536 0.928260 0.250868
Si Si5 0.750098 0.081998 0.094361
Si Si6 0.388513 0.712658 0.095042
Si Si7 0.504025 0.679536 0.996655
Si Si8 0.886541 0.717322 0.899072
O O1 0.258141 0.418424 0.931325
O O2 0.373908 0.249162 0.982754
O O3 0.464586 0.030076 0.799672
O O4 0.506156 0.192356 0.877725
O O5 0.374537 0.939191 0.877384
O O6 0.601936 0.951711 0.883035
O O7 0.636300 0.078573 0.369886
O O8 0.427093 0.199096 0.350034
O O9 0.531977 0.983237 0.295386
O O10 0.426225 0.948022 0.384746
O O11 0.886576 0.750000 0.250000
O O12 0.750000 0.979926 0.250000
O O13 0.750000 0.250000 0.070701
O O14 0.250000 0.750000 0.108111
O O15 0.405290 0.727794 0.036832
O O16 0.500000 0.500000 0.000000
O O17 0.518928 0.733421 0.941241
O O18 0.750000 0.750000 0.914049
#
# Coordination Sequence:
#
# PCOD9391787 Si02
#       8
#     4   8   8   8   8   8   8   8
#     4  12  24  46  78 105 154 197 254 314 382 446
#     4  12  25  45  70 112 145 186 253 308 374 453
#     4  12  23  47  73 104 150 189 242 316 370 448
#     4  11  24  42  76 111 141 183 243 310 383 446
#     4  12  23  44  75 115 155 195 243 322 385 443
#     4  12  26  47  72 106 151 197 247 303 375 459
#     4  12  25  47  74 106 143 200 255 311 374 446
#     4  12  27  48  70  99 151 199 238 302 378 448
#
# _framework density 21.878133999999999
#
# number of rings (size 3 to 8) (size 9 to 14) (size 15 to 20)
#    0.000    0.133    8.667    0.800    0.000    1.067 
#    4.800    5.333    0.000    0.000    0.000    0.000 
#    0.000    0.000    0.000    0.000    0.000    0.000 
#
# Total GULP energy -334227.957788 kJ/mol
# GULP energy per Si atom -5570.465963 kJ/mol
# Density = 2.182834 g / cm^3
# Si number density = 21.878134 Si / 1000 Ang^3
#
#
#
# Elastic Constant Matrix: (Units=GPa)
#
#
# Indices 1 2 3 4 5 6 
#
# 1 87.8292 -5.2404 28.4512 0.0000 0.0000 0.0000
# 2 -5.2404 75.4610 24.5410 0.0000 0.0000 0.0000
# 3 28.4512 24.5410 133.6418 0.0000 0.0000 0.0000
# 4 0.0000 0.0000 0.0000 13.4766 0.0000 0.0000
# 5 0.0000 0.0000 0.0000 0.0000 21.5968 0.0000
# 6 0.0000 0.0000 0.0000 0.0000 0.0000 42.5681
#
#
#
# Elastic Compliance Matrix: (Units=1/GPa)
#
#
# Indices 1 2 3 4 5 6 
#
# 1 0.012464 0.001838 -0.002991 0.000000 0.000000 0.000000
# 2 0.001838 0.014365 -0.003029 0.000000 0.000000 0.000000
# 3 -0.002991 -0.003029 0.008676 0.000000 0.000000 0.000000
# 4 0.000000 0.000000 0.000000 0.074203 0.000000 0.000000
# 5 0.000000 0.000000 0.000000 0.000000 0.046303 0.000000
# 6 0.000000 0.000000 0.000000 0.000000 0.000000 0.023492
#
#
# Mechanical properties :
#
#
# Convention : Reuss Voigt Hill
#
# Bulk Modulus (GPa) = 36.84486 43.60394 40.22440
# Shear Modulus (GPa) = 25.39191 32.14032 28.76612
#
# Velocity S-wave (km/s) = 3.41046 3.83699 3.63000
# Velocity P-wave (km/s) = 5.69086 6.29314 5.99956
#
# Compressibility (1/GPa) = 0.02714083
#
# Stress axis : x y z
#
# Youngs Moduli (GPa) = 80.22869 69.61523 115.26407
#
# Poissons Ratio (x) = -0.12798 0.34477
# Poissons Ratio (y) = -0.14749 0.34916
# Poissons Ratio (z) = 0.23997 0.21088
#
# Static dielectric constant tensor:
#      x y z
#    x 1.979660 0.000000 0.000000 
#    y 0.000000 1.876920 0.000000 
#    z 0.000000 0.000000 1.825730 
# 
# From -- ./inp_files/38944.got.cif
#   From: 2010.05.17/outbox.cif.g08.bks.cpg/sg48_20_cif.got.tgz:38944.got - 2010.06.03 20:39:00.
