data_PCOD9391319
_publ_section_title
;
Structure prediction by ZEFSAII (Michael W. Deem and Ramdas Pophale) SiO2 
 PCOD9391319
Probable space group: P N N N
;
_chemical_formula_sum "Si O2"
_cell_formula_units_Z 48
_cell_length_a 17.162789
_cell_length_b 9.241180
_cell_length_c 12.757260
_cell_angle_alpha 90.000000
_cell_angle_beta 90.000000
_cell_angle_gamma 90.000000
_cell_volume 2023.357854
_symmetry_space_group_name_H-M "P N N N"
_symmetry_group_IT_number 48
_space_group.IT_coordinate_system_code '2'
_symmetry_cell_setting 'orthorhombic'
loop_
_space_group_symop_operation_xyz
x,y,z
1/2-x,1/2-y,z
x,1/2-y,1/2-z
1/2-x,y,1/2-z
-x,-y,-z
1/2+x,1/2+y,-z
-x,1/2+y,1/2+z
1/2+x,-y,1/2+z
loop_
_atom_site_type_symbol
_atom_site_label
_atom_site_fract_x
_atom_site_fract_y
_atom_site_fract_z
Si Si1 0.532100 0.695697 0.561557
Si Si2 0.107254 0.899217 0.716660
Si Si3 0.080284 0.160130 0.853092
Si Si4 0.632698 0.750000 0.750000
Si Si5 0.750000 0.750000 0.061689
Si Si6 0.162197 0.509049 0.983629
Si Si7 0.750000 0.250000 0.912138
Si Si8 0.250000 0.994081 0.250000
O O1 0.459203 0.647416 0.632408
O O2 0.530152 0.788975 0.454167
O O3 0.583028 0.781588 0.646707
O O4 0.582017 0.553219 0.529138
O O5 0.145282 0.750000 0.750000
O O6 0.162501 0.992757 0.642890
O O7 0.077993 0.994154 0.814042
O O8 0.055689 0.250000 0.750000
O O9 0.170733 0.199833 0.879968
O O10 0.680831 0.605057 0.726880
O O11 0.773878 0.612813 0.991398
O O12 0.184448 0.668572 0.020696
O O13 0.777602 0.118244 0.839180
#
# Coordination Sequence:
#
# PCOD9391319 Si02
#       8
#     8   8   8   4   4   8   4   4
#     4  11  24  48  72  99 136 191 244 280 337 430
#     4  12  27  46  66 107 143 179 236 295 355 412
#     4  11  24  44  75 101 133 187 235 287 344 429
#     4  11  22  44  74  96 134 191 238 280 326 435
#     4  10  23  44  72 101 126 185 246 268 349 438
#     4  11  25  43  73  98 141 181 224 296 352 420
#     4  11  24  42  59 110 142 170 219 300 371 398
#     4  10  24  40  68 100 140 176 234 280 354 418
#
# _framework density 23.722942
#
# number of rings (size 3 to 8) (size 9 to 14) (size 15 to 20)
#    0.000    1.000    5.833    0.750    7.000    0.667 
#    3.000    0.000    0.000    0.000    0.000    0.000 
#    0.000    0.000    0.000    0.000    0.000    0.000 
#
# Total GULP energy -267890.792940 kJ/mol
# GULP energy per Si atom -5581.058186 kJ/mol
# Density = 2.366895 g / cm^3
# Si number density = 23.722942 Si / 1000 Ang^3
#
#
#
# Elastic Constant Matrix: (Units=GPa)
#
#
# Indices 1 2 3 4 5 6 
#
# 1 35.6610 26.5168 19.7123 0.0000 0.0000 0.0000
# 2 26.5168 158.9310 49.1789 0.0000 0.0000 0.0000
# 3 19.7123 49.1789 144.7456 0.0000 0.0000 0.0000
# 4 0.0000 0.0000 0.0000 58.0106 0.0000 0.0000
# 5 0.0000 0.0000 0.0000 0.0000 28.3900 0.0000
# 6 0.0000 0.0000 0.0000 0.0000 0.0000 23.9255
#
#
#
# Elastic Compliance Matrix: (Units=1/GPa)
#
#
# Indices 1 2 3 4 5 6 
#
# 1 0.033097 -0.004612 -0.002940 0.000000 0.000000 0.000000
# 2 -0.004612 0.007674 -0.001979 0.000000 0.000000 0.000000
# 3 -0.002940 -0.001979 0.007982 0.000000 0.000000 0.000000
# 4 0.000000 0.000000 0.000000 0.017238 0.000000 0.000000
# 5 0.000000 0.000000 0.000000 0.000000 0.035224 0.000000
# 6 0.000000 0.000000 0.000000 0.000000 0.000000 0.041796
#
#
# Mechanical properties :
#
#
# Convention : Reuss Voigt Hill
#
# Bulk Modulus (GPa) = 33.68263 58.90595 46.29429
# Shear Modulus (GPa) = 29.07483 38.32719 33.70101
#
# Velocity S-wave (km/s) = 3.50465 4.02383 3.77318
# Velocity P-wave (km/s) = 5.53227 6.81711 6.20802
#
# Compressibility (1/GPa) = 0.02968889
#
# Stress axis : x y z
#
# Youngs Moduli (GPa) = 30.21458 130.31022 125.28886
#
# Poissons Ratio (x) = 0.60101 0.36838
# Poissons Ratio (y) = 0.13935 0.24797
# Poissons Ratio (z) = 0.08884 0.25791
#
# Static dielectric constant tensor:
#      x y z
#    x 2.004720 0.000000 0.000000 
#    y 0.000000 1.913880 0.000000 
#    z 0.000000 0.000000 2.011590 
# 
# From -- ./inp_files/27949.got.cif
#   From: 2010.05.17/outbox.cif.g08.bks.cpg/sg48_14_cif.got.tgz:27949.got - 2010.06.03 20:39:00.
