data_PCOD9391175
_publ_section_title
;
Structure prediction by ZEFSAII (Michael W. Deem and Ramdas Pophale) SiO2 
 PCOD9391175
Probable space group: P N N N
;
_chemical_formula_sum "Si O2"
_cell_formula_units_Z 46
_cell_length_a 24.950935
_cell_length_b 11.184745
_cell_length_c 8.975681
_cell_angle_alpha 90.000000
_cell_angle_beta 90.000000
_cell_angle_gamma 90.000000
_cell_volume 2504.841910
_symmetry_space_group_name_H-M "P N N N"
_symmetry_group_IT_number 48
_space_group.IT_coordinate_system_code '2'
_symmetry_cell_setting 'orthorhombic'
loop_
_space_group_symop_operation_xyz
x,y,z
1/2-x,1/2-y,z
x,1/2-y,1/2-z
1/2-x,y,1/2-z
-x,-y,-z
1/2+x,1/2+y,-z
-x,1/2+y,1/2+z
1/2+x,-y,1/2+z
loop_
_atom_site_type_symbol
_atom_site_label
_atom_site_fract_x
_atom_site_fract_y
_atom_site_fract_z
Si Si1 0.139449 0.886646 0.293467
Si Si2 0.250000 0.750000 0.750000
Si Si3 0.606142 0.750000 0.750000
Si Si4 0.058718 0.046720 0.460728
Si Si5 0.862497 0.886318 0.287217
Si Si6 0.777295 0.463706 0.030147
Si Si7 0.658367 0.939897 0.535655
O O1 0.138803 0.750000 0.250000
O O2 0.193698 0.926005 0.377821
O O3 0.092743 0.933202 0.401688
O O4 0.135560 0.958540 0.141261
O O5 0.223913 0.654868 0.865447
O O6 0.570080 0.651504 0.662327
O O7 0.643731 0.818595 0.627790
O O8 0.085908 0.096765 0.610545
O O9 0.000000 0.000000 0.500000
O O10 0.850314 0.750000 0.250000
O O11 0.814020 0.943631 0.379776
O O12 0.868637 0.944075 0.125461
O O13 0.720508 0.526144 0.995466
#
# Coordination Sequence:
#
# PCOD9391175 Si02
#       7
#     8   2   4   8   8   8   8
#     4  10  23  42  60  89 131 167 216 259 310 390
#     4  12  20  36  58  84 128 162 226 238 296 372
#     4  10  22  44  68  94 128 159 209 268 308 394
#     4  10  23  45  66  94 120 160 214 270 329 371
#     4  11  22  42  63  91 128 158 211 265 306 382
#     4  11  23  37  60  93 125 177 204 253 308 381
#     4  11  21  41  62  92 127 165 206 247 325 369
#
# _framework density 18.364432999999998
#
# number of rings (size 3 to 8) (size 9 to 14) (size 15 to 20)
#    0.000    1.391    3.478    1.565    0.000    2.783 
#    6.261    1.739    0.000    0.000    0.000    0.000 
#    0.000    0.000    0.000    0.000    0.000    0.000 
#
# Total GULP energy -256462.255827 kJ/mol
# GULP energy per Si atom -5575.266431 kJ/mol
# Density = 1.832263 g / cm^3
# Si number density = 18.364433 Si / 1000 Ang^3
#
#
#
# Elastic Constant Matrix: (Units=GPa)
#
#
# Indices 1 2 3 4 5 6 
#
# 1 95.8321 47.3435 32.6789 0.0000 0.0000 0.0000
# 2 47.3435 128.5937 51.5925 0.0000 0.0000 0.0000
# 3 32.6789 51.5925 121.0098 0.0000 0.0000 0.0000
# 4 0.0000 0.0000 0.0000 30.7498 0.0000 0.0000
# 5 0.0000 0.0000 0.0000 0.0000 0.3666 0.0000
# 6 0.0000 0.0000 0.0000 0.0000 0.0000 39.3693
#
#
#
# Elastic Compliance Matrix: (Units=1/GPa)
#
#
# Indices 1 2 3 4 5 6 
#
# 1 0.013066 -0.004095 -0.001782 0.000000 0.000000 0.000000
# 2 -0.004095 0.010665 -0.003441 0.000000 0.000000 0.000000
# 3 -0.001782 -0.003441 0.010212 0.000000 0.000000 0.000000
# 4 0.000000 0.000000 0.000000 0.032520 0.000000 0.000000
# 5 0.000000 0.000000 0.000000 0.000000 2.727892 0.000000
# 6 0.000000 0.000000 0.000000 0.000000 0.000000 0.025401
#
#
# Mechanical properties :
#
#
# Convention : Reuss Voigt Hill
#
# Bulk Modulus (GPa) = 65.33619 67.62948 66.48283
# Shear Modulus (GPa) = 1.75840 28.35185 15.05512
#
# Velocity S-wave (km/s) = 0.97958 3.93344 2.86632
# Velocity P-wave (km/s) = 6.07736 7.58522 6.87277
#
# Compressibility (1/GPa) = 0.01530545
#
# Stress axis : x y z
#
# Youngs Moduli (GPa) = 76.53507 93.76736 97.92211
#
# Poissons Ratio (x) = 0.38400 0.17454
# Poissons Ratio (y) = 0.31343 0.33695
# Poissons Ratio (z) = 0.13642 0.32265
#
# Static dielectric constant tensor:
#      x y z
#    x 1.624390 0.000000 0.000000 
#    y 0.000000 1.572070 0.000000 
#    z 0.000000 0.000000 1.797370 
# 
# From -- ./inp_files/11379.got.cif
#   From: 2010.05.17/outbox.cif.g08.bks.cpg/sg48_6_cif.got.tgz:11379.got - 2010.06.03 20:39:00.
