data_PCOD9391441
_publ_section_title
;
Structure prediction by ZEFSAII (Michael W. Deem and Ramdas Pophale) SiO2 
 PCOD9391441
Probable space group: P N N N
;
_chemical_formula_sum "Si O2"
_cell_formula_units_Z 30
_cell_length_a 17.046980
_cell_length_b 6.969935
_cell_length_c 10.607510
_cell_angle_alpha 90.000000
_cell_angle_beta 90.000000
_cell_angle_gamma 90.000000
_cell_volume 1260.345542
_symmetry_space_group_name_H-M "P N N N"
_symmetry_group_IT_number 48
_space_group.IT_coordinate_system_code '2'
_symmetry_cell_setting 'orthorhombic'
loop_
_space_group_symop_operation_xyz
x,y,z
1/2-x,1/2-y,z
x,1/2-y,1/2-z
1/2-x,y,1/2-z
-x,-y,-z
1/2+x,1/2+y,-z
-x,1/2+y,1/2+z
1/2+x,-y,1/2+z
loop_
_atom_site_type_symbol
_atom_site_label
_atom_site_fract_x
_atom_site_fract_y
_atom_site_fract_z
Si Si1 0.984788 0.750000 0.250000
Si Si2 0.843477 0.243509 0.395461
Si Si3 0.417664 0.115566 0.997952
Si Si4 0.385671 0.502837 0.120455
Si Si5 0.250000 0.750000 0.250000
O O1 0.044001 0.920012 0.208508
O O2 0.928223 0.719055 0.134173
O O3 0.750000 0.250000 0.386983
O O4 0.873409 0.250000 0.250000
O O5 0.887358 0.401821 0.480469
O O6 0.856030 0.050653 0.476480
O O7 0.394501 0.274795 0.099907
O O8 0.500000 0.000000 0.000000
O O9 0.307465 0.603142 0.175640
#
# Coordination Sequence:
#
# PCOD9391441 Si02
#       5
#     4   8   8   8   2
#     4  11  24  45  74 111 147 188 242 314 363 440
#     4  11  25  47  72 103 149 198 247 302 369 455
#     4  12  26  43  73 109 147 196 242 304 375 437
#     4  11  24  48  74 111 146 188 250 307 372 449
#     4  10  24  52  80 104 152 192 254 316 378 456
#
# _framework density 23.802997999999999
#
# number of rings (size 3 to 8) (size 9 to 14) (size 15 to 20)
#    0.000    0.800    4.000    2.400    3.733    1.067 
#    0.000    4.000    0.000    0.000    0.000    0.000 
#    0.000    0.000    0.000    0.000    0.000    0.000 
#
# Total GULP energy -167564.005233 kJ/mol
# GULP energy per Si atom -5585.466841 kJ/mol
# Density = 2.374882 g / cm^3
# Si number density = 23.802998 Si / 1000 Ang^3
#
#
#
# Elastic Constant Matrix: (Units=GPa)
#
#
# Indices 1 2 3 4 5 6 
#
# 1 52.1047 31.5178 5.2970 0.0000 0.0000 0.0000
# 2 31.5178 187.1126 46.4695 0.0000 0.0000 0.0000
# 3 5.2970 46.4695 107.5748 0.0000 0.0000 0.0000
# 4 0.0000 0.0000 0.0000 -60.2363 0.0000 0.0000
# 5 0.0000 0.0000 0.0000 0.0000 -2.7824 0.0000
# 6 0.0000 0.0000 0.0000 0.0000 0.0000 16.9240
#
#
#
# Elastic Compliance Matrix: (Units=1/GPa)
#
#
# Indices 1 2 3 4 5 6 
#
# 1 0.021400 -0.003745 0.000564 0.000000 0.000000 0.000000
# 2 -0.003745 0.006642 -0.002685 0.000000 0.000000 0.000000
# 3 0.000564 -0.002685 0.010428 0.000000 0.000000 0.000000
# 4 0.000000 0.000000 0.000000 -0.016601 0.000000 0.000000
# 5 0.000000 0.000000 0.000000 0.000000 -0.359397 0.000000
# 6 0.000000 0.000000 0.000000 0.000000 0.000000 0.059088
#
#
# Mechanical properties :
#
#
# Convention : Reuss Voigt Hill
#
# Bulk Modulus (GPa) = 37.39920 57.04009 47.21964
# Shear Modulus (GPa) = -19.39515 8.34822 -5.52346
#
# Velocity S-wave (km/s) = -2.85760 1.87479 -1.52497
# Velocity P-wave (km/s) = 2.20414 5.35741 4.09635
#
# Compressibility (1/GPa) = 0.02673854
#
# Stress axis : x y z
#
# Youngs Moduli (GPa) = 46.72906 150.55925 95.89721
#
# Poissons Ratio (x) = 0.56380 -0.05407
# Poissons Ratio (y) = 0.17499 0.25746
# Poissons Ratio (z) = -0.02635 0.40421
#
# Static dielectric constant tensor:
#      x y z
#    x 1.872230 0.000000 0.000000 
#    y 0.000000 1.484100 0.000000 
#    z 0.000000 0.000000 1.961610 
# 
# From -- ./inp_files/1946.got.cif
#   From: 2010.05.17/outbox.cif.g08.bks.cpg/sg48_1_cif.got.tgz:1946.got - 2010.06.03 20:39:00.
