data_PCOD9391181
_publ_section_title
;
Structure prediction by ZEFSAII (Michael W. Deem and Ramdas Pophale) SiO2 
 PCOD9391181
Probable space group: P N N N
;
_chemical_formula_sum "Si O2"
_cell_formula_units_Z 56
_cell_length_a 5.172756
_cell_length_b 16.677657
_cell_length_c 28.588001
_cell_angle_alpha 90.000000
_cell_angle_beta 90.000000
_cell_angle_gamma 90.000000
_cell_volume 2466.271132
_symmetry_space_group_name_H-M "P N N N"
_symmetry_group_IT_number 48
_space_group.IT_coordinate_system_code '2'
_symmetry_cell_setting 'orthorhombic'
loop_
_space_group_symop_operation_xyz
x,y,z
1/2-x,1/2-y,z
x,1/2-y,1/2-z
1/2-x,y,1/2-z
-x,-y,-z
1/2+x,1/2+y,-z
-x,1/2+y,1/2+z
1/2+x,-y,1/2+z
loop_
_atom_site_type_symbol
_atom_site_label
_atom_site_fract_x
_atom_site_fract_y
_atom_site_fract_z
Si Si1 0.496764 0.693678 0.019143
Si Si2 0.498875 0.523584 0.444778
Si Si3 0.743124 0.844000 0.108663
Si Si4 0.991636 0.704188 0.638546
Si Si5 0.232118 0.465055 0.693447
Si Si6 0.234652 0.066697 0.305144
Si Si7 0.995494 0.073331 0.065083
O O1 0.750000 0.750000 0.011396
O O2 0.500566 0.616858 0.985151
O O3 0.250000 0.750000 0.011011
O O4 0.521353 0.658731 0.071402
O O5 0.500000 0.500000 0.500000
O O6 0.521244 0.614306 0.424845
O O7 0.774850 0.491036 0.429290
O O8 0.266694 0.469784 0.424698
O O9 0.750000 0.750000 0.121573
O O10 0.735273 0.892741 0.157044
O O11 0.750000 0.750000 0.615031
O O12 0.832663 0.651240 0.675566
O O13 0.250000 0.750000 0.655399
O O14 0.085654 0.643296 0.599703
O O15 0.250000 0.446845 0.750000
O O16 0.452199 0.532316 0.683264
O O17 0.952496 0.501787 0.682449
O O18 0.250000 0.074200 0.250000
#
# Coordination Sequence:
#
# PCOD9391181 Si02
#       7
#     8   8   8   8   8   8   8
#     4  11  24  40  62  94 137 176 216 269 333 391
#     4  12  25  43  67  95 128 180 234 279 326 403
#     4  11  26  43  67  99 137 170 222 285 349 403
#     4  12  24  40  65 102 141 179 224 276 341 401
#     4  10  22  44  71  96 127 175 227 282 345 412
#     4  10  22  44  70  96 132 175 225 279 337 407
#     4  12  24  43  67  90 136 180 233 271 319 403
#
# _framework density 22.706344999999999
#
# number of rings (size 3 to 8) (size 9 to 14) (size 15 to 20)
#    0.000    0.857    1.429    5.571    2.000    2.857 
#    0.000    0.714    0.000    2.571    0.000    0.000 
#    0.000    0.000    0.000    0.000    0.000    0.000 
#
# Total GULP energy -312638.863948 kJ/mol
# GULP energy per Si atom -5582.836856 kJ/mol
# Density = 2.265466 g / cm^3
# Si number density = 22.706345 Si / 1000 Ang^3
#
#
#
# Elastic Constant Matrix: (Units=GPa)
#
#
# Indices 1 2 3 4 5 6 
#
# 1 124.4668 39.1812 25.5639 0.0000 0.0000 0.0000
# 2 39.1812 105.3702 32.9944 0.0000 0.0000 0.0000
# 3 25.5639 32.9944 92.1030 0.0000 0.0000 0.0000
# 4 0.0000 0.0000 0.0000 37.7468 0.0000 0.0000
# 5 0.0000 0.0000 0.0000 0.0000 5.8094 0.0000
# 6 0.0000 0.0000 0.0000 0.0000 0.0000 33.1219
#
#
#
# Elastic Compliance Matrix: (Units=1/GPa)
#
#
# Indices 1 2 3 4 5 6 
#
# 1 0.009282 -0.002979 -0.001509 0.000000 0.000000 0.000000
# 2 -0.002979 0.011645 -0.003345 0.000000 0.000000 0.000000
# 3 -0.001509 -0.003345 0.012475 0.000000 0.000000 0.000000
# 4 0.000000 0.000000 0.000000 0.026492 0.000000 0.000000
# 5 0.000000 0.000000 0.000000 0.000000 0.172134 0.000000
# 6 0.000000 0.000000 0.000000 0.000000 0.000000 0.030192
#
#
# Mechanical properties :
#
#
# Convention : Reuss Voigt Hill
#
# Bulk Modulus (GPa) = 56.38261 57.49099 56.93680
# Shear Modulus (GPa) = 17.61817 30.28232 23.95024
#
# Velocity S-wave (km/s) = 2.78855 3.65588 3.25126
# Velocity P-wave (km/s) = 5.93743 6.57228 6.26291
#
# Compressibility (1/GPa) = 0.01773597
#
# Stress axis : x y z
#
# Youngs Moduli (GPa) = 107.73589 85.87064 80.16309
#
# Poissons Ratio (x) = 0.25580 0.12098
# Poissons Ratio (y) = 0.32093 0.26814
# Poissons Ratio (z) = 0.16259 0.28723
#
# Static dielectric constant tensor:
#      x y z
#    x 1.850960 0.000000 0.000000 
#    y 0.000000 4.409510 0.000000 
#    z 0.000000 0.000000 1.899410 
# 
# From -- ./inp_files/38340.got.cif
#   From: 2010.05.17/outbox.cif.g08.bks.cpg/sg48_20_cif.got.tgz:38340.got - 2010.06.03 20:39:00.
