data_PCOD9391402
_publ_section_title
;
Structure prediction by ZEFSAII (Michael W. Deem and Ramdas Pophale) SiO2 
 PCOD9391402
Probable space group: P N N N
;
_chemical_formula_sum "Si O2"
_cell_formula_units_Z 40
_cell_length_a 13.147460
_cell_length_b 14.387272
_cell_length_c 8.694812
_cell_angle_alpha 90.000000
_cell_angle_beta 90.000000
_cell_angle_gamma 90.000000
_cell_volume 1644.676581
_symmetry_space_group_name_H-M "P N N N"
_symmetry_group_IT_number 48
_space_group.IT_coordinate_system_code '2'
_symmetry_cell_setting 'orthorhombic'
loop_
_space_group_symop_operation_xyz
x,y,z
1/2-x,1/2-y,z
x,1/2-y,1/2-z
1/2-x,y,1/2-z
-x,-y,-z
1/2+x,1/2+y,-z
-x,1/2+y,1/2+z
1/2+x,-y,1/2+z
loop_
_atom_site_type_symbol
_atom_site_label
_atom_site_fract_x
_atom_site_fract_y
_atom_site_fract_z
Si Si1 0.897190 0.587011 0.964939
Si Si2 0.947018 0.010795 0.241272
Si Si3 0.750000 0.576851 0.750000
Si Si4 0.880557 0.799809 0.978561
Si Si5 0.750000 0.250000 0.750000
Si Si6 0.095807 0.620666 0.452199
Si Si7 0.750000 0.750000 0.250000
O O1 0.814264 0.523697 0.877805
O O2 0.863203 0.692412 0.942035
O O3 0.001815 0.576570 0.871764
O O4 0.898352 0.562378 0.141874
O O5 0.881303 0.064520 0.112329
O O6 0.037772 0.956162 0.153086
O O7 0.667920 0.633872 0.851471
O O8 0.821351 0.810284 0.138265
O O9 0.999985 0.814945 0.998781
O O10 0.821661 0.317285 0.640805
#
# Coordination Sequence:
#
# PCOD9391402 Si02
#       7
#     8   8   4   8   2   8   2
#     4  11  21  42  69 103 143 188 232 309 392 461
#     4  10  24  44  71 103 146 191 245 321 393 435
#     4  12  23  39  71 112 138 177 242 315 398 453
#     4  12  23  41  69 107 143 185 246 316 373 466
#     4  12  26  50  82 104 156 228 270 300 384 458
#     4  11  25  47  71 105 144 205 260 317 366 464
#     4  12  22  30  60 106 140 166 226 286 396 420
#
# _framework density 24.320892000000001
#
# number of rings (size 3 to 8) (size 9 to 14) (size 15 to 20)
#    0.000    0.800    4.000    4.200    0.000    0.800 
#    0.000    0.000    8.800   13.200    0.000    0.000 
#    0.000    0.000    0.000    0.000    0.000    0.000 
#
# Total GULP energy -223211.858571 kJ/mol
# GULP energy per Si atom -5580.296464 kJ/mol
# Density = 2.426554 g / cm^3
# Si number density = 24.320892 Si / 1000 Ang^3
#
#
#
# Elastic Constant Matrix: (Units=GPa)
#
#
# Indices 1 2 3 4 5 6 
#
# 1 88.8779 22.3246 55.1784 0.0000 0.0000 0.0000
# 2 22.3246 48.7424 39.3161 0.0000 0.0000 0.0000
# 3 55.1784 39.3161 212.9051 0.0000 0.0000 0.0000
# 4 0.0000 0.0000 0.0000 33.3683 0.0000 0.0000
# 5 0.0000 0.0000 0.0000 0.0000 52.6674 0.0000
# 6 0.0000 0.0000 0.0000 0.0000 0.0000 31.7385
#
#
#
# Elastic Compliance Matrix: (Units=1/GPa)
#
#
# Indices 1 2 3 4 5 6 
#
# 1 0.014079 -0.004119 -0.002888 0.000000 0.000000 0.000000
# 2 -0.004119 0.025312 -0.003607 0.000000 0.000000 0.000000
# 3 -0.002888 -0.003607 0.006112 0.000000 0.000000 0.000000
# 4 0.000000 0.000000 0.000000 0.029969 0.000000 0.000000
# 5 0.000000 0.000000 0.000000 0.000000 0.018987 0.000000
# 6 0.000000 0.000000 0.000000 0.000000 0.000000 0.031507
#
#
# Mechanical properties :
#
#
# Convention : Reuss Voigt Hill
#
# Bulk Modulus (GPa) = 41.19486 64.90706 53.05096
# Shear Modulus (GPa) = 32.19899 39.13526 35.66713
#
# Velocity S-wave (km/s) = 3.64252 4.01574 3.83367
# Velocity P-wave (km/s) = 5.88774 6.94602 6.43866
#
# Compressibility (1/GPa) = 0.02427487
#
# Stress axis : x y z
#
# Youngs Moduli (GPa) = 71.02742 39.50749 163.62541
#
# Poissons Ratio (x) = 0.16272 0.47260
# Poissons Ratio (y) = 0.29254 0.59016
# Poissons Ratio (z) = 0.20515 0.14249
#
# Static dielectric constant tensor:
#      x y z
#    x 2.064020 0.000000 0.000000 
#    y 0.000000 2.048910 0.000000 
#    z 0.000000 0.000000 1.953280 
# 
# From -- ./inp_files/12398.got.cif
#   From: 2010.05.17/outbox.cif.g08.bks.cpg/sg48_7_cif.got.tgz:12398.got - 2010.06.03 20:39:00.
