data_PCOD9391563
_publ_section_title
;
Structure prediction by ZEFSAII (Michael W. Deem and Ramdas Pophale) SiO2 
 PCOD9391563
Probable space group: P N N N
;
_chemical_formula_sum "Si O2"
_cell_formula_units_Z 40
_cell_length_a 14.516941
_cell_length_b 16.682181
_cell_length_c 7.923995
_cell_angle_alpha 90.000000
_cell_angle_beta 90.000000
_cell_angle_gamma 90.000000
_cell_volume 1918.987446
_symmetry_space_group_name_H-M "P N N N"
_symmetry_group_IT_number 48
_space_group.IT_coordinate_system_code '2'
_symmetry_cell_setting 'orthorhombic'
loop_
_space_group_symop_operation_xyz
x,y,z
1/2-x,1/2-y,z
x,1/2-y,1/2-z
1/2-x,y,1/2-z
-x,-y,-z
1/2+x,1/2+y,-z
-x,1/2+y,1/2+z
1/2+x,-y,1/2+z
loop_
_atom_site_type_symbol
_atom_site_label
_atom_site_fract_x
_atom_site_fract_y
_atom_site_fract_z
Si Si1 0.658276 0.213995 0.440139
Si Si2 0.322421 0.528837 0.890025
Si Si3 0.010078 0.510470 0.200179
Si Si4 0.025904 0.318425 0.626623
Si Si5 0.337031 0.103313 0.351815
O O1 0.750000 0.250000 0.521757
O O2 0.649572 0.250000 0.250000
O O3 0.681796 0.120823 0.434167
O O4 0.562018 0.221463 0.534954
O O5 0.250000 0.508654 0.750000
O O6 0.423235 0.517625 0.811636
O O7 0.297559 0.469676 0.038770
O O8 0.013117 0.603362 0.268485
O O9 0.090251 0.446808 0.240912
O O10 0.000000 0.500000 0.000000
O O11 0.065192 0.250000 0.750000
O O12 0.101707 0.344509 0.485072
O O13 0.250000 0.140160 0.250000
#
# Coordination Sequence:
#
# PCOD9391563 Si02
#       5
#     8   8   8   8   8
#     4  11  22  38  65 103 147 181 210 279 372 430
#     4  11  20  40  65 103 143 174 231 280 342 425
#     4  11  23  42  69 100 138 187 231 288 351 415
#     4  11  25  44  67 104 146 181 236 302 360 423
#     4  11  23  44  72  99 132 190 248 288 337 418
#
# _framework density 20.844325999999999
#
# number of rings (size 3 to 8) (size 9 to 14) (size 15 to 20)
#    0.000    1.000    6.000    2.400    2.800    2.000 
#    0.000    0.000    0.000   42.600    0.000    0.000 
#    0.000    0.000    0.000    0.000    0.000    0.000 
#
# Total GULP energy -222973.051073 kJ/mol
# GULP energy per Si atom -5574.326277 kJ/mol
# Density = 2.079688 g / cm^3
# Si number density = 20.844326 Si / 1000 Ang^3
#
#
#
# Elastic Constant Matrix: (Units=GPa)
#
#
# Indices 1 2 3 4 5 6 
#
# 1 111.7445 40.7542 42.2059 0.0000 0.0000 0.0000
# 2 40.7542 98.8179 43.9639 0.0000 0.0000 0.0000
# 3 42.2059 43.9639 118.8778 0.0000 0.0000 0.0000
# 4 0.0000 0.0000 0.0000 14.7291 0.0000 0.0000
# 5 0.0000 0.0000 0.0000 0.0000 38.3140 0.0000
# 6 0.0000 0.0000 0.0000 0.0000 0.0000 26.0823
#
#
#
# Elastic Compliance Matrix: (Units=1/GPa)
#
#
# Indices 1 2 3 4 5 6 
#
# 1 0.011223 -0.003418 -0.002720 0.000000 0.000000 0.000000
# 2 -0.003418 0.013154 -0.003651 0.000000 0.000000 0.000000
# 3 -0.002720 -0.003651 0.010728 0.000000 0.000000 0.000000
# 4 0.000000 0.000000 0.000000 0.067893 0.000000 0.000000
# 5 0.000000 0.000000 0.000000 0.000000 0.026100 0.000000
# 6 0.000000 0.000000 0.000000 0.000000 0.000000 0.038340
#
#
# Mechanical properties :
#
#
# Convention : Reuss Voigt Hill
#
# Bulk Modulus (GPa) = 64.41001 64.80980 64.60991
# Shear Modulus (GPa) = 26.01555 29.32615 27.67085
#
# Velocity S-wave (km/s) = 3.53666 3.75495 3.64744
# Velocity P-wave (km/s) = 6.90253 7.06819 6.98585
#
# Compressibility (1/GPa) = 0.01552554
#
# Stress axis : x y z
#
# Youngs Moduli (GPa) = 89.10125 76.02440 93.21350
#
# Poissons Ratio (x) = 0.25987 0.25358
# Poissons Ratio (y) = 0.30458 0.34032
# Poissons Ratio (z) = 0.24240 0.27756
#
# Static dielectric constant tensor:
#      x y z
#    x 1.597130 0.000000 0.000000 
#    y 0.000000 1.768470 0.000000 
#    z 0.000000 0.000000 1.770330 
# 
# From -- ./inp_files/12560.got.cif
#   From: 2010.05.17/outbox.cif.g08.bks.cpg/sg48_7_cif.got.tgz:12560.got - 2010.06.03 20:39:00.
