data_PCOD9391797
_publ_section_title
;
Structure prediction by ZEFSAII (Michael W. Deem and Ramdas Pophale) SiO2 
 PCOD9391797
Probable space group: P N N N
;
_chemical_formula_sum "Si O2"
_cell_formula_units_Z 40
_cell_length_a 16.265872
_cell_length_b 10.237565
_cell_length_c 10.534535
_cell_angle_alpha 90.000000
_cell_angle_beta 90.000000
_cell_angle_gamma 90.000000
_cell_volume 1754.241549
_symmetry_space_group_name_H-M "P N N N"
_symmetry_group_IT_number 48
_space_group.IT_coordinate_system_code '2'
_symmetry_cell_setting 'orthorhombic'
loop_
_space_group_symop_operation_xyz
x,y,z
1/2-x,1/2-y,z
x,1/2-y,1/2-z
1/2-x,y,1/2-z
-x,-y,-z
1/2+x,1/2+y,-z
-x,1/2+y,1/2+z
1/2+x,-y,1/2+z
loop_
_atom_site_type_symbol
_atom_site_label
_atom_site_fract_x
_atom_site_fract_y
_atom_site_fract_z
Si Si1 0.145615 0.503037 0.482226
Si Si2 0.544318 0.263190 0.887127
Si Si3 0.912620 0.769445 0.606200
Si Si4 0.337027 0.539797 0.461500
Si Si5 0.650869 0.402936 0.255839
O O1 0.081956 0.593681 0.407600
O O2 0.140924 0.355338 0.435728
O O3 0.238655 0.553903 0.464798
O O4 0.122135 0.520888 0.630946
O O5 0.503210 0.250000 0.750000
O O6 0.619466 0.160626 0.893470
O O7 0.485022 0.229027 0.003188
O O8 0.941672 0.750000 0.750000
O O9 0.862557 0.903562 0.599771
O O10 0.370149 0.539730 0.607165
O O11 0.628243 0.250000 0.250000
O O12 0.750000 0.407005 0.250000
#
# Coordination Sequence:
#
# PCOD9391797 Si02
#       5
#     8   8   8   8   8
#     4  11  24  44  74 104 136 180 235 287 342 405
#     4  12  27  45  70 102 138 185 232 285 345 409
#     4  12  29  47  68 100 146 189 222 283 355 411
#     4  11  24  44  74 104 136 180 235 287 342 405
#     4   9  18  37  69 107 135 171 218 282 345 396
#
# _framework density 22.801877000000001
#
# number of rings (size 3 to 8) (size 9 to 14) (size 15 to 20)
#    0.000    1.000    2.000    3.600    5.600    4.800 
#    0.000    3.000    0.000    0.000    0.000    0.000 
#    0.000    0.000    0.000    0.000    0.000    0.000 
#
# Total GULP energy -224021.658574 kJ/mol
# GULP energy per Si atom -5600.541464 kJ/mol
# Density = 2.274998 g / cm^3
# Si number density = 22.801877 Si / 1000 Ang^3
#
#
#
# Elastic Constant Matrix: (Units=GPa)
#
#
# Indices 1 2 3 4 5 6 
#
# 1 49.9394 -7.3400 21.7878 0.0000 0.0000 0.0000
# 2 -7.3400 88.2548 6.6190 0.0000 0.0000 0.0000
# 3 21.7878 6.6190 157.3480 0.0000 0.0000 0.0000
# 4 0.0000 0.0000 0.0000 23.5978 0.0000 0.0000
# 5 0.0000 0.0000 0.0000 0.0000 26.1005 0.0000
# 6 0.0000 0.0000 0.0000 0.0000 0.0000 16.1758
#
#
#
# Elastic Compliance Matrix: (Units=1/GPa)
#
#
# Indices 1 2 3 4 5 6 
#
# 1 0.021670 0.002034 -0.003086 0.000000 0.000000 0.000000
# 2 0.002034 0.011558 -0.000768 0.000000 0.000000 0.000000
# 3 -0.003086 -0.000768 0.006815 0.000000 0.000000 0.000000
# 4 0.000000 0.000000 0.000000 0.042377 0.000000 0.000000
# 5 0.000000 0.000000 0.000000 0.000000 0.038313 0.000000
# 6 0.000000 0.000000 0.000000 0.000000 0.000000 0.061821
#
#
# Mechanical properties :
#
#
# Convention : Reuss Voigt Hill
#
# Bulk Modulus (GPa) = 27.47127 37.51955 32.49541
# Shear Modulus (GPa) = 25.21085 31.47318 28.34201
#
# Velocity S-wave (km/s) = 3.32874 3.71925 3.52940
# Velocity P-wave (km/s) = 5.18150 5.91051 5.55797
#
# Compressibility (1/GPa) = 0.03640166
#
# Stress axis : x y z
#
# Youngs Moduli (GPa) = 46.14762 86.52352 146.73584
#
# Poissons Ratio (x) = -0.17596 0.45284
# Poissons Ratio (y) = -0.09385 0.11266
# Poissons Ratio (z) = 0.14242 0.06643
#
# Static dielectric constant tensor:
#      x y z
#    x 1.834680 0.000000 0.000000 
#    y 0.000000 1.803570 0.000000 
#    z 0.000000 0.000000 1.864380 
# 
# From -- ./inp_files/21914.got.cif
#   From: 2010.05.17/outbox.cif.g08.bks.cpg/sg48_11_cif.got.tgz:21914.got - 2010.06.03 20:39:00.
