data_PCOD9391732
_publ_section_title
;
Structure prediction by ZEFSAII (Michael W. Deem and Ramdas Pophale) SiO2 
 PCOD9391732
Probable space group: P N N N
;
_chemical_formula_sum "Si O2"
_cell_formula_units_Z 64
_cell_length_a 14.410177
_cell_length_b 18.556798
_cell_length_c 11.761884
_cell_angle_alpha 90.000000
_cell_angle_beta 90.000000
_cell_angle_gamma 90.000000
_cell_volume 3145.207101
_symmetry_space_group_name_H-M "P N N N"
_symmetry_group_IT_number 48
_space_group.IT_coordinate_system_code '2'
_symmetry_cell_setting 'orthorhombic'
loop_
_space_group_symop_operation_xyz
x,y,z
1/2-x,1/2-y,z
x,1/2-y,1/2-z
1/2-x,y,1/2-z
-x,-y,-z
1/2+x,1/2+y,-z
-x,1/2+y,1/2+z
1/2+x,-y,1/2+z
loop_
_atom_site_type_symbol
_atom_site_label
_atom_site_fract_x
_atom_site_fract_y
_atom_site_fract_z
Si Si1 0.335097 0.697323 0.476641
Si Si2 0.652536 0.108602 0.756781
Si Si3 0.523666 0.318941 0.922011
Si Si4 0.871980 0.941183 0.454471
Si Si5 0.855116 0.834566 0.258560
Si Si6 0.030436 0.564771 0.583778
Si Si7 0.749310 0.436554 0.112017
Si Si8 0.968172 0.977282 0.667801
O O1 0.250000 0.750000 0.506083
O O2 0.326368 0.670179 0.347689
O O3 0.432501 0.742677 0.465985
O O4 0.314155 0.627147 0.557120
O O5 0.750000 0.067753 0.750000
O O6 0.609838 0.142894 0.643899
O O7 0.581568 0.053036 0.810106
O O8 0.439623 0.337539 0.832790
O O9 0.492718 0.361707 0.032379
O O10 0.884150 0.870275 0.377829
O O11 0.904447 0.931031 0.583391
O O12 0.776658 0.985185 0.440134
O O13 0.939318 0.001214 0.398577
O O14 0.841499 0.750000 0.250000
O O15 0.750000 0.866584 0.250000
O O16 0.141342 0.573403 0.583107
O O17 0.000000 0.500000 0.500000
O O18 0.994206 0.552967 0.710203
O O19 0.750000 0.437289 0.250000
#
# Coordination Sequence:
#
# PCOD9391732 Si02
#       8
#     8   8   8   8   8   8   8   8
#     4  12  24  41  64 101 144 190 233 294 369 447
#     4  12  21  37  60  98 138 179 235 291 366 427
#     4  12  25  42  68  99 144 184 230 306 360 435
#     4  11  23  42  68  95 134 182 237 298 356 423
#     4  11  25  46  74 102 128 179 245 303 364 430
#     4  12  24  42  64 101 144 185 238 289 356 439
#     4  12  25  44  69 101 144 195 238 293 367 456
#     4  11  24  39  63  99 137 185 234 292 356 426
#
# _framework density 20.348421999999999
#
# number of rings (size 3 to 8) (size 9 to 14) (size 15 to 20)
#    0.000    0.375    7.500    1.500    1.750    0.250 
#    0.000    0.000    0.000    0.000    0.000    1.750 
#    0.000    0.000    0.000    0.000    0.000    0.000 
#
# Total GULP energy -356355.594882 kJ/mol
# GULP energy per Si atom -5568.056170 kJ/mol
# Density = 2.030211 g / cm^3
# Si number density = 20.348422 Si / 1000 Ang^3
#
#
#
# Elastic Constant Matrix: (Units=GPa)
#
#
# Indices 1 2 3 4 5 6 
#
# 1 88.8522 21.5962 35.8174 0.0000 0.0000 0.0000
# 2 21.5962 78.1495 39.5158 0.0000 0.0000 0.0000
# 3 35.8174 39.5158 143.6027 0.0000 0.0000 0.0000
# 4 0.0000 0.0000 0.0000 21.8621 0.0000 0.0000
# 5 0.0000 0.0000 0.0000 0.0000 25.2380 0.0000
# 6 0.0000 0.0000 0.0000 0.0000 0.0000 24.0893
#
#
#
# Elastic Compliance Matrix: (Units=1/GPa)
#
#
# Indices 1 2 3 4 5 6 
#
# 1 0.012842 -0.002241 -0.002586 0.000000 0.000000 0.000000
# 2 -0.002241 0.015255 -0.003639 0.000000 0.000000 0.000000
# 3 -0.002586 -0.003639 0.008610 0.000000 0.000000 0.000000
# 4 0.000000 0.000000 0.000000 0.045741 0.000000 0.000000
# 5 0.000000 0.000000 0.000000 0.000000 0.039623 0.000000
# 6 0.000000 0.000000 0.000000 0.000000 0.000000 0.041512
#
#
# Mechanical properties :
#
#
# Convention : Reuss Voigt Hill
#
# Bulk Modulus (GPa) = 50.56965 56.05146 53.31055
# Shear Modulus (GPa) = 26.72258 28.48288 27.60273
#
# Velocity S-wave (km/s) = 3.62781 3.74539 3.68707
# Velocity P-wave (km/s) = 6.51566 6.80512 6.66196
#
# Compressibility (1/GPa) = 0.01977471
#
# Stress axis : x y z
#
# Youngs Moduli (GPa) = 77.86987 65.55107 116.14286
#
# Poissons Ratio (x) = 0.14690 0.30039
# Poissons Ratio (y) = 0.17451 0.42263
# Poissons Ratio (z) = 0.20140 0.23853
#
# Static dielectric constant tensor:
#      x y z
#    x 1.936110 0.000000 0.000000 
#    y 0.000000 1.747170 0.000000 
#    z 0.000000 0.000000 1.731810 
# 
# From -- ./inp_files/21572.got.cif
#   From: 2010.05.17/outbox.cif.g08.bks.cpg/sg48_11_cif.got.tgz:21572.got - 2010.06.03 20:39:00.
