data_PCOD9391349
_publ_section_title
;
Structure prediction by ZEFSAII (Michael W. Deem and Ramdas Pophale) SiO2 
 PCOD9391349
Probable space group: P N N N
;
_chemical_formula_sum "Si O2"
_cell_formula_units_Z 64
_cell_length_a 19.109621
_cell_length_b 13.744147
_cell_length_c 12.361751
_cell_angle_alpha 90.000000
_cell_angle_beta 90.000000
_cell_angle_gamma 90.000000
_cell_volume 3246.757532
_symmetry_space_group_name_H-M "P N N N"
_symmetry_group_IT_number 48
_space_group.IT_coordinate_system_code '2'
_symmetry_cell_setting 'orthorhombic'
loop_
_space_group_symop_operation_xyz
x,y,z
1/2-x,1/2-y,z
x,1/2-y,1/2-z
1/2-x,y,1/2-z
-x,-y,-z
1/2+x,1/2+y,-z
-x,1/2+y,1/2+z
1/2+x,-y,1/2+z
loop_
_atom_site_type_symbol
_atom_site_label
_atom_site_fract_x
_atom_site_fract_y
_atom_site_fract_z
Si Si1 0.458817 0.354221 0.198828
Si Si2 0.206711 0.973077 0.942850
Si Si3 0.563267 0.573053 0.023867
Si Si4 0.543429 0.639059 0.269508
Si Si5 0.144273 0.465407 0.913663
Si Si6 0.124381 0.865305 0.754386
Si Si7 0.086518 0.522571 0.143554
Si Si8 0.224587 0.861037 0.361311
O O1 0.443673 0.250000 0.250000
O O2 0.542454 0.373911 0.212611
O O3 0.416634 0.440119 0.261637
O O4 0.443529 0.348833 0.071277
O O5 0.177092 0.914113 0.840178
O O6 0.138760 0.025244 0.989201
O O7 0.271912 0.043434 0.919150
O O8 0.239296 0.903955 0.033470
O O9 0.554967 0.601634 0.148043
O O10 0.500000 0.500000 0.000000
O O11 0.523029 0.750000 0.250000
O O12 0.612933 0.618548 0.338273
O O13 0.486306 0.577687 0.336352
O O14 0.131868 0.570410 0.854262
O O15 0.104962 0.470250 0.029550
O O16 0.139541 0.750000 0.750000
O O17 0.143426 0.610065 0.142599
O O18 0.250000 0.750000 0.359088
O O19 0.250000 0.909163 0.250000
#
# Coordination Sequence:
#
# PCOD9391349 Si02
#       8
#     8   8   8   8   8   8   8   8
#     4  11  24  42  70 101 130 172 229 278 329 392
#     4  11  23  40  67  88 136 176 218 277 334 397
#     4  12  22  44  68  94 128 172 227 276 332 391
#     4  12  27  41  68 100 129 180 225 282 337 397
#     4  11  24  44  62  97 138 176 221 271 344 400
#     4  11  23  38  67 101 131 174 217 276 333 399
#     4  11  23  43  67  94 138 178 213 277 333 401
#     4  10  24  39  62  98 136 171 213 268 341 406
#
# _framework density 19.711974000000001
#
# number of rings (size 3 to 8) (size 9 to 14) (size 15 to 20)
#    0.000    0.875    5.000    1.500    7.000    1.500 
#    0.000    1.250    0.000    4.875    0.000    0.000 
#    0.000    0.000    0.000    0.000    0.000    0.000 
#
# Total GULP energy -356898.299934 kJ/mol
# GULP energy per Si atom -5576.535936 kJ/mol
# Density = 1.966711 g / cm^3
# Si number density = 19.711974 Si / 1000 Ang^3
#
#
#
# Elastic Constant Matrix: (Units=GPa)
#
#
# Indices 1 2 3 4 5 6 
#
# 1 120.9885 19.2596 36.3891 0.0000 0.0000 0.0000
# 2 19.2596 41.8969 -6.0439 0.0000 0.0000 0.0000
# 3 36.3891 -6.0439 98.2561 0.0000 0.0000 0.0000
# 4 0.0000 0.0000 0.0000 16.7044 0.0000 0.0000
# 5 0.0000 0.0000 0.0000 0.0000 32.9178 0.0000
# 6 0.0000 0.0000 0.0000 0.0000 0.0000 -8.5294
#
#
#
# Elastic Compliance Matrix: (Units=1/GPa)
#
#
# Indices 1 2 3 4 5 6 
#
# 1 0.010375 -0.005371 -0.004173 0.000000 0.000000 0.000000
# 2 -0.005371 0.026863 0.003642 0.000000 0.000000 0.000000
# 3 -0.004173 0.003642 0.011947 0.000000 0.000000 0.000000
# 4 0.000000 0.000000 0.000000 0.059864 0.000000 0.000000
# 5 0.000000 0.000000 0.000000 0.000000 0.030379 0.000000
# 6 0.000000 0.000000 0.000000 0.000000 0.000000 -0.117241
#
#
# Mechanical properties :
#
#
# Convention : Reuss Voigt Hill
#
# Bulk Modulus (GPa) = 26.75260 40.03901 33.39580
# Shear Modulus (GPa) = 107.63758 22.32100 64.97929
#
# Velocity S-wave (km/s) = 7.39755 3.36870 5.74769
# Velocity P-wave (km/s) = 9.30409 5.95710 7.81195
#
# Compressibility (1/GPa) = 0.03737955
#
# Stress axis : x y z
#
# Youngs Moduli (GPa) = 96.38214 37.22649 83.70355
#
# Poissons Ratio (x) = 0.19996 0.34929
# Poissons Ratio (y) = 0.51771 -0.30482
# Poissons Ratio (z) = 0.40219 -0.13557
#
# Static dielectric constant tensor:
#      x y z
#    x 1.724890 0.000000 0.000000 
#    y 0.000000 1.735090 0.000000 
#    z 0.000000 0.000000 1.728650 
# 
# From -- ./inp_files/22354.got.cif
#   From: 2010.05.17/outbox.cif.g08.bks.cpg/sg48_12_cif.got.tgz:22354.got - 2010.06.03 20:39:00.
