data_PCOD9391294
_publ_section_title
;
Structure prediction by ZEFSAII (Michael W. Deem and Ramdas Pophale) SiO2 
 PCOD9391294
Probable space group: P N N N
;
_chemical_formula_sum "Si O2"
_cell_formula_units_Z 38
_cell_length_a 24.724110
_cell_length_b 5.244058
_cell_length_c 12.900595
_cell_angle_alpha 90.000000
_cell_angle_beta 90.000000
_cell_angle_gamma 90.000000
_cell_volume 1672.622347
_symmetry_space_group_name_H-M "P N N N"
_symmetry_group_IT_number 48
_space_group.IT_coordinate_system_code '2'
_symmetry_cell_setting 'orthorhombic'
loop_
_space_group_symop_operation_xyz
x,y,z
1/2-x,1/2-y,z
x,1/2-y,1/2-z
1/2-x,y,1/2-z
-x,-y,-z
1/2+x,1/2+y,-z
-x,1/2+y,1/2+z
1/2+x,-y,1/2+z
loop_
_atom_site_type_symbol
_atom_site_label
_atom_site_fract_x
_atom_site_fract_y
_atom_site_fract_z
Si Si1 0.166496 0.613174 0.859929
Si Si2 0.315157 0.496761 0.322262
Si Si3 0.250000 0.250000 0.750000
Si Si4 0.948795 0.999464 0.322927
Si Si5 0.750000 0.250000 0.986507
Si Si6 0.434092 0.500029 0.322376
O O1 0.159409 0.750000 0.750000
O O2 0.210319 0.401550 0.827461
O O3 0.106484 0.519518 0.887903
O O4 0.197477 0.791664 0.941694
O O5 0.312615 0.750000 0.250000
O O6 0.229752 0.528324 0.089805
O O7 0.375024 0.494261 0.373489
O O8 0.310199 0.250000 0.250000
O O9 0.943553 0.750000 0.250000
O O10 0.007575 0.990136 0.377729
O O11 0.951509 0.250000 0.250000
O O12 0.433947 0.750000 0.250000
O O13 0.434268 0.250000 0.250000
#
# Coordination Sequence:
#
# PCOD9391294 Si02
#       6
#     8   8   2   8   4   8
#     4  11  22  38  55  92 130 164 207 255 305 385
#     4  10  23  43  62  87 122 161 215 272 311 365
#     4  12  18  36  60  78 134 168 202 246 302 364
#     4   9  17  31  56  85 116 160 203 248 310 368
#     4  12  24  40  62  92 126 174 212 252 324 376
#     4   8  15  32  58  82 110 155 206 255 313 361
#
# _framework density 22.718817999999999
#
# number of rings (size 3 to 8) (size 9 to 14) (size 15 to 20)
#    0.000    2.105    3.158    0.316    0.000    3.368 
#    0.000    1.053    0.000    0.000    0.000   23.579 
#    0.000    0.000    0.000    0.632    0.000    0.000 
#
# Total GULP energy -211767.024557 kJ/mol
# GULP energy per Si atom -5572.816436 kJ/mol
# Density = 2.266711 g / cm^3
# Si number density = 22.718818 Si / 1000 Ang^3
#
#
#
# Elastic Constant Matrix: (Units=GPa)
#
#
# Indices 1 2 3 4 5 6 
#
# 1 261.5959 26.7774 54.1522 0.0000 0.0000 0.0000
# 2 26.7774 134.8501 32.2933 0.0000 0.0000 0.0000
# 3 54.1522 32.2933 95.2358 0.0000 0.0000 0.0000
# 4 0.0000 0.0000 0.0000 6.4939 0.0000 0.0000
# 5 0.0000 0.0000 0.0000 0.0000 -290.1313 0.0000
# 6 0.0000 0.0000 0.0000 0.0000 0.0000 29.0305
#
#
#
# Elastic Compliance Matrix: (Units=1/GPa)
#
#
# Indices 1 2 3 4 5 6 
#
# 1 0.004343 -0.000295 -0.002370 0.000000 0.000000 0.000000
# 2 -0.000295 0.008091 -0.002576 0.000000 0.000000 0.000000
# 3 -0.002370 -0.002576 0.012721 0.000000 0.000000 0.000000
# 4 0.000000 0.000000 0.000000 0.153990 0.000000 0.000000
# 5 0.000000 0.000000 0.000000 0.000000 -0.003447 0.000000
# 6 0.000000 0.000000 0.000000 0.000000 0.000000 0.034447
#
#
# Mechanical properties :
#
#
# Convention : Reuss Voigt Hill
#
# Bulk Modulus (GPa) = 68.14516 79.79196 73.96856
# Shear Modulus (GPa) = 22.17117 -25.69078 -1.75981
#
# Velocity S-wave (km/s) = 3.12732 -3.36641 -0.88107
# Velocity P-wave (km/s) = 6.56508 4.48191 5.62085
#
# Compressibility (1/GPa) = 0.01467456
#
# Stress axis : x y z
#
# Youngs Moduli (GPa) = 230.23279 123.59304 78.60938
#
# Poissons Ratio (x) = 0.03646 0.18628
# Poissons Ratio (y) = 0.06792 0.20249
# Poissons Ratio (z) = 0.54558 0.31836
#
# Static dielectric constant tensor:
#      x y z
#    x 1.981810 0.000000 0.000000 
#    y 0.000000 1.850600 0.000000 
#    z 0.000000 0.000000 1.853410 
# 
# From -- ./inp_files/23549.got.cif
#   From: 2010.05.17/outbox.cif.g08.bks.cpg/sg48_12_cif.got.tgz:23549.got - 2010.06.03 20:39:00.
