data_PCOD9391982
_publ_section_title
;
Structure prediction by ZEFSAII (Michael W. Deem and Ramdas Pophale) SiO2 
 PCOD9391982
Probable space group: P C C M
;
_chemical_formula_sum "Si O2"
_cell_formula_units_Z 48
_cell_length_a 33.014448
_cell_length_b 9.240687
_cell_length_c 8.607706
_cell_angle_alpha 90.000000
_cell_angle_beta 90.000000
_cell_angle_gamma 90.000000
_cell_volume 2626.006069
_symmetry_space_group_name_H-M "P C C M"
_symmetry_group_IT_number 49
_symmetry_cell_setting 'orthorhombic'
loop_
_space_group_symop_operation_xyz
x,y,z
-x,-y,z
x,-y,1/2-z
-x,y,1/2-z
-x,-y,-z
x,y,-z
-x,y,1/2+z
x,-y,1/2+z
loop_
_atom_site_type_symbol
_atom_site_label
_atom_site_fract_x
_atom_site_fract_y
_atom_site_fract_z
Si Si1 0.958289 0.665352 0.814808
Si Si2 0.377405 0.161337 0.813770
Si Si3 0.874949 0.665492 0.686937
Si Si4 0.457117 0.337320 0.186412
Si Si5 0.212652 0.664003 0.812974
Si Si6 0.698833 0.663885 0.686838
O O1 0.957788 0.500000 0.750000
O O2 0.915912 0.732209 0.756815
O O3 0.000000 0.731719 0.750000
O O4 0.959378 0.660545 0.000000
O O5 0.418459 0.243768 0.764981
O O6 0.338078 0.244602 0.752224
O O7 0.377735 0.000000 0.750000
O O8 0.376299 0.160015 0.000000
O O9 0.873635 0.500000 0.750000
O O10 0.878406 0.662361 0.500000
O O11 0.830956 0.730287 0.732613
O O12 0.452348 0.500000 0.250000
O O13 0.500000 0.280448 0.250000
O O14 0.458916 0.342408 0.000000
O O15 0.212814 0.500000 0.750000
O O16 0.256555 0.725078 0.766402
O O17 0.212314 0.658026 0.000000
O O18 0.695941 0.500000 0.750000
O O19 0.696733 0.660437 0.500000
#
# Coordination Sequence:
#
# PCOD9391982 Si02
#       6
#     8   8   8   8   8   8
#     4  10  16  21  27  37  55  84 123 166 213 265
#     4  11  24  39  55  78 106 139 173 210 254 301
#     4   9  14  21  31  45  66  92 125 169 218 267
#     4  10  21  37  59  84 109 137 172 209 250 294
#     4   8  15  25  39  59  82 108 141 183 232 279
#     4  10  19  33  53  76 101 131 167 208 250 299
#
# _framework density 18.278708000000002
#
# number of rings (size 3 to 8) (size 9 to 14) (size 15 to 20)
#    0.000    2.333    0.000    6.000    0.000    5.667 
#    0.000    1.667    0.000    0.000    0.000    0.000 
#    0.000    0.000    0.000    0.000    0.000    0.833 
#
# Total GULP energy -267438.132692 kJ/mol
# GULP energy per Si atom -5571.627764 kJ/mol
# Density = 1.823710 g / cm^3
# Si number density = 18.278708 Si / 1000 Ang^3
#
#
#
# Elastic Constant Matrix: (Units=GPa)
#
#
# Indices 1 2 3 4 5 6 
#
# 1 252.3438 58.2746 61.9479 0.0000 0.0000 0.0000
# 2 58.2746 33.4886 16.0018 0.0000 0.0000 0.0000
# 3 61.9479 16.0018 75.2131 0.0000 0.0000 0.0000
# 4 0.0000 0.0000 0.0000 12.8731 0.0000 0.0000
# 5 0.0000 0.0000 0.0000 0.0000 31.4797 0.0000
# 6 0.0000 0.0000 0.0000 0.0000 0.0000 -6.0732
#
#
#
# Elastic Compliance Matrix: (Units=1/GPa)
#
#
# Indices 1 2 3 4 5 6 
#
# 1 0.007478 -0.011209 -0.003774 0.000000 0.000000 0.000000
# 2 -0.011209 0.050042 -0.001414 0.000000 0.000000 0.000000
# 3 -0.003774 -0.001414 0.016705 0.000000 0.000000 0.000000
# 4 0.000000 0.000000 0.000000 0.077681 0.000000 0.000000
# 5 0.000000 0.000000 0.000000 0.000000 0.031766 0.000000
# 6 0.000000 0.000000 0.000000 0.000000 0.000000 -0.164657
#
#
# Mechanical properties :
#
#
# Convention : Reuss Voigt Hill
#
# Bulk Modulus (GPa) = 24.13735 70.38823 47.26279
# Shear Modulus (GPa) = 76.19399 22.64399 49.41899
#
# Velocity S-wave (km/s) = 6.46336 3.52350 5.20529
# Velocity P-wave (km/s) = 8.30264 7.42599 7.87652
#
# Compressibility (1/GPa) = 0.04142958
#
# Stress axis : x y z
#
# Youngs Moduli (GPa) = 133.72577 19.98313 59.86186
#
# Poissons Ratio (x) = 0.22400 0.22594
# Poissons Ratio (y) = 1.49896 0.08466
# Poissons Ratio (z) = 0.50473 0.02826
#
# Static dielectric constant tensor:
#      x y z
#    x 1.720980 0.000000 0.000000 
#    y 0.000000 1.609480 0.000000 
#    z 0.000000 0.000000 1.622530 
# 
# From -- ./inp_files/2035.got.cif
#   From: 2010.05.17/outbox.cif.g08.bks.cpg/sg49_2_cif.got.tgz:2035.got - 2010.06.03 21:02:19.
