data_PCOD9391547
_publ_section_title
;
Structure prediction by ZEFSAII (Michael W. Deem and Ramdas Pophale) SiO2 
 PCOD9391547
Probable space group: P N N N
;
_chemical_formula_sum "Si O2"
_cell_formula_units_Z 56
_cell_length_a 9.230466
_cell_length_b 19.338971
_cell_length_c 15.741713
_cell_angle_alpha 90.000000
_cell_angle_beta 90.000000
_cell_angle_gamma 90.000000
_cell_volume 2810.017207
_symmetry_space_group_name_H-M "P N N N"
_symmetry_group_IT_number 48
_space_group.IT_coordinate_system_code '2'
_symmetry_cell_setting 'orthorhombic'
loop_
_space_group_symop_operation_xyz
x,y,z
1/2-x,1/2-y,z
x,1/2-y,1/2-z
1/2-x,y,1/2-z
-x,-y,-z
1/2+x,1/2+y,-z
-x,1/2+y,1/2+z
1/2+x,-y,1/2+z
loop_
_atom_site_type_symbol
_atom_site_label
_atom_site_fract_x
_atom_site_fract_y
_atom_site_fract_z
Si Si1 0.648438 0.477885 0.456832
Si Si2 0.061984 0.848310 0.305826
Si Si3 0.701197 0.417796 0.899963
Si Si4 0.091976 0.493441 0.779846
Si Si5 0.093678 0.277171 0.642216
Si Si6 0.885143 0.599310 0.480703
Si Si7 0.650225 0.936860 0.672948
O O1 0.500000 0.500000 0.500000
O O2 0.710148 0.416462 0.513217
O O3 0.616145 0.458901 0.361069
O O4 0.763522 0.541927 0.457170
O O5 0.228567 0.861988 0.336000
O O6 0.991481 0.924213 0.308421
O O7 0.001469 0.791454 0.371542
O O8 0.994918 0.818949 0.216140
O O9 0.536821 0.421789 0.934711
O O10 0.728618 0.491791 0.855656
O O11 0.250000 0.470786 0.750000
O O12 0.000130 0.535599 0.711806
O O13 0.250000 0.250000 0.668768
O O14 0.130257 0.326404 0.563215
O O15 0.880389 0.601814 0.583680
O O16 0.750000 0.906963 0.750000
#
# Coordination Sequence:
#
# PCOD9391547 Si02
#       7
#     8   8   8   8   8   8   8
#     4  11  20  36  57  90 119 162 211 260 329 398
#     4  11  21  37  59  89 128 170 217 254 339 403
#     4  11  22  38  59  90 132 166 205 264 340 418
#     4  12  20  33  59  88 123 158 204 263 323 394
#     4  11  24  40  61  89 126 175 227 280 325 413
#     4  11  24  40  60  88 134 176 219 271 336 410
#     4  11  21  39  59  92 128 171 209 271 341 406
#
# _framework density 19.928702000000001
#
# number of rings (size 3 to 8) (size 9 to 14) (size 15 to 20)
#    0.000    0.857    2.857    8.571    0.000    0.571 
#    0.000    2.857    0.000    0.429    0.000    0.000 
#    4.286    0.000    0.000    0.000    0.000    0.000 
#
# Total GULP energy -311942.622558 kJ/mol
# GULP energy per Si atom -5570.403974 kJ/mol
# Density = 1.988334 g / cm^3
# Si number density = 19.928702 Si / 1000 Ang^3
#
#
#
# Elastic Constant Matrix: (Units=GPa)
#
#
# Indices 1 2 3 4 5 6 
#
# 1 151.7560 37.2918 47.8224 0.0000 0.0000 0.0000
# 2 37.2918 60.7487 56.4016 0.0000 0.0000 0.0000
# 3 47.8224 56.4016 162.4993 0.0000 0.0000 0.0000
# 4 0.0000 0.0000 0.0000 3.1854 0.0000 0.0000
# 5 0.0000 0.0000 0.0000 0.0000 38.8484 0.0000
# 6 0.0000 0.0000 0.0000 0.0000 0.0000 24.6845
#
#
#
# Elastic Compliance Matrix: (Units=1/GPa)
#
#
# Indices 1 2 3 4 5 6 
#
# 1 0.007857 -0.003949 -0.000942 0.000000 0.000000 0.000000
# 2 -0.003949 0.026273 -0.007957 0.000000 0.000000 0.000000
# 3 -0.000942 -0.007957 0.009193 0.000000 0.000000 0.000000
# 4 0.000000 0.000000 0.000000 0.313937 0.000000 0.000000
# 5 0.000000 0.000000 0.000000 0.000000 0.025741 0.000000
# 6 0.000000 0.000000 0.000000 0.000000 0.000000 0.040511
#
#
# Mechanical properties :
#
#
# Convention : Reuss Voigt Hill
#
# Bulk Modulus (GPa) = 56.72892 73.11505 64.92199
# Shear Modulus (GPa) = 10.98704 28.90954 19.94829
#
# Velocity S-wave (km/s) = 2.35056 3.81287 3.16726
# Velocity P-wave (km/s) = 5.99121 7.49346 6.78404
#
# Compressibility (1/GPa) = 0.01762769
#
# Stress axis : x y z
#
# Youngs Moduli (GPa) = 127.28184 38.06222 108.78179
#
# Poissons Ratio (x) = 0.15030 0.10243
# Poissons Ratio (y) = 0.50260 0.86556
# Poissons Ratio (z) = 0.11985 0.30286
#
# Static dielectric constant tensor:
#      x y z
#    x 1.783660 0.000000 0.000000 
#    y 0.000000 1.707690 0.000000 
#    z 0.000000 0.000000 1.923560 
# 
# From -- ./inp_files/25617.got.cif
#   From: 2010.05.17/outbox.cif.g08.bks.cpg/sg48_13_cif.got.tgz:25617.got - 2010.06.03 20:39:00.
