data_PCOD9391085
_publ_section_title
;
Structure prediction by ZEFSAII (Michael W. Deem and Ramdas Pophale) SiO2 
 PCOD9391085
Probable space group: P N N N
;
_chemical_formula_sum "Si O2"
_cell_formula_units_Z 40
_cell_length_a 7.610943
_cell_length_b 15.983890
_cell_length_c 13.710547
_cell_angle_alpha 90.000000
_cell_angle_beta 90.000000
_cell_angle_gamma 90.000000
_cell_volume 1667.921986
_symmetry_space_group_name_H-M "P N N N"
_symmetry_group_IT_number 48
_space_group.IT_coordinate_system_code '2'
_symmetry_cell_setting 'orthorhombic'
loop_
_space_group_symop_operation_xyz
x,y,z
1/2-x,1/2-y,z
x,1/2-y,1/2-z
1/2-x,y,1/2-z
-x,-y,-z
1/2+x,1/2+y,-z
-x,1/2+y,1/2+z
1/2+x,-y,1/2+z
loop_
_atom_site_type_symbol
_atom_site_label
_atom_site_fract_x
_atom_site_fract_y
_atom_site_fract_z
Si Si1 0.907468 0.884745 0.836176
Si Si2 0.551860 0.548964 0.226240
Si Si3 0.454987 0.271447 0.430968
Si Si4 0.081883 0.043360 0.408340
Si Si5 0.949143 0.218463 0.852980
O O1 0.750000 0.875981 0.750000
O O2 0.020916 0.804056 0.864064
O O3 0.782924 0.926350 0.919313
O O4 0.047089 0.957026 0.817950
O O5 0.750000 0.574382 0.250000
O O6 0.441223 0.526154 0.323772
O O7 0.466171 0.618834 0.158013
O O8 0.250000 0.250000 0.411263
O O9 0.508402 0.364303 0.399351
O O10 0.478514 0.254649 0.545796
O O11 0.000000 0.000000 0.500000
O O12 0.750000 0.250000 0.852536
O O13 0.029765 0.250000 0.750000
#
# Coordination Sequence:
#
# PCOD9391085 Si02
#       5
#     8   8   8   8   8
#     4   9  22  43  68  96 138 179 238 289 355 417
#     4  11  26  42  66  99 136 184 229 291 349 425
#     4  10  23  42  69 103 130 185 238 294 348 426
#     4  10  22  40  69  93 136 180 236 283 354 416
#     4  11  27  42  66  97 140 181 232 284 362 418
#
# _framework density 23.981936999999999
#
# number of rings (size 3 to 8) (size 9 to 14) (size 15 to 20)
#    0.000    1.800    0.000    1.200   19.600   11.600 
#    0.000    1.000    0.000    0.000    0.000    0.000 
#    0.000    0.000    0.000    0.000    0.000    0.000 
#
# Total GULP energy -222756.512749 kJ/mol
# GULP energy per Si atom -5568.912819 kJ/mol
# Density = 2.392735 g / cm^3
# Si number density = 23.981937 Si / 1000 Ang^3
#
#
#
# Elastic Constant Matrix: (Units=GPa)
#
#
# Indices 1 2 3 4 5 6 
#
# 1 53.3522 25.4366 -6.4168 0.0000 0.0000 0.0000
# 2 25.4366 119.0495 22.2138 0.0000 0.0000 0.0000
# 3 -6.4168 22.2138 45.6177 0.0000 0.0000 0.0000
# 4 0.0000 0.0000 0.0000 50.9143 0.0000 0.0000
# 5 0.0000 0.0000 0.0000 0.0000 23.5352 0.0000
# 6 0.0000 0.0000 0.0000 0.0000 0.0000 8.1485
#
#
#
# Elastic Compliance Matrix: (Units=1/GPa)
#
#
# Indices 1 2 3 4 5 6 
#
# 1 0.022265 -0.005876 0.005993 0.000000 0.000000 0.000000
# 2 -0.005876 0.010790 -0.006081 0.000000 0.000000 0.000000
# 3 0.005993 -0.006081 0.025725 0.000000 0.000000 0.000000
# 4 0.000000 0.000000 0.000000 0.019641 0.000000 0.000000
# 5 0.000000 0.000000 0.000000 0.000000 0.042490 0.000000
# 6 0.000000 0.000000 0.000000 0.000000 0.000000 0.122722
#
#
# Mechanical properties :
#
#
# Convention : Reuss Voigt Hill
#
# Bulk Modulus (GPa) = 21.34271 33.38738 27.36505
# Shear Modulus (GPa) = 18.43811 28.30532 23.37172
#
# Velocity S-wave (km/s) = 2.77579 3.43924 3.12517
# Velocity P-wave (km/s) = 4.38089 5.45191 4.94548
#
# Compressibility (1/GPa) = 0.04685440
#
# Stress axis : x y z
#
# Youngs Moduli (GPa) = 44.91263 92.67948 38.87214
#
# Poissons Ratio (x) = 0.54455 -0.23297
# Poissons Ratio (y) = 0.26389 0.23637
# Poissons Ratio (z) = -0.26917 0.56355
#
# Static dielectric constant tensor:
#      x y z
#    x 2.009920 0.000000 0.000000 
#    y 0.000000 2.199630 0.000000 
#    z 0.000000 0.000000 2.081060 
# 
# From -- ./inp_files/12345.got.cif
#   From: 2010.05.17/outbox.cif.g08.bks.cpg/sg48_7_cif.got.tgz:12345.got - 2010.06.03 20:39:00.
