data_PCOD9391666
_publ_section_title
;
Structure prediction by ZEFSAII (Michael W. Deem and Ramdas Pophale) SiO2 
 PCOD9391666
Probable space group: P N N N
;
_chemical_formula_sum "Si O2"
_cell_formula_units_Z 40
_cell_length_a 8.471627
_cell_length_b 14.547438
_cell_length_c 14.881598
_cell_angle_alpha 90.000000
_cell_angle_beta 90.000000
_cell_angle_gamma 90.000000
_cell_volume 1834.015110
_symmetry_space_group_name_H-M "P N N N"
_symmetry_group_IT_number 48
_space_group.IT_coordinate_system_code '2'
_symmetry_cell_setting 'orthorhombic'
loop_
_space_group_symop_operation_xyz
x,y,z
1/2-x,1/2-y,z
x,1/2-y,1/2-z
1/2-x,y,1/2-z
-x,-y,-z
1/2+x,1/2+y,-z
-x,1/2+y,1/2+z
1/2+x,-y,1/2+z
loop_
_atom_site_type_symbol
_atom_site_label
_atom_site_fract_x
_atom_site_fract_y
_atom_site_fract_z
Si Si1 0.934167 0.042668 0.592451
Si Si2 0.063052 0.927970 0.073432
Si Si3 0.068208 0.532130 0.725320
Si Si4 0.933288 0.730941 0.031716
Si Si5 0.934564 0.225149 0.147358
O O1 0.746497 0.051778 0.587872
O O2 0.008026 0.145242 0.590024
O O3 0.000000 0.000000 0.500000
O O4 0.980619 0.983631 0.680153
O O5 0.035163 0.822841 0.046905
O O6 0.966934 0.944100 0.164915
O O7 0.000000 0.000000 0.000000
O O8 0.250000 0.544985 0.750000
O O9 0.030066 0.616506 0.657368
O O10 0.750000 0.750000 0.048035
O O11 0.962866 0.719227 0.924483
O O12 0.750000 0.250000 0.129026
O O13 0.966116 0.250000 0.250000
#
# Coordination Sequence:
#
# PCOD9391666 Si02
#       5
#     8   8   8   8   8
#     4  12  27  46  71 104 146 192 241 296 367 428
#     4  12  25  47  71 103 147 190 243 300 358 433
#     4  12  24  44  72 105 144 186 238 297 360 432
#     4  12  26  46  72 104 141 189 243 300 361 434
#     4  11  22  41  68 102 140 183 235 292 362 421
#
# _framework density 21.810072000000002
#
# number of rings (size 3 to 8) (size 9 to 14) (size 15 to 20)
#    0.000    0.200    4.000    7.200    0.000    1.200 
#    3.600    4.000    0.000    0.000    0.000    0.000 
#    0.000    0.000    0.000    0.000    0.000    0.000 
#
# Total GULP energy -223566.106275 kJ/mol
# GULP energy per Si atom -5589.152657 kJ/mol
# Density = 2.176043 g / cm^3
# Si number density = 21.810072 Si / 1000 Ang^3
#
#
#
# Elastic Constant Matrix: (Units=GPa)
#
#
# Indices 1 2 3 4 5 6 
#
# 1 89.8690 17.1367 3.2984 0.0000 0.0000 0.0000
# 2 17.1367 101.9811 20.4077 0.0000 0.0000 0.0000
# 3 3.2984 20.4077 80.9357 0.0000 0.0000 0.0000
# 4 0.0000 0.0000 0.0000 21.6584 0.0000 0.0000
# 5 0.0000 0.0000 0.0000 0.0000 31.6969 0.0000
# 6 0.0000 0.0000 0.0000 0.0000 0.0000 31.1453
#
#
#
# Elastic Compliance Matrix: (Units=1/GPa)
#
#
# Indices 1 2 3 4 5 6 
#
# 1 0.011496 -0.001936 0.000020 0.000000 0.000000 0.000000
# 2 -0.001936 0.010653 -0.002607 0.000000 0.000000 0.000000
# 3 0.000020 -0.002607 0.013012 0.000000 0.000000 0.000000
# 4 0.000000 0.000000 0.000000 0.046172 0.000000 0.000000
# 5 0.000000 0.000000 0.000000 0.000000 0.031549 0.000000
# 6 0.000000 0.000000 0.000000 0.000000 0.000000 0.032108
#
#
# Mechanical properties :
#
#
# Convention : Reuss Voigt Hill
#
# Bulk Modulus (GPa) = 38.29358 39.38571 38.83965
# Shear Modulus (GPa) = 30.72395 32.36299 31.54347
#
# Velocity S-wave (km/s) = 3.75734 3.85626 3.80712
# Velocity P-wave (km/s) = 6.03485 6.15836 6.09692
#
# Compressibility (1/GPa) = 0.02611404
#
# Stress axis : x y z
#
# Youngs Moduli (GPa) = 86.98919 93.87273 76.85167
#
# Poissons Ratio (x) = 0.18170 -0.00150
# Poissons Ratio (y) = 0.16838 0.20036
# Poissons Ratio (z) = -0.00170 0.24474
#
# Static dielectric constant tensor:
#      x y z
#    x 1.747600 0.000000 0.000000 
#    y 0.000000 2.314210 0.000000 
#    z 0.000000 0.000000 1.874370 
# 
# From -- ./inp_files/12342.got.cif
#   From: 2010.05.17/outbox.cif.g08.bks.cpg/sg48_7_cif.got.tgz:12342.got - 2010.06.03 20:39:00.
