data_PCOD9391447
_publ_section_title
;
Structure prediction by ZEFSAII (Michael W. Deem and Ramdas Pophale) SiO2 
 PCOD9391447
Probable space group: P N N N
;
_chemical_formula_sum "Si O2"
_cell_formula_units_Z 58
_cell_length_a 26.209342
_cell_length_b 5.329587
_cell_length_c 18.184018
_cell_angle_alpha 90.000000
_cell_angle_beta 90.000000
_cell_angle_gamma 90.000000
_cell_volume 2540.033980
_symmetry_space_group_name_H-M "P N N N"
_symmetry_group_IT_number 48
_space_group.IT_coordinate_system_code '2'
_symmetry_cell_setting 'orthorhombic'
loop_
_space_group_symop_operation_xyz
x,y,z
1/2-x,1/2-y,z
x,1/2-y,1/2-z
1/2-x,y,1/2-z
-x,-y,-z
1/2+x,1/2+y,-z
-x,1/2+y,1/2+z
1/2+x,-y,1/2+z
loop_
_atom_site_type_symbol
_atom_site_label
_atom_site_fract_x
_atom_site_fract_y
_atom_site_fract_z
Si Si1 0.683109 0.973652 0.130100
Si Si2 0.127601 0.807443 0.068282
Si Si3 0.971564 0.001072 0.575577
Si Si4 0.075886 0.400293 0.323741
Si Si5 0.031500 0.178842 0.825650
Si Si6 0.750000 0.250000 0.250000
Si Si7 0.874417 0.471453 0.405570
Si Si8 0.779969 0.502941 0.965567
O O1 0.716764 0.067472 0.197896
O O2 0.641042 0.194187 0.120826
O O3 0.715048 0.984111 0.054158
O O4 0.658666 0.696268 0.130840
O O5 0.069452 0.718772 0.064443
O O6 0.124745 0.946312 0.146466
O O7 0.163970 0.564823 0.064563
O O8 0.136885 0.967693 0.993672
O O9 0.013813 0.067868 0.635488
O O10 0.940101 0.771186 0.607105
O O11 0.000000 0.000000 0.500000
O O12 0.088171 0.250000 0.250000
O O13 0.022465 0.544918 0.307396
O O14 0.058936 0.250000 0.750000
O O15 0.067761 0.029997 0.881437
O O16 0.750000 0.250000 0.946496
O O17 0.750000 0.750000 0.940318
#
# Coordination Sequence:
#
# PCOD9391447 Si02
#       8
#     8   8   8   8   8   2   8   8
#     4  11  27  44  68  97 141 189 248 302 362 429
#     4  10  25  42  70 106 141 185 245 302 370 445
#     4  11  23  40  69  99 141 196 237 302 354 442
#     4  11  23  42  68 102 148 195 235 297 369 455
#     4  11  24  40  60  97 143 193 247 297 359 434
#     4  12  28  50  68 102 144 210 242 306 364 446
#     4  11  26  44  67 102 140 190 254 306 358 418
#     4  11  23  44  70 103 137 178 235 312 367 429
#
# _framework density 22.834340999999998
#
# number of rings (size 3 to 8) (size 9 to 14) (size 15 to 20)
#    0.000    1.103    2.069    3.310   13.517    2.759 
#    0.000    0.000    0.000    0.000    0.000    2.897 
#    2.069    0.000    0.000    0.000    0.000    0.000 
#
# Total GULP energy -324091.573642 kJ/mol
# GULP energy per Si atom -5587.785752 kJ/mol
# Density = 2.278237 g / cm^3
# Si number density = 22.834341 Si / 1000 Ang^3
#
#
#
# Elastic Constant Matrix: (Units=GPa)
#
#
# Indices 1 2 3 4 5 6 
#
# 1 79.2259 37.7868 35.7353 0.0000 0.0000 0.0000
# 2 37.7868 116.4120 35.2605 0.0000 0.0000 0.0000
# 3 35.7353 35.2605 97.7002 0.0000 0.0000 0.0000
# 4 0.0000 0.0000 0.0000 29.5821 0.0000 0.0000
# 5 0.0000 0.0000 0.0000 0.0000 25.9458 0.0000
# 6 0.0000 0.0000 0.0000 0.0000 0.0000 42.3459
#
#
#
# Elastic Compliance Matrix: (Units=1/GPa)
#
#
# Indices 1 2 3 4 5 6 
#
# 1 0.016617 -0.003989 -0.004638 0.000000 0.000000 0.000000
# 2 -0.003989 0.010602 -0.002367 0.000000 0.000000 0.000000
# 3 -0.004638 -0.002367 0.012786 0.000000 0.000000 0.000000
# 4 0.000000 0.000000 0.000000 0.033804 0.000000 0.000000
# 5 0.000000 0.000000 0.000000 0.000000 0.038542 0.000000
# 6 0.000000 0.000000 0.000000 0.000000 0.000000 0.023615
#
#
# Mechanical properties :
#
#
# Convention : Reuss Voigt Hill
#
# Bulk Modulus (GPa) = 55.50557 56.76702 56.13630
# Shear Modulus (GPa) = 30.49521 31.87847 31.18684
#
# Velocity S-wave (km/s) = 3.65841 3.74046 3.69966
# Velocity P-wave (km/s) = 6.49661 6.60069 6.54886
#
# Compressibility (1/GPa) = 0.01801621
#
# Stress axis : x y z
#
# Youngs Moduli (GPa) = 60.18048 94.32192 78.20889
#
# Poissons Ratio (x) = 0.37623 0.36275
# Poissons Ratio (y) = 0.24005 0.18515
# Poissons Ratio (z) = 0.27913 0.22329
#
# Static dielectric constant tensor:
#      x y z
#    x 1.924910 0.000000 0.000000 
#    y 0.000000 2.011330 0.000000 
#    z 0.000000 0.000000 1.857870 
# 
# From -- ./inp_files/32419.got.cif
#   From: 2010.05.17/outbox.cif.g08.bks.cpg/sg48_17_cif.got.tgz:32419.got - 2010.06.03 20:39:00.
