data_PCOD9391725
_publ_section_title
;
Structure prediction by ZEFSAII (Michael W. Deem and Ramdas Pophale) SiO2 
 PCOD9391725
Probable space group: P N N N
;
_chemical_formula_sum "Si O2"
_cell_formula_units_Z 32
_cell_length_a 12.959675
_cell_length_b 9.629914
_cell_length_c 10.413754
_cell_angle_alpha 90.000000
_cell_angle_beta 90.000000
_cell_angle_gamma 90.000000
_cell_volume 1299.642286
_symmetry_space_group_name_H-M "P N N N"
_symmetry_group_IT_number 48
_space_group.IT_coordinate_system_code '2'
_symmetry_cell_setting 'orthorhombic'
loop_
_space_group_symop_operation_xyz
x,y,z
1/2-x,1/2-y,z
x,1/2-y,1/2-z
1/2-x,y,1/2-z
-x,-y,-z
1/2+x,1/2+y,-z
-x,1/2+y,1/2+z
1/2+x,-y,1/2+z
loop_
_atom_site_type_symbol
_atom_site_label
_atom_site_fract_x
_atom_site_fract_y
_atom_site_fract_z
Si Si1 0.913488 0.750000 0.250000
Si Si2 0.750000 0.250000 0.471542
Si Si3 0.562711 0.093528 0.900268
Si Si4 0.863044 0.889399 0.805608
Si Si5 0.613998 0.514339 0.072776
O O1 0.865784 0.894018 0.200741
O O2 0.986252 0.718031 0.129620
O O3 0.671109 0.346596 0.551891
O O4 0.828722 0.364738 0.409184
O O5 0.578220 0.014529 0.764883
O O6 0.500000 0.000000 0.000000
O O7 0.914841 0.750000 0.750000
O O8 0.750000 0.894754 0.750000
O O9 0.839069 0.898607 0.955249
O O10 0.500000 0.500000 0.000000
#
# Coordination Sequence:
#
# PCOD9391725 Si02
#       5
#     4   4   8   8   8
#     4  12  26  47  79 116 164 202 276 356 410 490
#     4  12  26  49  79 114 160 214 282 338 426 490
#     4  12  25  45  78 114 153 206 272 345 408 488
#     4  11  23  41  73 110 153 205 281 337 399 491
#     4  12  24  46  78 117 160 217 273 348 418 496
#
# _framework density 24.622160000000001
#
# number of rings (size 3 to 8) (size 9 to 14) (size 15 to 20)
#    0.000    0.250    7.500    1.500    0.000    1.000 
#    0.000    3.750    0.000    0.000    0.000    0.000 
#    0.000    0.000    0.000    0.000    0.000    0.000 
#
# Total GULP energy -178233.827529 kJ/mol
# GULP energy per Si atom -5569.807110 kJ/mol
# Density = 2.456612 g / cm^3
# Si number density = 24.622160 Si / 1000 Ang^3
#
#
#
# Elastic Constant Matrix: (Units=GPa)
#
#
# Indices 1 2 3 4 5 6 
#
# 1 97.3999 38.1847 28.0220 0.0000 0.0000 0.0000
# 2 38.1847 161.6361 33.7535 0.0000 0.0000 0.0000
# 3 28.0220 33.7535 73.6698 0.0000 0.0000 0.0000
# 4 0.0000 0.0000 0.0000 50.5899 0.0000 0.0000
# 5 0.0000 0.0000 0.0000 0.0000 48.3504 0.0000
# 6 0.0000 0.0000 0.0000 0.0000 0.0000 47.6617
#
#
#
# Elastic Compliance Matrix: (Units=1/GPa)
#
#
# Indices 1 2 3 4 5 6 
#
# 1 0.012144 -0.002106 -0.003654 0.000000 0.000000 0.000000
# 2 -0.002106 0.007206 -0.002501 0.000000 0.000000 0.000000
# 3 -0.003654 -0.002501 0.016110 0.000000 0.000000 0.000000
# 4 0.000000 0.000000 0.000000 0.019767 0.000000 0.000000
# 5 0.000000 0.000000 0.000000 0.000000 0.020682 0.000000
# 6 0.000000 0.000000 0.000000 0.000000 0.000000 0.020981
#
#
# Mechanical properties :
#
#
# Convention : Reuss Voigt Hill
#
# Bulk Modulus (GPa) = 52.80309 59.18070 55.99189
# Shear Modulus (GPa) = 41.76228 44.83676 43.29952
#
# Velocity S-wave (km/s) = 4.12287 4.27194 4.19807
# Velocity P-wave (km/s) = 6.64500 6.95847 6.80354
#
# Compressibility (1/GPa) = 0.01893829
#
# Stress axis : x y z
#
# Youngs Moduli (GPa) = 82.34617 138.76512 62.07352
#
# Poissons Ratio (x) = 0.29220 0.22684
# Poissons Ratio (y) = 0.17340 0.15524
# Poissons Ratio (z) = 0.30093 0.34703
#
# Static dielectric constant tensor:
#      x y z
#    x 2.128490 0.000000 0.000000 
#    y 0.000000 22.109310 0.000000 
#    z 0.000000 0.000000 2.020950 
# 
# From -- ./inp_files/10290.got.cif
#   From: 2010.05.17/outbox.cif.g08.bks.cpg/sg48_6_cif.got.tgz:10290.got - 2010.06.03 20:39:00.
