data_PCOD9391555
_publ_section_title
;
Structure prediction by ZEFSAII (Michael W. Deem and Ramdas Pophale) SiO2 
 PCOD9391555
Probable space group: P N N N
;
_chemical_formula_sum "Si O2"
_cell_formula_units_Z 40
_cell_length_a 12.176432
_cell_length_b 6.777696
_cell_length_c 18.288915
_cell_angle_alpha 90.000000
_cell_angle_beta 90.000000
_cell_angle_gamma 90.000000
_cell_volume 1509.350402
_symmetry_space_group_name_H-M "P N N N"
_symmetry_group_IT_number 48
_space_group.IT_coordinate_system_code '2'
_symmetry_cell_setting 'orthorhombic'
loop_
_space_group_symop_operation_xyz
x,y,z
1/2-x,1/2-y,z
x,1/2-y,1/2-z
1/2-x,y,1/2-z
-x,-y,-z
1/2+x,1/2+y,-z
-x,1/2+y,1/2+z
1/2+x,-y,1/2+z
loop_
_atom_site_type_symbol
_atom_site_label
_atom_site_fract_x
_atom_site_fract_y
_atom_site_fract_z
Si Si1 0.542598 0.730844 0.121024
Si Si2 0.839232 0.128920 0.530594
Si Si3 0.945220 0.642160 0.685432
Si Si4 0.334522 0.125151 0.472744
Si Si5 0.144664 0.884761 0.638869
O O1 0.438115 0.857192 0.090103
O O2 0.498218 0.577820 0.181793
O O3 0.636650 0.880429 0.149121
O O4 0.594241 0.619579 0.049165
O O5 0.803438 0.377323 0.537365
O O6 0.878274 0.145131 0.446902
O O7 0.807968 0.877750 0.523213
O O8 0.877423 0.750000 0.750000
O O9 0.044235 0.794107 0.680191
O O10 0.884179 0.642617 0.608425
O O11 0.250000 0.750000 0.655906
#
# Coordination Sequence:
#
# PCOD9391555 Si02
#       5
#     8   8   8   8   8
#     4  12  23  45  75 111 153 198 264 344 385 453
#     4  11  20  37  70 112 146 193 258 336 390 445
#     4  12  28  46  69 106 162 213 256 316 404 496
#     4  12  23  42  75 113 148 199 267 337 399 453
#     4  11  24  42  72 111 145 193 267 325 395 459
#
# _framework density 26.501466000000001
#
# number of rings (size 3 to 8) (size 9 to 14) (size 15 to 20)
#    0.000    0.400    6.000    4.800    0.000    1.600 
#    0.000    0.000    0.000    2.400    0.000    0.000 
#    0.000    0.000    0.000    0.000    0.000    0.000 
#
# Total GULP energy -223266.414402 kJ/mol
# GULP energy per Si atom -5581.660360 kJ/mol
# Density = 2.644115 g / cm^3
# Si number density = 26.501466 Si / 1000 Ang^3
#
#
#
# Elastic Constant Matrix: (Units=GPa)
#
#
# Indices 1 2 3 4 5 6 
#
# 1 88.8283 73.7179 37.1111 0.0000 0.0000 0.0000
# 2 73.7179 244.7551 62.2969 0.0000 0.0000 0.0000
# 3 37.1111 62.2969 133.1795 0.0000 0.0000 0.0000
# 4 0.0000 0.0000 0.0000 45.8317 0.0000 0.0000
# 5 0.0000 0.0000 0.0000 0.0000 -175.7643 0.0000
# 6 0.0000 0.0000 0.0000 0.0000 0.0000 76.4638
#
#
#
# Elastic Compliance Matrix: (Units=1/GPa)
#
#
# Indices 1 2 3 4 5 6 
#
# 1 0.015685 -0.004100 -0.002453 0.000000 0.000000 0.000000
# 2 -0.004100 0.005710 -0.001528 0.000000 0.000000 0.000000
# 3 -0.002453 -0.001528 0.008907 0.000000 0.000000 0.000000
# 4 0.000000 0.000000 0.000000 0.021819 0.000000 0.000000
# 5 0.000000 0.000000 0.000000 0.000000 -0.005689 0.000000
# 6 0.000000 0.000000 0.000000 0.000000 0.000000 0.013078
#
#
# Mechanical properties :
#
#
# Convention : Reuss Voigt Hill
#
# Bulk Modulus (GPa) = 70.72421 90.33498 80.52959
# Shear Modulus (GPa) = 62.20128 8.88204 35.54166
#
# Velocity S-wave (km/s) = 4.84993 1.83270 3.66610
# Velocity P-wave (km/s) = 7.62281 6.21604 6.95509
#
# Compressibility (1/GPa) = 0.01413943
#
# Stress axis : x y z
#
# Youngs Moduli (GPa) = 63.75581 175.14584 112.27046
#
# Poissons Ratio (x) = 0.71806 0.27539
# Poissons Ratio (y) = 0.26139 0.17158
# Poissons Ratio (z) = 0.15639 0.26767
#
# Static dielectric constant tensor:
#      x y z
#    x 2.143020 0.000000 0.000000 
#    y 0.000000 2.163250 0.000000 
#    z 0.000000 0.000000 1.974720 
# 
# From -- ./inp_files/4193.got.cif
#   From: 2010.05.17/outbox.cif.g08.bks.cpg/sg48_3_cif.got.tgz:4193.got - 2010.06.03 20:39:00.
