data_PCOD9391495
_publ_section_title
;
Structure prediction by ZEFSAII (Michael W. Deem and Ramdas Pophale) SiO2 
 PCOD9391495
Probable space group: P N N N
;
_chemical_formula_sum "Si O2"
_cell_formula_units_Z 44
_cell_length_a 5.462566
_cell_length_b 23.487526
_cell_length_c 15.008067
_cell_angle_alpha 90.000000
_cell_angle_beta 90.000000
_cell_angle_gamma 90.000000
_cell_volume 1925.567428
_symmetry_space_group_name_H-M "P N N N"
_symmetry_group_IT_number 48
_space_group.IT_coordinate_system_code '2'
_symmetry_cell_setting 'orthorhombic'
loop_
_space_group_symop_operation_xyz
x,y,z
1/2-x,1/2-y,z
x,1/2-y,1/2-z
1/2-x,y,1/2-z
-x,-y,-z
1/2+x,1/2+y,-z
-x,1/2+y,1/2+z
1/2+x,-y,1/2+z
loop_
_atom_site_type_symbol
_atom_site_label
_atom_site_fract_x
_atom_site_fract_y
_atom_site_fract_z
Si Si1 0.750000 0.495225 0.250000
Si Si2 0.750702 0.990071 0.444715
Si Si3 0.637901 0.687027 0.655267
Si Si4 0.750000 0.434301 0.750000
Si Si5 0.750000 0.250000 0.750000
Si Si6 0.712640 0.640489 0.472193
Si Si7 0.204232 0.663733 0.391039
Si Si8 0.750000 0.250000 0.250000
O O1 0.757673 0.473032 0.353008
O O2 0.495437 0.529482 0.253954
O O3 0.767666 0.921942 0.428879
O O4 0.500000 0.000000 0.500000
O O5 0.000000 0.000000 0.500000
O O6 0.750000 0.750000 0.632192
O O7 0.750000 0.668473 0.750000
O O8 0.661486 0.642447 0.577209
O O9 0.369671 0.705725 0.681747
O O10 0.773168 0.394991 0.662885
O O11 0.886243 0.291788 0.683607
O O12 0.478798 0.673039 0.428701
O O13 0.986196 0.664591 0.461064
#
# Coordination Sequence:
#
# PCOD9391495 Si02
#       8
#     4   8   8   4   2   8   8   2
#     4  12  22  44  73  95 132 182 215 289 360 406
#     4  12  26  48  71 104 136 180 241 295 352 426
#     4   9  22  41  65  95 135 180 225 274 343 402
#     4  11  18  41  66  94 130 182 218 244 345 421
#     4  10  28  40  64 110 154 174 240 270 326 432
#     4  12  25  43  71 100 138 179 234 284 349 412
#     4  11  24  40  64 101 141 184 216 277 329 408
#     4   8  18  42  62  94 128 190 222 270 344 416
#
# _framework density 22.850408000000002
#
# number of rings (size 3 to 8) (size 9 to 14) (size 15 to 20)
#    0.000    1.273    3.636    2.182    7.636    2.909 
#    3.273    0.000    0.000    0.000    0.000    0.000 
#    0.000    0.000    0.000    0.000    0.000    0.000 
#
# Total GULP energy -245034.728009 kJ/mol
# GULP energy per Si atom -5568.971091 kJ/mol
# Density = 2.279840 g / cm^3
# Si number density = 22.850408 Si / 1000 Ang^3
#
#
#
# Elastic Constant Matrix: (Units=GPa)
#
#
# Indices 1 2 3 4 5 6 
#
# 1 157.4897 7.7659 41.1751 0.0000 0.0000 0.0000
# 2 7.7659 11.9223 -8.0980 0.0000 0.0000 0.0000
# 3 41.1751 -8.0980 125.0499 0.0000 0.0000 0.0000
# 4 0.0000 0.0000 0.0000 26.4658 0.0000 0.0000
# 5 0.0000 0.0000 0.0000 0.0000 70.4193 0.0000
# 6 0.0000 0.0000 0.0000 0.0000 0.0000 16.8142
#
#
#
# Elastic Compliance Matrix: (Units=1/GPa)
#
#
# Indices 1 2 3 4 5 6 
#
# 1 0.007441 -0.006811 -0.002891 0.000000 0.000000 0.000000
# 2 -0.006811 0.093969 0.008328 0.000000 0.000000 0.000000
# 3 -0.002891 0.008328 0.009488 0.000000 0.000000 0.000000
# 4 0.000000 0.000000 0.000000 0.037785 0.000000 0.000000
# 5 0.000000 0.000000 0.000000 0.000000 0.014201 0.000000
# 6 0.000000 0.000000 0.000000 0.000000 0.000000 0.059473
#
#
# Mechanical properties :
#
#
# Convention : Reuss Voigt Hill
#
# Bulk Modulus (GPa) = 9.24642 41.79422 25.52032
# Shear Modulus (GPa) = 19.14565 39.64779 29.39672
#
# Velocity S-wave (km/s) = 2.89774 4.16997 3.59065
# Velocity P-wave (km/s) = 3.90527 6.44321 5.32757
#
# Compressibility (1/GPa) = 0.10814996
#
# Stress axis : x y z
#
# Youngs Moduli (GPa) = 134.38351 10.64179 105.39498
#
# Poissons Ratio (x) = 0.07248 0.30473
# Poissons Ratio (y) = 0.91528 -0.87772
# Poissons Ratio (z) = 0.38854 -0.08862
#
# Static dielectric constant tensor:
#      x y z
#    x 1.881300 0.000000 0.000000 
#    y 0.000000 1.918810 0.000000 
#    z 0.000000 0.000000 1.883050 
# 
# From -- ./inp_files/24407.got.cif
#   From: 2010.05.17/outbox.cif.g08.bks.cpg/sg48_13_cif.got.tgz:24407.got - 2010.06.03 20:39:00.
