data_PCOD9391040
_publ_section_title
;
Structure prediction by ZEFSAII (Michael W. Deem and Ramdas Pophale) SiO2 
 PCOD9391040
Probable space group: P N N N
;
_chemical_formula_sum "Si O2"
_cell_formula_units_Z 42
_cell_length_a 6.051401
_cell_length_b 19.205786
_cell_length_c 15.219618
_cell_angle_alpha 90.000000
_cell_angle_beta 90.000000
_cell_angle_gamma 90.000000
_cell_volume 1768.853113
_symmetry_space_group_name_H-M "P N N N"
_symmetry_group_IT_number 48
_space_group.IT_coordinate_system_code '2'
_symmetry_cell_setting 'orthorhombic'
loop_
_space_group_symop_operation_xyz
x,y,z
1/2-x,1/2-y,z
x,1/2-y,1/2-z
1/2-x,y,1/2-z
-x,-y,-z
1/2+x,1/2+y,-z
-x,1/2+y,1/2+z
1/2+x,-y,1/2+z
loop_
_atom_site_type_symbol
_atom_site_label
_atom_site_fract_x
_atom_site_fract_y
_atom_site_fract_z
Si Si1 0.694065 0.927978 0.344104
Si Si2 0.443787 0.302925 0.597549
Si Si3 0.690373 0.463261 0.943889
Si Si4 0.250000 0.750000 0.250000
Si Si5 0.003387 0.780102 0.608652
Si Si6 0.932476 0.433637 0.110757
O O1 0.750000 0.899338 0.250000
O O2 0.835742 0.879870 0.408285
O O3 0.439262 0.922759 0.369305
O O4 0.772596 0.008594 0.345825
O O5 0.250000 0.250000 0.623035
O O6 0.612983 0.295969 0.678618
O O7 0.509595 0.280380 0.498630
O O8 0.847841 0.521695 0.905069
O O9 0.500000 0.500000 0.000000
O O10 0.815519 0.419525 0.016996
O O11 0.250000 0.750000 0.634712
O O12 0.011489 0.858634 0.647855
O O13 0.750000 0.750000 0.629266
#
# Coordination Sequence:
#
# PCOD9391040 Si02
#       6
#     8   8   8   2   8   8
#     4  11  24  39  62  94 132 176 221 273 337 403
#     4  11  24  38  57  91 132 179 219 264 325 401
#     4   9  19  36  63  85 126 160 211 268 324 385
#     4  12  22  40  56  82 144 180 222 256 318 412
#     4  11  25  41  68  99 127 169 224 280 341 398
#     4  10  22  39  62  94 122 170 219 280 333 390
#
# _framework density 23.744198000000001
#
# number of rings (size 3 to 8) (size 9 to 14) (size 15 to 20)
#    0.000    1.524    0.952    4.857   10.667    5.333 
#    0.000    0.000    0.000    0.571    0.000    0.000 
#    0.000    0.000    0.000    0.000    0.000    0.000 
#
# Total GULP energy -234114.969687 kJ/mol
# GULP energy per Si atom -5574.165945 kJ/mol
# Density = 2.369016 g / cm^3
# Si number density = 23.744198 Si / 1000 Ang^3
#
#
#
# Elastic Constant Matrix: (Units=GPa)
#
#
# Indices 1 2 3 4 5 6 
#
# 1 132.9190 43.3013 19.2626 0.0000 0.0000 0.0000
# 2 43.3013 111.3320 -10.4164 0.0000 0.0000 0.0000
# 3 19.2626 -10.4164 37.7664 0.0000 0.0000 0.0000
# 4 0.0000 0.0000 0.0000 12.6400 0.0000 0.0000
# 5 0.0000 0.0000 0.0000 0.0000 1365.2308 0.0000
# 6 0.0000 0.0000 0.0000 0.0000 0.0000 -3.1586
#
#
#
# Elastic Compliance Matrix: (Units=1/GPa)
#
#
# Indices 1 2 3 4 5 6 
#
# 1 0.009871 -0.004425 -0.006255 0.000000 0.000000 0.000000
# 2 -0.004425 0.011203 0.005347 0.000000 0.000000 0.000000
# 3 -0.006255 0.005347 0.031144 0.000000 0.000000 0.000000
# 4 0.000000 0.000000 0.000000 0.079114 0.000000 0.000000
# 5 0.000000 0.000000 0.000000 0.000000 0.000732 0.000000
# 6 0.000000 0.000000 0.000000 0.000000 0.000000 -0.316594
#
#
# Mechanical properties :
#
#
# Convention : Reuss Voigt Hill
#
# Bulk Modulus (GPa) = 24.06611 42.92361 33.49486
# Shear Modulus (GPa) = -31.24752 290.26710 129.50979
#
# Velocity S-wave (km/s) = -3.63162 11.06856 7.39339
# Velocity P-wave (km/s) = 2.72530 13.47098 9.32845
#
# Compressibility (1/GPa) = 0.04155221
#
# Stress axis : x y z
#
# Youngs Moduli (GPa) = 101.30403 89.25963 32.10928
#
# Poissons Ratio (x) = 0.39493 0.20085
# Poissons Ratio (y) = 0.44823 -0.17168
# Poissons Ratio (z) = 0.63367 -0.47725
#
# Static dielectric constant tensor:
#      x y z
#    x 2.033240 0.000000 0.000000 
#    y 0.000000 1.920370 0.000000 
#    z 0.000000 0.000000 1.971230 
# 
# From -- ./inp_files/29440.got.cif
#   From: 2010.05.17/outbox.cif.g08.bks.cpg/sg48_15_cif.got.tgz:29440.got - 2010.06.03 20:39:00.
