data_PCOD9391410
_publ_section_title
;
Structure prediction by ZEFSAII (Michael W. Deem and Ramdas Pophale) SiO2 
 PCOD9391410
Probable space group: P N N N
;
_chemical_formula_sum "Si O2"
_cell_formula_units_Z 64
_cell_length_a 24.242717
_cell_length_b 8.695016
_cell_length_c 15.797650
_cell_angle_alpha 90.000000
_cell_angle_beta 90.000000
_cell_angle_gamma 90.000000
_cell_volume 3329.999474
_symmetry_space_group_name_H-M "P N N N"
_symmetry_group_IT_number 48
_space_group.IT_coordinate_system_code '2'
_symmetry_cell_setting 'orthorhombic'
loop_
_space_group_symop_operation_xyz
x,y,z
1/2-x,1/2-y,z
x,1/2-y,1/2-z
1/2-x,y,1/2-z
-x,-y,-z
1/2+x,1/2+y,-z
-x,1/2+y,1/2+z
1/2+x,-y,1/2+z
loop_
_atom_site_type_symbol
_atom_site_label
_atom_site_fract_x
_atom_site_fract_y
_atom_site_fract_z
Si Si1 0.250000 0.436821 0.652137
Si Si2 0.936409 0.066879 0.250000
Si Si3 0.366159 0.934103 0.089078
Si Si4 0.750000 0.566661 0.649137
Si Si5 0.441296 0.564635 0.250000
Si Si6 0.633841 0.065897 0.589078
Si Si7 0.370001 0.434932 0.590810
Si Si8 0.370001 0.065068 0.590810
O O1 0.250000 0.250000 0.652557
O O2 0.250000 0.487348 0.750000
O O3 0.306506 0.484822 0.607717
O O4 0.193494 0.484822 0.607717
O O5 0.931515 0.250000 0.250000
O O6 0.906568 0.998958 0.332924
O O7 0.906568 0.998958 0.167076
O O8 0.999856 0.015781 0.250000
O O9 0.405862 0.976507 0.167056
O O10 0.364057 0.750000 0.083759
O O11 0.305225 0.997362 0.109194
O O12 0.386705 0.002967 0.000691
O O13 0.750000 0.750000 0.636104
O O14 0.750000 0.535162 0.750000
O O15 0.805225 0.497362 0.609194
O O16 0.448987 0.750000 0.250000
O O17 0.405862 0.523493 0.167056
O O18 0.613295 0.997033 0.500691
O O19 0.372095 0.250000 0.592016
#
# Coordination Sequence:
#
# PCOD9391410 Si02
#       8
#     8   8   8   8   8   8   8   8
#     4   9  17  34  61  90 120 158 200 239 292 363
#     4  12  26  43  64  91 123 162 212 264 310 368
#     4  11  23  41  65  94 127 163 208 262 316 370
#     4  11  22  37  62  95 131 169 208 249 308 380
#     4  10  24  45  66  87 119 166 212 260 319 370
#     4  11  23  41  65  94 127 163 208 262 316 370
#     4  11  22  40  66  94 127 165 205 254 313 377
#     4  11  22  40  66  94 127 165 205 254 313 377
#
# _framework density 19.219223
#
# number of rings (size 3 to 8) (size 9 to 14) (size 15 to 20)
#    0.000    1.250    2.500    3.750    0.000    4.500 
#    0.000    2.500    0.000    0.000    0.000    0.000 
#    0.000    0.000    0.000    0.000    0.000    0.000 
#
# Total GULP energy -357964.675423 kJ/mol
# GULP energy per Si atom -5593.198053 kJ/mol
# Density = 1.917548 g / cm^3
# Si number density = 19.219223 Si / 1000 Ang^3
#
#
#
# Elastic Constant Matrix: (Units=GPa)
#
#
# Indices 1 2 3 4 5 6 
#
# 1 133.6774 52.6834 88.0193 0.0000 0.0000 0.0000
# 2 52.6834 67.6915 74.1141 0.0000 0.0000 0.0000
# 3 88.0193 74.1141 203.0623 0.0000 0.0000 0.0000
# 4 0.0000 0.0000 0.0000 34.7384 0.0000 0.0000
# 5 0.0000 0.0000 0.0000 0.0000 -5.8655 0.0000
# 6 0.0000 0.0000 0.0000 0.0000 0.0000 5.1188
#
#
#
# Elastic Compliance Matrix: (Units=1/GPa)
#
#
# Indices 1 2 3 4 5 6 
#
# 1 0.011747 -0.005942 -0.002923 0.000000 0.000000 0.000000
# 2 -0.005942 0.027611 -0.007502 0.000000 0.000000 0.000000
# 3 -0.002923 -0.007502 0.008930 0.000000 0.000000 0.000000
# 4 0.000000 0.000000 0.000000 0.028787 0.000000 0.000000
# 5 0.000000 0.000000 0.000000 0.000000 -0.170489 0.000000
# 6 0.000000 0.000000 0.000000 0.000000 0.000000 0.195358
#
#
# Mechanical properties :
#
#
# Convention : Reuss Voigt Hill
#
# Bulk Modulus (GPa) = 64.29320 92.67388 78.48354
# Shear Modulus (GPa) = 35.74923 19.43930 27.59427
#
# Velocity S-wave (km/s) = 4.31754 3.18378 3.79326
# Velocity P-wave (km/s) = 7.64068 7.86380 7.75304
#
# Compressibility (1/GPa) = 0.01555374
#
# Stress axis : x y z
#
# Youngs Moduli (GPa) = 85.12563 36.21686 111.98516
#
# Poissons Ratio (x) = 0.21521 0.32735
# Poissons Ratio (y) = 0.50584 0.84011
# Poissons Ratio (z) = 0.24884 0.27170
#
# Static dielectric constant tensor:
#      x y z
#    x 1.639460 0.000000 0.000000 
#    y 0.000000 1.644930 0.000000 
#    z 0.000000 0.000000 1.660970 
# 
# From -- ./inp_files/28642.got.cif
#   From: 2010.05.17/outbox.cif.g08.bks.cpg/sg48_15_cif.got.tgz:28642.got - 2010.06.03 20:39:00.
