data_PCOD9391467
_publ_section_title
;
Structure prediction by ZEFSAII (Michael W. Deem and Ramdas Pophale) SiO2 
 PCOD9391467
Probable space group: P N N N
;
_chemical_formula_sum "Si O2"
_cell_formula_units_Z 54
_cell_length_a 22.586162
_cell_length_b 21.867611
_cell_length_c 5.491364
_cell_angle_alpha 90.000000
_cell_angle_beta 90.000000
_cell_angle_gamma 90.000000
_cell_volume 2712.214358
_symmetry_space_group_name_H-M "P N N N"
_symmetry_group_IT_number 48
_space_group.IT_coordinate_system_code '2'
_symmetry_cell_setting 'orthorhombic'
loop_
_space_group_symop_operation_xyz
x,y,z
1/2-x,1/2-y,z
x,1/2-y,1/2-z
1/2-x,y,1/2-z
-x,-y,-z
1/2+x,1/2+y,-z
-x,1/2+y,1/2+z
1/2+x,-y,1/2+z
loop_
_atom_site_type_symbol
_atom_site_label
_atom_site_fract_x
_atom_site_fract_y
_atom_site_fract_z
Si Si1 0.960375 0.036880 0.310246
Si Si2 0.926351 0.890968 0.785844
Si Si3 0.750000 0.250000 0.250000
Si Si4 0.750000 0.043196 0.250000
Si Si5 0.197065 0.850809 0.435749
Si Si6 0.047695 0.176251 0.735800
Si Si7 0.864805 0.501150 0.514829
Si Si8 0.580339 0.118373 0.777500
O O1 0.927454 0.090390 0.453074
O O2 0.012350 0.070792 0.162526
O O3 0.911348 0.990877 0.206981
O O4 0.000000 0.000000 0.500000
O O5 0.932688 0.854024 0.527960
O O6 0.918361 0.848748 0.024265
O O7 0.875654 0.943350 0.798703
O O8 0.792147 0.206037 0.396653
O O9 0.793124 0.087041 0.409192
O O10 0.702363 0.008030 0.422334
O O11 0.250000 0.853748 0.250000
O O12 0.137405 0.840296 0.290168
O O13 0.050667 0.250000 0.750000
O O14 0.979773 0.153613 0.773876
O O15 0.895841 0.439100 0.619231
#
# Coordination Sequence:
#
# PCOD9391467 Si02
#       8
#     8   8   2   4   8   8   8   8
#     4  11  20  35  58  92 124 161 207 261 330 402
#     4  11  23  39  66  93 127 171 214 268 330 404
#     4  10  26  40  56  74 104 172 248 264 294 368
#     4  11  24  37  60  90 129 164 207 280 332 388
#     4  11  22  41  56  79 116 169 223 272 320 355
#     4  11  25  43  61  93 130 171 221 267 326 392
#     4  12  21  38  62  93 126 163 216 265 335 400
#     4  11  22  36  61  85 123 166 209 275 325 380
#
# _framework density 19.909932000000001
#
# number of rings (size 3 to 8) (size 9 to 14) (size 15 to 20)
#    0.000    0.889    5.926    2.889    0.000    1.185 
#    5.333    0.000    0.000    0.000    0.000    0.519 
#    0.000    4.741    0.000    0.000    0.000    0.000 
#
# Total GULP energy -300825.451435 kJ/mol
# GULP energy per Si atom -5570.841693 kJ/mol
# Density = 1.986462 g / cm^3
# Si number density = 19.909932 Si / 1000 Ang^3
#
#
#
# Elastic Constant Matrix: (Units=GPa)
#
#
# Indices 1 2 3 4 5 6 
#
# 1 74.0587 34.1994 26.8026 0.0000 0.0000 0.0000
# 2 34.1994 117.8725 47.2501 0.0000 0.0000 0.0000
# 3 26.8026 47.2501 72.7902 0.0000 0.0000 0.0000
# 4 0.0000 0.0000 0.0000 45.2209 0.0000 0.0000
# 5 0.0000 0.0000 0.0000 0.0000 30.6084 0.0000
# 6 0.0000 0.0000 0.0000 0.0000 0.0000 -1.7920
#
#
#
# Elastic Compliance Matrix: (Units=1/GPa)
#
#
# Indices 1 2 3 4 5 6 
#
# 1 0.016406 -0.003161 -0.003989 0.000000 0.000000 0.000000
# 2 -0.003161 0.012077 -0.006675 0.000000 0.000000 0.000000
# 3 -0.003989 -0.006675 0.019540 0.000000 0.000000 0.000000
# 4 0.000000 0.000000 0.000000 0.022114 0.000000 0.000000
# 5 0.000000 0.000000 0.000000 0.000000 0.032671 0.000000
# 6 0.000000 0.000000 0.000000 0.000000 0.000000 -0.558051
#
#
# Mechanical properties :
#
#
# Convention : Reuss Voigt Hill
#
# Bulk Modulus (GPa) = 49.08694 53.46951 51.27823
# Shear Modulus (GPa) = -11.88209 25.23876 6.67834
#
# Velocity S-wave (km/s) = -2.44558 3.56427 1.83345
# Velocity P-wave (km/s) = 4.09066 6.62213 5.50392
#
# Compressibility (1/GPa) = 0.02037202
#
# Stress axis : x y z
#
# Youngs Moduli (GPa) = 60.95244 82.80360 51.17652
#
# Poissons Ratio (x) = 0.26174 0.20415
# Poissons Ratio (y) = 0.19267 0.34163
# Poissons Ratio (z) = 0.24315 0.55275
#
# Static dielectric constant tensor:
#      x y z
#    x 1.566490 0.000000 0.000000 
#    y 0.000000 1.611370 0.000000 
#    z 0.000000 0.000000 1.975860 
# 
# From -- ./inp_files/5979.got.cif
#   From: 2010.05.17/outbox.cif.g08.bks.cpg/sg48_3_cif.got.tgz:5979.got - 2010.06.03 20:39:00.
