data_PCOD9391534
_publ_section_title
;
Structure prediction by ZEFSAII (Michael W. Deem and Ramdas Pophale) SiO2 
 PCOD9391534
Probable space group: P N N N
;
_chemical_formula_sum "Si O2"
_cell_formula_units_Z 64
_cell_length_a 5.736119
_cell_length_b 24.207785
_cell_length_c 24.627503
_cell_angle_alpha 90.000000
_cell_angle_beta 90.000000
_cell_angle_gamma 90.000000
_cell_volume 3419.743925
_symmetry_space_group_name_H-M "P N N N"
_symmetry_group_IT_number 48
_space_group.IT_coordinate_system_code '2'
_symmetry_cell_setting 'orthorhombic'
loop_
_space_group_symop_operation_xyz
x,y,z
1/2-x,1/2-y,z
x,1/2-y,1/2-z
1/2-x,y,1/2-z
-x,-y,-z
1/2+x,1/2+y,-z
-x,1/2+y,1/2+z
1/2+x,-y,1/2+z
loop_
_atom_site_type_symbol
_atom_site_label
_atom_site_fract_x
_atom_site_fract_y
_atom_site_fract_z
Si Si1 0.256599 0.903374 0.562538
Si Si2 0.251571 0.427402 0.092732
Si Si3 0.778692 0.486103 0.689806
Si Si4 0.605038 0.622394 0.195097
Si Si5 0.999412 0.218515 0.872199
Si Si6 0.231658 0.032105 0.969950
Si Si7 0.991486 0.587445 0.121141
Si Si8 0.623155 0.130944 0.551193
O O1 0.511469 0.890533 0.588895
O O2 0.248718 0.868044 0.506932
O O3 0.011196 0.901075 0.595633
O O4 0.290390 0.968384 0.545979
O O5 0.308597 0.469218 0.142139
O O6 0.232431 0.456975 0.033416
O O7 0.750000 0.509973 0.750000
O O8 0.549801 0.454131 0.669629
O O9 0.964176 0.435635 0.693492
O O10 0.750000 0.626306 0.250000
O O11 0.471406 0.678422 0.180938
O O12 0.779373 0.620886 0.144107
O O13 0.750000 0.250000 0.875801
O O14 0.015383 0.184798 0.930073
O O15 0.250000 0.250000 0.865940
O O16 0.439199 0.053483 0.932844
O O17 0.027480 0.074348 0.951944
O O18 0.202406 0.623959 0.101385
#
# Coordination Sequence:
#
# PCOD9391534 Si02
#       8
#     8   8   8   8   8   8   8   8
#     4  11  21  33  55  88 112 136 168 222 285 338
#     4  11  22  33  51  85 117 139 177 221 271 341
#     4  12  24  36  55  80 114 155 190 232 288 344
#     4  12  26  42  59  79  99 146 201 258 304 345
#     4  12  28  45  63  81 105 143 194 253 312 355
#     4  11  20  32  57  87 113 130 172 228 292 334
#     4  12  18  36  58  80 111 135 184 237 294 344
#     4  11  22  36  60  81 110 137 175 237 299 343
#
# _framework density 18.714852
#
# number of rings (size 3 to 8) (size 9 to 14) (size 15 to 20)
#    0.000    0.500    6.250    4.875    0.000    0.250 
#    0.000    1.875    0.000    0.000    0.000    0.000 
#    0.000    0.000    0.000    0.000    0.000   65.000 
#
# Total GULP energy -356279.270866 kJ/mol
# GULP energy per Si atom -5566.863607 kJ/mol
# Density = 1.867226 g / cm^3
# Si number density = 18.714852 Si / 1000 Ang^3
#
#
#
# Elastic Constant Matrix: (Units=GPa)
#
#
# Indices 1 2 3 4 5 6 
#
# 1 104.8811 19.9904 29.5704 0.0000 0.0000 0.0000
# 2 19.9904 28.8695 39.4548 0.0000 0.0000 0.0000
# 3 29.5704 39.4548 118.7611 0.0000 0.0000 0.0000
# 4 0.0000 0.0000 0.0000 11.5122 0.0000 0.0000
# 5 0.0000 0.0000 0.0000 0.0000 32.8856 0.0000
# 6 0.0000 0.0000 0.0000 0.0000 0.0000 22.4696
#
#
#
# Elastic Compliance Matrix: (Units=1/GPa)
#
#
# Indices 1 2 3 4 5 6 
#
# 1 0.010994 -0.007091 -0.000382 0.000000 0.000000 0.000000
# 2 -0.007091 0.068018 -0.020831 0.000000 0.000000 0.000000
# 3 -0.000382 -0.020831 0.015436 0.000000 0.000000 0.000000
# 4 0.000000 0.000000 0.000000 0.086864 0.000000 0.000000
# 5 0.000000 0.000000 0.000000 0.000000 0.030408 0.000000
# 6 0.000000 0.000000 0.000000 0.000000 0.000000 0.044505
#
#
# Mechanical properties :
#
#
# Convention : Reuss Voigt Hill
#
# Bulk Modulus (GPa) = 26.42720 47.83810 37.13265
# Shear Modulus (GPa) = 15.36352 24.27323 19.81838
#
# Velocity S-wave (km/s) = 2.86829 3.60530 3.25771
# Velocity P-wave (km/s) = 5.01209 6.55347 5.83391
#
# Compressibility (1/GPa) = 0.03783981
#
# Stress axis : x y z
#
# Youngs Moduli (GPa) = 90.96083 14.70194 64.78416
#
# Poissons Ratio (x) = 0.10425 0.02472
# Poissons Ratio (y) = 0.64501 1.34955
# Poissons Ratio (z) = 0.03471 0.30626
#
# Static dielectric constant tensor:
#      x y z
#    x 1.836660 0.000000 0.000000 
#    y 0.000000 1.710660 0.000000 
#    z 0.000000 0.000000 1.666930 
# 
# From -- ./inp_files/35535.got.cif
#   From: 2010.05.17/outbox.cif.g08.bks.cpg/sg48_18_cif.got.tgz:35535.got - 2010.06.03 20:39:00.
