data_PCOD9391866
_publ_section_title
;
Structure prediction by ZEFSAII (Michael W. Deem and Ramdas Pophale) SiO2 
 PCOD9391866
Probable space group: P N N N
;
_chemical_formula_sum "Si O2"
_cell_formula_units_Z 32
_cell_length_a 9.297528
_cell_length_b 11.431581
_cell_length_c 10.777441
_cell_angle_alpha 90.000000
_cell_angle_beta 90.000000
_cell_angle_gamma 90.000000
_cell_volume 1145.485107
_symmetry_space_group_name_H-M "P N N N"
_symmetry_group_IT_number 48
_space_group.IT_coordinate_system_code '2'
_symmetry_cell_setting 'orthorhombic'
loop_
_space_group_symop_operation_xyz
x,y,z
1/2-x,1/2-y,z
x,1/2-y,1/2-z
1/2-x,y,1/2-z
-x,-y,-z
1/2+x,1/2+y,-z
-x,1/2+y,1/2+z
1/2+x,-y,1/2+z
loop_
_atom_site_type_symbol
_atom_site_label
_atom_site_fract_x
_atom_site_fract_y
_atom_site_fract_z
Si Si1 0.815855 0.953208 0.632607
Si Si2 0.668384 0.434188 0.082474
Si Si3 0.450904 0.783954 0.960027
Si Si4 0.497013 0.134758 0.703884
O O1 0.750000 0.889326 0.750000
O O2 0.911033 0.865644 0.550851
O O3 0.683559 0.001380 0.551429
O O4 0.903842 0.064224 0.694555
O O5 0.560135 0.330990 0.124392
O O6 0.822340 0.369943 0.080781
O O7 0.619719 0.541584 0.163983
O O8 0.426339 0.707458 0.087818
O O9 0.417610 0.250000 0.750000
#
# Coordination Sequence:
#
# PCOD9391866 Si02
#       4
#     8   8   8   8
#     4  12  27  53  86 120 166 230 281 351 435 499
#     4  11  26  53  82 122 170 216 287 354 412 526
#     4  11  26  53  82 122 170 216 287 354 412 526
#     4  12  27  53  86 120 166 230 281 351 435 499
#
# _framework density 27.935763000000001
#
# number of rings (size 3 to 8) (size 9 to 14) (size 15 to 20)
#    0.000    0.500    5.000    1.500    0.000    3.500 
#    9.000    2.500    0.000    0.000    0.000    0.000 
#    0.000    0.000    0.000    0.000    0.000    0.000 
#
# Total GULP energy -178379.830642 kJ/mol
# GULP energy per Si atom -5574.369708 kJ/mol
# Density = 2.787218 g / cm^3
# Si number density = 27.935763 Si / 1000 Ang^3
#
#
#
# Elastic Constant Matrix: (Units=GPa)
#
#
# Indices 1 2 3 4 5 6 
#
# 1 86.5603 56.5996 23.3325 0.0000 0.0000 0.0000
# 2 56.5996 236.4540 43.0413 0.0000 0.0000 0.0000
# 3 23.3325 43.0413 72.1870 0.0000 0.0000 0.0000
# 4 0.0000 0.0000 0.0000 924.0704 0.0000 0.0000
# 5 0.0000 0.0000 0.0000 0.0000 39.7827 0.0000
# 6 0.0000 0.0000 0.0000 0.0000 0.0000 42.4688
#
#
#
# Elastic Compliance Matrix: (Units=1/GPa)
#
#
# Indices 1 2 3 4 5 6 
#
# 1 0.014210 -0.002878 -0.002877 0.000000 0.000000 0.000000
# 2 -0.002878 0.005327 -0.002246 0.000000 0.000000 0.000000
# 3 -0.002877 -0.002246 0.016122 0.000000 0.000000 0.000000
# 4 0.000000 0.000000 0.000000 0.001082 0.000000 0.000000
# 5 0.000000 0.000000 0.000000 0.000000 0.025137 0.000000
# 6 0.000000 0.000000 0.000000 0.000000 0.000000 0.023547
#
#
# Mechanical properties :
#
#
# Convention : Reuss Voigt Hill
#
# Bulk Modulus (GPa) = 50.87221 71.23869 61.05545
# Shear Modulus (GPa) = 46.30572 219.41288 132.85930
#
# Velocity S-wave (km/s) = 4.07575 8.87200 6.90377
# Velocity P-wave (km/s) = 6.35602 11.42393 9.24406
#
# Compressibility (1/GPa) = 0.01965710
#
# Stress axis : x y z
#
# Youngs Moduli (GPa) = 70.37388 187.72988 62.02696
#
# Poissons Ratio (x) = 0.54022 0.17846
# Poissons Ratio (y) = 0.20251 0.13931
# Poissons Ratio (z) = 0.20248 0.42163
#
# Static dielectric constant tensor:
#      x y z
#    x 2.822840 0.000000 0.000000 
#    y 0.000000 2.331900 0.000000 
#    z 0.000000 0.000000 3.374350 
# 
# From -- ./inp_files/25992.got.cif
#   From: 2010.05.17/outbox.cif.g08.bks.cpg/sg48_13_cif.got.tgz:25992.got - 2010.06.03 20:39:00.
