data_PCOD9391994
_publ_section_title
;
Structure prediction by ZEFSAII (Michael W. Deem and Ramdas Pophale) SiO2 
 PCOD9391994
Probable space group: P C C M
;
_chemical_formula_sum "Si O2"
_cell_formula_units_Z 64
_cell_length_a 15.876307
_cell_length_b 30.984372
_cell_length_c 8.806367
_cell_angle_alpha 90.000000
_cell_angle_beta 90.000000
_cell_angle_gamma 90.000000
_cell_volume 4332.005176
_symmetry_space_group_name_H-M "P C C M"
_symmetry_group_IT_number 49
_symmetry_cell_setting 'orthorhombic'
loop_
_space_group_symop_operation_xyz
x,y,z
-x,-y,z
x,-y,1/2-z
-x,y,1/2-z
-x,-y,-z
x,y,-z
-x,y,1/2+z
x,-y,1/2+z
loop_
_atom_site_type_symbol
_atom_site_label
_atom_site_fract_x
_atom_site_fract_y
_atom_site_fract_z
Si Si1 0.764741 0.894250 0.818300
Si Si2 0.088973 0.952199 0.818308
Si Si3 0.906434 0.272511 0.682558
Si Si4 0.236416 0.206773 0.182512
Si Si5 0.413154 0.209100 0.325661
Si Si6 0.412669 0.895920 0.175562
Si Si7 0.095415 0.544007 0.817848
Si Si8 0.905658 0.631172 0.818001
O O1 0.835470 0.921987 0.735640
O O2 0.774930 0.843605 0.776452
O O3 0.671391 0.908314 0.765881
O O4 0.772414 0.898264 0.000000
O O5 0.000000 0.936339 0.750000
O O6 0.101904 0.000000 0.750000
O O7 0.083880 0.954437 0.000000
O O8 0.914285 0.269519 0.500000
O O9 0.840663 0.236434 0.735981
O O10 0.871721 0.320871 0.715215
O O11 0.000000 0.267460 0.750000
O O12 0.326823 0.221886 0.243989
O O13 0.239038 0.208774 0.000000
O O14 0.500000 0.224090 0.250000
O O15 0.410855 0.222336 0.500000
O O16 0.414882 0.156566 0.320645
O O17 0.500000 0.911060 0.250000
O O18 0.407097 0.909112 0.000000
O O19 0.133977 0.500000 0.750000
O O20 0.134679 0.588978 0.759118
O O21 0.000000 0.544764 0.750000
O O22 0.092014 0.542512 0.000000
O O23 0.000000 0.633409 0.750000
O O24 0.909114 0.625009 0.000000
#
# Coordination Sequence:
#
# PCOD9391994 Si02
#       8
#     8   8   8   8   8   8   8   8
#     4  10  19  32  50  72  96 120 146 178 215 253
#     4  11  22  38  57  75  94 116 145 179 217 260
#     4   9  18  30  42  56  78 111 147 181 214 249
#     4   9  18  31  45  64  90 117 146 179 213 250
#     4   9  16  26  42  63  86 112 141 175 214 254
#     4   9  16  27  44  68  95 122 149 176 209 249
#     4  10  16  22  32  47  66  87 117 160 209 252
#     4   9  15  24  36  49  67  94 130 168 207 248
#
# _framework density 14.773759
#
# number of rings (size 3 to 8) (size 9 to 14) (size 15 to 20)
#    0.000    2.500    0.000    5.250    0.000    5.000 
#    0.000    1.250    0.000    0.375    0.000    2.625 
#    0.000    0.000    0.000    0.000    0.000    0.625 
#
# Total GULP energy -356463.070580 kJ/mol
# GULP energy per Si atom -5569.735478 kJ/mol
# Density = 1.474013 g / cm^3
# Si number density = 14.773759 Si / 1000 Ang^3
#
#
#
# Elastic Constant Matrix: (Units=GPa)
#
#
# Indices 1 2 3 4 5 6 
#
# 1 101.4187 56.0391 42.0481 0.0000 0.0000 0.0000
# 2 56.0391 57.1622 38.6532 0.0000 0.0000 0.0000
# 3 42.0481 38.6532 85.8646 0.0000 0.0000 0.0000
# 4 0.0000 0.0000 0.0000 15.6059 0.0000 0.0000
# 5 0.0000 0.0000 0.0000 0.0000 23.0297 0.0000
# 6 0.0000 0.0000 0.0000 0.0000 0.0000 -1.4393
#
#
#
# Elastic Compliance Matrix: (Units=1/GPa)
#
#
# Indices 1 2 3 4 5 6 
#
# 1 0.021649 -0.020205 -0.001506 0.000000 0.000000 0.000000
# 2 -0.020205 0.044008 -0.009916 0.000000 0.000000 0.000000
# 3 -0.001506 -0.009916 0.016848 0.000000 0.000000 0.000000
# 4 0.000000 0.000000 0.000000 0.064078 0.000000 0.000000
# 5 0.000000 0.000000 0.000000 0.000000 0.043422 0.000000
# 6 0.000000 0.000000 0.000000 0.000000 0.000000 -0.694805
#
#
# Mechanical properties :
#
#
# Convention : Reuss Voigt Hill
#
# Bulk Modulus (GPa) = 51.94895 57.54737 54.74816
# Shear Modulus (GPa) = -11.49084 14.61961 1.56438
#
# Velocity S-wave (km/s) = -2.79191 3.14915 1.03014
# Velocity P-wave (km/s) = 4.98461 7.22910 6.20911
#
# Compressibility (1/GPa) = 0.01924967
#
# Stress axis : x y z
#
# Youngs Moduli (GPa) = 46.19159 22.72320 59.35591
#
# Poissons Ratio (x) = 0.45913 0.08938
# Poissons Ratio (y) = 0.93332 0.58858
# Poissons Ratio (z) = 0.06955 0.22533
#
# Static dielectric constant tensor:
#      x y z
#    x 1.468470 0.000000 0.000000 
#    y 0.000000 1.527360 0.000000 
#    z 0.000000 0.000000 1.495610 
# 
# From -- ./inp_files/4541.got.cif
#   From: 2010.05.17/outbox.cif.g08.bks.cpg/sg49_3_cif.got.tgz:4541.got - 2010.06.03 21:02:19.
