data_PCOD9391788
_publ_section_title
;
Structure prediction by ZEFSAII (Michael W. Deem and Ramdas Pophale) SiO2 
 PCOD9391788
Probable space group: P N N N
;
_chemical_formula_sum "Si O2"
_cell_formula_units_Z 48
_cell_length_a 15.141413
_cell_length_b 5.025938
_cell_length_c 28.888323
_cell_angle_alpha 90.000000
_cell_angle_beta 90.000000
_cell_angle_gamma 90.000000
_cell_volume 2198.395688
_symmetry_space_group_name_H-M "P N N N"
_symmetry_group_IT_number 48
_space_group.IT_coordinate_system_code '2'
_symmetry_cell_setting 'orthorhombic'
loop_
_space_group_symop_operation_xyz
x,y,z
1/2-x,1/2-y,z
x,1/2-y,1/2-z
1/2-x,y,1/2-z
-x,-y,-z
1/2+x,1/2+y,-z
-x,1/2+y,1/2+z
1/2+x,-y,1/2+z
loop_
_atom_site_type_symbol
_atom_site_label
_atom_site_fract_x
_atom_site_fract_y
_atom_site_fract_z
Si Si1 0.558743 0.887772 0.797281
Si Si2 0.559682 0.303530 0.030561
Si Si3 0.507503 0.602575 0.149216
Si Si4 0.189049 0.998763 0.891467
Si Si5 0.580167 0.404658 0.566044
Si Si6 0.250000 0.750000 0.120127
Si Si7 0.250000 0.250000 0.321011
O O1 0.526205 0.750000 0.750000
O O2 0.527652 0.685033 0.836747
O O3 0.665556 0.878869 0.795834
O O4 0.524718 0.176912 0.813208
O O5 0.635567 0.421263 0.062232
O O6 0.492391 0.136066 0.062030
O O7 0.500000 0.500000 0.000000
O O8 0.600918 0.136667 0.988264
O O9 0.613022 0.579826 0.144864
O O10 0.470516 0.693324 0.099076
O O11 0.250000 0.750000 0.877320
O O12 0.250000 0.250000 0.900449
O O13 0.674722 0.401709 0.590980
O O14 0.286842 0.505140 0.150480
#
# Coordination Sequence:
#
# PCOD9391788 Si02
#       7
#     8   8   8   8   8   4   4
#     4  12  25  44  74 108 144 185 233 287 357 436
#     4  11  25  41  68  97 142 186 240 297 345 403
#     4  12  24  47  72  98 142 189 235 290 361 428
#     4  12  27  47  71 105 137 186 243 299 359 416
#     4  11  24  43  62 100 139 196 234 289 338 412
#     4  12  26  38  69  98 146 194 236 274 345 424
#     4  12  23  44  64 110 146 190 232 280 346 418
#
# _framework density 21.834105999999998
#
# number of rings (size 3 to 8) (size 9 to 14) (size 15 to 20)
#    0.000    0.333    5.000    3.750    5.833    0.000 
#    0.000    2.500    0.000    7.500    0.000    0.000 
#    0.000    0.000    0.000    0.000    0.000    0.000 
#
# Total GULP energy -267969.148065 kJ/mol
# GULP energy per Si atom -5582.690585 kJ/mol
# Density = 2.178441 g / cm^3
# Si number density = 21.834106 Si / 1000 Ang^3
#
#
#
# Elastic Constant Matrix: (Units=GPa)
#
#
# Indices 1 2 3 4 5 6 
#
# 1 115.7932 1.4890 5.1350 0.0000 0.0000 0.0000
# 2 1.4890 57.1192 -3.7493 0.0000 0.0000 0.0000
# 3 5.1350 -3.7493 70.9864 0.0000 0.0000 0.0000
# 4 0.0000 0.0000 0.0000 30.5583 0.0000 0.0000
# 5 0.0000 0.0000 0.0000 0.0000 -22.8506 0.0000
# 6 0.0000 0.0000 0.0000 0.0000 0.0000 42.0302
#
#
#
# Elastic Compliance Matrix: (Units=1/GPa)
#
#
# Indices 1 2 3 4 5 6 
#
# 1 0.008668 -0.000268 -0.000641 0.000000 0.000000 0.000000
# 2 -0.000268 0.017576 0.000948 0.000000 0.000000 0.000000
# 3 -0.000641 0.000948 0.014184 0.000000 0.000000 0.000000
# 4 0.000000 0.000000 0.000000 0.032724 0.000000 0.000000
# 5 0.000000 0.000000 0.000000 0.000000 -0.043763 0.000000
# 6 0.000000 0.000000 0.000000 0.000000 0.000000 0.023792
#
#
# Mechanical properties :
#
#
# Convention : Reuss Voigt Hill
#
# Bulk Modulus (GPa) = 24.68826 27.73868 26.21347
# Shear Modulus (GPa) = 75.06730 26.01586 50.54158
#
# Velocity S-wave (km/s) = 5.86987 3.45559 4.81646
# Velocity P-wave (km/s) = 7.56784 5.35288 6.55460
#
# Compressibility (1/GPa) = 0.04050508
#
# Stress axis : x y z
#
# Youngs Moduli (GPa) = 115.36730 56.89432 70.50372
#
# Poissons Ratio (x) = 0.01525 0.04521
# Poissons Ratio (y) = 0.03092 -0.06682
# Poissons Ratio (z) = 0.07397 -0.05392
#
# Static dielectric constant tensor:
#      x y z
#    x 1.794630 0.000000 0.000000 
#    y 0.000000 1.868180 0.000000 
#    z 0.000000 0.000000 1.860950 
# 
# From -- ./inp_files/37909.got.cif
#   From: 2010.05.17/outbox.cif.g08.bks.cpg/sg48_19_cif.got.tgz:37909.got - 2010.06.03 20:39:00.
