data_PCOD9391696
_publ_section_title
;
Structure prediction by ZEFSAII (Michael W. Deem and Ramdas Pophale) SiO2 
 PCOD9391696
Probable space group: P N N N
;
_chemical_formula_sum "Si O2"
_cell_formula_units_Z 32
_cell_length_a 10.406634
_cell_length_b 8.698880
_cell_length_c 15.021668
_cell_angle_alpha 90.000000
_cell_angle_beta 90.000000
_cell_angle_gamma 90.000000
_cell_volume 1359.852424
_symmetry_space_group_name_H-M "P N N N"
_symmetry_group_IT_number 48
_space_group.IT_coordinate_system_code '2'
_symmetry_cell_setting 'orthorhombic'
loop_
_space_group_symop_operation_xyz
x,y,z
1/2-x,1/2-y,z
x,1/2-y,1/2-z
1/2-x,y,1/2-z
-x,-y,-z
1/2+x,1/2+y,-z
-x,1/2+y,1/2+z
1/2+x,-y,1/2+z
loop_
_atom_site_type_symbol
_atom_site_label
_atom_site_fract_x
_atom_site_fract_y
_atom_site_fract_z
Si Si1 0.035879 0.583323 0.907084
Si Si2 0.301273 0.074374 0.615900
Si Si3 0.130176 0.133241 0.080367
Si Si4 0.550827 0.072827 0.733670
O O1 0.182351 0.542204 0.883982
O O2 0.952375 0.511869 0.827495
O O3 0.996688 0.760640 0.912111
O O4 0.000000 0.500000 0.000000
O O5 0.250000 0.250000 0.622873
O O6 0.362888 0.063516 0.517899
O O7 0.407434 0.059812 0.691655
O O8 0.250000 0.250000 0.087118
O O9 0.135240 0.010574 0.159136
O O10 0.582236 0.250000 0.750000
#
# Coordination Sequence:
#
# PCOD9391696 Si02
#       4
#     8   8   8   8
#     4  12  23  43  73 106 143 199 239 304 377 438
#     4  11  22  45  78 102 147 188 250 317 368 437
#     4  11  25  48  73 103 154 194 244 313 382 446
#     4  12  25  43  75 107 142 191 255 304 375 448
#
# _framework density 23.531963999999999
#
# number of rings (size 3 to 8) (size 9 to 14) (size 15 to 20)
#    0.000    0.500    7.500    2.250    0.000    3.000 
#    0.000    5.000    0.000    0.000    0.000    0.000 
#    0.000    0.000    0.000    0.000    0.000    0.000 
#
# Total GULP energy -179386.940037 kJ/mol
# GULP energy per Si atom -5605.841876 kJ/mol
# Density = 2.347840 g / cm^3
# Si number density = 23.531964 Si / 1000 Ang^3
#
#
#
# Elastic Constant Matrix: (Units=GPa)
#
#
# Indices 1 2 3 4 5 6 
#
# 1 108.2023 37.4933 13.0593 0.0000 0.0000 0.0000
# 2 37.4933 124.6876 55.7544 0.0000 0.0000 0.0000
# 3 13.0593 55.7544 195.5346 0.0000 0.0000 0.0000
# 4 0.0000 0.0000 0.0000 45.1656 0.0000 0.0000
# 5 0.0000 0.0000 0.0000 0.0000 28.1280 0.0000
# 6 0.0000 0.0000 0.0000 0.0000 0.0000 45.1269
#
#
#
# Elastic Compliance Matrix: (Units=1/GPa)
#
#
# Indices 1 2 3 4 5 6 
#
# 1 0.010325 -0.003205 0.000224 0.000000 0.000000 0.000000
# 2 -0.003205 0.010187 -0.002691 0.000000 0.000000 0.000000
# 3 0.000224 -0.002691 0.005866 0.000000 0.000000 0.000000
# 4 0.000000 0.000000 0.000000 0.022141 0.000000 0.000000
# 5 0.000000 0.000000 0.000000 0.000000 0.035552 0.000000
# 6 0.000000 0.000000 0.000000 0.000000 0.000000 0.022160
#
#
# Mechanical properties :
#
#
# Convention : Reuss Voigt Hill
#
# Bulk Modulus (GPa) = 66.50753 71.22649 68.86701
# Shear Modulus (GPa) = 40.78767 45.15859 42.97313
#
# Velocity S-wave (km/s) = 4.16779 4.38543 4.27800
# Velocity P-wave (km/s) = 7.17528 7.48173 7.33011
#
# Compressibility (1/GPa) = 0.01503589
#
# Stress axis : x y z
#
# Youngs Moduli (GPa) = 96.84765 98.16494 170.46223
#
# Poissons Ratio (x) = 0.31463 -0.03823
# Poissons Ratio (y) = 0.31041 0.45865
# Poissons Ratio (z) = -0.02172 0.26412
#
# Static dielectric constant tensor:
#      x y z
#    x 1.958690 0.000000 0.000000 
#    y 0.000000 1.861440 0.000000 
#    z 0.000000 0.000000 1.829080 
# 
# From -- ./inp_files/10091.got.cif
#   From: 2010.05.17/outbox.cif.g08.bks.cpg/sg48_6_cif.got.tgz:10091.got - 2010.06.03 20:39:00.
