data_PCOD9391185
_publ_section_title
;
Structure prediction by ZEFSAII (Michael W. Deem and Ramdas Pophale) SiO2 
 PCOD9391185
Probable space group: P N N N
;
_chemical_formula_sum "Si O2"
_cell_formula_units_Z 48
_cell_length_a 10.249034
_cell_length_b 24.696011
_cell_length_c 8.414035
_cell_angle_alpha 90.000000
_cell_angle_beta 90.000000
_cell_angle_gamma 90.000000
_cell_volume 2129.678556
_symmetry_space_group_name_H-M "P N N N"
_symmetry_group_IT_number 48
_space_group.IT_coordinate_system_code '2'
_symmetry_cell_setting 'orthorhombic'
loop_
_space_group_symop_operation_xyz
x,y,z
1/2-x,1/2-y,z
x,1/2-y,1/2-z
1/2-x,y,1/2-z
-x,-y,-z
1/2+x,1/2+y,-z
-x,1/2+y,1/2+z
1/2+x,-y,1/2+z
loop_
_atom_site_type_symbol
_atom_site_label
_atom_site_fract_x
_atom_site_fract_y
_atom_site_fract_z
Si Si1 0.890603 0.540653 0.563780
Si Si2 0.112723 0.463433 0.059488
Si Si3 0.281789 0.813677 0.922842
Si Si4 0.046654 0.802978 0.132201
Si Si5 0.322202 0.331374 0.075116
Si Si6 0.441277 0.155925 0.938236
O O1 0.887554 0.533146 0.752045
O O2 0.753371 0.520583 0.493454
O O3 0.878332 0.606875 0.552508
O O4 0.000000 0.500000 0.500000
O O5 0.083379 0.403005 0.006509
O O6 0.000000 0.500000 0.000000
O O7 0.250000 0.750000 0.912581
O O8 0.250000 0.838255 0.750000
O O9 0.431648 0.822234 0.968511
O O10 0.179733 0.828220 0.062373
O O11 0.066292 0.750000 0.250000
O O12 0.978505 0.843581 0.254499
O O13 0.946740 0.795781 0.982865
O O14 0.250000 0.326939 0.250000
O O15 0.199676 0.317057 0.962674
#
# Coordination Sequence:
#
# PCOD9391185 Si02
#       6
#     8   8   8   8   8   8
#     4  10  22  44  72  99 141 190 235 298 362 433
#     4  10  23  44  65 103 144 177 241 295 358 437
#     4  11  24  45  71  99 140 188 235 295 362 434
#     4  12  26  45  71 106 141 184 247 304 363 444
#     4  11  23  47  72 100 145 191 244 303 365 451
#     4  11  23  44  70  98 144 188 234 300 371 423
#
# _framework density 22.538612000000001
#
# number of rings (size 3 to 8) (size 9 to 14) (size 15 to 20)
#    0.000    1.167    5.000    2.000    2.333    3.333 
#    3.000    0.833    0.000    0.000    0.000    0.000 
#    0.000    0.000    0.000    0.000    0.000    0.000 
#
# Total GULP energy -267619.961305 kJ/mol
# GULP energy per Si atom -5575.415861 kJ/mol
# Density = 2.248731 g / cm^3
# Si number density = 22.538612 Si / 1000 Ang^3
#
#
#
# Elastic Constant Matrix: (Units=GPa)
#
#
# Indices 1 2 3 4 5 6 
#
# 1 182.7818 64.5372 41.4200 0.0000 0.0000 0.0000
# 2 64.5372 57.3723 16.7424 0.0000 0.0000 0.0000
# 3 41.4200 16.7424 107.8583 0.0000 0.0000 0.0000
# 4 0.0000 0.0000 0.0000 32.4142 0.0000 0.0000
# 5 0.0000 0.0000 0.0000 0.0000 46.9454 0.0000
# 6 0.0000 0.0000 0.0000 0.0000 0.0000 38.5754
#
#
#
# Elastic Compliance Matrix: (Units=1/GPa)
#
#
# Indices 1 2 3 4 5 6 
#
# 1 0.009503 -0.010081 -0.002084 0.000000 0.000000 0.000000
# 2 -0.010081 0.028952 -0.000623 0.000000 0.000000 0.000000
# 3 -0.002084 -0.000623 0.010169 0.000000 0.000000 0.000000
# 4 0.000000 0.000000 0.000000 0.030851 0.000000 0.000000
# 5 0.000000 0.000000 0.000000 0.000000 0.021301 0.000000
# 6 0.000000 0.000000 0.000000 0.000000 0.000000 0.025923
#
#
# Mechanical properties :
#
#
# Convention : Reuss Voigt Hill
#
# Bulk Modulus (GPa) = 43.39030 65.93463 54.66247
# Shear Modulus (GPa) = 31.25819 38.60785 34.93302
#
# Velocity S-wave (km/s) = 3.72811 4.14329 3.94117
# Velocity P-wave (km/s) = 6.15021 7.22542 6.70939
#
# Compressibility (1/GPa) = 0.02304662
#
# Stress axis : x y z
#
# Youngs Moduli (GPa) = 105.23053 34.53977 98.34248
#
# Poissons Ratio (x) = 0.34821 0.20499
# Poissons Ratio (y) = 1.06087 0.06123
# Poissons Ratio (z) = 0.21935 0.02151
#
# Static dielectric constant tensor:
#      x y z
#    x 1.950280 0.000000 0.000000 
#    y 0.000000 1.905570 0.000000 
#    z 0.000000 0.000000 1.926740 
# 
# From -- ./inp_files/9460.got.cif
#   From: 2010.05.17/outbox.cif.g08.bks.cpg/sg48_5_cif.got.tgz:9460.got - 2010.06.03 20:39:00.
