data_PCOD9391803
_publ_section_title
;
Structure prediction by ZEFSAII (Michael W. Deem and Ramdas Pophale) SiO2 
 PCOD9391803
Probable space group: P N N N
;
_chemical_formula_sum "Si O2"
_cell_formula_units_Z 60
_cell_length_a 23.180044
_cell_length_b 12.116109
_cell_length_c 9.968103
_cell_angle_alpha 90.000000
_cell_angle_beta 90.000000
_cell_angle_gamma 90.000000
_cell_volume 2799.561063
_symmetry_space_group_name_H-M "P N N N"
_symmetry_group_IT_number 48
_space_group.IT_coordinate_system_code '2'
_symmetry_cell_setting 'orthorhombic'
loop_
_space_group_symop_operation_xyz
x,y,z
1/2-x,1/2-y,z
x,1/2-y,1/2-z
1/2-x,y,1/2-z
-x,-y,-z
1/2+x,1/2+y,-z
-x,1/2+y,1/2+z
1/2+x,-y,1/2+z
loop_
_atom_site_type_symbol
_atom_site_label
_atom_site_fract_x
_atom_site_fract_y
_atom_site_fract_z
Si Si1 0.462980 0.781202 0.991978
Si Si2 0.909218 0.669921 0.935794
Si Si3 0.627148 0.608942 0.842303
Si Si4 0.799673 0.077617 0.843503
Si Si5 0.104420 0.529502 0.862003
Si Si6 0.062913 0.532531 0.561867
Si Si7 0.732117 0.120570 0.106340
Si Si8 0.606006 0.250000 0.750000
O O1 0.531747 0.774488 0.986073
O O2 0.445501 0.886728 0.906452
O O3 0.437200 0.665925 0.939295
O O4 0.435691 0.800784 0.138007
O O5 0.865694 0.770951 0.907135
O O6 0.915302 0.619261 0.785690
O O7 0.893217 0.577365 0.042673
O O8 0.682421 0.543108 0.791184
O O9 0.604350 0.526943 0.956141
O O10 0.750000 0.124131 0.750000
O O11 0.852834 0.160935 0.820992
O O12 0.770567 0.069886 0.988748
O O13 0.086641 0.499467 0.709286
O O14 0.163696 0.597019 0.894158
O O15 0.000000 0.500000 0.500000
O O16 0.750000 0.250000 0.101801
O O17 0.750000 0.074523 0.250000
#
# Coordination Sequence:
#
# PCOD9391803 Si02
#       8
#     8   8   8   8   8   8   8   4
#     4  12  25  41  70 103 143 185 227 292 363 436
#     4  11  26  47  67  99 145 184 241 289 356 436
#     4  11  24  45  69  96 139 191 237 300 352 431
#     4  12  23  43  69 100 135 181 242 302 357 421
#     4  12  27  44  71 106 141 188 237 295 357 436
#     4  12  25  43  71 102 145 187 236 283 362 433
#     4  11  25  43  68 100 140 178 227 296 372 419
#     4  12  25  38  72 108 144 184 239 300 368 438
#
# _framework density 21.431932
#
# number of rings (size 3 to 8) (size 9 to 14) (size 15 to 20)
#    0.000    0.400    2.667    6.600    7.467    0.533 
#    0.000    4.667    0.000    0.800    0.000    0.000 
#    0.000    0.000    0.000    0.000    0.000    0.000 
#
# Total GULP energy -334951.218604 kJ/mol
# GULP energy per Si atom -5582.520310 kJ/mol
# Density = 2.138315 g / cm^3
# Si number density = 21.431932 Si / 1000 Ang^3
#
#
#
# Elastic Constant Matrix: (Units=GPa)
#
#
# Indices 1 2 3 4 5 6 
#
# 1 56.6358 29.4317 32.3062 0.0000 0.0000 0.0000
# 2 29.4317 110.2219 36.7091 0.0000 0.0000 0.0000
# 3 32.3062 36.7091 142.5435 0.0000 0.0000 0.0000
# 4 0.0000 0.0000 0.0000 26.4685 0.0000 0.0000
# 5 0.0000 0.0000 0.0000 0.0000 33.8027 0.0000
# 6 0.0000 0.0000 0.0000 0.0000 0.0000 28.3599
#
#
#
# Elastic Compliance Matrix: (Units=1/GPa)
#
#
# Indices 1 2 3 4 5 6 
#
# 1 0.022276 -0.004667 -0.003847 0.000000 0.000000 0.000000
# 2 -0.004667 0.010902 -0.001750 0.000000 0.000000 0.000000
# 3 -0.003847 -0.001750 0.008338 0.000000 0.000000 0.000000
# 4 0.000000 0.000000 0.000000 0.037781 0.000000 0.000000
# 5 0.000000 0.000000 0.000000 0.000000 0.029583 0.000000
# 6 0.000000 0.000000 0.000000 0.000000 0.000000 0.035261
#
#
# Mechanical properties :
#
#
# Convention : Reuss Voigt Hill
#
# Bulk Modulus (GPa) = 47.64518 56.25500 51.95009
# Shear Modulus (GPa) = 29.12662 31.78985 30.45823
#
# Velocity S-wave (km/s) = 3.69050 3.85553 3.77392
# Velocity P-wave (km/s) = 6.35916 6.79157 6.57892
#
# Compressibility (1/GPa) = 0.02098848
#
# Stress axis : x y z
#
# Youngs Moduli (GPa) = 44.89075 91.72996 119.93500
#
# Poissons Ratio (x) = 0.42811 0.46137
# Poissons Ratio (y) = 0.20951 0.20985
# Poissons Ratio (z) = 0.17269 0.16050
#
# Static dielectric constant tensor:
#      x y z
#    x 1.921200 0.000000 0.000000 
#    y 0.000000 1.802260 0.000000 
#    z 0.000000 0.000000 1.797260 
# 
# From -- ./inp_files/22933.got.cif
#   From: 2010.05.17/outbox.cif.g08.bks.cpg/sg48_12_cif.got.tgz:22933.got - 2010.06.03 20:39:00.
