data_PCOD9391253
_publ_section_title
;
Structure prediction by ZEFSAII (Michael W. Deem and Ramdas Pophale) SiO2 
 PCOD9391253
Probable space group: P N N N
;
_chemical_formula_sum "Si O2"
_cell_formula_units_Z 32
_cell_length_a 9.592646
_cell_length_b 25.767838
_cell_length_c 4.995007
_cell_angle_alpha 90.000000
_cell_angle_beta 90.000000
_cell_angle_gamma 90.000000
_cell_volume 1234.674562
_symmetry_space_group_name_H-M "P N N N"
_symmetry_group_IT_number 48
_space_group.IT_coordinate_system_code '2'
_symmetry_cell_setting 'orthorhombic'
loop_
_space_group_symop_operation_xyz
x,y,z
1/2-x,1/2-y,z
x,1/2-y,1/2-z
1/2-x,y,1/2-z
-x,-y,-z
1/2+x,1/2+y,-z
-x,1/2+y,1/2+z
1/2+x,-y,1/2+z
loop_
_atom_site_type_symbol
_atom_site_label
_atom_site_fract_x
_atom_site_fract_y
_atom_site_fract_z
Si Si1 0.831435 0.045756 0.994810
Si Si2 0.411081 0.811852 0.710209
Si Si3 0.592588 0.656652 0.290656
Si Si4 0.385925 0.070413 0.408499
O O1 0.750000 0.072724 0.750000
O O2 0.881824 0.991521 0.865733
O O3 0.750000 0.025673 0.250000
O O4 0.949814 0.079352 0.141174
O O5 0.404378 0.750000 0.750000
O O6 0.250000 0.830736 0.750000
O O7 0.483299 0.820574 0.422883
O O8 0.523345 0.832875 0.926415
O O9 0.750000 0.678147 0.250000
O O10 0.609863 0.595673 0.205862
O O11 0.250000 0.091051 0.250000
#
# Coordination Sequence:
#
# PCOD9391253 Si02
#       4
#     8   8   8   8
#     4  10  23  41  64  92 129 182 235 278 325 388
#     4  11  26  48  71  97 132 172 215 271 339 409
#     4  12  25  42  69 102 135 172 218 275 337 402
#     4  10  23  42  64  94 137 178 223 280 337 389
#
# _framework density 25.917763000000001
#
# number of rings (size 3 to 8) (size 9 to 14) (size 15 to 20)
#    0.000    1.250    0.000    4.500    0.000   23.000 
#    0.000    0.000    0.000    0.000    0.000    0.000 
#    0.000    0.000    0.000    0.000    0.000    0.000 
#
# Total GULP energy -178345.612629 kJ/mol
# GULP energy per Si atom -5573.300395 kJ/mol
# Density = 2.585877 g / cm^3
# Si number density = 25.917763 Si / 1000 Ang^3
#
#
#
# Elastic Constant Matrix: (Units=GPa)
#
#
# Indices 1 2 3 4 5 6 
#
# 1 193.0282 37.7013 27.2698 0.0000 0.0000 0.0000
# 2 37.7013 65.6439 9.1549 0.0000 0.0000 0.0000
# 3 27.2698 9.1549 90.5822 0.0000 0.0000 0.0000
# 4 0.0000 0.0000 0.0000 38.8943 0.0000 0.0000
# 5 0.0000 0.0000 0.0000 0.0000 43.1835 0.0000
# 6 0.0000 0.0000 0.0000 0.0000 0.0000 23.2632
#
#
#
# Elastic Compliance Matrix: (Units=1/GPa)
#
#
# Indices 1 2 3 4 5 6 
#
# 1 0.006026 -0.003254 -0.001485 0.000000 0.000000 0.000000
# 2 -0.003254 0.017208 -0.000760 0.000000 0.000000 0.000000
# 3 -0.001485 -0.000760 0.011564 0.000000 0.000000 0.000000
# 4 0.000000 0.000000 0.000000 0.025711 0.000000 0.000000
# 5 0.000000 0.000000 0.000000 0.000000 0.023157 0.000000
# 6 0.000000 0.000000 0.000000 0.000000 0.000000 0.042986
#
#
# Mechanical properties :
#
#
# Convention : Reuss Voigt Hill
#
# Bulk Modulus (GPa) = 42.01577 55.27849 48.64713
# Shear Modulus (GPa) = 34.34469 39.41007 36.87738
#
# Velocity S-wave (km/s) = 3.64420 3.90369 3.77618
# Velocity P-wave (km/s) = 5.82694 6.45702 6.15006
#
# Compressibility (1/GPa) = 0.02380059
#
# Stress axis : x y z
#
# Youngs Moduli (GPa) = 165.94971 58.11121 86.47818
#
# Poissons Ratio (x) = 0.18908 0.12844
# Poissons Ratio (y) = 0.53996 0.06569
# Poissons Ratio (z) = 0.24648 0.04415
#
# Static dielectric constant tensor:
#      x y z
#    x 2.359140 0.000000 0.000000 
#    y 0.000000 2.139370 0.000000 
#    z 0.000000 0.000000 3.353590 
# 
# From -- ./inp_files/1134.got.cif
#   From: 2010.05.17/outbox.cif.g08.bks.cpg/sg48_1_cif.got.tgz:1134.got - 2010.06.03 20:39:00.
