data_PCOD9391254
_publ_section_title
;
Structure prediction by ZEFSAII (Michael W. Deem and Ramdas Pophale) SiO2 
 PCOD9391254
Probable space group: P N N N
;
_chemical_formula_sum "Si O2"
_cell_formula_units_Z 56
_cell_length_a 19.125956
_cell_length_b 8.404831
_cell_length_c 16.359930
_cell_angle_alpha 90.000000
_cell_angle_beta 90.000000
_cell_angle_gamma 90.000000
_cell_volume 2629.865748
_symmetry_space_group_name_H-M "P N N N"
_symmetry_group_IT_number 48
_space_group.IT_coordinate_system_code '2'
_symmetry_cell_setting 'orthorhombic'
loop_
_space_group_symop_operation_xyz
x,y,z
1/2-x,1/2-y,z
x,1/2-y,1/2-z
1/2-x,y,1/2-z
-x,-y,-z
1/2+x,1/2+y,-z
-x,1/2+y,1/2+z
1/2+x,-y,1/2+z
loop_
_atom_site_type_symbol
_atom_site_label
_atom_site_fract_x
_atom_site_fract_y
_atom_site_fract_z
Si Si1 0.781029 0.927175 0.169493
Si Si2 0.532296 0.847011 0.671236
Si Si3 0.645858 0.072651 0.716827
Si Si4 0.794655 0.099095 0.478980
Si Si5 0.778584 0.928492 0.640334
Si Si6 0.570127 0.921390 0.245340
Si Si7 0.453753 0.585782 0.570639
O O1 0.750000 0.750000 0.158619
O O2 0.750000 0.009402 0.250000
O O3 0.859617 0.900424 0.200745
O O4 0.752966 0.029090 0.094397
O O5 0.557561 0.750000 0.750000
O O6 0.503993 0.728707 0.602340
O O7 0.589243 0.985894 0.659085
O O8 0.466343 0.939796 0.705760
O O9 0.632697 0.250000 0.750000
O O10 0.717904 0.050412 0.667937
O O11 0.658398 0.970149 0.799373
O O12 0.750000 0.250000 0.508635
O O13 0.875701 0.139283 0.458044
O O14 0.798477 0.964333 0.548186
O O15 0.750000 0.750000 0.651286
O O16 0.533563 0.750000 0.250000
O O17 0.566440 0.976470 0.150382
O O18 0.500000 0.500000 0.500000
#
# Coordination Sequence:
#
# PCOD9391254 Si02
#       7
#     8   8   8   8   8   8   8
#     4  11  20  40  66  95 131 172 235 285 344 418
#     4  10  23  41  64  95 131 183 230 274 349 426
#     4  11  22  43  69  99 135 176 233 292 343 422
#     4  12  25  42  67  99 142 184 228 298 352 418
#     4  11  24  41  70 101 135 178 230 282 353 419
#     4  11  21  42  69 100 130 183 239 287 355 436
#     4  11  26  45  68  98 145 186 235 300 364 432
#
# _framework density 21.293862000000001
#
# number of rings (size 3 to 8) (size 9 to 14) (size 15 to 20)
#    0.000    1.000    2.857    5.143    6.000    0.286 
#    2.571    0.714    0.000    0.000    0.000    0.000 
#    0.000    0.000    0.000    0.000    0.000    0.000 
#
# Total GULP energy -312009.897902 kJ/mol
# GULP energy per Si atom -5571.605320 kJ/mol
# Density = 2.124540 g / cm^3
# Si number density = 21.293862 Si / 1000 Ang^3
#
#
#
# Elastic Constant Matrix: (Units=GPa)
#
#
# Indices 1 2 3 4 5 6 
#
# 1 115.6051 54.8170 33.2415 0.0000 0.0000 0.0000
# 2 54.8170 134.9844 44.1139 0.0000 0.0000 0.0000
# 3 33.2415 44.1139 110.1250 0.0000 0.0000 0.0000
# 4 0.0000 0.0000 0.0000 36.3995 0.0000 0.0000
# 5 0.0000 0.0000 0.0000 0.0000 9.1293 0.0000
# 6 0.0000 0.0000 0.0000 0.0000 0.0000 26.8979
#
#
#
# Elastic Compliance Matrix: (Units=1/GPa)
#
#
# Indices 1 2 3 4 5 6 
#
# 1 0.011002 -0.003892 -0.001762 0.000000 0.000000 0.000000
# 2 -0.003892 0.009901 -0.002791 0.000000 0.000000 0.000000
# 3 -0.001762 -0.002791 0.010731 0.000000 0.000000 0.000000
# 4 0.000000 0.000000 0.000000 0.027473 0.000000 0.000000
# 5 0.000000 0.000000 0.000000 0.000000 0.109537 0.000000
# 6 0.000000 0.000000 0.000000 0.000000 0.000000 0.037178
#
#
# Mechanical properties :
#
#
# Convention : Reuss Voigt Hill
#
# Bulk Modulus (GPa) = 67.82836 69.45103 68.63970
# Shear Modulus (GPa) = 21.96572 29.72147 25.84360
#
# Velocity S-wave (km/s) = 3.21526 3.74006 3.48755
# Velocity P-wave (km/s) = 6.76066 7.16499 6.96576
#
# Compressibility (1/GPa) = 0.01474310
#
# Stress axis : x y z
#
# Youngs Moduli (GPa) = 90.88950 100.99875 93.19160
#
# Poissons Ratio (x) = 0.39311 0.16420
# Poissons Ratio (y) = 0.35376 0.26013
# Poissons Ratio (z) = 0.16014 0.28192
#
# Static dielectric constant tensor:
#      x y z
#    x 1.794410 0.000000 0.000000 
#    y 0.000000 2.152830 0.000000 
#    z 0.000000 0.000000 1.715680 
# 
# From -- ./inp_files/28336.got.cif
#   From: 2010.05.17/outbox.cif.g08.bks.cpg/sg48_15_cif.got.tgz:28336.got - 2010.06.03 20:39:00.
