data_PCOD9391192
_publ_section_title
;
Structure prediction by ZEFSAII (Michael W. Deem and Ramdas Pophale) SiO2 
 PCOD9391192
Probable space group: P N N N
;
_chemical_formula_sum "Si O2"
_cell_formula_units_Z 36
_cell_length_a 12.135091
_cell_length_b 5.994510
_cell_length_c 21.625252
_cell_angle_alpha 90.000000
_cell_angle_beta 90.000000
_cell_angle_gamma 90.000000
_cell_volume 1573.105696
_symmetry_space_group_name_H-M "P N N N"
_symmetry_group_IT_number 48
_space_group.IT_coordinate_system_code '2'
_symmetry_cell_setting 'orthorhombic'
loop_
_space_group_symop_operation_xyz
x,y,z
1/2-x,1/2-y,z
x,1/2-y,1/2-z
1/2-x,y,1/2-z
-x,-y,-z
1/2+x,1/2+y,-z
-x,1/2+y,1/2+z
1/2+x,-y,1/2+z
loop_
_atom_site_type_symbol
_atom_site_label
_atom_site_fract_x
_atom_site_fract_y
_atom_site_fract_z
Si Si1 0.750000 0.250000 0.250000
Si Si2 0.567447 0.058790 0.838427
Si Si3 0.250000 0.750000 0.250000
Si Si4 0.137453 0.117667 0.835954
Si Si5 0.504130 0.828844 0.582354
Si Si6 0.626652 0.273958 0.968880
O O1 0.672699 0.418317 0.210517
O O2 0.667543 0.100977 0.791645
O O3 0.460678 0.207075 0.819152
O O4 0.607246 0.140959 0.905818
O O5 0.534853 0.806738 0.856042
O O6 0.250000 0.250000 0.846136
O O7 0.089718 0.002919 0.896903
O O8 0.450145 0.701425 0.525392
O O9 0.601504 0.972789 0.552712
O O10 0.750000 0.250000 0.990076
#
# Coordination Sequence:
#
# PCOD9391192 Si02
#       6
#     2   8   2   8   8   8
#     4  12  26  44  70 104 144 192 226 306 374 426
#     4  11  25  48  70 104 147 196 248 296 371 448
#     4  12  28  48  74 104 154 196 252 306 352 468
#     4  11  26  44  72 106 138 185 244 303 366 441
#     4  10  24  45  74 106 142 192 246 308 375 438
#     4  10  22  45  70 106 145 189 246 306 373 446
#
# _framework density 22.884667
#
# number of rings (size 3 to 8) (size 9 to 14) (size 15 to 20)
#    0.000    1.333    1.111    2.333   10.889    0.889 
#    0.000    4.444    0.000    0.000    0.000    0.000 
#    0.000    0.000    0.000    0.000    0.000    0.000 
#
# Total GULP energy -201084.772840 kJ/mol
# GULP energy per Si atom -5585.688134 kJ/mol
# Density = 2.283258 g / cm^3
# Si number density = 22.884667 Si / 1000 Ang^3
#
#
#
# Elastic Constant Matrix: (Units=GPa)
#
#
# Indices 1 2 3 4 5 6 
#
# 1 154.3667 75.6235 48.0579 0.0000 0.0000 0.0000
# 2 75.6235 87.3574 37.5714 0.0000 0.0000 0.0000
# 3 48.0579 37.5714 103.9884 0.0000 0.0000 0.0000
# 4 0.0000 0.0000 0.0000 44.9265 0.0000 0.0000
# 5 0.0000 0.0000 0.0000 0.0000 1.6387 0.0000
# 6 0.0000 0.0000 0.0000 0.0000 0.0000 14.3992
#
#
#
# Elastic Compliance Matrix: (Units=1/GPa)
#
#
# Indices 1 2 3 4 5 6 
#
# 1 0.011607 -0.009165 -0.002053 0.000000 0.000000 0.000000
# 2 -0.009165 0.020790 -0.003276 0.000000 0.000000 0.000000
# 3 -0.002053 -0.003276 0.011749 0.000000 0.000000 0.000000
# 4 0.000000 0.000000 0.000000 0.022259 0.000000 0.000000
# 5 0.000000 0.000000 0.000000 0.000000 0.610235 0.000000
# 6 0.000000 0.000000 0.000000 0.000000 0.000000 0.069448
#
#
# Mechanical properties :
#
#
# Convention : Reuss Voigt Hill
#
# Bulk Modulus (GPa) = 65.97026 74.24646 70.10836
# Shear Modulus (GPa) = 6.40920 24.49021 15.44971
#
# Velocity S-wave (km/s) = 1.67533 3.27488 2.60111
# Velocity P-wave (km/s) = 5.71246 6.84207 6.30262
#
# Compressibility (1/GPa) = 0.01515835
#
# Stress axis : x y z
#
# Youngs Moduli (GPa) = 86.15390 48.09942 85.11541
#
# Poissons Ratio (x) = 0.44084 0.17472
# Poissons Ratio (y) = 0.78962 0.27883
# Poissons Ratio (z) = 0.17686 0.15757
#
# Static dielectric constant tensor:
#      x y z
#    x 1.826620 0.000000 0.000000 
#    y 0.000000 1.964080 0.000000 
#    z 0.000000 0.000000 1.855870 
# 
# From -- ./inp_files/5690.got.cif
#   From: 2010.05.17/outbox.cif.g08.bks.cpg/sg48_3_cif.got.tgz:5690.got - 2010.06.03 20:39:00.
