data_PCOD9391303
_publ_section_title
;
Structure prediction by ZEFSAII (Michael W. Deem and Ramdas Pophale) SiO2 
 PCOD9391303
Probable space group: P N N N
;
_chemical_formula_sum "Si O2"
_cell_formula_units_Z 24
_cell_length_a 5.187421
_cell_length_b 27.148644
_cell_length_c 7.482250
_cell_angle_alpha 90.000000
_cell_angle_beta 90.000000
_cell_angle_gamma 90.000000
_cell_volume 1053.736087
_symmetry_space_group_name_H-M "P N N N"
_symmetry_group_IT_number 48
_space_group.IT_coordinate_system_code '2'
_symmetry_cell_setting 'orthorhombic'
loop_
_space_group_symop_operation_xyz
x,y,z
1/2-x,1/2-y,z
x,1/2-y,1/2-z
1/2-x,y,1/2-z
-x,-y,-z
1/2+x,1/2+y,-z
-x,1/2+y,1/2+z
1/2+x,-y,1/2+z
loop_
_atom_site_type_symbol
_atom_site_label
_atom_site_fract_x
_atom_site_fract_y
_atom_site_fract_z
Si Si1 0.504819 0.227330 0.548667
Si Si2 0.480658 0.368843 0.136419
Si Si3 0.255460 0.033191 0.541630
O O1 0.750000 0.250000 0.454452
O O2 0.505850 0.250000 0.750000
O O3 0.528684 0.168745 0.527453
O O4 0.250000 0.250000 0.469172
O O5 0.250000 0.344640 0.250000
O O6 0.750000 0.377082 0.250000
O O7 0.332055 0.417577 0.065567
O O8 0.250000 0.045658 0.750000
O O9 0.500000 0.000000 0.500000
O O10 0.000000 0.000000 0.500000
#
# Coordination Sequence:
#
# PCOD9391303 Si02
#       3
#     8   8   8
#     4  10  23  43  69  99 148 186 248 292 362 438
#     4  12  26  45  73 108 147 191 246 302 376 437
#     4  12  26  47  75 105 147 191 245 308 368 441
#
# _framework density 22.776098999999999
#
# number of rings (size 3 to 8) (size 9 to 14) (size 15 to 20)
#    0.000    0.667    0.000    8.000    4.667    4.000 
#    6.000    0.000    0.000    0.000    0.000    0.000 
#    0.000    0.000    0.000    0.000    0.000    0.000 
#
# Total GULP energy -133715.465229 kJ/mol
# GULP energy per Si atom -5571.477718 kJ/mol
# Density = 2.272426 g / cm^3
# Si number density = 22.776099 Si / 1000 Ang^3
#
#
#
# Elastic Constant Matrix: (Units=GPa)
#
#
# Indices 1 2 3 4 5 6 
#
# 1 243.5315 59.7969 42.7120 0.0000 0.0000 0.0000
# 2 59.7969 178.6522 65.9675 0.0000 0.0000 0.0000
# 3 42.7120 65.9675 156.7253 0.0000 0.0000 0.0000
# 4 0.0000 0.0000 0.0000 47.3537 0.0000 0.0000
# 5 0.0000 0.0000 0.0000 0.0000 4.3553 0.0000
# 6 0.0000 0.0000 0.0000 0.0000 0.0000 33.7525
#
#
#
# Elastic Compliance Matrix: (Units=1/GPa)
#
#
# Indices 1 2 3 4 5 6 
#
# 1 0.004539 -0.001258 -0.000708 0.000000 0.000000 0.000000
# 2 -0.001258 0.006976 -0.002594 0.000000 0.000000 0.000000
# 3 -0.000708 -0.002594 0.007665 0.000000 0.000000 0.000000
# 4 0.000000 0.000000 0.000000 0.021118 0.000000 0.000000
# 5 0.000000 0.000000 0.000000 0.000000 0.229606 0.000000
# 6 0.000000 0.000000 0.000000 0.000000 0.000000 0.029627
#
#
# Mechanical properties :
#
#
# Convention : Reuss Voigt Hill
#
# Bulk Modulus (GPa) = 99.38108 101.76240 100.57174
# Shear Modulus (GPa) = 16.02544 44.45447 30.23995
#
# Velocity S-wave (km/s) = 2.65544 4.42271 3.64772
# Velocity P-wave (km/s) = 7.28906 8.41766 7.87361
#
# Compressibility (1/GPa) = 0.01006228
#
# Stress axis : x y z
#
# Youngs Moduli (GPa) = 220.30087 143.34412 130.46226
#
# Poissons Ratio (x) = 0.18034 0.09231
# Poissons Ratio (y) = 0.27716 0.33836
# Poissons Ratio (z) = 0.15587 0.37176
#
# Static dielectric constant tensor:
#      x y z
#    x 1.853980 0.000000 0.000000 
#    y 0.000000 1.976250 0.000000 
#    z 0.000000 0.000000 2.368230 
# 
# From -- ./inp_files/827.got.cif
#   From: 2010.05.17/outbox.cif.g08.bks.cpg/sg48_1_cif.got.tgz:827.got - 2010.06.03 20:39:00.
