data_PCOD9391738
_publ_section_title
;
Structure prediction by ZEFSAII (Michael W. Deem and Ramdas Pophale) SiO2 
 PCOD9391738
Probable space group: P N N N
;
_chemical_formula_sum "Si O2"
_cell_formula_units_Z 38
_cell_length_a 24.051038
_cell_length_b 12.807217
_cell_length_c 5.280503
_cell_angle_alpha 90.000000
_cell_angle_beta 90.000000
_cell_angle_gamma 90.000000
_cell_volume 1626.536773
_symmetry_space_group_name_H-M "P N N N"
_symmetry_group_IT_number 48
_space_group.IT_coordinate_system_code '2'
_symmetry_cell_setting 'orthorhombic'
loop_
_space_group_symop_operation_xyz
x,y,z
1/2-x,1/2-y,z
x,1/2-y,1/2-z
1/2-x,y,1/2-z
-x,-y,-z
1/2+x,1/2+y,-z
-x,1/2+y,1/2+z
1/2+x,-y,1/2+z
loop_
_atom_site_type_symbol
_atom_site_label
_atom_site_fract_x
_atom_site_fract_y
_atom_site_fract_z
Si Si1 0.857814 0.250000 0.250000
Si Si2 0.543264 0.166756 0.939730
Si Si3 0.688515 0.474148 0.152074
Si Si4 0.250000 0.250000 0.250000
Si Si5 0.459443 0.443851 0.205150
Si Si6 0.158670 0.414309 0.142072
O O1 0.900474 0.219977 0.470837
O O2 0.824130 0.148101 0.176341
O O3 0.515891 0.250000 0.750000
O O4 0.558074 0.052810 0.836650
O O5 0.500838 0.135388 0.158288
O O6 0.750000 0.494454 0.250000
O O7 0.650847 0.535480 0.361602
O O8 0.682434 0.509183 0.861811
O O9 0.205613 0.324700 0.107935
O O10 0.399890 0.385123 0.219445
O O11 0.500000 0.500000 0.000000
#
# Coordination Sequence:
#
# PCOD9391738 Si02
#       6
#     4   8   8   2   8   8
#     4  12  25  43  74 110 151 199 244 322 392 466
#     4  11  23  42  70 107 147 196 251 308 393 460
#     4  12  25  49  76 112 149 194 261 317 387 463
#     4  12  28  52  80 104 158 206 264 326 398 476
#     4  11  25  46  72 108 153 202 253 331 385 470
#     4  12  27  49  77 112 150 202 264 323 384 473
#
# _framework density 23.362522999999999
#
# number of rings (size 3 to 8) (size 9 to 14) (size 15 to 20)
#    0.000    0.421    4.211    4.105    2.947    4.211 
#    0.000    2.105    0.000    0.000    0.000    0.000 
#    0.000    0.000    0.000    0.000    0.000    0.000 
#
# Total GULP energy -211754.185174 kJ/mol
# GULP energy per Si atom -5572.478557 kJ/mol
# Density = 2.330935 g / cm^3
# Si number density = 23.362523 Si / 1000 Ang^3
#
#
#
# Elastic Constant Matrix: (Units=GPa)
#
#
# Indices 1 2 3 4 5 6 
#
# 1 110.8221 4.4394 3.2425 0.0000 0.0000 0.0000
# 2 4.4394 119.3013 33.8023 0.0000 0.0000 0.0000
# 3 3.2425 33.8023 83.3746 0.0000 0.0000 0.0000
# 4 0.0000 0.0000 0.0000 41.6743 0.0000 0.0000
# 5 0.0000 0.0000 0.0000 0.0000 20.1672 0.0000
# 6 0.0000 0.0000 0.0000 0.0000 0.0000 -104.3329
#
#
#
# Elastic Compliance Matrix: (Units=1/GPa)
#
#
# Indices 1 2 3 4 5 6 
#
# 1 0.009041 -0.000268 -0.000243 0.000000 0.000000 0.000000
# 2 -0.000268 0.009478 -0.003832 0.000000 0.000000 0.000000
# 3 -0.000243 -0.003832 0.013557 0.000000 0.000000 0.000000
# 4 0.000000 0.000000 0.000000 0.023996 0.000000 0.000000
# 5 0.000000 0.000000 0.000000 0.000000 0.049585 0.000000
# 6 0.000000 0.000000 0.000000 0.000000 0.000000 -0.009585
#
#
# Mechanical properties :
#
#
# Convention : Reuss Voigt Hill
#
# Bulk Modulus (GPa) = 42.75220 44.05182 43.40201
# Shear Modulus (GPa) = 44.42261 9.63599 27.02930
#
# Velocity S-wave (km/s) = 4.36529 2.03310 3.40509
# Velocity P-wave (km/s) = 6.61414 4.94045 5.83759
#
# Compressibility (1/GPa) = 0.02339061
#
# Stress axis : x y z
#
# Youngs Moduli (GPa) = 110.60348 105.50871 73.76155
#
# Poissons Ratio (x) = 0.02823 0.01794
# Poissons Ratio (y) = 0.02959 0.28267
# Poissons Ratio (z) = 0.02689 0.40433
#
# Static dielectric constant tensor:
#      x y z
#    x 2.022080 0.000000 0.000000 
#    y 0.000000 1.963150 0.000000 
#    z 0.000000 0.000000 2.101260 
# 
# From -- ./inp_files/6312.got.cif
#   From: 2010.05.17/outbox.cif.g08.bks.cpg/sg48_4_cif.got.tgz:6312.got - 2010.06.03 20:39:00.
