data_PCOD9391904
_publ_section_title
;
Structure prediction by ZEFSAII (Michael W. Deem and Ramdas Pophale) SiO2 
 PCOD9391904
Probable space group: P N N N
;
_chemical_formula_sum "Si O2"
_cell_formula_units_Z 32
_cell_length_a 5.849870
_cell_length_b 7.971112
_cell_length_c 27.106005
_cell_angle_alpha 90.000000
_cell_angle_beta 90.000000
_cell_angle_gamma 90.000000
_cell_volume 1263.952172
_symmetry_space_group_name_H-M "P N N N"
_symmetry_group_IT_number 48
_space_group.IT_coordinate_system_code '2'
_symmetry_cell_setting 'orthorhombic'
loop_
_space_group_symop_operation_xyz
x,y,z
1/2-x,1/2-y,z
x,1/2-y,1/2-z
1/2-x,y,1/2-z
-x,-y,-z
1/2+x,1/2+y,-z
-x,1/2+y,1/2+z
1/2+x,-y,1/2+z
loop_
_atom_site_type_symbol
_atom_site_label
_atom_site_fract_x
_atom_site_fract_y
_atom_site_fract_z
Si Si1 0.990347 0.501500 0.678247
Si Si2 0.250000 0.750000 0.612917
Si Si3 0.500000 0.500000 0.000000
Si Si4 0.250000 0.250000 0.929658
Si Si5 0.250000 0.250000 0.250000
Si Si6 0.250000 0.250000 0.750000
Si Si7 0.626166 0.496934 0.590333
O O1 0.907738 0.636797 0.716990
O O2 0.783436 0.490544 0.639011
O O3 0.183841 0.592140 0.646012
O O4 0.088778 0.353546 0.712040
O O5 0.471965 0.671354 0.585047
O O6 0.661510 0.600941 0.036659
O O7 0.282570 0.517239 0.041756
O O8 0.038291 0.335674 0.903019
#
# Coordination Sequence:
#
# PCOD9391904 Si02
#       7
#     8   4   4   4   2   2   8
#     4  12  28  56  89 128 175 233 292 371 443 540
#     4  12  26  55  90 124 178 234 292 359 448 542
#     4  12  30  54  86 124 168 228 288 364 438 538
#     4  12  30  52  86 127 174 223 297 361 446 530
#     4  12  24  58  80 126 174 234 302 354 448 542
#     4  12  32  54  92 132 180 222 306 382 460 510
#     4  12  29  56  89 126 177 231 299 362 448 538
#
# _framework density 25.317413999999999
#
# number of rings (size 3 to 8) (size 9 to 14) (size 15 to 20)
#    0.000    0.000    2.500    4.500    7.000    6.500 
#    4.500    0.000    0.000    0.000    0.000    0.000 
#    0.000    0.000    0.000    0.000    0.000    0.000 
#
# Total GULP energy -178188.522901 kJ/mol
# GULP energy per Si atom -5568.391341 kJ/mol
# Density = 2.525979 g / cm^3
# Si number density = 25.317414 Si / 1000 Ang^3
#
#
#
# Elastic Constant Matrix: (Units=GPa)
#
#
# Indices 1 2 3 4 5 6 
#
# 1 152.1087 63.3060 90.4076 0.0000 0.0000 0.0000
# 2 63.3060 93.4449 64.9132 0.0000 0.0000 0.0000
# 3 90.4076 64.9132 145.9519 0.0000 0.0000 0.0000
# 4 0.0000 0.0000 0.0000 -1.5441 0.0000 0.0000
# 5 0.0000 0.0000 0.0000 0.0000 -10.8831 0.0000
# 6 0.0000 0.0000 0.0000 0.0000 0.0000 73.6181
#
#
#
# Elastic Compliance Matrix: (Units=1/GPa)
#
#
# Indices 1 2 3 4 5 6 
#
# 1 0.011384 -0.004072 -0.005240 0.000000 0.000000 0.000000
# 2 -0.004072 0.016942 -0.005013 0.000000 0.000000 0.000000
# 3 -0.005240 -0.005013 0.012327 0.000000 0.000000 0.000000
# 4 0.000000 0.000000 0.000000 -0.647624 0.000000 0.000000
# 5 0.000000 0.000000 0.000000 0.000000 -0.091885 0.000000
# 6 0.000000 0.000000 0.000000 0.000000 0.000000 0.013584
#
#
# Mechanical properties :
#
#
# Convention : Reuss Voigt Hill
#
# Bulk Modulus (GPa) = 83.31407 92.08433 87.69920
# Shear Modulus (GPa) = -7.66142 23.76343 8.05101
#
# Velocity S-wave (km/s) = -1.74147 3.06701 1.78520
# Velocity P-wave (km/s) = 5.37919 6.99950 6.24214
#
# Compressibility (1/GPa) = 0.01200278
#
# Stress axis : x y z
#
# Youngs Moduli (GPa) = 87.84612 59.02372 81.12054
#
# Poissons Ratio (x) = 0.24032 0.42511
# Poissons Ratio (y) = 0.35767 0.40667
# Poissons Ratio (z) = 0.46036 0.29589
#
# Static dielectric constant tensor:
#      x y z
#    x 2.763710 0.000000 0.000000 
#    y 0.000000 2.071370 0.000000 
#    z 0.000000 0.000000 0.790490 
# 
# From -- ./inp_files/1217.got.cif
#   From: 2010.05.17/outbox.cif.g08.bks.cpg/sg48_1_cif.got.tgz:1217.got - 2010.06.03 20:39:00.
