data_PCOD9391957
_publ_section_title
;
Structure prediction by ZEFSAII (Michael W. Deem and Ramdas Pophale) SiO2 
 PCOD9391957
Probable space group: P N N N
;
_chemical_formula_sum "Si O2"
_cell_formula_units_Z 48
_cell_length_a 30.000000
_cell_length_b 9.000000
_cell_length_c 9.000000
_cell_angle_alpha 90.000000
_cell_angle_beta 90.000000
_cell_angle_gamma 90.000000
_cell_volume 2430.000000
_symmetry_space_group_name_H-M "P N N N"
_symmetry_group_IT_number 48
_space_group.IT_coordinate_system_code '2'
_symmetry_cell_setting 'orthorhombic'
loop_
_space_group_symop_operation_xyz
x,y,z
1/2-x,1/2-y,z
x,1/2-y,1/2-z
1/2-x,y,1/2-z
-x,-y,-z
1/2+x,1/2+y,-z
-x,1/2+y,1/2+z
1/2+x,-y,1/2+z
loop_
_atom_site_type_symbol
_atom_site_label
_atom_site_fract_x
_atom_site_fract_y
_atom_site_fract_z
Si Si1 0.453230 0.042200 0.920611
Si Si2 0.548952 0.014306 0.430599
Si Si3 0.296032 0.681168 0.414893
Si Si4 0.388265 0.781263 0.919736
Si Si5 0.796080 0.819400 0.583533
Si Si6 0.895006 0.722592 0.572540
O O1 0.410337 0.939022 0.954781
O O2 0.455702 0.038511 0.741164
O O3 0.500000 0.000000 0.000000
O O4 0.435507 0.193622 0.990099
O O5 0.589908 0.940600 0.523393
O O6 0.500000 0.000000 0.500000
O O7 0.567194 0.181304 0.434542
O O8 0.250000 0.750000 0.481978
O O9 0.297653 0.750000 0.250000
O O10 0.342487 0.731201 0.489594
O O11 0.293653 0.499815 0.413417
O O12 0.374768 0.750000 0.750000
O O13 0.750000 0.750000 0.516149
O O14 0.796972 0.750000 0.750000
O O15 0.844819 0.768154 0.521659
O O16 0.897561 0.750000 0.750000
#
# Coordination Sequence:
#
# PCOD9391957 Si02
#       6
#     8   8   8   8   8   8
#     4  11  22  42  64  89 127 163 210 266 312 377
#     4  11  24  40  64  93 124 169 213 258 317 374
#     4  11  23  38  67  98 123 162 213 258 311 375
#     4  10  24  42  61  89 128 164 204 257 316 372
#     4  10  21  38  62  93 131 162 204 262 317 366
#     4  11  23  38  63  93 126 167 208 256 317 375
#
# _framework density 19.753086
#
# number of rings (size 3 to 8) (size 9 to 14) (size 15 to 20)
#    0.000    1.333    1.667    4.500    7.000    3.000 
#    0.000    0.000    0.000    2.000    0.000    0.000 
#    0.000    0.000    0.000    0.000    0.000    0.000 
#
# Total GULP energy -267300.357478 kJ/mol
# GULP energy per Si atom -5568.757447 kJ/mol
# Density = 1.970813 g / cm^3
# Si number density = 19.753086 Si / 1000 Ang^3
#
#
#
# Elastic Constant Matrix: (Units=GPa)
#
#
# Indices 1 2 3 4 5 6 
#
# 1 189.2989 13.0921 43.3530 0.0000 0.0000 0.0000
# 2 13.0921 48.5343 -0.7511 0.0000 0.0000 0.0000
# 3 43.3530 -0.7511 49.8061 0.0000 0.0000 0.0000
# 4 0.0000 0.0000 0.0000 22.2528 0.0000 0.0000
# 5 0.0000 0.0000 0.0000 0.0000 59.0045 0.0000
# 6 0.0000 0.0000 0.0000 0.0000 0.0000 59.8464
#
#
#
# Elastic Compliance Matrix: (Units=1/GPa)
#
#
# Indices 1 2 3 4 5 6 
#
# 1 0.006772 -0.001918 -0.005923 0.000000 0.000000 0.000000
# 2 -0.001918 0.021152 0.001989 0.000000 0.000000 0.000000
# 3 -0.005923 0.001989 0.025264 0.000000 0.000000 0.000000
# 4 0.000000 0.000000 0.000000 0.044938 0.000000 0.000000
# 5 0.000000 0.000000 0.000000 0.000000 0.016948 0.000000
# 6 0.000000 0.000000 0.000000 0.000000 0.000000 0.016709
#
#
# Mechanical properties :
#
#
# Convention : Reuss Voigt Hill
#
# Bulk Modulus (GPa) = 24.10686 44.33637 34.22161
# Shear Modulus (GPa) = 31.78297 43.68374 37.73335
#
# Velocity S-wave (km/s) = 4.01560 4.70775 4.37538
# Velocity P-wave (km/s) = 5.80781 7.21419 6.54886
#
# Compressibility (1/GPa) = 0.04148197
#
# Stress axis : x y z
#
# Youngs Moduli (GPa) = 147.66889 47.27627 39.58226
#
# Poissons Ratio (x) = 0.09069 0.23446
# Poissons Ratio (y) = 0.28329 -0.07872
# Poissons Ratio (z) = 0.87471 -0.09402
#
# Static dielectric constant tensor:
#      x y z
#    x 1.670780 0.000000 0.000000 
#    y 0.000000 2.577040 0.000000 
#    z 0.000000 0.000000 1.698080 
# 
# From -- ./inp_files/16796.got.cif
#   From: 2010.05.17/outbox.ucp.g08.bks.cvg/sg48_9_cif.got.tgz:16796.got - 2010.06.11 16:38:40.
