data_PCOD9391168
_publ_section_title
;
Structure prediction by ZEFSAII (Michael W. Deem and Ramdas Pophale) SiO2 
 PCOD9391168
Probable space group: P N N N
;
_chemical_formula_sum "Si O2"
_cell_formula_units_Z 30
_cell_length_a 6.030809
_cell_length_b 12.525005
_cell_length_c 16.943865
_cell_angle_alpha 90.000000
_cell_angle_beta 90.000000
_cell_angle_gamma 90.000000
_cell_volume 1279.870310
_symmetry_space_group_name_H-M "P N N N"
_symmetry_group_IT_number 48
_space_group.IT_coordinate_system_code '2'
_symmetry_cell_setting 'orthorhombic'
loop_
_space_group_symop_operation_xyz
x,y,z
1/2-x,1/2-y,z
x,1/2-y,1/2-z
1/2-x,y,1/2-z
-x,-y,-z
1/2+x,1/2+y,-z
-x,1/2+y,1/2+z
1/2+x,-y,1/2+z
loop_
_atom_site_type_symbol
_atom_site_label
_atom_site_fract_x
_atom_site_fract_y
_atom_site_fract_z
Si Si1 0.570172 0.927755 0.180655
Si Si2 0.608903 0.851255 0.870131
Si Si3 0.250000 0.750000 0.250000
Si Si4 0.250000 0.750000 0.972211
Si Si5 0.122463 0.394468 0.527329
O O1 0.750000 0.938409 0.250000
O O2 0.408520 0.829014 0.199934
O O3 0.716816 0.907119 0.101793
O O4 0.427601 0.037669 0.175280
O O5 0.750000 0.750000 0.834922
O O6 0.369526 0.825616 0.908075
O O7 0.739416 0.870658 0.950048
O O8 0.430544 0.694466 0.028160
O O9 0.000000 0.500000 0.500000
#
# Coordination Sequence:
#
# PCOD9391168 Si02
#       5
#     8   8   2   4   8
#     4  12  29  51  76 114 160 210 255 317 399 464
#     4  10  24  47  79 112 143 201 258 317 382 450
#     4  12  34  54  70 110 170 208 256 302 410 486
#     4  10  22  43  79 115 149 186 270 316 377 446
#     4  11  24  46  80 112 150 203 258 322 385 455
#
# _framework density 23.439874
#
# number of rings (size 3 to 8) (size 9 to 14) (size 15 to 20)
#    0.000    1.067    2.667    1.200    3.733    8.533 
#    0.000    4.000    0.000    0.000    0.000    0.000 
#    0.000    0.000    0.000    0.000    0.000    0.000 
#
# Total GULP energy -167578.253609 kJ/mol
# GULP energy per Si atom -5585.941787 kJ/mol
# Density = 2.338652 g / cm^3
# Si number density = 23.439874 Si / 1000 Ang^3
#
#
#
# Elastic Constant Matrix: (Units=GPa)
#
#
# Indices 1 2 3 4 5 6 
#
# 1 139.1950 94.4610 76.9701 0.0000 0.0000 0.0000
# 2 94.4610 205.2239 84.5107 0.0000 0.0000 0.0000
# 3 76.9701 84.5107 148.3873 0.0000 0.0000 0.0000
# 4 0.0000 0.0000 0.0000 48.0880 0.0000 0.0000
# 5 0.0000 0.0000 0.0000 0.0000 13.7249 0.0000
# 6 0.0000 0.0000 0.0000 0.0000 0.0000 36.9008
#
#
#
# Elastic Compliance Matrix: (Units=1/GPa)
#
#
# Indices 1 2 3 4 5 6 
#
# 1 0.012055 -0.003885 -0.004040 0.000000 0.000000 0.000000
# 2 -0.003885 0.007618 -0.002323 0.000000 0.000000 0.000000
# 3 -0.004040 -0.002323 0.010158 0.000000 0.000000 0.000000
# 4 0.000000 0.000000 0.000000 0.020795 0.000000 0.000000
# 5 0.000000 0.000000 0.000000 0.000000 0.072860 0.000000
# 6 0.000000 0.000000 0.000000 0.000000 0.000000 0.027100
#
#
# Mechanical properties :
#
#
# Convention : Reuss Voigt Hill
#
# Bulk Modulus (GPa) = 107.14268 111.63220 109.38744
# Shear Modulus (GPa) = 28.70367 35.53369 32.11868
#
# Velocity S-wave (km/s) = 3.50318 3.89775 3.70572
# Velocity P-wave (km/s) = 7.88491 8.24529 8.06711
#
# Compressibility (1/GPa) = 0.00933335
#
# Stress axis : x y z
#
# Youngs Moduli (GPa) = 82.95571 131.27594 98.44309
#
# Poissons Ratio (x) = 0.50997 0.39775
# Poissons Ratio (y) = 0.32226 0.22872
# Poissons Ratio (z) = 0.33518 0.30500
#
# Static dielectric constant tensor:
#      x y z
#    x 0.375510 0.000000 0.000000 
#    y 0.000000 1.946960 0.000000 
#    z 0.000000 0.000000 1.829500 
# 
# From -- ./inp_files/32670.got.cif
#   From: 2010.05.17/outbox.cif.g08.bks.cpg/sg48_17_cif.got.tgz:32670.got - 2010.06.03 20:39:00.
