data_PCOD9391433
_publ_section_title
;
Structure prediction by ZEFSAII (Michael W. Deem and Ramdas Pophale) SiO2 
 PCOD9391433
Probable space group: P N N N
;
_chemical_formula_sum "Si O2"
_cell_formula_units_Z 48
_cell_length_a 21.173638
_cell_length_b 8.033202
_cell_length_c 11.121134
_cell_angle_alpha 90.000000
_cell_angle_beta 90.000000
_cell_angle_gamma 90.000000
_cell_volume 1891.617160
_symmetry_space_group_name_H-M "P N N N"
_symmetry_group_IT_number 48
_space_group.IT_coordinate_system_code '2'
_symmetry_cell_setting 'orthorhombic'
loop_
_space_group_symop_operation_xyz
x,y,z
1/2-x,1/2-y,z
x,1/2-y,1/2-z
1/2-x,y,1/2-z
-x,-y,-z
1/2+x,1/2+y,-z
-x,1/2+y,1/2+z
1/2+x,-y,1/2+z
loop_
_atom_site_type_symbol
_atom_site_label
_atom_site_fract_x
_atom_site_fract_y
_atom_site_fract_z
Si Si1 0.930975 0.196836 0.386583
Si Si2 0.278367 0.429991 0.075445
Si Si3 0.652986 0.459648 0.545648
Si Si4 0.527447 0.061331 0.794536
Si Si5 0.578400 0.004598 0.552981
Si Si6 0.350990 0.291888 0.888333
O O1 0.926382 0.250000 0.250000
O O2 0.949130 0.328320 0.491365
O O3 0.860741 0.160867 0.435149
O O4 0.974906 0.032229 0.374308
O O5 0.250000 0.250000 0.120423
O O6 0.278367 0.946144 0.101801
O O7 0.348707 0.495339 0.106564
O O8 0.291115 0.401995 0.931619
O O9 0.594218 0.443225 0.635166
O O10 0.650344 0.638024 0.480030
O O11 0.514722 0.250000 0.750000
O O12 0.539045 0.958911 0.670613
O O13 0.588020 0.890983 0.435574
O O14 0.352054 0.250000 0.750000
#
# Coordination Sequence:
#
# PCOD9391433 Si02
#       6
#     8   8   8   8   8   8
#     4  12  28  46  71 105 141 197 255 317 369 462
#     4   8  20  42  74 110 146 187 238 308 381 468
#     4  11  23  45  72 110 143 193 253 300 399 453
#     4  12  28  51  71  99 154 204 254 325 380 463
#     4  10  24  48  72 113 140 194 261 304 390 459
#     4   9  20  43  75 106 147 189 232 308 379 464
#
# _framework density 25.375114
#
# number of rings (size 3 to 8) (size 9 to 14) (size 15 to 20)
#    1.000    0.667    1.667    1.500    2.333    7.000 
#    0.000    2.500    0.000    0.000    0.000    0.000 
#    0.000    0.000    0.000    0.000    0.000    0.000 
#
# Total GULP energy -267334.169995 kJ/mol
# GULP energy per Si atom -5569.461875 kJ/mol
# Density = 2.531736 g / cm^3
# Si number density = 25.375114 Si / 1000 Ang^3
#
#
#
# Elastic Constant Matrix: (Units=GPa)
#
#
# Indices 1 2 3 4 5 6 
#
# 1 142.6864 11.7028 30.9173 0.0000 0.0000 0.0000
# 2 11.7028 40.6303 34.7180 0.0000 0.0000 0.0000
# 3 30.9173 34.7180 136.6999 0.0000 0.0000 0.0000
# 4 0.0000 0.0000 0.0000 -5.0747 0.0000 0.0000
# 5 0.0000 0.0000 0.0000 0.0000 29.8192 0.0000
# 6 0.0000 0.0000 0.0000 0.0000 0.0000 32.6340
#
#
#
# Elastic Compliance Matrix: (Units=1/GPa)
#
#
# Indices 1 2 3 4 5 6 
#
# 1 0.007395 -0.000895 -0.001445 0.000000 0.000000 0.000000
# 2 -0.000895 0.031542 -0.007808 0.000000 0.000000 0.000000
# 3 -0.001445 -0.007808 0.009625 0.000000 0.000000 0.000000
# 4 0.000000 0.000000 0.000000 -0.197058 0.000000 0.000000
# 5 0.000000 0.000000 0.000000 0.000000 0.033535 0.000000
# 6 0.000000 0.000000 0.000000 0.000000 0.000000 0.030643
#
#
# Mechanical properties :
#
#
# Convention : Reuss Voigt Hill
#
# Bulk Modulus (GPa) = 35.37945 52.74366 44.06156
# Shear Modulus (GPa) = -91.57784 27.65428 -31.96178
#
# Velocity S-wave (km/s) = -6.01398 3.30482 -3.55290
# Velocity P-wave (km/s) = 5.85245 5.94922 0.75566
#
# Compressibility (1/GPa) = 0.02826500
#
# Stress axis : x y z
#
# Youngs Moduli (GPa) = 135.22778 31.70366 103.89334
#
# Poissons Ratio (x) = 0.02838 0.15014
# Poissons Ratio (y) = 0.12104 0.81124
# Poissons Ratio (z) = 0.19543 0.24755
#
# Static dielectric constant tensor:
#      x y z
#    x 2.102860 0.000000 0.000000 
#    y 0.000000 2.544710 0.000000 
#    z 0.000000 0.000000 1.945730 
# 
# From -- ./inp_files/23585.got.cif
#   From: 2010.05.17/outbox.cif.g08.bks.cpg/sg48_12_cif.got.tgz:23585.got - 2010.06.03 20:39:00.
