data_PCOD9391513
_publ_section_title
;
Structure prediction by ZEFSAII (Michael W. Deem and Ramdas Pophale) SiO2 
 PCOD9391513
Probable space group: P N N N
;
_chemical_formula_sum "Si O2"
_cell_formula_units_Z 64
_cell_length_a 11.920732
_cell_length_b 11.853489
_cell_length_c 25.548430
_cell_angle_alpha 90.000000
_cell_angle_beta 90.000000
_cell_angle_gamma 90.000000
_cell_volume 3610.051042
_symmetry_space_group_name_H-M "P N N N"
_symmetry_group_IT_number 48
_space_group.IT_coordinate_system_code '2'
_symmetry_cell_setting 'orthorhombic'
loop_
_space_group_symop_operation_xyz
x,y,z
1/2-x,1/2-y,z
x,1/2-y,1/2-z
1/2-x,y,1/2-z
-x,-y,-z
1/2+x,1/2+y,-z
-x,1/2+y,1/2+z
1/2+x,-y,1/2+z
loop_
_atom_site_type_symbol
_atom_site_label
_atom_site_fract_x
_atom_site_fract_y
_atom_site_fract_z
Si Si1 0.558688 0.790830 0.540313
Si Si2 0.195661 0.521401 0.458033
Si Si3 0.678613 0.362628 0.071017
Si Si4 0.942731 0.532901 0.944345
Si Si5 0.437131 0.102714 0.858241
Si Si6 0.181163 0.436114 0.636484
Si Si7 0.995106 0.315351 0.578023
Si Si8 0.119294 0.385581 0.746351
O O1 0.452190 0.833315 0.572910
O O2 0.587235 0.665252 0.558141
O O3 0.514263 0.772728 0.480932
O O4 0.647874 0.893026 0.541904
O O5 0.196331 0.566892 0.517632
O O6 0.323143 0.528402 0.439124
O O7 0.112235 0.602846 0.425417
O O8 0.750000 0.250000 0.067324
O O9 0.709236 0.436472 0.121255
O O10 0.025259 0.494493 0.898005
O O11 0.000000 0.500000 0.000000
O O12 0.302166 0.124744 0.860719
O O13 0.500980 0.213261 0.880385
O O14 0.451149 0.074777 0.796612
O O15 0.100562 0.422730 0.686909
O O16 0.105825 0.387237 0.590395
O O17 0.115086 0.250000 0.750000
O O18 0.250000 0.421358 0.750000
#
# Coordination Sequence:
#
# PCOD9391513 Si02
#       8
#     8   8   8   8   8   8   8   8
#     4  11  21  37  52  80 116 155 195 226 278 354
#     4  11  23  37  53  82 119 160 195 228 284 364
#     4  11  21  34  55  84 121 153 190 236 294 348
#     4  12  24  36  54  82 115 159 192 238 287 346
#     4  11  22  34  54  88 120 142 187 243 295 344
#     4  11  19  35  58  85 113 154 191 236 296 354
#     4  11  20  33  57  84 114 152 188 233 292 351
#     4   9  18  32  55  84 112 142 184 238 293 346
#
# _framework density 17.728282
#
# number of rings (size 3 to 8) (size 9 to 14) (size 15 to 20)
#    0.000    1.125    5.000    3.750    1.750    1.000 
#    0.000    0.000    0.000    9.375    0.000    0.000 
#    3.750    0.000    0.000    0.000    0.000    0.000 
#
# Total GULP energy -356672.176129 kJ/mol
# GULP energy per Si atom -5573.002752 kJ/mol
# Density = 1.768793 g / cm^3
# Si number density = 17.728282 Si / 1000 Ang^3
#
#
#
# Elastic Constant Matrix: (Units=GPa)
#
#
# Indices 1 2 3 4 5 6 
#
# 1 81.4559 23.6668 24.7859 0.0000 0.0000 0.0000
# 2 23.6668 96.6021 47.4215 0.0000 0.0000 0.0000
# 3 24.7859 47.4215 81.8767 0.0000 0.0000 0.0000
# 4 0.0000 0.0000 0.0000 19.9380 0.0000 0.0000
# 5 0.0000 0.0000 0.0000 0.0000 23.7465 0.0000
# 6 0.0000 0.0000 0.0000 0.0000 0.0000 25.8968
#
#
#
# Elastic Compliance Matrix: (Units=1/GPa)
#
#
# Indices 1 2 3 4 5 6 
#
# 1 0.013755 -0.001853 -0.003091 0.000000 0.000000 0.000000
# 2 -0.001853 0.014714 -0.007961 0.000000 0.000000 0.000000
# 3 -0.003091 -0.007961 0.017760 0.000000 0.000000 0.000000
# 4 0.000000 0.000000 0.000000 0.050155 0.000000 0.000000
# 5 0.000000 0.000000 0.000000 0.000000 0.042112 0.000000
# 6 0.000000 0.000000 0.000000 0.000000 0.000000 0.038615
#
#
# Mechanical properties :
#
#
# Convention : Reuss Voigt Hill
#
# Bulk Modulus (GPa) = 48.97225 50.18704 49.57964
# Shear Modulus (GPa) = 23.84051 24.85362 24.34707
#
# Velocity S-wave (km/s) = 3.67109 3.74828 3.70989
# Velocity P-wave (km/s) = 6.75670 6.86319 6.81015
#
# Compressibility (1/GPa) = 0.02041973
#
# Stress axis : x y z
#
# Youngs Moduli (GPa) = 72.69863 67.96405 56.30579
#
# Poissons Ratio (x) = 0.12591 0.17405
# Poissons Ratio (y) = 0.13468 0.44826
# Poissons Ratio (z) = 0.22472 0.54107
#
# Static dielectric constant tensor:
#      x y z
#    x 1.617420 0.000000 0.000000 
#    y 0.000000 1.669360 0.000000 
#    z 0.000000 0.000000 1.696050 
# 
# From -- ./inp_files/37823.got.cif
#   From: 2010.05.17/outbox.cif.g08.bks.cpg/sg48_19_cif.got.tgz:37823.got - 2010.06.03 20:39:00.
