data_PCOD9391328
_publ_section_title
;
Structure prediction by ZEFSAII (Michael W. Deem and Ramdas Pophale) SiO2 
 PCOD9391328
Probable space group: P N N N
;
_chemical_formula_sum "Si O2"
_cell_formula_units_Z 30
_cell_length_a 5.686461
_cell_length_b 13.101899
_cell_length_c 16.492911
_cell_angle_alpha 90.000000
_cell_angle_beta 90.000000
_cell_angle_gamma 90.000000
_cell_volume 1228.778567
_symmetry_space_group_name_H-M "P N N N"
_symmetry_group_IT_number 48
_space_group.IT_coordinate_system_code '2'
_symmetry_cell_setting 'orthorhombic'
loop_
_space_group_symop_operation_xyz
x,y,z
1/2-x,1/2-y,z
x,1/2-y,1/2-z
1/2-x,y,1/2-z
-x,-y,-z
1/2+x,1/2+y,-z
-x,1/2+y,1/2+z
1/2+x,-y,1/2+z
loop_
_atom_site_type_symbol
_atom_site_label
_atom_site_fract_x
_atom_site_fract_y
_atom_site_fract_z
Si Si1 0.997928 0.636011 0.558161
Si Si2 0.907097 0.648573 0.367729
Si Si3 0.505568 0.869272 0.878832
Si Si4 0.750000 0.025745 0.250000
Si Si5 0.750000 0.250000 0.750000
O O1 0.962419 0.637533 0.461908
O O2 0.757912 0.585414 0.593586
O O3 0.264752 0.599373 0.573763
O O4 0.989625 0.748759 0.599297
O O5 0.750000 0.750000 0.359724
O O6 0.796159 0.552124 0.323289
O O7 0.124998 0.674486 0.311804
O O8 0.450986 0.899825 0.785865
#
# Coordination Sequence:
#
# PCOD9391328 Si02
#       5
#     8   8   8   4   2
#     4  10  23  47  75  95 144 204 244 280 380 463
#     4  12  24  46  70 104 145 203 245 304 378 453
#     4  10  23  45  71 107 140 191 245 306 359 445
#     4  12  27  43  70 118 152 174 254 331 371 414
#     4  12  22  40  76 102 148 204 246 300 386 452
#
# _framework density 24.414489
#
# number of rings (size 3 to 8) (size 9 to 14) (size 15 to 20)
#    0.000    1.067    5.333    1.600    0.000    7.467 
#    0.000    5.333    0.000    0.000    0.000    0.000 
#    0.000    0.000    0.000    0.000    0.000    0.000 
#
# Total GULP energy -167386.629599 kJ/mol
# GULP energy per Si atom -5579.554320 kJ/mol
# Density = 2.435892 g / cm^3
# Si number density = 24.414489 Si / 1000 Ang^3
#
#
#
# Elastic Constant Matrix: (Units=GPa)
#
#
# Indices 1 2 3 4 5 6 
#
# 1 168.3527 16.9927 70.0494 0.0000 0.0000 0.0000
# 2 16.9927 97.1473 79.0648 0.0000 0.0000 0.0000
# 3 70.0494 79.0648 146.9143 0.0000 0.0000 0.0000
# 4 0.0000 0.0000 0.0000 -352.5703 0.0000 0.0000
# 5 0.0000 0.0000 0.0000 0.0000 62.6093 0.0000
# 6 0.0000 0.0000 0.0000 0.0000 0.0000 -16.5949
#
#
#
# Elastic Compliance Matrix: (Units=1/GPa)
#
#
# Indices 1 2 3 4 5 6 
#
# 1 0.007868 0.002984 -0.005357 0.000000 0.000000 0.000000
# 2 0.002984 0.019448 -0.011889 0.000000 0.000000 0.000000
# 3 -0.005357 -0.011889 0.015759 0.000000 0.000000 0.000000
# 4 0.000000 0.000000 0.000000 -0.002836 0.000000 0.000000
# 5 0.000000 0.000000 0.000000 0.000000 0.015972 0.000000
# 6 0.000000 0.000000 0.000000 0.000000 0.000000 -0.060259
#
#
# Mechanical properties :
#
#
# Convention : Reuss Voigt Hill
#
# Bulk Modulus (GPa) = 68.72731 82.73645 75.73188
# Shear Modulus (GPa) = 170.50053 -44.89068 62.80492
#
# Velocity S-wave (km/s) = 8.36585 -4.29265 5.07743
# Velocity P-wave (km/s) = 11.02397 3.06476 8.09075
#
# Compressibility (1/GPa) = 0.01455026
#
# Stress axis : x y z
#
# Youngs Moduli (GPa) = 127.10031 51.42020 63.45491
#
# Poissons Ratio (x) = -0.15343 0.33994
# Poissons Ratio (y) = -0.37925 0.75440
# Poissons Ratio (z) = 0.68090 0.61132
#
# Static dielectric constant tensor:
#      x y z
#    x 2.045530 0.000000 0.000000 
#    y 0.000000 1.953560 0.000000 
#    z 0.000000 0.000000 1.983880 
# 
# From -- ./inp_files/2998.got.cif
#   From: 2010.05.17/outbox.cif.g08.bks.cpg/sg48_2_cif.got.tgz:2998.got - 2010.06.03 20:39:00.
