data_PCOD9391090
_publ_section_title
;
Structure prediction by ZEFSAII (Michael W. Deem and Ramdas Pophale) SiO2 
 PCOD9391090
Probable space group: P N N N
;
_chemical_formula_sum "Si O2"
_cell_formula_units_Z 48
_cell_length_a 15.722595
_cell_length_b 4.960304
_cell_length_c 29.610098
_cell_angle_alpha 90.000000
_cell_angle_beta 90.000000
_cell_angle_gamma 90.000000
_cell_volume 2309.257517
_symmetry_space_group_name_H-M "P N N N"
_symmetry_group_IT_number 48
_space_group.IT_coordinate_system_code '2'
_symmetry_cell_setting 'orthorhombic'
loop_
_space_group_symop_operation_xyz
x,y,z
1/2-x,1/2-y,z
x,1/2-y,1/2-z
1/2-x,y,1/2-z
-x,-y,-z
1/2+x,1/2+y,-z
-x,1/2+y,1/2+z
1/2+x,-y,1/2+z
loop_
_atom_site_type_symbol
_atom_site_label
_atom_site_fract_x
_atom_site_fract_y
_atom_site_fract_z
Si Si1 0.564874 0.842436 0.800836
Si Si2 0.563141 0.280363 0.040964
Si Si3 0.505610 0.664401 0.149594
Si Si4 0.149085 0.275522 0.912611
Si Si5 0.580377 0.409854 0.560293
Si Si6 0.250000 0.750000 0.100012
Si Si7 0.250000 0.250000 0.337789
O O1 0.549534 0.750000 0.750000
O O2 0.518652 0.634052 0.834980
O O3 0.666254 0.838308 0.810497
O O4 0.527441 0.134421 0.811941
O O5 0.604538 0.562258 0.053624
O O6 0.621215 0.063490 0.067671
O O7 0.467970 0.196479 0.056990
O O8 0.564310 0.230659 0.987601
O O9 0.603466 0.711214 0.135228
O O10 0.457831 0.760379 0.103967
O O11 0.250000 0.250000 0.911215
O O12 0.679794 0.395691 0.569524
O O13 0.279502 0.505931 0.132324
#
# Coordination Sequence:
#
# PCOD9391090 Si02
#       7
#     8   8   8   8   8   4   4
#     4  12  24  42  65  92 123 160 206 251 311 380
#     4  10  24  39  63  89 128 169 218 261 311 364
#     4  11  23  42  64  88 123 164 202 255 317 376
#     4  11  24  42  65  94 123 163 213 263 319 376
#     4  10  22  41  59  92 126 174 212 263 305 372
#     4  12  24  34  65  88 134 164 216 250 311 372
#     4  12  23  42  58  96 122 168 206 256 306 368
#
# _framework density 20.785903999999999
#
# number of rings (size 3 to 8) (size 9 to 14) (size 15 to 20)
#    0.000    1.000    3.333    3.250    2.333    8.667 
#    0.000    2.500    0.000    3.000    0.000    0.000 
#    0.000    0.000    0.000    0.000    0.000    0.000 
#
# Total GULP energy -268350.073307 kJ/mol
# GULP energy per Si atom -5590.626527 kJ/mol
# Density = 2.073859 g / cm^3
# Si number density = 20.785904 Si / 1000 Ang^3
#
#
#
# Elastic Constant Matrix: (Units=GPa)
#
#
# Indices 1 2 3 4 5 6 
#
# 1 129.7104 -11.6562 15.4036 0.0000 0.0000 0.0000
# 2 -11.6562 35.8232 -14.9691 0.0000 0.0000 0.0000
# 3 15.4036 -14.9691 82.3348 0.0000 0.0000 0.0000
# 4 0.0000 0.0000 0.0000 29.8934 0.0000 0.0000
# 5 0.0000 0.0000 0.0000 0.0000 11.6565 0.0000
# 6 0.0000 0.0000 0.0000 0.0000 0.0000 13.4104
#
#
#
# Elastic Compliance Matrix: (Units=1/GPa)
#
#
# Indices 1 2 3 4 5 6 
#
# 1 0.008035 0.002150 -0.001112 0.000000 0.000000 0.000000
# 2 0.002150 0.030785 0.005195 0.000000 0.000000 0.000000
# 3 -0.001112 0.005195 0.013298 0.000000 0.000000 0.000000
# 4 0.000000 0.000000 0.000000 0.033452 0.000000 0.000000
# 5 0.000000 0.000000 0.000000 0.000000 0.085789 0.000000
# 6 0.000000 0.000000 0.000000 0.000000 0.000000 0.074569
#
#
# Mechanical properties :
#
#
# Convention : Reuss Voigt Hill
#
# Bulk Modulus (GPa) = 15.48424 25.04721 20.26572
# Shear Modulus (GPa) = 19.60851 28.26473 23.93662
#
# Velocity S-wave (km/s) = 3.07474 3.69155 3.39717
# Velocity P-wave (km/s) = 4.48006 5.49966 5.01584
#
# Compressibility (1/GPa) = 0.06458178
#
# Stress axis : x y z
#
# Youngs Moduli (GPa) = 124.45939 32.48335 75.19879
#
# Poissons Ratio (x) = -0.06982 0.08365
# Poissons Ratio (y) = -0.26753 -0.39064
# Poissons Ratio (z) = 0.13845 -0.16874
#
# Static dielectric constant tensor:
#      x y z
#    x 1.795560 0.000000 0.000000 
#    y 0.000000 1.770130 0.000000 
#    z 0.000000 0.000000 1.735350 
# 
# From -- ./inp_files/37908.got.cif
#   From: 2010.05.17/outbox.cif.g08.bks.cpg/sg48_19_cif.got.tgz:37908.got - 2010.06.03 20:39:00.
