data_PCOD9391235
_publ_section_title
;
Structure prediction by ZEFSAII (Michael W. Deem and Ramdas Pophale) SiO2 
 PCOD9391235
Probable space group: P N N N
;
_chemical_formula_sum "Si O2"
_cell_formula_units_Z 40
_cell_length_a 13.638747
_cell_length_b 15.652748
_cell_length_c 8.989119
_cell_angle_alpha 90.000000
_cell_angle_beta 90.000000
_cell_angle_gamma 90.000000
_cell_volume 1919.031910
_symmetry_space_group_name_H-M "P N N N"
_symmetry_group_IT_number 48
_space_group.IT_coordinate_system_code '2'
_symmetry_cell_setting 'orthorhombic'
loop_
_space_group_symop_operation_xyz
x,y,z
1/2-x,1/2-y,z
x,1/2-y,1/2-z
1/2-x,y,1/2-z
-x,-y,-z
1/2+x,1/2+y,-z
-x,1/2+y,1/2+z
1/2+x,-y,1/2+z
loop_
_atom_site_type_symbol
_atom_site_label
_atom_site_fract_x
_atom_site_fract_y
_atom_site_fract_z
Si Si1 0.358167 0.391538 0.707853
Si Si2 0.045357 0.551182 0.641799
Si Si3 0.986295 0.250000 0.750000
Si Si4 0.154239 0.799828 0.012127
Si Si5 0.750000 0.424780 0.750000
Si Si6 0.409603 0.042102 0.092068
O O1 0.250000 0.363178 0.750000
O O2 0.380450 0.484943 0.777559
O O3 0.443674 0.331098 0.769076
O O4 0.365929 0.394125 0.529246
O O5 0.099680 0.638493 0.601010
O O6 0.000000 0.500000 0.500000
O O7 0.959191 0.573640 0.756812
O O8 0.920241 0.261027 0.897568
O O9 0.250000 0.750000 0.956696
O O10 0.189207 0.864438 0.141311
O O11 0.823842 0.479434 0.851766
O O12 0.500000 0.000000 0.000000
#
# Coordination Sequence:
#
# PCOD9391235 Si02
#       6
#     8   8   4   8   4   8
#     4  11  24  43  68 100 135 181 239 289 354 427
#     4  11  21  42  69  98 138 184 228 287 359 435
#     4  12  22  42  70  96 140 182 234 296 350 420
#     4  12  23  37  68 105 139 179 239 292 357 418
#     4  12  19  38  72 102 127 182 234 290 351 424
#     4  10  23  39  69  98 137 177 235 289 346 428
#
# _framework density 20.843843
#
# number of rings (size 3 to 8) (size 9 to 14) (size 15 to 20)
#    0.000    0.800    6.000    2.700    0.000    0.000 
#    0.000    1.000    8.800    0.000    0.000    0.000 
#    0.000    0.000    0.000    0.000    0.000    0.000 
#
# Total GULP energy -223505.809249 kJ/mol
# GULP energy per Si atom -5587.645231 kJ/mol
# Density = 2.079640 g / cm^3
# Si number density = 20.843843 Si / 1000 Ang^3
#
#
#
# Elastic Constant Matrix: (Units=GPa)
#
#
# Indices 1 2 3 4 5 6 
#
# 1 127.4801 36.8149 39.0158 0.0000 0.0000 0.0000
# 2 36.8149 57.4975 16.5219 0.0000 0.0000 0.0000
# 3 39.0158 16.5219 103.4468 0.0000 0.0000 0.0000
# 4 0.0000 0.0000 0.0000 33.1927 0.0000 0.0000
# 5 0.0000 0.0000 0.0000 0.0000 44.4569 0.0000
# 6 0.0000 0.0000 0.0000 0.0000 0.0000 48.1483
#
#
#
# Elastic Compliance Matrix: (Units=1/GPa)
#
#
# Indices 1 2 3 4 5 6 
#
# 1 0.010448 -0.005825 -0.003010 0.000000 0.000000 0.000000
# 2 -0.005825 0.021476 -0.001233 0.000000 0.000000 0.000000
# 3 -0.003010 -0.001233 0.010999 0.000000 0.000000 0.000000
# 4 0.000000 0.000000 0.000000 0.030127 0.000000 0.000000
# 5 0.000000 0.000000 0.000000 0.000000 0.022494 0.000000
# 6 0.000000 0.000000 0.000000 0.000000 0.000000 0.020769
#
#
# Mechanical properties :
#
#
# Convention : Reuss Voigt Hill
#
# Bulk Modulus (GPa) = 43.88519 52.56994 48.22757
# Shear Modulus (GPa) = 34.71162 38.23104 36.47133
#
# Velocity S-wave (km/s) = 4.08526 4.28736 4.18753
# Velocity P-wave (km/s) = 6.58425 7.05579 6.82410
#
# Compressibility (1/GPa) = 0.02278673
#
# Stress axis : x y z
#
# Youngs Moduli (GPa) = 95.71480 46.56402 90.91666
#
# Poissons Ratio (x) = 0.27121 0.27368
# Poissons Ratio (y) = 0.55750 0.11212
# Poissons Ratio (z) = 0.28812 0.05742
#
# Static dielectric constant tensor:
#      x y z
#    x 1.838570 0.000000 0.000000 
#    y 0.000000 1.737790 0.000000 
#    z 0.000000 0.000000 1.789340 
# 
# From -- ./inp_files/12392.got.cif
#   From: 2010.05.17/outbox.cif.g08.bks.cpg/sg48_7_cif.got.tgz:12392.got - 2010.06.03 20:39:00.
