data_PCOD9391915
_publ_section_title
;
Structure prediction by ZEFSAII (Michael W. Deem and Ramdas Pophale) SiO2 
 PCOD9391915
Probable space group: P N N N
;
_chemical_formula_sum "Si O2"
_cell_formula_units_Z 26
_cell_length_a 8.968041
_cell_length_b 25.184968
_cell_length_c 4.874301
_cell_angle_alpha 90.000000
_cell_angle_beta 90.000000
_cell_angle_gamma 90.000000
_cell_volume 1100.908774
_symmetry_space_group_name_H-M "P N N N"
_symmetry_group_IT_number 48
_space_group.IT_coordinate_system_code '2'
_symmetry_cell_setting 'orthorhombic'
loop_
_space_group_symop_operation_xyz
x,y,z
1/2-x,1/2-y,z
x,1/2-y,1/2-z
1/2-x,y,1/2-z
-x,-y,-z
1/2+x,1/2+y,-z
-x,1/2+y,1/2+z
1/2+x,-y,1/2+z
loop_
_atom_site_type_symbol
_atom_site_label
_atom_site_fract_x
_atom_site_fract_y
_atom_site_fract_z
Si Si1 0.491023 0.802897 0.402334
Si Si2 0.750000 0.750000 0.750000
Si Si3 0.902823 0.368527 0.130689
Si Si4 0.425568 0.470159 0.249774
O O1 0.443663 0.750000 0.250000
O O2 0.652587 0.787167 0.541531
O O3 0.405704 0.817467 0.676089
O O4 0.447184 0.849333 0.178119
O O5 0.750000 0.395600 0.250000
O O6 0.031640 0.408551 0.227248
O O7 0.250000 0.476769 0.250000
O O8 0.500000 0.500000 0.500000
O O9 0.500000 0.500000 0.000000
#
# Coordination Sequence:
#
# PCOD9391915 Si02
#       4
#     8   2   8   8
#     4  12  26  45  74 105 155 198 256 314 381 453
#     4  12  26  48  72 112 158 204 268 328 378 468
#     4  12  27  46  75 111 153 200 256 316 390 461
#     4  12  27  50  80 112 152 196 252 317 385 459
#
# _framework density 23.616851
#
# number of rings (size 3 to 8) (size 9 to 14) (size 15 to 20)
#    0.000    0.000    3.077    6.000    2.154    3.692 
#    0.000    0.000    0.000    0.000    0.000    0.000 
#    0.000    0.000    0.000    0.000    0.000    0.000 
#
# Total GULP energy -144904.777578 kJ/mol
# GULP energy per Si atom -5573.260676 kJ/mol
# Density = 2.356310 g / cm^3
# Si number density = 23.616851 Si / 1000 Ang^3
#
#
#
# Elastic Constant Matrix: (Units=GPa)
#
#
# Indices 1 2 3 4 5 6 
#
# 1 211.8701 41.7364 76.0482 0.0000 0.0000 0.0000
# 2 41.7364 70.1338 33.7937 0.0000 0.0000 0.0000
# 3 76.0482 33.7937 203.1116 0.0000 0.0000 0.0000
# 4 0.0000 0.0000 0.0000 38.5923 0.0000 0.0000
# 5 0.0000 0.0000 0.0000 0.0000 48.2676 0.0000
# 6 0.0000 0.0000 0.0000 0.0000 0.0000 46.7095
#
#
#
# Elastic Compliance Matrix: (Units=1/GPa)
#
#
# Indices 1 2 3 4 5 6 
#
# 1 0.005873 -0.002648 -0.001758 0.000000 0.000000 0.000000
# 2 -0.002648 0.016695 -0.001786 0.000000 0.000000 0.000000
# 3 -0.001758 -0.001786 0.005879 0.000000 0.000000 0.000000
# 4 0.000000 0.000000 0.000000 0.025912 0.000000 0.000000
# 5 0.000000 0.000000 0.000000 0.000000 0.020718 0.000000
# 6 0.000000 0.000000 0.000000 0.000000 0.000000 0.021409
#
#
# Mechanical properties :
#
#
# Convention : Reuss Voigt Hill
#
# Bulk Modulus (GPa) = 62.25929 87.58580 74.92255
# Shear Modulus (GPa) = 43.77396 48.94970 46.36183
#
# Velocity S-wave (km/s) = 4.30991 4.55759 4.43548
# Velocity P-wave (km/s) = 7.15448 8.05370 7.61737
#
# Compressibility (1/GPa) = 0.01606186
#
# Stress axis : x y z
#
# Youngs Moduli (GPa) = 170.28477 59.89903 170.09843
#
# Poissons Ratio (x) = 0.15858 0.29908
# Poissons Ratio (y) = 0.45083 0.30387
# Poissons Ratio (z) = 0.29941 0.10700
#
# Static dielectric constant tensor:
#      x y z
#    x 2.106800 0.000000 0.000000 
#    y 0.000000 1.987710 0.000000 
#    z 0.000000 0.000000 1.844640 
# 
# From -- ./inp_files/723.got.cif
#   From: 2010.05.17/outbox.cif.g08.bks.cpg/sg48_1_cif.got.tgz:723.got - 2010.06.03 20:39:00.
