data_PCOD9391429
_publ_section_title
;
Structure prediction by ZEFSAII (Michael W. Deem and Ramdas Pophale) SiO2 
 PCOD9391429
Probable space group: P N N N
;
_chemical_formula_sum "Si O2"
_cell_formula_units_Z 30
_cell_length_a 5.163066
_cell_length_b 9.508215
_cell_length_c 25.531914
_cell_angle_alpha 90.000000
_cell_angle_beta 90.000000
_cell_angle_gamma 90.000000
_cell_volume 1253.401018
_symmetry_space_group_name_H-M "P N N N"
_symmetry_group_IT_number 48
_space_group.IT_coordinate_system_code '2'
_symmetry_cell_setting 'orthorhombic'
loop_
_space_group_symop_operation_xyz
x,y,z
1/2-x,1/2-y,z
x,1/2-y,1/2-z
1/2-x,y,1/2-z
-x,-y,-z
1/2+x,1/2+y,-z
-x,1/2+y,1/2+z
1/2+x,-y,1/2+z
loop_
_atom_site_type_symbol
_atom_site_label
_atom_site_fract_x
_atom_site_fract_y
_atom_site_fract_z
Si Si1 0.343243 0.050582 0.342624
Si Si2 0.750000 0.750000 0.750000
Si Si3 0.651432 0.881178 0.469159
Si Si4 0.250000 0.750000 0.115886
Si Si5 0.356201 0.892478 0.908562
O O1 0.383860 0.137475 0.289105
O O2 0.616125 0.062520 0.371799
O O3 0.110702 0.123939 0.374713
O O4 0.243135 0.887534 0.345752
O O5 0.750000 0.750000 0.502867
O O6 0.476882 0.804762 0.424268
O O7 0.500000 0.000000 0.500000
O O8 0.885510 0.973610 0.445599
O O9 0.250000 0.750000 0.934297
#
# Coordination Sequence:
#
# PCOD9391429 Si02
#       5
#     8   2   8   4   8
#     4  11  24  41  72  96 143 176 228 290 357 421
#     4  12  24  44  72 118 124 180 244 294 352 440
#     4  11  25  42  70 101 142 189 247 295 343 439
#     4  10  24  47  62  96 142 192 222 287 370 410
#     4  11  22  44  67  99 141 189 219 289 363 408
#
# _framework density 23.934878999999999
#
# number of rings (size 3 to 8) (size 9 to 14) (size 15 to 20)
#    0.000    1.067    5.333    0.000    1.867    8.000 
#    0.000    0.000    0.000    3.200    0.000    0.000 
#    0.000    0.000    0.000    0.000    0.000    0.000 
#
# Total GULP energy -167251.386731 kJ/mol
# GULP energy per Si atom -5575.046224 kJ/mol
# Density = 2.388040 g / cm^3
# Si number density = 23.934879 Si / 1000 Ang^3
#
#
#
# Elastic Constant Matrix: (Units=GPa)
#
#
# Indices 1 2 3 4 5 6 
#
# 1 110.5970 27.7915 24.3202 0.0000 0.0000 0.0000
# 2 27.7915 267.6158 58.9852 0.0000 0.0000 0.0000
# 3 24.3202 58.9852 76.2975 0.0000 0.0000 0.0000
# 4 0.0000 0.0000 0.0000 35.4158 0.0000 0.0000
# 5 0.0000 0.0000 0.0000 0.0000 12.8858 0.0000
# 6 0.0000 0.0000 0.0000 0.0000 0.0000 44.9716
#
#
#
# Elastic Compliance Matrix: (Units=1/GPa)
#
#
# Indices 1 2 3 4 5 6 
#
# 1 0.009758 -0.000395 -0.002805 0.000000 0.000000 0.000000
# 2 -0.000395 0.004520 -0.003369 0.000000 0.000000 0.000000
# 3 -0.002805 -0.003369 0.016605 0.000000 0.000000 0.000000
# 4 0.000000 0.000000 0.000000 0.028236 0.000000 0.000000
# 5 0.000000 0.000000 0.000000 0.000000 0.077605 0.000000
# 6 0.000000 0.000000 0.000000 0.000000 0.000000 0.022236
#
#
# Mechanical properties :
#
#
# Convention : Reuss Voigt Hill
#
# Bulk Modulus (GPa) = 56.35146 75.18936 65.77041
# Shear Modulus (GPa) = 28.08793 41.54887 34.81840
#
# Velocity S-wave (km/s) = 3.42938 4.17095 3.81821
# Velocity P-wave (km/s) = 6.26702 7.39446 6.85397
#
# Compressibility (1/GPa) = 0.01774577
#
# Stress axis : x y z
#
# Youngs Moduli (GPa) = 102.48080 221.22887 60.22310
#
# Poissons Ratio (x) = 0.08741 0.16892
# Poissons Ratio (y) = 0.04049 0.20287
# Poissons Ratio (z) = 0.28745 0.74523
#
# Static dielectric constant tensor:
#      x y z
#    x 2.105280 0.000000 0.000000 
#    y 0.000000 2.052710 0.000000 
#    z 0.000000 0.000000 2.037840 
# 
# From -- ./inp_files/6773.got.cif
#   From: 2010.05.17/outbox.cif.g08.bks.cpg/sg48_4_cif.got.tgz:6773.got - 2010.06.03 20:39:00.
