data_PCOD9391630
_publ_section_title
;
Structure prediction by ZEFSAII (Michael W. Deem and Ramdas Pophale) SiO2 
 PCOD9391630
Probable space group: P N N N
;
_chemical_formula_sum "Si O2"
_cell_formula_units_Z 64
_cell_length_a 23.223222
_cell_length_b 9.162406
_cell_length_c 13.285417
_cell_angle_alpha 90.000000
_cell_angle_beta 90.000000
_cell_angle_gamma 90.000000
_cell_volume 2826.878849
_symmetry_space_group_name_H-M "P N N N"
_symmetry_group_IT_number 48
_space_group.IT_coordinate_system_code '2'
_symmetry_cell_setting 'orthorhombic'
loop_
_space_group_symop_operation_xyz
x,y,z
1/2-x,1/2-y,z
x,1/2-y,1/2-z
1/2-x,y,1/2-z
-x,-y,-z
1/2+x,1/2+y,-z
-x,1/2+y,1/2+z
1/2+x,-y,1/2+z
loop_
_atom_site_type_symbol
_atom_site_label
_atom_site_fract_x
_atom_site_fract_y
_atom_site_fract_z
Si Si1 0.007929 0.623755 0.167322
Si Si2 0.380402 0.091836 0.795000
Si Si3 0.267705 0.922387 0.363685
Si Si4 0.983783 0.166484 0.025615
Si Si5 0.191002 0.620381 0.688812
Si Si6 0.577261 0.670837 0.651934
Si Si7 0.832008 0.963802 0.511774
Si Si8 0.353867 0.802270 0.489319
O O1 0.018416 0.750000 0.250000
O O2 0.052995 0.492100 0.171931
O O3 0.945353 0.547379 0.178669
O O4 0.006922 0.715803 0.064136
O O5 0.387602 0.250000 0.750000
O O6 0.349485 0.013865 0.703302
O O7 0.340474 0.069153 0.893481
O O8 0.250000 0.750000 0.373287
O O9 0.250000 0.963724 0.250000
O O10 0.334706 0.904933 0.396164
O O11 0.231512 0.025087 0.439569
O O12 0.915127 0.163774 0.038317
O O13 0.024500 0.228809 0.112842
O O14 0.000000 0.000000 0.000000
O O15 0.160804 0.750000 0.750000
O O16 0.250000 0.597803 0.750000
O O17 0.194221 0.666340 0.574343
O O18 0.601186 0.750000 0.750000
O O19 0.626985 0.648833 0.569470
O O20 0.854107 0.129783 0.531379
#
# Coordination Sequence:
#
# PCOD9391630 Si02
#       8
#     8   8   8   8   8   8   8   8
#     4  11  24  43  65  99 138 183 229 289 349 425
#     4  11  24  40  65  95 136 179 224 278 355 411
#     4   9  21  40  69 103 136 175 232 290 353 414
#     4  12  26  43  68 102 142 183 240 293 353 434
#     4  11  24  39  66 101 133 174 231 285 341 423
#     4  12  26  43  68 102 140 194 239 287 364 425
#     4  11  21  45  70  97 139 181 228 298 346 426
#     4  11  23  40  72 105 139 182 230 294 360 416
#
# _framework density 22.639810000000001
#
# number of rings (size 3 to 8) (size 9 to 14) (size 15 to 20)
#    0.000    1.000    3.750    2.625    8.750    2.250 
#    0.000    0.000    0.000    4.125    0.000    0.000 
#    0.000    0.000    0.000    0.000    0.000    0.000 
#
# Total GULP energy -357304.126961 kJ/mol
# GULP energy per Si atom -5582.876984 kJ/mol
# Density = 2.258828 g / cm^3
# Si number density = 22.639810 Si / 1000 Ang^3
#
#
#
# Elastic Constant Matrix: (Units=GPa)
#
#
# Indices 1 2 3 4 5 6 
#
# 1 82.3471 14.6419 11.7782 0.0000 0.0000 0.0000
# 2 14.6419 53.2355 3.1013 0.0000 0.0000 0.0000
# 3 11.7782 3.1013 80.6148 0.0000 0.0000 0.0000
# 4 0.0000 0.0000 0.0000 31.8226 0.0000 0.0000
# 5 0.0000 0.0000 0.0000 0.0000 20.3454 0.0000
# 6 0.0000 0.0000 0.0000 0.0000 0.0000 -2.3307
#
#
#
# Elastic Compliance Matrix: (Units=1/GPa)
#
#
# Indices 1 2 3 4 5 6 
#
# 1 0.013015 -0.003477 -0.001768 0.000000 0.000000 0.000000
# 2 -0.003477 0.019755 -0.000252 0.000000 0.000000 0.000000
# 3 -0.001768 -0.000252 0.012673 0.000000 0.000000 0.000000
# 4 0.000000 0.000000 0.000000 0.031424 0.000000 0.000000
# 5 0.000000 0.000000 0.000000 0.000000 0.049151 0.000000
# 6 0.000000 0.000000 0.000000 0.000000 0.000000 -0.429048
#
#
# Mechanical properties :
#
#
# Convention : Reuss Voigt Hill
#
# Bulk Modulus (GPa) = 29.02767 30.58225 29.80496
# Shear Modulus (GPa) = -17.82190 22.41252 2.29531
#
# Velocity S-wave (km/s) = -2.80874 3.14978 1.00799
# Velocity P-wave (km/s) = 1.52665 5.17355 3.81420
#
# Compressibility (1/GPa) = 0.03444989
#
# Stress axis : x y z
#
# Youngs Moduli (GPa) = 76.83607 50.61919 78.91016
#
# Poissons Ratio (x) = 0.17598 0.13949
# Poissons Ratio (y) = 0.26713 0.01989
# Poissons Ratio (z) = 0.13583 0.01276
#
# Static dielectric constant tensor:
#      x y z
#    x 1.898050 0.000000 0.000000 
#    y 0.000000 1.784390 0.000000 
#    z 0.000000 0.000000 1.825150 
# 
# From -- ./inp_files/28629.got.cif
#   From: 2010.05.17/outbox.cif.g08.bks.cpg/sg48_15_cif.got.tgz:28629.got - 2010.06.03 20:39:00.
