data_PCOD9391900
_publ_section_title
;
Structure prediction by ZEFSAII (Michael W. Deem and Ramdas Pophale) SiO2 
 PCOD9391900
Probable space group: P N N N
;
_chemical_formula_sum "Si O2"
_cell_formula_units_Z 34
_cell_length_a 15.121010
_cell_length_b 8.750114
_cell_length_c 12.237847
_cell_angle_alpha 90.000000
_cell_angle_beta 90.000000
_cell_angle_gamma 90.000000
_cell_volume 1619.196406
_symmetry_space_group_name_H-M "P N N N"
_symmetry_group_IT_number 48
_space_group.IT_coordinate_system_code '2'
_symmetry_cell_setting 'orthorhombic'
loop_
_space_group_symop_operation_xyz
x,y,z
1/2-x,1/2-y,z
x,1/2-y,1/2-z
1/2-x,y,1/2-z
-x,-y,-z
1/2+x,1/2+y,-z
-x,1/2+y,1/2+z
1/2+x,-y,1/2+z
loop_
_atom_site_type_symbol
_atom_site_label
_atom_site_fract_x
_atom_site_fract_y
_atom_site_fract_z
Si Si1 0.877397 0.654813 0.065826
Si Si2 0.041960 0.581649 0.202913
Si Si3 0.250000 0.250000 0.750000
Si Si4 0.879879 0.641746 0.649590
Si Si5 0.223294 0.925131 0.431348
O O1 0.827833 0.758499 0.154758
O O2 0.964054 0.575389 0.115282
O O3 0.897112 0.753828 0.956722
O O4 0.809594 0.518979 0.035947
O O5 0.036049 0.750000 0.250000
O O6 0.039539 0.456205 0.299261
O O7 0.138109 0.570116 0.147386
O O8 0.852015 0.750000 0.750000
O O9 0.804306 0.520731 0.618294
O O10 0.250000 0.750000 0.449837
#
# Coordination Sequence:
#
# PCOD9391900 Si02
#       5
#     8   8   2   8   8
#     4  12  27  50  71 105 150 198 244 297 370 448
#     4  12  26  44  72 109 150 183 239 314 368 424
#     4  12  24  48  76  96 146 204 238 290 364 452
#     4  12  26  44  79 106 140 194 247 296 371 438
#     4  12  25  44  74 108 141 183 245 309 359 424
#
# _framework density 20.998069999999998
#
# number of rings (size 3 to 8) (size 9 to 14) (size 15 to 20)
#    0.000    0.000    8.235    1.412    3.294    0.941 
#    4.235    0.588    0.000    0.000    0.000    0.000 
#    0.000    0.000    0.000    0.000    0.000    0.000 
#
# Total GULP energy -189539.952598 kJ/mol
# GULP energy per Si atom -5574.704488 kJ/mol
# Density = 2.095028 g / cm^3
# Si number density = 20.998070 Si / 1000 Ang^3
#
#
#
# Elastic Constant Matrix: (Units=GPa)
#
#
# Indices 1 2 3 4 5 6 
#
# 1 112.9678 69.5342 74.8583 0.0000 0.0000 0.0000
# 2 69.5342 232.8029 114.4509 0.0000 0.0000 0.0000
# 3 74.8583 114.4509 180.9121 0.0000 0.0000 0.0000
# 4 0.0000 0.0000 0.0000 5.2289 0.0000 0.0000
# 5 0.0000 0.0000 0.0000 0.0000 39.3933 0.0000
# 6 0.0000 0.0000 0.0000 0.0000 0.0000 18.1190
#
#
#
# Elastic Compliance Matrix: (Units=1/GPa)
#
#
# Indices 1 2 3 4 5 6 
#
# 1 0.012670 -0.001752 -0.004134 0.000000 0.000000 0.000000
# 2 -0.001752 0.006477 -0.003373 0.000000 0.000000 0.000000
# 3 -0.004134 -0.003373 0.009372 0.000000 0.000000 0.000000
# 4 0.000000 0.000000 0.000000 0.191243 0.000000 0.000000
# 5 0.000000 0.000000 0.000000 0.000000 0.025385 0.000000
# 6 0.000000 0.000000 0.000000 0.000000 0.000000 0.055191
#
#
# Mechanical properties :
#
#
# Convention : Reuss Voigt Hill
#
# Bulk Modulus (GPa) = 99.98814 116.04107 108.01461
# Shear Modulus (GPa) = 15.51886 30.40421 22.96154
#
# Velocity S-wave (km/s) = 2.72152 3.80933 3.31041
# Velocity P-wave (km/s) = 7.58925 8.64469 8.13411
#
# Compressibility (1/GPa) = 0.01000119
#
# Stress axis : x y z
#
# Youngs Moduli (GPa) = 78.92665 154.39944 106.70226
#
# Poissons Ratio (x) = 0.27047 0.44115
# Poissons Ratio (y) = 0.13826 0.35986
# Poissons Ratio (z) = 0.32632 0.52072
#
# Static dielectric constant tensor:
#      x y z
#    x 1.768520 0.000000 0.000000 
#    y 0.000000 1.773760 0.000000 
#    z 0.000000 0.000000 1.806000 
# 
# From -- ./inp_files/11988.got.cif
#   From: 2010.05.17/outbox.cif.g08.bks.cpg/sg48_6_cif.got.tgz:11988.got - 2010.06.03 20:39:00.
