data_PCOD9391804
_publ_section_title
;
Structure prediction by ZEFSAII (Michael W. Deem and Ramdas Pophale) SiO2 
 PCOD9391804
Probable space group: P N N N
;
_chemical_formula_sum "Si O2"
_cell_formula_units_Z 48
_cell_length_a 9.454843
_cell_length_b 8.127163
_cell_length_c 29.165024
_cell_angle_alpha 90.000000
_cell_angle_beta 90.000000
_cell_angle_gamma 90.000000
_cell_volume 2241.071073
_symmetry_space_group_name_H-M "P N N N"
_symmetry_group_IT_number 48
_space_group.IT_coordinate_system_code '2'
_symmetry_cell_setting 'orthorhombic'
loop_
_space_group_symop_operation_xyz
x,y,z
1/2-x,1/2-y,z
x,1/2-y,1/2-z
1/2-x,y,1/2-z
-x,-y,-z
1/2+x,1/2+y,-z
-x,1/2+y,1/2+z
1/2+x,-y,1/2+z
loop_
_atom_site_type_symbol
_atom_site_label
_atom_site_fract_x
_atom_site_fract_y
_atom_site_fract_z
Si Si1 0.849496 0.594957 0.540678
Si Si2 0.856283 0.898032 0.383120
Si Si3 0.169722 0.594903 0.550913
Si Si4 0.184039 0.585169 0.112886
Si Si5 0.400648 0.408642 0.725939
Si Si6 0.250000 0.250000 0.331061
Si Si7 0.543336 0.750000 0.750000
O O1 0.750000 0.750000 0.547539
O O2 0.844868 0.547933 0.487181
O O3 0.782115 0.446129 0.568930
O O4 0.005416 0.632952 0.560226
O O5 0.750000 0.750000 0.394876
O O6 0.878215 0.893383 0.328375
O O7 0.018845 0.891752 0.400182
O O8 0.768217 0.046906 0.405931
O O9 0.250000 0.750000 0.529533
O O10 0.250000 0.750000 0.136006
O O11 0.202906 0.414125 0.141433
O O12 0.474877 0.250000 0.750000
O O13 0.250000 0.414644 0.750000
O O14 0.466498 0.584447 0.735612
O O15 0.371486 0.199492 0.295526
#
# Coordination Sequence:
#
# PCOD9391804 Si02
#       7
#     8   8   8   8   8   4   4
#     4  11  24  47  71 106 152 191 240 296 358 434
#     4  12  25  47  69 106 141 186 248 299 362 433
#     4  11  26  43  73 108 144 196 239 295 365 428
#     4  12  26  45  74 106 149 196 242 302 363 436
#     4  11  24  45  69  98 139 186 237 303 368 429
#     4  11  26  44  68 108 138 186 246 300 369 436
#     4  11  25  44  70 100 141 185 242 302 365 438
#
# _framework density 21.418330000000001
#
# number of rings (size 3 to 8) (size 9 to 14) (size 15 to 20)
#    0.000    0.667    4.167    3.250    2.333    8.000 
#    0.000    1.667    0.000    0.000    0.000    0.000 
#    0.000    0.000    0.000    0.000    0.000    0.000 
#
# Total GULP energy -267760.946405 kJ/mol
# GULP energy per Si atom -5578.353050 kJ/mol
# Density = 2.136958 g / cm^3
# Si number density = 21.418330 Si / 1000 Ang^3
#
#
#
# Elastic Constant Matrix: (Units=GPa)
#
#
# Indices 1 2 3 4 5 6 
#
# 1 174.5152 55.8350 24.3715 0.0000 0.0000 0.0000
# 2 55.8350 115.9294 15.4964 0.0000 0.0000 0.0000
# 3 24.3715 15.4964 78.7726 0.0000 0.0000 0.0000
# 4 0.0000 0.0000 0.0000 35.0672 0.0000 0.0000
# 5 0.0000 0.0000 0.0000 0.0000 11.3159 0.0000
# 6 0.0000 0.0000 0.0000 0.0000 0.0000 42.5090
#
#
#
# Elastic Compliance Matrix: (Units=1/GPa)
#
#
# Indices 1 2 3 4 5 6 
#
# 1 0.006949 -0.003142 -0.001532 0.000000 0.000000 0.000000
# 2 -0.003142 0.010280 -0.001050 0.000000 0.000000 0.000000
# 3 -0.001532 -0.001050 0.013375 0.000000 0.000000 0.000000
# 4 0.000000 0.000000 0.000000 0.028517 0.000000 0.000000
# 5 0.000000 0.000000 0.000000 0.000000 0.088371 0.000000
# 6 0.000000 0.000000 0.000000 0.000000 0.000000 0.023524
#
#
# Mechanical properties :
#
#
# Convention : Reuss Voigt Hill
#
# Bulk Modulus (GPa) = 52.20319 62.29143 57.24731
# Shear Modulus (GPa) = 26.47591 36.01270 31.24431
#
# Velocity S-wave (km/s) = 3.51968 4.10493 3.82352
# Velocity P-wave (km/s) = 6.39872 7.18426 6.80284
#
# Compressibility (1/GPa) = 0.01915592
#
# Stress axis : x y z
#
# Youngs Moduli (GPa) = 143.89627 97.27889 74.76463
#
# Poissons Ratio (x) = 0.30568 0.11453
# Poissons Ratio (y) = 0.45216 0.07851
# Poissons Ratio (z) = 0.22044 0.10215
#
# Static dielectric constant tensor:
#      x y z
#    x 1.774580 0.000000 0.000000 
#    y 0.000000 1.904610 0.000000 
#    z 0.000000 0.000000 1.787940 
# 
# From -- ./inp_files/38727.got.cif
#   From: 2010.05.17/outbox.cif.g08.bks.cpg/sg48_20_cif.got.tgz:38727.got - 2010.06.03 20:39:00.
