data_PCOD9391664
_publ_section_title
;
Structure prediction by ZEFSAII (Michael W. Deem and Ramdas Pophale) SiO2 
 PCOD9391664
Probable space group: P N N N
;
_chemical_formula_sum "Si O2"
_cell_formula_units_Z 32
_cell_length_a 7.630933
_cell_length_b 14.646723
_cell_length_c 14.286589
_cell_angle_alpha 90.000000
_cell_angle_beta 90.000000
_cell_angle_gamma 90.000000
_cell_volume 1596.785792
_symmetry_space_group_name_H-M "P N N N"
_symmetry_group_IT_number 48
_space_group.IT_coordinate_system_code '2'
_symmetry_cell_setting 'orthorhombic'
loop_
_space_group_symop_operation_xyz
x,y,z
1/2-x,1/2-y,z
x,1/2-y,1/2-z
1/2-x,y,1/2-z
-x,-y,-z
1/2+x,1/2+y,-z
-x,1/2+y,1/2+z
1/2+x,-y,1/2+z
loop_
_atom_site_type_symbol
_atom_site_label
_atom_site_fract_x
_atom_site_fract_y
_atom_site_fract_z
Si Si1 0.103776 0.025216 0.324277
Si Si2 0.750000 0.389060 0.250000
Si Si3 0.613066 0.674515 0.523360
Si Si4 0.750000 0.250000 0.093886
Si Si5 0.423822 0.156984 0.805999
O O1 0.250000 0.053763 0.250000
O O2 0.136489 0.078256 0.421985
O O3 0.914079 0.058425 0.290609
O O4 0.079851 0.916092 0.318423
O O5 0.680754 0.327207 0.164748
O O6 0.750000 0.750000 0.561227
O O7 0.414473 0.709976 0.538654
O O8 0.638986 0.668434 0.412668
O O9 0.474246 0.250000 0.750000
O O10 0.250000 0.124306 0.750000
#
# Coordination Sequence:
#
# PCOD9391664 Si02
#       5
#     8   4   8   4   8
#     4  11  23  39  66  99 127 171 223 278 334 407
#     4   9  18  38  57  88 136 158 197 268 342 381
#     4  11  22  41  66  98 131 172 224 281 337 396
#     4   9  20  34  61  92 122 168 205 260 329 406
#     4  11  23  45  65  85 132 185 220 277 336 388
#
# _framework density 20.040258000000001
#
# number of rings (size 3 to 8) (size 9 to 14) (size 15 to 20)
#    0.000    1.500    3.750    2.250    0.000    5.000 
#    0.000    1.250    0.000    0.000    0.000    0.000 
#    0.000    0.000    0.000    0.000    0.000    0.000 
#
# Total GULP energy -178282.345727 kJ/mol
# GULP energy per Si atom -5571.323304 kJ/mol
# Density = 1.999465 g / cm^3
# Si number density = 20.040258 Si / 1000 Ang^3
#
#
#
# Elastic Constant Matrix: (Units=GPa)
#
#
# Indices 1 2 3 4 5 6 
#
# 1 54.3111 23.1670 37.8334 0.0000 0.0000 0.0000
# 2 23.1670 111.3139 59.4442 0.0000 0.0000 0.0000
# 3 37.8334 59.4442 144.4253 0.0000 0.0000 0.0000
# 4 0.0000 0.0000 0.0000 11.5860 0.0000 0.0000
# 5 0.0000 0.0000 0.0000 0.0000 30.4517 0.0000
# 6 0.0000 0.0000 0.0000 0.0000 0.0000 61.2840
#
#
#
# Elastic Compliance Matrix: (Units=1/GPa)
#
#
# Indices 1 2 3 4 5 6 
#
# 1 0.022864 -0.002000 -0.005167 0.000000 0.000000 0.000000
# 2 -0.002000 0.011689 -0.004287 0.000000 0.000000 0.000000
# 3 -0.005167 -0.004287 0.010042 0.000000 0.000000 0.000000
# 4 0.000000 0.000000 0.000000 0.086311 0.000000 0.000000
# 5 0.000000 0.000000 0.000000 0.000000 0.032839 0.000000
# 6 0.000000 0.000000 0.000000 0.000000 0.000000 0.016317
#
#
# Mechanical properties :
#
#
# Convention : Reuss Voigt Hill
#
# Bulk Modulus (GPa) = 46.10676 61.21550 53.66113
# Shear Modulus (GPa) = 23.78689 33.30472 28.54580
#
# Velocity S-wave (km/s) = 3.44896 4.08105 3.77825
# Velocity P-wave (km/s) = 6.23838 7.26768 6.77262
#
# Compressibility (1/GPa) = 0.02168879
#
# Stress axis : x y z
#
# Youngs Moduli (GPa) = 43.73613 85.54802 99.58105
#
# Poissons Ratio (x) = 0.17106 0.51449
# Poissons Ratio (y) = 0.08745 0.42695
# Poissons Ratio (z) = 0.22596 0.36678
#
# Static dielectric constant tensor:
#      x y z
#    x 1.685310 0.000000 0.000000 
#    y 0.000000 1.836190 0.000000 
#    z 0.000000 0.000000 1.689560 
# 
# From -- ./inp_files/10293.got.cif
#   From: 2010.05.17/outbox.cif.g08.bks.cpg/sg48_6_cif.got.tgz:10293.got - 2010.06.03 20:39:00.
