data_PCOD9391646
_publ_section_title
;
Structure prediction by ZEFSAII (Michael W. Deem and Ramdas Pophale) SiO2 
 PCOD9391646
Probable space group: P N N N
;
_chemical_formula_sum "Si O2"
_cell_formula_units_Z 56
_cell_length_a 20.756266
_cell_length_b 24.669314
_cell_length_c 5.349899
_cell_angle_alpha 90.000000
_cell_angle_beta 90.000000
_cell_angle_gamma 90.000000
_cell_volume 2739.377496
_symmetry_space_group_name_H-M "P N N N"
_symmetry_group_IT_number 48
_space_group.IT_coordinate_system_code '2'
_symmetry_cell_setting 'orthorhombic'
loop_
_space_group_symop_operation_xyz
x,y,z
1/2-x,1/2-y,z
x,1/2-y,1/2-z
1/2-x,y,1/2-z
-x,-y,-z
1/2+x,1/2+y,-z
-x,1/2+y,1/2+z
1/2+x,-y,1/2+z
loop_
_atom_site_type_symbol
_atom_site_label
_atom_site_fract_x
_atom_site_fract_y
_atom_site_fract_z
Si Si1 0.448532 0.689385 0.661867
Si Si2 0.064392 0.994761 0.331998
Si Si3 0.814028 0.967592 0.374299
Si Si4 0.045512 0.874070 0.166078
Si Si5 0.409920 0.405690 0.987561
Si Si6 0.312417 0.356726 0.363363
Si Si7 0.908238 0.781756 0.503961
O O1 0.427197 0.750000 0.750000
O O2 0.427883 0.661998 0.398002
O O3 0.525136 0.694573 0.612659
O O4 0.435841 0.650690 0.898181
O O5 0.063933 0.936826 0.197563
O O6 0.134355 0.998189 0.467094
O O7 0.058878 0.048237 0.162815
O O8 0.000000 0.000000 0.500000
O O9 0.750000 0.992860 0.250000
O O10 0.791499 0.915285 0.532445
O O11 0.860547 0.940312 0.173224
O O12 0.966938 0.876358 0.161292
O O13 0.367035 0.367191 0.157409
O O14 0.250000 0.329484 0.250000
O O15 0.350967 0.322789 0.567400
O O16 0.924751 0.750000 0.250000
O O17 0.882428 0.750000 0.750000
#
# Coordination Sequence:
#
# PCOD9391646 Si02
#       7
#     8   8   8   8   8   8   8
#     4  11  23  39  61  86 115 158 207 253 318 380
#     4  11  24  37  58  95 128 161 211 256 313 385
#     4  11  23  38  62  85 123 167 209 254 316 383
#     4  12  22  38  63  89 121 162 199 262 319 369
#     4  11  22  38  61  87 123 162 211 257 312 382
#     4  11  23  39  57  83 108 162 217 270 314 378
#     4  11  24  39  58  78 111 153 209 276 330 363
#
# _framework density 20.442599999999999
#
# number of rings (size 3 to 8) (size 9 to 14) (size 15 to 20)
#    0.000    0.857    4.286    4.286    4.000    0.286 
#    0.000    0.714    0.000    0.000    0.000    0.000 
#    0.000    0.571    0.857    0.000    0.000    0.000 
#
# Total GULP energy -312568.065255 kJ/mol
# GULP energy per Si atom -5581.572594 kJ/mol
# Density = 2.039607 g / cm^3
# Si number density = 20.442600 Si / 1000 Ang^3
#
#
#
# Elastic Constant Matrix: (Units=GPa)
#
#
# Indices 1 2 3 4 5 6 
#
# 1 31.7125 2.8249 15.1666 0.0000 0.0000 0.0000
# 2 2.8249 76.6081 34.9193 0.0000 0.0000 0.0000
# 3 15.1666 34.9193 118.6915 0.0000 0.0000 0.0000
# 4 0.0000 0.0000 0.0000 33.1702 0.0000 0.0000
# 5 0.0000 0.0000 0.0000 0.0000 28.8984 0.0000
# 6 0.0000 0.0000 0.0000 0.0000 0.0000 18.1248
#
#
#
# Elastic Compliance Matrix: (Units=1/GPa)
#
#
# Indices 1 2 3 4 5 6 
#
# 1 0.033631 0.000830 -0.004542 0.000000 0.000000 0.000000
# 2 0.000830 0.015096 -0.004547 0.000000 0.000000 0.000000
# 3 -0.004542 -0.004547 0.010343 0.000000 0.000000 0.000000
# 4 0.000000 0.000000 0.000000 0.030148 0.000000 0.000000
# 5 0.000000 0.000000 0.000000 0.000000 0.034604 0.000000
# 6 0.000000 0.000000 0.000000 0.000000 0.000000 0.055173
#
#
# Mechanical properties :
#
#
# Convention : Reuss Voigt Hill
#
# Bulk Modulus (GPa) = 23.50031 36.98152 30.24091
# Shear Modulus (GPa) = 23.84396 27.64545 25.74470
#
# Velocity S-wave (km/s) = 3.41894 3.68141 3.55260
# Velocity P-wave (km/s) = 5.20637 6.01665 5.62612
#
# Compressibility (1/GPa) = 0.04255263
#
# Stress axis : x y z
#
# Youngs Moduli (GPa) = 29.73407 66.24477 96.68060
#
# Poissons Ratio (x) = -0.05498 0.43909
# Poissons Ratio (y) = -0.02468 0.43963
# Poissons Ratio (z) = 0.13504 0.30123
#
# Static dielectric constant tensor:
#      x y z
#    x 1.739230 0.000000 0.000000 
#    y 0.000000 1.868390 0.000000 
#    z 0.000000 0.000000 1.685880 
# 
# From -- ./inp_files/5347.got.cif
#   From: 2010.05.17/outbox.cif.g08.bks.cpg/sg48_3_cif.got.tgz:5347.got - 2010.06.03 20:39:00.
