data_PCOD9391930
_publ_section_title
;
Structure prediction by ZEFSAII (Michael W. Deem and Ramdas Pophale) SiO2 
 PCOD9391930
Probable space group: P N N N
;
_chemical_formula_sum "Si O2"
_cell_formula_units_Z 40
_cell_length_a 17.524840
_cell_length_b 13.989300
_cell_length_c 7.697308
_cell_angle_alpha 90.000000
_cell_angle_beta 90.000000
_cell_angle_gamma 90.000000
_cell_volume 1887.073909
_symmetry_space_group_name_H-M "P N N N"
_symmetry_group_IT_number 48
_space_group.IT_coordinate_system_code '2'
_symmetry_cell_setting 'orthorhombic'
loop_
_space_group_symop_operation_xyz
x,y,z
1/2-x,1/2-y,z
x,1/2-y,1/2-z
1/2-x,y,1/2-z
-x,-y,-z
1/2+x,1/2+y,-z
-x,1/2+y,1/2+z
1/2+x,-y,1/2+z
loop_
_atom_site_type_symbol
_atom_site_label
_atom_site_fract_x
_atom_site_fract_y
_atom_site_fract_z
Si Si1 0.721639 0.356336 0.449530
Si Si2 0.423419 0.546553 0.694525
Si Si3 0.927477 0.854143 0.815250
Si Si4 0.996486 0.859760 0.203518
Si Si5 0.855114 0.036917 0.911274
O O1 0.750000 0.250000 0.505546
O O2 0.750000 0.360547 0.250000
O O3 0.635726 0.397513 0.429865
O O4 0.770362 0.426389 0.567623
O O5 0.499758 0.609368 0.706411
O O6 0.451483 0.436207 0.674455
O O7 0.386288 0.540552 0.888207
O O8 0.904943 0.750000 0.750000
O O9 0.862633 0.934443 0.820764
O O10 0.958646 0.859440 0.012385
O O11 0.994638 0.750000 0.250000
O O12 0.083276 0.896085 0.184382
#
# Coordination Sequence:
#
# PCOD9391930 Si02
#       5
#     8   8   8   8   8
#     4   9  16  25  49  78 106 138 178 227 273 323
#     4   8  16  28  46  77 109 134 180 228 263 314
#     4   9  17  29  52  76 108 141 179 221 268 319
#     4   9  17  31  50  76 111 140 174 227 272 311
#     4   8  16  30  45  75 111 140 170 224 278 315
#
# _framework density 21.196839000000001
#
# number of rings (size 3 to 8) (size 9 to 14) (size 15 to 20)
#    0.000    3.400    0.000    2.400    8.400    0.000 
#    0.000    4.000    0.000   15.600    0.000    1.400 
#    0.000    0.000    0.000    0.000    0.000    0.200 
#
# Total GULP energy -222843.419644 kJ/mol
# GULP energy per Si atom -5571.085491 kJ/mol
# Density = 2.114859 g / cm^3
# Si number density = 21.196839 Si / 1000 Ang^3
#
#
#
# Elastic Constant Matrix: (Units=GPa)
#
#
# Indices 1 2 3 4 5 6 
#
# 1 96.2810 91.9641 40.3920 0.0000 0.0000 0.0000
# 2 91.9641 206.8161 37.2929 0.0000 0.0000 0.0000
# 3 40.3920 37.2929 68.9954 0.0000 0.0000 0.0000
# 4 0.0000 0.0000 0.0000 17.2063 0.0000 0.0000
# 5 0.0000 0.0000 0.0000 0.0000 -0.1932 0.0000
# 6 0.0000 0.0000 0.0000 0.0000 0.0000 5.5134
#
#
#
# Elastic Compliance Matrix: (Units=1/GPa)
#
#
# Indices 1 2 3 4 5 6 
#
# 1 0.021606 -0.008118 -0.008261 0.000000 0.000000 0.000000
# 2 -0.008118 0.008407 0.000208 0.000000 0.000000 0.000000
# 3 -0.008261 0.000208 0.019217 0.000000 0.000000 0.000000
# 4 0.000000 0.000000 0.000000 0.058118 0.000000 0.000000
# 5 0.000000 0.000000 0.000000 0.000000 -5.175760 0.000000
# 6 0.000000 0.000000 0.000000 0.000000 0.000000 0.181376
#
#
# Mechanical properties :
#
#
# Convention : Reuss Voigt Hill
#
# Bulk Modulus (GPa) = 59.20874 79.04340 69.12607
# Shear Modulus (GPa) = -1.03113 18.00154 8.48521
#
# Velocity S-wave (km/s) = -0.69822 2.91736 2.00293
# Velocity P-wave (km/s) = 5.22910 6.97991 6.16695
#
# Compressibility (1/GPa) = 0.01688940
#
# Stress axis : x y z
#
# Youngs Moduli (GPa) = 46.28434 118.94355 52.03607
#
# Poissons Ratio (x) = 0.96554 0.42986
# Poissons Ratio (y) = 0.37572 -0.01083
# Poissons Ratio (z) = 0.38235 -0.02475
#
# Static dielectric constant tensor:
#      x y z
#    x 1.775730 0.000000 0.000000 
#    y 0.000000 1.810280 0.000000 
#    z 0.000000 0.000000 1.839860 
# 
# From -- ./inp_files/10725.got.cif
#   From: 2010.05.17/outbox.cif.g08.bks.cpg/sg48_6_cif.got.tgz:10725.got - 2010.06.03 20:39:00.
