data_PCOD9391193
_publ_section_title
;
Structure prediction by ZEFSAII (Michael W. Deem and Ramdas Pophale) SiO2 
 PCOD9391193
Probable space group: P N N N
;
_chemical_formula_sum "Si O2"
_cell_formula_units_Z 30
_cell_length_a 6.992240
_cell_length_b 12.603997
_cell_length_c 13.061250
_cell_angle_alpha 90.000000
_cell_angle_beta 90.000000
_cell_angle_gamma 90.000000
_cell_volume 1151.090209
_symmetry_space_group_name_H-M "P N N N"
_symmetry_group_IT_number 48
_space_group.IT_coordinate_system_code '2'
_symmetry_cell_setting 'orthorhombic'
loop_
_space_group_symop_operation_xyz
x,y,z
1/2-x,1/2-y,z
x,1/2-y,1/2-z
1/2-x,y,1/2-z
-x,-y,-z
1/2+x,1/2+y,-z
-x,1/2+y,1/2+z
1/2+x,-y,1/2+z
loop_
_atom_site_type_symbol
_atom_site_label
_atom_site_fract_x
_atom_site_fract_y
_atom_site_fract_z
Si Si1 0.873657 0.646854 0.996305
Si Si2 0.250000 0.750000 0.590363
Si Si3 0.945637 0.591927 0.202047
Si Si4 0.250000 0.750000 0.250000
Si Si5 0.531394 0.559641 0.888385
O O1 0.750000 0.750000 0.034189
O O2 0.889198 0.560621 0.087200
O O3 0.744973 0.605184 0.903188
O O4 0.080956 0.687344 0.966234
O O5 0.379639 0.846122 0.635885
O O6 0.750000 0.634173 0.250000
O O7 0.480357 0.515532 0.209362
O O8 0.108869 0.678228 0.185626
O O9 0.500000 0.500000 0.000000
#
# Coordination Sequence:
#
# PCOD9391193 Si02
#       5
#     8   4   8   2   8
#     4  10  22  45  73 106 146 190 256 327 392 465
#     4  10  25  48  74 103 146 200 255 331 394 471
#     4  12  25  43  69 107 149 192 247 320 394 469
#     4  12  28  40  72 116 146 190 260 340 396 456
#     4  11  25  44  70 107 146 196 251 315 402 475
#
# _framework density 26.062249999999999
#
# number of rings (size 3 to 8) (size 9 to 14) (size 15 to 20)
#    0.000    1.067    2.667    2.800    7.467    3.200 
#    0.000    0.667    0.000    0.000    0.000    0.000 
#    0.000    0.000    0.000    0.000    0.000    0.000 
#
# Total GULP energy -167700.607618 kJ/mol
# GULP energy per Si atom -5590.020254 kJ/mol
# Density = 2.600293 g / cm^3
# Si number density = 26.062250 Si / 1000 Ang^3
#
#
#
# Elastic Constant Matrix: (Units=GPa)
#
#
# Indices 1 2 3 4 5 6 
#
# 1 229.9420 57.2921 70.5412 0.0000 0.0000 0.0000
# 2 57.2921 123.6527 73.6932 0.0000 0.0000 0.0000
# 3 70.5412 73.6932 131.5909 0.0000 0.0000 0.0000
# 4 0.0000 0.0000 0.0000 8.0657 0.0000 0.0000
# 5 0.0000 0.0000 0.0000 0.0000 12.0378 0.0000
# 6 0.0000 0.0000 0.0000 0.0000 0.0000 53.1823
#
#
#
# Elastic Compliance Matrix: (Units=1/GPa)
#
#
# Indices 1 2 3 4 5 6 
#
# 1 0.005311 -0.001147 -0.002205 0.000000 0.000000 0.000000
# 2 -0.001147 0.012386 -0.006322 0.000000 0.000000 0.000000
# 3 -0.002205 -0.006322 0.012321 0.000000 0.000000 0.000000
# 4 0.000000 0.000000 0.000000 0.123981 0.000000 0.000000
# 5 0.000000 0.000000 0.000000 0.000000 0.083071 0.000000
# 6 0.000000 0.000000 0.000000 0.000000 0.000000 0.018803
#
#
# Mechanical properties :
#
#
# Convention : Reuss Voigt Hill
#
# Bulk Modulus (GPa) = 93.70293 98.69319 96.19806
# Shear Modulus (GPa) = 17.93539 33.56778 25.75159
#
# Velocity S-wave (km/s) = 2.62615 3.59274 3.14678
# Velocity P-wave (km/s) = 6.72511 7.42704 7.08477
#
# Compressibility (1/GPa) = 0.01067202
#
# Stress axis : x y z
#
# Youngs Moduli (GPa) = 188.28668 80.73636 81.15897
#
# Poissons Ratio (x) = 0.09258 0.17895
# Poissons Ratio (y) = 0.21592 0.51306
# Poissons Ratio (z) = 0.41515 0.51039
#
# Static dielectric constant tensor:
#      x y z
#    x 2.016340 0.000000 0.000000 
#    y 0.000000 2.169600 0.000000 
#    z 0.000000 0.000000 2.054300 
# 
# From -- ./inp_files/29180.got.cif
#   From: 2010.05.17/outbox.cif.g08.bks.cpg/sg48_15_cif.got.tgz:29180.got - 2010.06.03 20:39:00.
