data_PCOD9391540
_publ_section_title
;
Structure prediction by ZEFSAII (Michael W. Deem and Ramdas Pophale) SiO2 
 PCOD9391540
Probable space group: P N N N
;
_chemical_formula_sum "Si O2"
_cell_formula_units_Z 56
_cell_length_a 5.097889
_cell_length_b 16.331304
_cell_length_c 31.894101
_cell_angle_alpha 90.000000
_cell_angle_beta 90.000000
_cell_angle_gamma 90.000000
_cell_volume 2655.348961
_symmetry_space_group_name_H-M "P N N N"
_symmetry_group_IT_number 48
_space_group.IT_coordinate_system_code '2'
_symmetry_cell_setting 'orthorhombic'
loop_
_space_group_symop_operation_xyz
x,y,z
1/2-x,1/2-y,z
x,1/2-y,1/2-z
1/2-x,y,1/2-z
-x,-y,-z
1/2+x,1/2+y,-z
-x,1/2+y,1/2+z
1/2+x,-y,1/2+z
loop_
_atom_site_type_symbol
_atom_site_label
_atom_site_fract_x
_atom_site_fract_y
_atom_site_fract_z
Si Si1 0.926685 0.977059 0.952897
Si Si2 0.410147 0.478886 0.595372
Si Si3 0.509721 0.195983 0.865196
Si Si4 0.513727 0.615469 0.276653
Si Si5 0.010791 0.303961 0.414540
Si Si6 0.885392 0.835954 0.816212
Si Si7 0.110714 0.940133 0.685260
O O1 0.009910 0.884297 0.942417
O O2 0.627178 0.989537 0.937803
O O3 0.121229 0.028800 0.923560
O O4 0.000000 0.000000 0.000000
O O5 0.494625 0.390108 0.611150
O O6 0.389039 0.540325 0.635222
O O7 0.250000 0.250000 0.869265
O O8 0.548340 0.170458 0.816784
O O9 0.750000 0.250000 0.880309
O O10 0.250000 0.603514 0.250000
O O11 0.628258 0.528240 0.293110
O O12 0.750000 0.652611 0.250000
O O13 0.750000 0.250000 0.413277
O O14 0.250000 0.250000 0.430948
O O15 0.083159 0.328144 0.366668
O O16 0.750000 0.750000 0.802394
O O17 0.671702 0.903347 0.804881
O O18 0.166979 0.873250 0.802907
#
# Coordination Sequence:
#
# PCOD9391540 Si02
#       7
#     8   8   8   8   8   8   8
#     4  12  24  41  63  90 126 172 209 254 314 383
#     4  11  22  42  62  88 122 162 213 258 308 377
#     4  11  24  42  67  96 126 167 213 265 318 375
#     4  11  24  40  63  94 129 169 211 258 321 373
#     4  11  21  36  59  89 123 149 195 263 314 347
#     4  11  20  33  60  93 119 150 203 259 315 348
#     4  11  20  38  61  87 124 159 204 260 299 373
#
# _framework density 21.089507999999999
#
# number of rings (size 3 to 8) (size 9 to 14) (size 15 to 20)
#    0.000    0.857    2.857    6.000    0.000    6.286 
#    0.000    4.286    0.000    6.429    0.000    0.000 
#    0.000    0.000    0.000    0.000    0.000    0.000 
#
# Total GULP energy -313157.737407 kJ/mol
# GULP energy per Si atom -5592.102454 kJ/mol
# Density = 2.104151 g / cm^3
# Si number density = 21.089508 Si / 1000 Ang^3
#
#
#
# Elastic Constant Matrix: (Units=GPa)
#
#
# Indices 1 2 3 4 5 6 
#
# 1 117.3941 25.6719 11.3300 0.0000 0.0000 0.0000
# 2 25.6719 102.8723 12.0969 0.0000 0.0000 0.0000
# 3 11.3300 12.0969 51.3409 0.0000 0.0000 0.0000
# 4 0.0000 0.0000 0.0000 2.2036 0.0000 0.0000
# 5 0.0000 0.0000 0.0000 0.0000 29.3513 0.0000
# 6 0.0000 0.0000 0.0000 0.0000 0.0000 -126.3440
#
#
#
# Elastic Compliance Matrix: (Units=1/GPa)
#
#
# Indices 1 2 3 4 5 6 
#
# 1 0.009124 -0.002098 -0.001519 0.000000 0.000000 0.000000
# 2 -0.002098 0.010480 -0.002006 0.000000 0.000000 0.000000
# 3 -0.001519 -0.002006 0.020286 0.000000 0.000000 0.000000
# 4 0.000000 0.000000 0.000000 0.453795 0.000000 0.000000
# 5 0.000000 0.000000 0.000000 0.000000 0.034070 0.000000
# 6 0.000000 0.000000 0.000000 0.000000 0.000000 -0.007915
#
#
# Mechanical properties :
#
#
# Convention : Reuss Voigt Hill
#
# Bulk Modulus (GPa) = 34.91318 41.08942 38.00130
# Shear Modulus (GPa) = 9.24839 -4.12390 2.56225
#
# Velocity S-wave (km/s) = 2.09638 -1.39988 1.10344
# Velocity P-wave (km/s) = 4.73819 4.11251 4.43640
#
# Compressibility (1/GPa) = 0.02864248
#
# Stress axis : x y z
#
# Youngs Moduli (GPa) = 109.60386 95.41691 49.29604
#
# Poissons Ratio (x) = 0.20020 0.07488
# Poissons Ratio (y) = 0.22997 0.09890
# Poissons Ratio (z) = 0.16650 0.19144
#
# Static dielectric constant tensor:
#      x y z
#    x 1.916280 0.000000 0.000000 
#    y 0.000000 1.736490 0.000000 
#    z 0.000000 0.000000 1.434420 
# 
# From -- ./inp_files/38335.got.cif
#   From: 2010.05.17/outbox.cif.g08.bks.cpg/sg48_20_cif.got.tgz:38335.got - 2010.06.03 20:39:00.
