data_PCOD9391969
_publ_section_title
;
Structure prediction by ZEFSAII (Michael W. Deem and Ramdas Pophale) SiO2 
 PCOD9391969
Probable space group: P N N N
;
_chemical_formula_sum "Si O2"
_cell_formula_units_Z 38
_cell_length_a 12.000000
_cell_length_b 6.000000
_cell_length_c 27.000000
_cell_angle_alpha 90.000000
_cell_angle_beta 90.000000
_cell_angle_gamma 90.000000
_cell_volume 1944.000000
_symmetry_space_group_name_H-M "P N N N"
_symmetry_group_IT_number 48
_space_group.IT_coordinate_system_code '2'
_symmetry_cell_setting 'orthorhombic'
loop_
_space_group_symop_operation_xyz
x,y,z
1/2-x,1/2-y,z
x,1/2-y,1/2-z
1/2-x,y,1/2-z
-x,-y,-z
1/2+x,1/2+y,-z
-x,1/2+y,1/2+z
1/2+x,-y,1/2+z
loop_
_atom_site_type_symbol
_atom_site_label
_atom_site_fract_x
_atom_site_fract_y
_atom_site_fract_z
Si Si1 0.619849 0.199515 0.087273
Si Si2 0.250000 0.250000 0.250000
Si Si3 0.131174 0.626739 0.026336
Si Si4 0.532023 0.707758 0.110403
Si Si5 0.841670 0.439863 0.668376
Si Si6 0.750000 0.750000 0.581575
O O1 0.750000 0.250000 0.090366
O O2 0.574881 0.449254 0.102608
O O3 0.595581 0.952744 0.112708
O O4 0.590453 0.147406 0.029810
O O5 0.172710 0.399425 0.285209
O O6 0.250000 0.750000 0.027635
O O7 0.162774 0.382647 0.047450
O O8 0.048537 0.746094 0.063836
O O9 0.458146 0.680849 0.159630
O O10 0.750000 0.250000 0.672851
O O11 0.811973 0.582700 0.619191
#
# Coordination Sequence:
#
# PCOD9391969 Si02
#       6
#     8   2   8   8   8   4
#     4  11  27  39  57  84 132 176 237 274 295 336
#     4  10  26  40  68  98 146 144 190 248 354 414
#     4  11  22  34  57  87 128 174 223 268 312 370
#     4  12  22  41  62  89 122 177 219 261 323 374
#     4  11  22  40  64  96 132 162 195 257 332 419
#     4  11  18  35  58  86 134 172 210 247 320 379
#
# _framework density 19.547325000000001
#
# number of rings (size 3 to 8) (size 9 to 14) (size 15 to 20)
#    0.000    0.842    4.211    3.474    8.842    0.000 
#    0.000    0.000    0.000    0.000    0.000    0.737 
#    0.000    0.000    0.000    0.000    0.000    0.000 
#
# Total GULP energy -211628.241902 kJ/mol
# GULP energy per Si atom -5569.164261 kJ/mol
# Density = 1.950283 g / cm^3
# Si number density = 19.547325 Si / 1000 Ang^3
#
#
#
# Elastic Constant Matrix: (Units=GPa)
#
#
# Indices 1 2 3 4 5 6 
#
# 1 89.0697 56.8427 45.3502 0.0000 0.0000 0.0000
# 2 56.8427 183.5912 61.8166 0.0000 0.0000 0.0000
# 3 45.3502 61.8166 73.1045 0.0000 0.0000 0.0000
# 4 0.0000 0.0000 0.0000 401.5676 0.0000 0.0000
# 5 0.0000 0.0000 0.0000 0.0000 -56.7894 0.0000
# 6 0.0000 0.0000 0.0000 0.0000 0.0000 50.6281
#
#
#
# Elastic Compliance Matrix: (Units=1/GPa)
#
#
# Indices 1 2 3 4 5 6 
#
# 1 0.017143 -0.002414 -0.008593 0.000000 0.000000 0.000000
# 2 -0.002414 0.007955 -0.005229 0.000000 0.000000 0.000000
# 3 -0.008593 -0.005229 0.023431 0.000000 0.000000 0.000000
# 4 0.000000 0.000000 0.000000 0.002490 0.000000 0.000000
# 5 0.000000 0.000000 0.000000 0.000000 -0.017609 0.000000
# 6 0.000000 0.000000 0.000000 0.000000 0.000000 0.019752
#
#
# Mechanical properties :
#
#
# Convention : Reuss Voigt Hill
#
# Bulk Modulus (GPa) = 62.27967 74.86491 68.57229
# Shear Modulus (GPa) = 54.95224 91.19831 73.07527
#
# Velocity S-wave (km/s) = 5.30787 6.83787 6.12086
# Velocity P-wave (km/s) = 8.33635 10.03615 9.22548
#
# Compressibility (1/GPa) = 0.01605660
#
# Stress axis : x y z
#
# Youngs Moduli (GPa) = 58.33204 125.70612 42.67787
#
# Poissons Ratio (x) = 0.30351 0.36674
# Poissons Ratio (y) = 0.14084 0.22316
# Poissons Ratio (z) = 0.50125 0.65731
#
# Static dielectric constant tensor:
#      x y z
#    x 1.772830 0.000000 0.000000 
#    y 0.000000 1.767000 0.000000 
#    z 0.000000 0.000000 1.675820 
# 
# From -- ./inp_files/2452.got.cif
#   From: 2010.05.17/outbox.ucp.g08.bks.cvg/sg48_2_cif.got.tgz:2452.got - 2010.06.11 16:38:40.
