data_PCOD9391214
_publ_section_title
;
Structure prediction by ZEFSAII (Michael W. Deem and Ramdas Pophale) SiO2 
 PCOD9391214
Probable space group: P N N N
;
_chemical_formula_sum "Si O2"
_cell_formula_units_Z 56
_cell_length_a 27.744915
_cell_length_b 5.411235
_cell_length_c 17.340957
_cell_angle_alpha 90.000000
_cell_angle_beta 90.000000
_cell_angle_gamma 90.000000
_cell_volume 2603.471662
_symmetry_space_group_name_H-M "P N N N"
_symmetry_group_IT_number 48
_space_group.IT_coordinate_system_code '2'
_symmetry_cell_setting 'orthorhombic'
loop_
_space_group_symop_operation_xyz
x,y,z
1/2-x,1/2-y,z
x,1/2-y,1/2-z
1/2-x,y,1/2-z
-x,-y,-z
1/2+x,1/2+y,-z
-x,1/2+y,1/2+z
1/2+x,-y,1/2+z
loop_
_atom_site_type_symbol
_atom_site_label
_atom_site_fract_x
_atom_site_fract_y
_atom_site_fract_z
Si Si1 0.913927 0.257989 0.624216
Si Si2 0.994748 0.556765 0.814363
Si Si3 0.459740 0.344402 0.044463
Si Si4 0.721859 0.992223 0.962244
Si Si5 0.385976 0.489927 0.528215
Si Si6 0.606843 0.000844 0.207989
Si Si7 0.820461 0.489775 0.797187
O O1 0.921550 0.545903 0.608428
O O2 0.961005 0.176183 0.670210
O O3 0.910711 0.171556 0.534673
O O4 0.870476 0.122168 0.667404
O O5 0.976569 0.750000 0.750000
O O6 0.992120 0.673197 0.900171
O O7 0.048617 0.494238 0.790442
O O8 0.500000 0.500000 0.000000
O O9 0.422873 0.237444 0.981789
O O10 0.750000 0.750000 0.989230
O O11 0.713764 0.970692 0.870250
O O12 0.750000 0.250000 0.978083
O O13 0.668528 0.975490 0.997688
O O14 0.381578 0.535541 0.618241
O O15 0.623189 0.250000 0.250000
O O16 0.624312 0.750000 0.250000
O O17 0.825489 0.750000 0.750000
O O18 0.803168 0.250000 0.750000
#
# Coordination Sequence:
#
# PCOD9391214 Si02
#       7
#     8   8   8   8   8   8   8
#     4  10  23  36  63  89 133 185 231 273 330 395
#     4  10  23  36  54  92 132 180 230 277 316 392
#     4  11  23  38  66  94 135 189 234 287 332 399
#     4  11  26  46  73 101 128 173 227 277 346 407
#     4  10  25  44  67  96 134 171 226 283 341 412
#     4  11  26  42  67  96 130 172 215 272 341 404
#     4  11  25  40  66  97 139 178 221 276 337 397
#
# _framework density 21.509741000000002
#
# number of rings (size 3 to 8) (size 9 to 14) (size 15 to 20)
#    0.000    1.429    0.000    3.000   22.000    4.000 
#    0.000    0.000    0.000    2.571    0.000    0.000 
#    0.000    0.000    0.000    0.000    0.000    0.000 
#
# Total GULP energy -312199.499919 kJ/mol
# GULP energy per Si atom -5574.991070 kJ/mol
# Density = 2.146078 g / cm^3
# Si number density = 21.509741 Si / 1000 Ang^3
#
#
#
# Elastic Constant Matrix: (Units=GPa)
#
#
# Indices 1 2 3 4 5 6 
#
# 1 78.6083 39.7095 20.4396 0.0000 0.0000 0.0000
# 2 39.7095 105.2652 55.1696 0.0000 0.0000 0.0000
# 3 20.4396 55.1696 156.1542 0.0000 0.0000 0.0000
# 4 0.0000 0.0000 0.0000 27.6086 0.0000 0.0000
# 5 0.0000 0.0000 0.0000 0.0000 21.1128 0.0000
# 6 0.0000 0.0000 0.0000 0.0000 0.0000 15.9520
#
#
#
# Elastic Compliance Matrix: (Units=1/GPa)
#
#
# Indices 1 2 3 4 5 6 
#
# 1 0.015716 -0.005953 0.000046 0.000000 0.000000 0.000000
# 2 -0.005953 0.013913 -0.004136 0.000000 0.000000 0.000000
# 3 0.000046 -0.004136 0.007859 0.000000 0.000000 0.000000
# 4 0.000000 0.000000 0.000000 0.036221 0.000000 0.000000
# 5 0.000000 0.000000 0.000000 0.000000 0.047365 0.000000
# 6 0.000000 0.000000 0.000000 0.000000 0.000000 0.062688
#
#
# Mechanical properties :
#
#
# Convention : Reuss Voigt Hill
#
# Bulk Modulus (GPa) = 57.46298 63.40722 60.43510
# Shear Modulus (GPa) = 23.84929 27.91529 25.88229
#
# Velocity S-wave (km/s) = 3.33343 3.60640 3.47260
# Velocity P-wave (km/s) = 6.44892 6.84718 6.65103
#
# Compressibility (1/GPa) = 0.01740251
#
# Stress axis : x y z
#
# Youngs Moduli (GPa) = 63.62752 71.87356 127.23758
#
# Poissons Ratio (x) = 0.42785 -0.00585
# Poissons Ratio (y) = 0.37877 0.52631
# Poissons Ratio (z) = -0.00293 0.29730
#
# Static dielectric constant tensor:
#      x y z
#    x 1.789390 0.000000 0.000000 
#    y 0.000000 1.930560 0.000000 
#    z 0.000000 0.000000 1.975280 
# 
# From -- ./inp_files/28916.got.cif
#   From: 2010.05.17/outbox.cif.g08.bks.cpg/sg48_15_cif.got.tgz:28916.got - 2010.06.03 20:39:00.
