data_PCOD9391117
_publ_section_title
;
Structure prediction by ZEFSAII (Michael W. Deem and Ramdas Pophale) SiO2 
 PCOD9391117
Probable space group: P N N N
;
_chemical_formula_sum "Si O2"
_cell_formula_units_Z 30
_cell_length_a 30.162368
_cell_length_b 5.554034
_cell_length_c 8.174917
_cell_angle_alpha 90.000000
_cell_angle_beta 90.000000
_cell_angle_gamma 90.000000
_cell_volume 1369.485128
_symmetry_space_group_name_H-M "P N N N"
_symmetry_group_IT_number 48
_space_group.IT_coordinate_system_code '2'
_symmetry_cell_setting 'orthorhombic'
loop_
_space_group_symop_operation_xyz
x,y,z
1/2-x,1/2-y,z
x,1/2-y,1/2-z
1/2-x,y,1/2-z
-x,-y,-z
1/2+x,1/2+y,-z
-x,1/2+y,1/2+z
1/2+x,-y,1/2+z
loop_
_atom_site_type_symbol
_atom_site_label
_atom_site_fract_x
_atom_site_fract_y
_atom_site_fract_z
Si Si1 0.706548 0.405862 0.508568
Si Si2 0.120783 0.858263 0.065126
Si Si3 0.250000 0.250000 0.750000
Si Si4 0.160441 0.250000 0.250000
Si Si5 0.523150 0.249063 0.553407
O O1 0.750000 0.250000 0.538817
O O2 0.663685 0.242010 0.473086
O O3 0.719465 0.584938 0.363886
O O4 0.692282 0.556352 0.667220
O O5 0.120798 0.750000 0.250000
O O6 0.074029 0.779274 0.992597
O O7 0.129671 0.138084 0.107287
O O8 0.523850 0.250000 0.750000
O O9 0.500000 0.500000 0.500000
O O10 0.500000 0.000000 0.500000
#
# Coordination Sequence:
#
# PCOD9391117 Si02
#       5
#     8   8   2   4   8
#     4  11  24  42  62  97 127 176 221 276 337 410
#     4   9  22  40  69  95 131 171 231 277 337 409
#     4  12  26  42  60  82 148 174 214 272 356 404
#     4  10  22  41  72  94 124 170 234 282 329 412
#     4  11  25  46  74 107 144 187 238 297 361 425
#
# _framework density 21.906040999999998
#
# number of rings (size 3 to 8) (size 9 to 14) (size 15 to 20)
#    0.000    1.600    0.000    2.800   11.200   12.800 
#    2.400    5.333    0.000    0.000    0.000    0.000 
#    0.000    0.000    0.000    0.000    0.000    0.000 
#
# Total GULP energy -167611.557859 kJ/mol
# GULP energy per Si atom -5587.051929 kJ/mol
# Density = 2.185618 g / cm^3
# Si number density = 21.906041 Si / 1000 Ang^3
#
#
#
# Elastic Constant Matrix: (Units=GPa)
#
#
# Indices 1 2 3 4 5 6 
#
# 1 228.1418 105.0986 35.6923 0.0000 0.0000 0.0000
# 2 105.0986 151.1155 30.1092 0.0000 0.0000 0.0000
# 3 35.6923 30.1092 50.1830 0.0000 0.0000 0.0000
# 4 0.0000 0.0000 0.0000 34.0426 0.0000 0.0000
# 5 0.0000 0.0000 0.0000 0.0000 24.2281 0.0000
# 6 0.0000 0.0000 0.0000 0.0000 0.0000 22.1887
#
#
#
# Elastic Compliance Matrix: (Units=1/GPa)
#
#
# Indices 1 2 3 4 5 6 
#
# 1 0.006661 -0.004190 -0.002224 0.000000 0.000000 0.000000
# 2 -0.004190 0.010151 -0.003111 0.000000 0.000000 0.000000
# 3 -0.002224 -0.003111 0.023375 0.000000 0.000000 0.000000
# 4 0.000000 0.000000 0.000000 0.029375 0.000000 0.000000
# 5 0.000000 0.000000 0.000000 0.000000 0.041274 0.000000
# 6 0.000000 0.000000 0.000000 0.000000 0.000000 0.045068
#
#
# Mechanical properties :
#
#
# Convention : Reuss Voigt Hill
#
# Bulk Modulus (GPa) = 47.30618 85.69339 66.49978
# Shear Modulus (GPa) = 27.47255 33.32790 30.40023
#
# Velocity S-wave (km/s) = 3.54518 3.90475 3.72930
# Velocity P-wave (km/s) = 6.19675 7.71576 6.99759
#
# Compressibility (1/GPa) = 0.02113889
#
# Stress axis : x y z
#
# Youngs Moduli (GPa) = 150.12206 98.51153 42.78032
#
# Poissons Ratio (x) = 0.41273 0.09514
# Poissons Ratio (y) = 0.62896 0.13307
# Poissons Ratio (z) = 0.33387 0.30644
#
# Static dielectric constant tensor:
#      x y z
#    x 1.843550 0.000000 0.000000 
#    y 0.000000 1.940280 0.000000 
#    z 0.000000 0.000000 1.819760 
# 
# From -- ./inp_files/1076.got.cif
#   From: 2010.05.17/outbox.cif.g08.bks.cpg/sg48_1_cif.got.tgz:1076.got - 2010.06.03 20:39:00.
