data_PCOD9391971
_publ_section_title
;
Structure prediction by ZEFSAII (Michael W. Deem and Ramdas Pophale) SiO2 
 PCOD9391971
Probable space group: P N N N
;
_chemical_formula_sum "Si O2"
_cell_formula_units_Z 56
_cell_length_a 15.000000
_cell_length_b 9.000000
_cell_length_c 21.000000
_cell_angle_alpha 90.000000
_cell_angle_beta 90.000000
_cell_angle_gamma 90.000000
_cell_volume 2835.000000
_symmetry_space_group_name_H-M "P N N N"
_symmetry_group_IT_number 48
_space_group.IT_coordinate_system_code '2'
_symmetry_cell_setting 'orthorhombic'
loop_
_space_group_symop_operation_xyz
x,y,z
1/2-x,1/2-y,z
x,1/2-y,1/2-z
1/2-x,y,1/2-z
-x,-y,-z
1/2+x,1/2+y,-z
-x,1/2+y,1/2+z
1/2+x,-y,1/2+z
loop_
_atom_site_type_symbol
_atom_site_label
_atom_site_fract_x
_atom_site_fract_y
_atom_site_fract_z
Si Si1 0.930249 0.750000 0.250000
Si Si2 0.163792 0.966349 0.714620
Si Si3 0.338696 0.345706 0.987191
Si Si4 0.768046 0.418448 0.079252
Si Si5 0.508542 0.697674 0.109507
Si Si6 0.562104 0.144461 0.005798
Si Si7 0.505330 0.250000 0.250000
Si Si8 0.962775 0.850788 0.891404
O O1 0.864973 0.611373 0.252681
O O2 0.982941 0.743996 0.182196
O O3 0.250000 0.903962 0.750000
O O4 0.192536 0.996393 0.642062
O O5 0.074821 0.869619 0.721430
O O6 0.250000 0.250000 0.989622
O O7 0.314914 0.501823 0.953683
O O8 0.405821 0.273699 0.935779
O O9 0.379918 0.355189 0.058165
O O10 0.750000 0.250000 0.100407
O O11 0.841325 0.410700 0.024745
O O12 0.495679 0.520534 0.112767
O O13 0.436011 0.770695 0.062083
O O14 0.528145 0.245394 0.065914
O O15 0.500000 0.000000 0.000000
O O16 0.454736 0.300262 0.183783
#
# Coordination Sequence:
#
# PCOD9391971 Si02
#       8
#     4   8   8   8   8   8   4   8
#     4  12  23  40  58  92 127 164 202 244 321 374
#     4  12  24  37  58  93 133 165 204 255 317 390
#     4  11  23  41  62  91 124 167 208 263 317 373
#     4  12  22  37  61  93 126 162 205 254 315 369
#     4  11  23  41  61  90 129 167 203 255 313 387
#     4  11  22  38  62  90 120 162 212 259 304 371
#     4  12  23  42  63  90 126 174 218 260 313 390
#     4  11  23  43  63  88 127 170 216 258 315 382
#
# _framework density 19.753086
#
# number of rings (size 3 to 8) (size 9 to 14) (size 15 to 20)
#    0.000    0.571    2.857    9.000    0.000    0.000 
#    0.000    0.357    0.000    0.000    0.000    3.500 
#    0.000    0.000    0.000    0.000    0.000    0.000 
#
# Total GULP energy -312281.249584 kJ/mol
# GULP energy per Si atom -5576.450885 kJ/mol
# Density = 1.970813 g / cm^3
# Si number density = 19.753086 Si / 1000 Ang^3
#
#
#
# Elastic Constant Matrix: (Units=GPa)
#
#
# Indices 1 2 3 4 5 6 
#
# 1 50.0063 0.2367 34.6687 0.0000 0.0000 0.0000
# 2 0.2367 66.5048 13.6864 0.0000 0.0000 0.0000
# 3 34.6687 13.6864 197.9464 0.0000 0.0000 0.0000
# 4 0.0000 0.0000 0.0000 37.0443 0.0000 0.0000
# 5 0.0000 0.0000 0.0000 0.0000 20.8529 0.0000
# 6 0.0000 0.0000 0.0000 0.0000 0.0000 27.9389
#
#
#
# Elastic Compliance Matrix: (Units=1/GPa)
#
#
# Indices 1 2 3 4 5 6 
#
# 1 0.022798 0.000751 -0.004045 0.000000 0.000000 0.000000
# 2 0.000751 0.015278 -0.001188 0.000000 0.000000 0.000000
# 3 -0.004045 -0.001188 0.005842 0.000000 0.000000 0.000000
# 4 0.000000 0.000000 0.000000 0.026995 0.000000 0.000000
# 5 0.000000 0.000000 0.000000 0.000000 0.047955 0.000000
# 6 0.000000 0.000000 0.000000 0.000000 0.000000 0.035792
#
#
# Mechanical properties :
#
#
# Convention : Reuss Voigt Hill
#
# Bulk Modulus (GPa) = 28.60752 45.73789 37.17271
# Shear Modulus (GPa) = 28.52644 34.89160 31.70902
#
# Velocity S-wave (km/s) = 3.80432 4.20740 4.01093
# Velocity P-wave (km/s) = 5.81474 6.84164 6.34898
#
# Compressibility (1/GPa) = 0.03495584
#
# Stress axis : x y z
#
# Youngs Moduli (GPa) = 43.86322 65.45227 171.16159
#
# Poissons Ratio (x) = -0.04917 0.69232
# Poissons Ratio (y) = -0.03295 0.20333
# Poissons Ratio (z) = 0.17742 0.07775
#
# Static dielectric constant tensor:
#      x y z
#    x 1.733610 0.000000 0.000000 
#    y 0.000000 1.851410 0.000000 
#    z 0.000000 0.000000 1.667980 
# 
# From -- ./inp_files/34499.got.cif
#   From: 2010.05.17/outbox.ucp.g08.bks.cvg/sg48_18_cif.got.tgz:34499.got - 2010.06.11 16:38:40.
