data_PCOD9391226
_publ_section_title
;
Structure prediction by ZEFSAII (Michael W. Deem and Ramdas Pophale) SiO2 
 PCOD9391226
Probable space group: P N N N
;
_chemical_formula_sum "Si O2"
_cell_formula_units_Z 56
_cell_length_a 22.046501
_cell_length_b 9.099539
_cell_length_c 14.101237
_cell_angle_alpha 90.000000
_cell_angle_beta 90.000000
_cell_angle_gamma 90.000000
_cell_volume 2828.891397
_symmetry_space_group_name_H-M "P N N N"
_symmetry_group_IT_number 48
_space_group.IT_coordinate_system_code '2'
_symmetry_cell_setting 'orthorhombic'
loop_
_space_group_symop_operation_xyz
x,y,z
1/2-x,1/2-y,z
x,1/2-y,1/2-z
1/2-x,y,1/2-z
-x,-y,-z
1/2+x,1/2+y,-z
-x,1/2+y,1/2+z
1/2+x,-y,1/2+z
loop_
_atom_site_type_symbol
_atom_site_label
_atom_site_fract_x
_atom_site_fract_y
_atom_site_fract_z
Si Si1 0.537670 0.855766 0.581485
Si Si2 0.405136 0.465764 0.708716
Si Si3 0.616132 0.993138 0.431916
Si Si4 0.453029 0.924903 0.240635
Si Si5 0.885727 0.555427 0.924863
Si Si6 0.091048 0.798340 0.567172
Si Si7 0.816243 0.786152 0.427344
O O1 0.555927 0.933337 0.483451
O O2 0.579327 0.709850 0.585031
O O3 0.471673 0.784550 0.586196
O O4 0.546894 0.974316 0.664993
O O5 0.391159 0.475730 0.819345
O O6 0.478171 0.443880 0.697129
O O7 0.388387 0.620526 0.661527
O O8 0.364710 0.347073 0.650675
O O9 0.664706 0.874344 0.463351
O O10 0.631667 0.159215 0.460971
O O11 0.446286 0.750000 0.250000
O O12 0.397251 0.983699 0.177111
O O13 0.915330 0.429673 0.992266
O O14 0.825093 0.601564 0.983607
O O15 0.750000 0.750000 0.387589
#
# Coordination Sequence:
#
# PCOD9391226 Si02
#       7
#     8   8   8   8   8   8   8
#     4  11  22  36  57  87 134 169 200 243 319 397
#     4  11  23  35  57  90 128 167 205 255 326 384
#     4  11  22  35  59  90 120 167 215 251 312 383
#     4  12  23  35  59  97 135 165 199 260 325 410
#     4  10  23  38  62  89 124 169 208 259 329 383
#     4  11  21  36  54  87 128 165 202 250 311 392
#     4  10  24  45  64  86 120 168 226 276 315 375
#
# _framework density 19.795742000000001
#
# number of rings (size 3 to 8) (size 9 to 14) (size 15 to 20)
#    0.000    1.143    2.857    3.857    6.000    1.143 
#    0.000    2.857    0.000   10.286    0.000    4.000 
#    0.000    0.000    0.000    0.000    0.000    0.000 
#
# Total GULP energy -311812.585275 kJ/mol
# GULP energy per Si atom -5568.081880 kJ/mol
# Density = 1.975069 g / cm^3
# Si number density = 19.795742 Si / 1000 Ang^3
#
#
#
# Elastic Constant Matrix: (Units=GPa)
#
#
# Indices 1 2 3 4 5 6 
#
# 1 37.1838 16.4793 18.4330 0.0000 0.0000 0.0000
# 2 16.4793 177.3297 44.5485 0.0000 0.0000 0.0000
# 3 18.4330 44.5485 93.3593 0.0000 0.0000 0.0000
# 4 0.0000 0.0000 0.0000 35.0212 0.0000 0.0000
# 5 0.0000 0.0000 0.0000 0.0000 3.0407 0.0000
# 6 0.0000 0.0000 0.0000 0.0000 0.0000 15.1114
#
#
#
# Elastic Compliance Matrix: (Units=1/GPa)
#
#
# Indices 1 2 3 4 5 6 
#
# 1 0.030151 -0.001484 -0.005245 0.000000 0.000000 0.000000
# 2 -0.001484 0.006480 -0.002799 0.000000 0.000000 0.000000
# 3 -0.005245 -0.002799 0.013083 0.000000 0.000000 0.000000
# 4 0.000000 0.000000 0.000000 0.028554 0.000000 0.000000
# 5 0.000000 0.000000 0.000000 0.000000 0.328875 0.000000
# 6 0.000000 0.000000 0.000000 0.000000 0.000000 0.066175
#
#
# Mechanical properties :
#
#
# Convention : Reuss Voigt Hill
#
# Bulk Modulus (GPa) = 32.61850 51.86606 42.24228
# Shear Modulus (GPa) = 9.94838 25.86212 17.90525
#
# Velocity S-wave (km/s) = 2.24420 3.61840 3.01075
# Velocity P-wave (km/s) = 4.81960 6.61170 5.78546
#
# Compressibility (1/GPa) = 0.03065744
#
# Stress axis : x y z
#
# Youngs Moduli (GPa) = 33.16613 154.31236 76.43776
#
# Poissons Ratio (x) = 0.22906 0.40090
# Poissons Ratio (y) = 0.04923 0.21396
# Poissons Ratio (z) = 0.17395 0.43195
#
# Static dielectric constant tensor:
#      x y z
#    x 1.765570 0.000000 0.000000 
#    y 0.000000 1.769240 0.000000 
#    z 0.000000 0.000000 1.759590 
# 
# From -- ./inp_files/28346.got.cif
#   From: 2010.05.17/outbox.cif.g08.bks.cpg/sg48_15_cif.got.tgz:28346.got - 2010.06.03 20:39:00.
