data_PCOD9391459
_publ_section_title
;
Structure prediction by ZEFSAII (Michael W. Deem and Ramdas Pophale) SiO2 
 PCOD9391459
Probable space group: P N N N
;
_chemical_formula_sum "Si O2"
_cell_formula_units_Z 20
_cell_length_a 9.032271
_cell_length_b 19.206082
_cell_length_c 5.387790
_cell_angle_alpha 90.000000
_cell_angle_beta 90.000000
_cell_angle_gamma 90.000000
_cell_volume 934.644378
_symmetry_space_group_name_H-M "P N N N"
_symmetry_group_IT_number 48
_space_group.IT_coordinate_system_code '2'
_symmetry_cell_setting 'orthorhombic'
loop_
_space_group_symop_operation_xyz
x,y,z
1/2-x,1/2-y,z
x,1/2-y,1/2-z
1/2-x,y,1/2-z
-x,-y,-z
1/2+x,1/2+y,-z
-x,1/2+y,1/2+z
1/2+x,-y,1/2+z
loop_
_atom_site_type_symbol
_atom_site_label
_atom_site_fract_x
_atom_site_fract_y
_atom_site_fract_z
Si Si1 0.923691 0.471434 0.250751
Si Si2 0.250000 0.750000 0.250000
Si Si3 0.967152 0.183872 0.404614
Si Si4 0.750000 0.750000 0.750000
O O1 0.750000 0.489508 0.250000
O O2 0.940902 0.388067 0.231975
O O3 0.000000 0.500000 0.500000
O O4 0.000000 0.500000 0.000000
O O5 0.129943 0.806531 0.353639
O O6 0.908914 0.250000 0.250000
O O7 0.141612 0.201920 0.414812
#
# Coordination Sequence:
#
# PCOD9391459 Si02
#       4
#     8   2   8   2
#     4  12  29  48  75 107 153 195 248 303 373 439
#     4  12  22  42  82  98 140 182 264 300 370 434
#     4  10  25  46  72 104 140 190 243 304 366 436
#     4   8  24  44  70  96 146 170 246 302 364 432
#
# _framework density 21.398513000000001
#
# number of rings (size 3 to 8) (size 9 to 14) (size 15 to 20)
#    1.200    0.000    0.000    4.200   16.800    0.800 
#    0.000    0.000    0.000    0.000    0.000    0.000 
#    0.000    0.000    0.000    0.000    0.000    0.000 
#
# Total GULP energy -111380.294550 kJ/mol
# GULP energy per Si atom -5569.014727 kJ/mol
# Density = 2.134981 g / cm^3
# Si number density = 21.398513 Si / 1000 Ang^3
#
#
#
# Elastic Constant Matrix: (Units=GPa)
#
#
# Indices 1 2 3 4 5 6 
#
# 1 244.4133 41.8358 87.8814 0.0000 0.0000 0.0000
# 2 41.8358 152.2944 65.4091 0.0000 0.0000 0.0000
# 3 87.8814 65.4091 116.8350 0.0000 0.0000 0.0000
# 4 0.0000 0.0000 0.0000 31.1562 0.0000 0.0000
# 5 0.0000 0.0000 0.0000 0.0000 43.5563 0.0000
# 6 0.0000 0.0000 0.0000 0.0000 0.0000 -13.2152
#
#
#
# Elastic Compliance Matrix: (Units=1/GPa)
#
#
# Indices 1 2 3 4 5 6 
#
# 1 0.005623 0.000358 -0.004430 0.000000 0.000000 0.000000
# 2 0.000358 0.008668 -0.005122 0.000000 0.000000 0.000000
# 3 -0.004430 -0.005122 0.014759 0.000000 0.000000 0.000000
# 4 0.000000 0.000000 0.000000 0.032096 0.000000 0.000000
# 5 0.000000 0.000000 0.000000 0.000000 0.022959 0.000000
# 6 0.000000 0.000000 0.000000 0.000000 0.000000 -0.075670
#
#
# Mechanical properties :
#
#
# Convention : Reuss Voigt Hill
#
# Bulk Modulus (GPa) = 93.79314 100.42167 97.10741
# Shear Modulus (GPa) = 164.60823 33.52723 99.06773
#
# Velocity S-wave (km/s) = 8.78021 3.96258 6.81154
# Velocity P-wave (km/s) = 12.11265 8.24422 10.36058
#
# Compressibility (1/GPa) = 0.01066176
#
# Stress axis : x y z
#
# Youngs Moduli (GPa) = 177.84154 115.37156 67.75731
#
# Poissons Ratio (x) = -0.04130 0.30016
# Poissons Ratio (y) = -0.06366 0.34704
# Poissons Ratio (z) = 0.78782 0.59090
#
# Static dielectric constant tensor:
#      x y z
#    x 1.806730 0.000000 0.000000 
#    y 0.000000 1.717870 0.000000 
#    z 0.000000 0.000000 2.022850 
# 
# From -- ./inp_files/626.got.cif
#   From: 2010.05.17/outbox.cif.g08.bks.cpg/sg48_1_cif.got.tgz:626.got - 2010.06.03 20:39:00.
