data_PCOD9391126
_publ_section_title
;
Structure prediction by ZEFSAII (Michael W. Deem and Ramdas Pophale) SiO2 
 PCOD9391126
Probable space group: P N N N
;
_chemical_formula_sum "Si O2"
_cell_formula_units_Z 48
_cell_length_a 14.691652
_cell_length_b 8.676097
_cell_length_c 17.299507
_cell_angle_alpha 90.000000
_cell_angle_beta 90.000000
_cell_angle_gamma 90.000000
_cell_volume 2205.102382
_symmetry_space_group_name_H-M "P N N N"
_symmetry_group_IT_number 48
_space_group.IT_coordinate_system_code '2'
_symmetry_cell_setting 'orthorhombic'
loop_
_space_group_symop_operation_xyz
x,y,z
1/2-x,1/2-y,z
x,1/2-y,1/2-z
1/2-x,y,1/2-z
-x,-y,-z
1/2+x,1/2+y,-z
-x,1/2+y,1/2+z
1/2+x,-y,1/2+z
loop_
_atom_site_type_symbol
_atom_site_label
_atom_site_fract_x
_atom_site_fract_y
_atom_site_fract_z
Si Si1 0.837916 0.860684 0.905317
Si Si2 0.597186 0.450000 0.038288
Si Si3 0.872781 0.417307 0.038198
Si Si4 0.726805 0.433401 0.165071
Si Si5 0.141579 0.924976 0.238062
Si Si6 0.935311 0.562796 0.890705
O O1 0.750000 0.750000 0.887416
O O2 0.921713 0.743226 0.901543
O O3 0.863048 0.993462 0.844363
O O4 0.836247 0.941850 0.987636
O O5 0.619906 0.268192 0.027656
O O6 0.626820 0.469445 0.128932
O O7 0.500000 0.500000 0.000000
O O8 0.796512 0.474312 0.096954
O O9 0.964844 0.476526 0.079708
O O10 0.867799 0.482163 0.951691
O O11 0.750000 0.250000 0.171119
O O12 0.750000 0.498249 0.250000
O O13 0.109791 0.750000 0.250000
O O14 0.250000 0.925711 0.250000
O O15 0.090559 0.020438 0.304171
#
# Coordination Sequence:
#
# PCOD9391126 Si02
#       6
#     8   8   8   8   8   8
#     4  12  23  39  63  97 133 170 222 282 343 407
#     4  11  22  40  65 100 127 170 231 287 339 404
#     4  10  22  42  65  93 128 178 222 276 342 408
#     4   9  20  39  63  89 126 168 221 271 332 407
#     4  11  24  40  61  94 136 177 217 276 354 423
#     4  11  22  39  64  92 129 173 221 273 332 412
#
# _framework density 21.767696000000001
#
# number of rings (size 3 to 8) (size 9 to 14) (size 15 to 20)
#    0.000    1.333    3.333    2.500    0.000    1.333 
#    6.000    0.000    0.000    3.500    0.000    0.000 
#    0.000    0.000    0.000    0.000    0.000    0.000 
#
# Total GULP energy -267469.465755 kJ/mol
# GULP energy per Si atom -5572.280537 kJ/mol
# Density = 2.171815 g / cm^3
# Si number density = 21.767696 Si / 1000 Ang^3
#
#
#
# Elastic Constant Matrix: (Units=GPa)
#
#
# Indices 1 2 3 4 5 6 
#
# 1 81.7343 -0.1166 29.2225 0.0000 0.0000 0.0000
# 2 -0.1166 78.6338 39.9404 0.0000 0.0000 0.0000
# 3 29.2225 39.9404 131.4156 0.0000 0.0000 0.0000
# 4 0.0000 0.0000 0.0000 -11.9618 0.0000 0.0000
# 5 0.0000 0.0000 0.0000 0.0000 24.5360 0.0000
# 6 0.0000 0.0000 0.0000 0.0000 0.0000 10.9073
#
#
#
# Elastic Compliance Matrix: (Units=1/GPa)
#
#
# Indices 1 2 3 4 5 6 
#
# 1 0.013510 0.001828 -0.003560 0.000000 0.000000 0.000000
# 2 0.001828 0.015286 -0.005052 0.000000 0.000000 0.000000
# 3 -0.003560 -0.005052 0.009937 0.000000 0.000000 0.000000
# 4 0.000000 0.000000 0.000000 -0.083600 0.000000 0.000000
# 5 0.000000 0.000000 0.000000 0.000000 0.040756 0.000000
# 6 0.000000 0.000000 0.000000 0.000000 0.000000 0.091682
#
#
# Mechanical properties :
#
#
# Convention : Reuss Voigt Hill
#
# Bulk Modulus (GPa) = 39.73807 47.76403 43.75105
# Shear Modulus (GPa) = 45.65068 19.54547 32.59808
#
# Velocity S-wave (km/s) = 4.58446 2.99977 3.87401
# Velocity P-wave (km/s) = 6.80575 5.82996 6.33666
#
# Compressibility (1/GPa) = 0.02516479
#
# Stress axis : x y z
#
# Youngs Moduli (GPa) = 74.01860 65.41881 100.63833
#
# Poissons Ratio (x) = -0.11960 0.35826
# Poissons Ratio (y) = -0.13532 0.50846
# Poissons Ratio (z) = 0.26349 0.33052
#
# Static dielectric constant tensor:
#      x y z
#    x 1.930030 0.000000 0.000000 
#    y 0.000000 1.846240 0.000000 
#    z 0.000000 0.000000 1.830700 
# 
# From -- ./inp_files/31546.got.cif
#   From: 2010.05.17/outbox.cif.g08.bks.cpg/sg48_16_cif.got.tgz:31546.got - 2010.06.03 20:39:00.
