data_PCOD9391681
_publ_section_title
;
Structure prediction by ZEFSAII (Michael W. Deem and Ramdas Pophale) SiO2 
 PCOD9391681
Probable space group: P N N N
;
_chemical_formula_sum "Si O2"
_cell_formula_units_Z 36
_cell_length_a 7.364482
_cell_length_b 15.074426
_cell_length_c 14.086478
_cell_angle_alpha 90.000000
_cell_angle_beta 90.000000
_cell_angle_gamma 90.000000
_cell_volume 1563.815130
_symmetry_space_group_name_H-M "P N N N"
_symmetry_group_IT_number 48
_space_group.IT_coordinate_system_code '2'
_symmetry_cell_setting 'orthorhombic'
loop_
_space_group_symop_operation_xyz
x,y,z
1/2-x,1/2-y,z
x,1/2-y,1/2-z
1/2-x,y,1/2-z
-x,-y,-z
1/2+x,1/2+y,-z
-x,1/2+y,1/2+z
1/2+x,-y,1/2+z
loop_
_atom_site_type_symbol
_atom_site_label
_atom_site_fract_x
_atom_site_fract_y
_atom_site_fract_z
Si Si1 0.027229 0.249865 0.641236
Si Si2 0.961118 0.847719 0.717967
Si Si3 0.402980 0.423534 0.940056
Si Si4 0.750000 0.492480 0.250000
Si Si5 0.463434 0.105535 0.007316
O O1 0.250000 0.250000 0.641667
O O2 0.968866 0.250000 0.750000
O O3 0.971993 0.342985 0.593673
O O4 0.968165 0.165444 0.579533
O O5 0.015957 0.750000 0.750000
O O6 0.750000 0.858203 0.750000
O O7 0.017565 0.855517 0.607720
O O8 0.075215 0.929558 0.757716
O O9 0.282305 0.451679 0.846710
O O10 0.500000 0.500000 0.000000
O O11 0.253951 0.384047 0.010392
O O12 0.500000 0.000000 0.000000
#
# Coordination Sequence:
#
# PCOD9391681 Si02
#       5
#     8   8   8   4   8
#     4   9  20  38  66  92 125 169 226 281 344 415
#     4  11  26  42  68  99 143 187 233 287 355 429
#     4  11  23  39  69  99 132 175 235 290 352 425
#     4  12  23  44  69 104 140 178 240 297 357 426
#     4  11  22  43  64  93 132 177 227 284 348 412
#
# _framework density 23.020624000000002
#
# number of rings (size 3 to 8) (size 9 to 14) (size 15 to 20)
#    0.000    1.333    2.222    4.333   12.444    0.000 
#    0.000    1.111    0.000    1.333    0.000    0.000 
#    0.000    0.000    0.000    0.000    0.000    0.000 
#
# Total GULP energy -200877.256173 kJ/mol
# GULP energy per Si atom -5579.923783 kJ/mol
# Density = 2.296823 g / cm^3
# Si number density = 23.020624 Si / 1000 Ang^3
#
#
#
# Elastic Constant Matrix: (Units=GPa)
#
#
# Indices 1 2 3 4 5 6 
#
# 1 55.9073 15.6166 -4.0670 0.0000 0.0000 0.0000
# 2 15.6166 199.2380 94.1379 0.0000 0.0000 0.0000
# 3 -4.0670 94.1379 133.7066 0.0000 0.0000 0.0000
# 4 0.0000 0.0000 0.0000 54.9191 0.0000 0.0000
# 5 0.0000 0.0000 0.0000 0.0000 23.1741 0.0000
# 6 0.0000 0.0000 0.0000 0.0000 0.0000 26.6510
#
#
#
# Elastic Compliance Matrix: (Units=1/GPa)
#
#
# Indices 1 2 3 4 5 6 
#
# 1 0.018792 -0.002612 0.002411 0.000000 0.000000 0.000000
# 2 -0.002612 0.007884 -0.005630 0.000000 0.000000 0.000000
# 3 0.002411 -0.005630 0.011517 0.000000 0.000000 0.000000
# 4 0.000000 0.000000 0.000000 0.018209 0.000000 0.000000
# 5 0.000000 0.000000 0.000000 0.000000 0.043152 0.000000
# 6 0.000000 0.000000 0.000000 0.000000 0.000000 0.037522
#
#
# Mechanical properties :
#
#
# Convention : Reuss Voigt Hill
#
# Bulk Modulus (GPa) = 37.69478 66.69189 52.19333
# Shear Modulus (GPa) = 31.72971 39.82646 35.77809
#
# Velocity S-wave (km/s) = 3.71660 4.16388 3.94658
# Velocity P-wave (km/s) = 5.90147 7.22154 6.59462
#
# Compressibility (1/GPa) = 0.02652887
#
# Stress axis : x y z
#
# Youngs Moduli (GPa) = 53.21507 126.83689 86.83173
#
# Poissons Ratio (x) = 0.33128 -0.20931
# Poissons Ratio (y) = 0.13899 0.48890
# Poissons Ratio (z) = -0.12828 0.71414
#
# Static dielectric constant tensor:
#      x y z
#    x 1.911220 0.000000 0.000000 
#    y 0.000000 2.139660 0.000000 
#    z 0.000000 0.000000 2.643900 
# 
# From -- ./inp_files/12210.got.cif
#   From: 2010.05.17/outbox.cif.g08.bks.cpg/sg48_7_cif.got.tgz:12210.got - 2010.06.03 20:39:00.
