data_PCOD9391413
_publ_section_title
;
Structure prediction by ZEFSAII (Michael W. Deem and Ramdas Pophale) SiO2 
 PCOD9391413
Probable space group: P N N N
;
_chemical_formula_sum "Si O2"
_cell_formula_units_Z 52
_cell_length_a 23.846071
_cell_length_b 17.749029
_cell_length_c 5.358494
_cell_angle_alpha 90.000000
_cell_angle_beta 90.000000
_cell_angle_gamma 90.000000
_cell_volume 2267.953680
_symmetry_space_group_name_H-M "P N N N"
_symmetry_group_IT_number 48
_space_group.IT_coordinate_system_code '2'
_symmetry_cell_setting 'orthorhombic'
loop_
_space_group_symop_operation_xyz
x,y,z
1/2-x,1/2-y,z
x,1/2-y,1/2-z
1/2-x,y,1/2-z
-x,-y,-z
1/2+x,1/2+y,-z
-x,1/2+y,1/2+z
1/2+x,-y,1/2+z
loop_
_atom_site_type_symbol
_atom_site_label
_atom_site_fract_x
_atom_site_fract_y
_atom_site_fract_z
Si Si1 0.417669 0.876416 0.102797
Si Si2 0.619277 0.750000 0.250000
Si Si3 0.144889 0.414697 0.681716
Si Si4 0.370401 0.750000 0.750000
Si Si5 0.250000 0.518817 0.750000
Si Si6 0.482415 0.310594 0.440907
Si Si7 0.922904 0.548668 0.823252
Si Si8 0.804129 0.353533 0.601742
O O1 0.358594 0.879514 0.244611
O O2 0.438148 0.962021 0.134009
O O3 0.399660 0.827150 0.856688
O O4 0.474088 0.829302 0.163904
O O5 0.653237 0.824235 0.329577
O O6 0.576039 0.724029 0.464899
O O7 0.198328 0.461183 0.780098
O O8 0.119058 0.441056 0.414519
O O9 0.101748 0.429266 0.906024
O O10 0.329767 0.783375 0.542693
O O11 0.221549 0.576775 0.555517
O O12 0.505643 0.250000 0.250000
O O13 0.471544 0.389076 0.294465
O O14 0.750000 0.330229 0.750000
#
# Coordination Sequence:
#
# PCOD9391413 Si02
#       8
#     8   4   8   4   4   8   8   8
#     4  12  26  44  71 107 146 196 260 316 387 471
#     4  10  24  45  74 110 149 196 244 314 392 470
#     4  11  24  45  78 107 154 195 255 317 393 469
#     4  12  28  45  66 102 144 190 252 315 382 468
#     4  12  26  46  74 106 144 200 256 318 398 468
#     4  11  23  45  74 105 150 200 252 317 394 471
#     4  11  24  48  72 111 149 203 250 323 382 467
#     4  12  27  47  69  97 143 194 250 319 385 465
#
# _framework density 22.928156000000001
#
# number of rings (size 3 to 8) (size 9 to 14) (size 15 to 20)
#    0.000    0.615    3.846    3.692    2.154    4.923 
#    0.000    2.308    0.000    1.846    0.000    0.000 
#    0.000    0.000    0.000    0.000    0.000    0.000 
#
# Total GULP energy -289590.080197 kJ/mol
# GULP energy per Si atom -5569.040004 kJ/mol
# Density = 2.287597 g / cm^3
# Si number density = 22.928156 Si / 1000 Ang^3
#
#
#
# Elastic Constant Matrix: (Units=GPa)
#
#
# Indices 1 2 3 4 5 6 
#
# 1 80.3516 48.9598 12.7822 0.0000 0.0000 0.0000
# 2 48.9598 214.3144 41.0646 0.0000 0.0000 0.0000
# 3 12.7822 41.0646 64.2018 0.0000 0.0000 0.0000
# 4 0.0000 0.0000 0.0000 35.6048 0.0000 0.0000
# 5 0.0000 0.0000 0.0000 0.0000 1.0786 0.0000
# 6 0.0000 0.0000 0.0000 0.0000 0.0000 121.9533
#
#
#
# Elastic Compliance Matrix: (Units=1/GPa)
#
#
# Indices 1 2 3 4 5 6 
#
# 1 0.014501 -0.003145 -0.000875 0.000000 0.000000 0.000000
# 2 -0.003145 0.006000 -0.003211 0.000000 0.000000 0.000000
# 3 -0.000875 -0.003211 0.017804 0.000000 0.000000 0.000000
# 4 0.000000 0.000000 0.000000 0.028086 0.000000 0.000000
# 5 0.000000 0.000000 0.000000 0.000000 0.927137 0.000000
# 6 0.000000 0.000000 0.000000 0.000000 0.000000 0.008200
#
#
# Mechanical properties :
#
#
# Convention : Reuss Voigt Hill
#
# Bulk Modulus (GPa) = 41.94415 62.72011 52.33213
# Shear Modulus (GPa) = 4.88215 48.79809 26.84012
#
# Velocity S-wave (km/s) = 1.46080 4.61836 3.42514
# Velocity P-wave (km/s) = 4.60203 7.47352 6.20613
#
# Compressibility (1/GPa) = 0.02384123
#
# Stress axis : x y z
#
# Youngs Moduli (GPa) = 68.96152 166.67096 56.16623
#
# Poissons Ratio (x) = 0.52417 0.04917
# Poissons Ratio (y) = 0.21688 0.18038
# Poissons Ratio (z) = 0.06037 0.53526
#
# Static dielectric constant tensor:
#      x y z
#    x 1.962940 0.000000 0.000000 
#    y 0.000000 1.904780 0.000000 
#    z 0.000000 0.000000 2.036450 
# 
# From -- ./inp_files/6588.got.cif
#   From: 2010.05.17/outbox.cif.g08.bks.cpg/sg48_4_cif.got.tgz:6588.got - 2010.06.03 20:39:00.
