data_PCOD9391703
_publ_section_title
;
Structure prediction by ZEFSAII (Michael W. Deem and Ramdas Pophale) SiO2 
 PCOD9391703
Probable space group: P N N N
;
_chemical_formula_sum "Si O2"
_cell_formula_units_Z 64
_cell_length_a 31.593812
_cell_length_b 11.063180
_cell_length_c 8.444730
_cell_angle_alpha 90.000000
_cell_angle_beta 90.000000
_cell_angle_gamma 90.000000
_cell_volume 2951.669833
_symmetry_space_group_name_H-M "P N N N"
_symmetry_group_IT_number 48
_space_group.IT_coordinate_system_code '2'
_symmetry_cell_setting 'orthorhombic'
loop_
_space_group_symop_operation_xyz
x,y,z
1/2-x,1/2-y,z
x,1/2-y,1/2-z
1/2-x,y,1/2-z
-x,-y,-z
1/2+x,1/2+y,-z
-x,1/2+y,1/2+z
1/2+x,-y,1/2+z
loop_
_atom_site_type_symbol
_atom_site_label
_atom_site_fract_x
_atom_site_fract_y
_atom_site_fract_z
Si Si1 0.096931 0.939085 0.403455
Si Si2 0.919463 0.061173 0.953817
Si Si3 0.449500 0.589119 0.708371
Si Si4 0.457926 0.317550 0.389423
Si Si5 0.328780 0.402325 0.416375
Si Si6 0.991495 0.638781 0.348304
Si Si7 0.152390 0.365470 0.452933
Si Si8 0.742650 0.604823 0.076089
O O1 0.075879 0.872990 0.551333
O O2 0.068047 0.060683 0.409781
O O3 0.142890 0.982882 0.456102
O O4 0.097354 0.893839 0.220610
O O5 0.969670 0.057555 0.911098
O O6 0.889569 0.944077 0.982761
O O7 0.924513 0.119974 0.129453
O O8 0.495981 0.642732 0.674533
O O9 0.461556 0.446717 0.742079
O O10 0.433404 0.250000 0.250000
O O11 0.465993 0.216861 0.522499
O O12 0.346556 0.277765 0.496423
O O13 0.336381 0.378405 0.231822
O O14 0.280209 0.429205 0.456839
O O15 0.011500 0.750000 0.250000
O O16 0.194269 0.419573 0.534136
O O17 0.750000 0.750000 0.081514
O O18 0.750000 0.554264 0.250000
#
# Coordination Sequence:
#
# PCOD9391703 Si02
#       8
#     8   8   8   8   8   8   8   8
#     4  11  23  36  55  79 113 145 193 239 279 332
#     4  11  23  38  55  81 110 149 196 240 286 339
#     4  12  24  40  56  80 116 150 197 251 281 343
#     4  12  23  38  58  76 111 157 198 239 293 338
#     4   9  19  32  51  78 105 147 186 222 274 341
#     4  12  23  38  58  80 108 158 201 242 296 336
#     4   9  19  33  53  73 110 147 180 229 274 334
#     4   9  17  31  49  75 108 143 180 217 272 342
#
# _framework density 21.682641
#
# number of rings (size 3 to 8) (size 9 to 14) (size 15 to 20)
#    0.000    1.375    3.750    2.625    7.000    1.500 
#    0.000    0.000    0.000    0.000    0.000    0.000 
#    0.000   17.000    2.000    0.000    0.000    0.000 
#
# Total GULP energy -356383.917024 kJ/mol
# GULP energy per Si atom -5568.498703 kJ/mol
# Density = 2.163329 g / cm^3
# Si number density = 21.682641 Si / 1000 Ang^3
#
#
#
# Elastic Constant Matrix: (Units=GPa)
#
#
# Indices 1 2 3 4 5 6 
#
# 1 96.1712 24.9398 29.4578 0.0000 0.0000 0.0000
# 2 24.9398 62.2465 0.8637 0.0000 0.0000 0.0000
# 3 29.4578 0.8637 63.7555 0.0000 0.0000 0.0000
# 4 0.0000 0.0000 0.0000 7.4341 0.0000 0.0000
# 5 0.0000 0.0000 0.0000 0.0000 20.0192 0.0000
# 6 0.0000 0.0000 0.0000 0.0000 0.0000 14.6683
#
#
#
# Elastic Compliance Matrix: (Units=1/GPa)
#
#
# Indices 1 2 3 4 5 6 
#
# 1 0.013721 -0.005410 -0.006266 0.000000 0.000000 0.000000
# 2 -0.005410 0.018202 0.002253 0.000000 0.000000 0.000000
# 3 -0.006266 0.002253 0.018550 0.000000 0.000000 0.000000
# 4 0.000000 0.000000 0.000000 0.134514 0.000000 0.000000
# 5 0.000000 0.000000 0.000000 0.000000 0.049952 0.000000
# 6 0.000000 0.000000 0.000000 0.000000 0.000000 0.068174
#
#
# Mechanical properties :
#
#
# Convention : Reuss Voigt Hill
#
# Bulk Modulus (GPa) = 31.62034 36.96620 34.29327
# Shear Modulus (GPa) = 15.03755 19.55178 17.29467
#
# Velocity S-wave (km/s) = 2.63635 3.00613 2.82729
# Velocity P-wave (km/s) = 4.88693 5.39767 5.14864
#
# Compressibility (1/GPa) = 0.03162521
#
# Stress axis : x y z
#
# Youngs Moduli (GPa) = 72.88336 54.94015 53.90933
#
# Poissons Ratio (x) = 0.29725 0.33781
# Poissons Ratio (y) = 0.39433 -0.12147
# Poissons Ratio (z) = 0.45670 -0.12379
#
# Static dielectric constant tensor:
#      x y z
#    x 1.794790 0.000000 0.000000 
#    y 0.000000 1.922570 0.000000 
#    z 0.000000 0.000000 1.905870 
# 
# From -- ./inp_files/16968.got.cif
#   From: 2010.05.17/outbox.cif.g08.bks.cpg/sg48_9_cif.got.tgz:16968.got - 2010.06.03 20:39:00.
