data_PCOD9391934
_publ_section_title
;
Structure prediction by ZEFSAII (Michael W. Deem and Ramdas Pophale) SiO2 
 PCOD9391934
Probable space group: P N N N
;
_chemical_formula_sum "Si O2"
_cell_formula_units_Z 64
_cell_length_a 15.000000
_cell_length_b 12.000000
_cell_length_c 18.000000
_cell_angle_alpha 90.000000
_cell_angle_beta 90.000000
_cell_angle_gamma 90.000000
_cell_volume 3240.000000
_symmetry_space_group_name_H-M "P N N N"
_symmetry_group_IT_number 48
_space_group.IT_coordinate_system_code '2'
_symmetry_cell_setting 'orthorhombic'
loop_
_space_group_symop_operation_xyz
x,y,z
1/2-x,1/2-y,z
x,1/2-y,1/2-z
1/2-x,y,1/2-z
-x,-y,-z
1/2+x,1/2+y,-z
-x,1/2+y,1/2+z
1/2+x,-y,1/2+z
loop_
_atom_site_type_symbol
_atom_site_label
_atom_site_fract_x
_atom_site_fract_y
_atom_site_fract_z
Si Si1 0.146486 0.382273 0.741184
Si Si2 0.179785 0.997534 0.196701
Si Si3 0.703920 0.870667 0.409140
Si Si4 0.038530 0.567151 0.185526
Si Si5 0.341962 0.320701 0.074816
Si Si6 0.695032 0.148133 0.896790
Si Si7 0.358099 0.512595 0.533929
Si Si8 0.474457 0.371906 0.430815
O O1 0.147054 0.250000 0.750000
O O2 0.250000 0.421059 0.750000
O O3 0.133149 0.402495 0.653476
O O4 0.064920 0.419410 0.793279
O O5 0.250000 0.061431 0.250000
O O6 0.094687 0.954180 0.240474
O O7 0.240249 0.896815 0.167130
O O8 0.154906 0.077332 0.130158
O O9 0.750000 0.750000 0.393040
O O10 0.661931 0.859960 0.489904
O O11 0.784767 0.958851 0.413963
O O12 0.095620 0.659786 0.138817
O O13 0.048231 0.458451 0.134283
O O14 0.250000 0.250000 0.085859
O O15 0.427625 0.243076 0.085980
O O16 0.750000 0.250000 0.929625
O O17 0.688731 0.054422 0.959499
O O18 0.427649 0.417103 0.506841
O O19 0.419647 0.614478 0.560656
#
# Coordination Sequence:
#
# PCOD9391934 Si02
#       8
#     8   8   8   8   8   8   8   8
#     4  11  23  37  57  87 117 154 197 246 303 360
#     4  10  21  37  58  89 122 155 201 254 307 365
#     4  11  19  35  59  85 119 150 193 255 307 358
#     4  10  23  38  56  86 119 155 201 243 304 368
#     4  11  19  35  59  89 116 155 200 255 314 353
#     4  10  21  38  60  86 118 166 201 242 304 376
#     4  10  19  36  56  85 117 150 203 242 302 368
#     4  10  20  33  59  84 112 154 194 254 298 360
#
# _framework density 19.753086
#
# number of rings (size 3 to 8) (size 9 to 14) (size 15 to 20)
#    0.000    1.625    5.000    2.250    1.750    4.500 
#    0.000    1.875    0.000    0.000    0.000    0.875 
#    0.000    0.000    0.000    0.000    0.000    0.000 
#
# Total GULP energy -356482.804925 kJ/mol
# GULP energy per Si atom -5570.043827 kJ/mol
# Density = 1.970813 g / cm^3
# Si number density = 19.753086 Si / 1000 Ang^3
#
#
#
# Elastic Constant Matrix: (Units=GPa)
#
#
# Indices 1 2 3 4 5 6 
#
# 1 102.2869 25.7630 15.9800 0.0000 0.0000 0.0000
# 2 25.7630 23.4797 4.5424 0.0000 0.0000 0.0000
# 3 15.9800 4.5424 41.4051 0.0000 0.0000 0.0000
# 4 0.0000 0.0000 0.0000 10.5654 0.0000 0.0000
# 5 0.0000 0.0000 0.0000 0.0000 35.3109 0.0000
# 6 0.0000 0.0000 0.0000 0.0000 0.0000 21.5366
#
#
#
# Elastic Compliance Matrix: (Units=1/GPa)
#
#
# Indices 1 2 3 4 5 6 
#
# 1 0.014078 -0.014708 -0.003820 0.000000 0.000000 0.000000
# 2 -0.014708 0.058879 -0.000783 0.000000 0.000000 0.000000
# 3 -0.003820 -0.000783 0.025712 0.000000 0.000000 0.000000
# 4 0.000000 0.000000 0.000000 0.094649 0.000000 0.000000
# 5 0.000000 0.000000 0.000000 0.000000 0.028320 0.000000
# 6 0.000000 0.000000 0.000000 0.000000 0.000000 0.046433
#
#
# Mechanical properties :
#
#
# Convention : Reuss Voigt Hill
#
# Bulk Modulus (GPa) = 16.65335 28.86027 22.75681
# Shear Modulus (GPa) = 15.30425 21.54167 18.42296
#
# Velocity S-wave (km/s) = 2.78650 3.30593 3.05727
# Velocity P-wave (km/s) = 4.33611 5.40504 4.89981
#
# Compressibility (1/GPa) = 0.06004798
#
# Stress axis : x y z
#
# Youngs Moduli (GPa) = 71.03508 16.98387 38.89286
#
# Poissons Ratio (x) = 0.24979 0.14856
# Poissons Ratio (y) = 1.04476 0.03046
# Poissons Ratio (z) = 0.27133 0.01330
#
# Static dielectric constant tensor:
#      x y z
#    x 1.753500 0.000000 0.000000 
#    y 0.000000 1.698470 0.000000 
#    z 0.000000 0.000000 1.779340 
# 
# From -- ./inp_files/31695.got.cif
#   From: 2010.05.17/outbox.ucp.g08.bks.cvg/sg48_16_cif.got.tgz:31695.got - 2010.06.11 16:38:40.
