data_PCOD9391111
_publ_section_title
;
Structure prediction by ZEFSAII (Michael W. Deem and Ramdas Pophale) SiO2 
 PCOD9391111
Probable space group: P N N N
;
_chemical_formula_sum "Si O2"
_cell_formula_units_Z 64
_cell_length_a 8.256984
_cell_length_b 13.316806
_cell_length_c 25.880987
_cell_angle_alpha 90.000000
_cell_angle_beta 90.000000
_cell_angle_gamma 90.000000
_cell_volume 2845.786735
_symmetry_space_group_name_H-M "P N N N"
_symmetry_group_IT_number 48
_space_group.IT_coordinate_system_code '2'
_symmetry_cell_setting 'orthorhombic'
loop_
_space_group_symop_operation_xyz
x,y,z
1/2-x,1/2-y,z
x,1/2-y,1/2-z
1/2-x,y,1/2-z
-x,-y,-z
1/2+x,1/2+y,-z
-x,1/2+y,1/2+z
1/2+x,-y,1/2+z
loop_
_atom_site_type_symbol
_atom_site_label
_atom_site_fract_x
_atom_site_fract_y
_atom_site_fract_z
Si Si1 0.061254 0.717816 0.808183
Si Si2 0.925004 0.436717 0.922588
Si Si3 0.584012 0.691419 0.341912
Si Si4 0.923309 0.791950 0.911409
Si Si5 0.407663 0.993135 0.592878
Si Si6 0.817083 0.007426 0.305942
Si Si7 0.635176 0.336038 0.891898
Si Si8 0.392248 0.617677 0.540981
O O1 0.250000 0.750000 0.816634
O O2 0.019189 0.750000 0.750000
O O3 0.063215 0.598689 0.818163
O O4 0.952006 0.768720 0.851061
O O5 0.772364 0.419706 0.885006
O O6 0.065129 0.370543 0.895659
O O7 0.969046 0.551070 0.931517
O O8 0.900688 0.394610 0.979907
O O9 0.750000 0.750000 0.338465
O O10 0.593291 0.599609 0.302459
O O11 0.443112 0.774409 0.344611
O O12 0.750000 0.750000 0.928889
O O13 0.952548 0.910320 0.915660
O O14 0.066313 0.729935 0.940855
O O15 0.266024 0.944186 0.558587
O O16 0.325738 0.996241 0.650586
O O17 0.486664 0.102855 0.582221
O O18 0.750000 0.033409 0.250000
O O19 0.750000 0.250000 0.918022
#
# Coordination Sequence:
#
# PCOD9391111 Si02
#       8
#     8   8   8   8   8   8   8   8
#     4  11  19  39  66  95 132 180 219 269 335 425
#     4  10  22  41  67  95 135 180 217 279 344 414
#     4  11  21  40  63  92 127 179 227 284 324 404
#     4  12  24  37  61  99 142 174 210 280 340 401
#     4  12  22  41  67  94 129 175 225 283 333 410
#     4  12  22  38  69  99 126 169 234 280 329 401
#     4  10  23  41  64  89 128 175 221 277 355 395
#     4  11  22  41  67 101 136 175 232 274 332 416
#
# _framework density 22.489387000000001
#
# number of rings (size 3 to 8) (size 9 to 14) (size 15 to 20)
#    0.000    0.875    6.250    1.125    0.000    5.500 
#    0.000    1.250    0.000    8.250    0.000    0.000 
#    0.000    0.000    0.000    0.000    0.000    0.000 
#
# Total GULP energy -356730.248296 kJ/mol
# GULP energy per Si atom -5573.910130 kJ/mol
# Density = 2.243820 g / cm^3
# Si number density = 22.489387 Si / 1000 Ang^3
#
#
#
# Elastic Constant Matrix: (Units=GPa)
#
#
# Indices 1 2 3 4 5 6 
#
# 1 72.7270 21.8547 -9.0486 0.0000 0.0000 0.0000
# 2 21.8547 105.7872 -21.8270 0.0000 0.0000 0.0000
# 3 -9.0486 -21.8270 49.4208 0.0000 0.0000 0.0000
# 4 0.0000 0.0000 0.0000 16.4386 0.0000 0.0000
# 5 0.0000 0.0000 0.0000 0.0000 -16.3233 0.0000
# 6 0.0000 0.0000 0.0000 0.0000 0.0000 45.2859
#
#
#
# Elastic Compliance Matrix: (Units=1/GPa)
#
#
# Indices 1 2 3 4 5 6 
#
# 1 0.014759 -0.002741 0.001492 0.000000 0.000000 0.000000
# 2 -0.002741 0.010910 0.004316 0.000000 0.000000 0.000000
# 3 0.001492 0.004316 0.022414 0.000000 0.000000 0.000000
# 4 0.000000 0.000000 0.000000 0.060832 0.000000 0.000000
# 5 0.000000 0.000000 0.000000 0.000000 -0.061262 0.000000
# 6 0.000000 0.000000 0.000000 0.000000 0.000000 0.022082
#
#
# Mechanical properties :
#
#
# Convention : Reuss Voigt Hill
#
# Bulk Modulus (GPa) = 18.44455 23.32148 20.88302
# Shear Modulus (GPa) = 61.21868 24.87729 43.04799
#
# Velocity S-wave (km/s) = 5.22305 3.32954 4.37984
# Velocity P-wave (km/s) = 6.67779 5.01733 5.90620
#
# Compressibility (1/GPa) = 0.05421656
#
# Stress axis : x y z
#
# Youngs Moduli (GPa) = 67.75329 91.65977 44.61517
#
# Poissons Ratio (x) = 0.25128 -0.06655
# Poissons Ratio (y) = 0.18574 -0.19258
# Poissons Ratio (z) = -0.10106 -0.39565
#
# Static dielectric constant tensor:
#      x y z
#    x 1.923430 0.000000 0.000000 
#    y 0.000000 1.930640 0.000000 
#    z 0.000000 0.000000 1.787820 
# 
# From -- ./inp_files/38822.got.cif
#   From: 2010.05.17/outbox.cif.g08.bks.cpg/sg48_20_cif.got.tgz:38822.got - 2010.06.03 20:39:00.
