data_PCOD9391486
_publ_section_title
;
Structure prediction by ZEFSAII (Michael W. Deem and Ramdas Pophale) SiO2 
 PCOD9391486
Probable space group: P N N N
;
_chemical_formula_sum "Si O2"
_cell_formula_units_Z 30
_cell_length_a 5.043091
_cell_length_b 16.760507
_cell_length_c 15.023530
_cell_angle_alpha 90.000000
_cell_angle_beta 90.000000
_cell_angle_gamma 90.000000
_cell_volume 1269.860298
_symmetry_space_group_name_H-M "P N N N"
_symmetry_group_IT_number 48
_space_group.IT_coordinate_system_code '2'
_symmetry_cell_setting 'orthorhombic'
loop_
_space_group_symop_operation_xyz
x,y,z
1/2-x,1/2-y,z
x,1/2-y,1/2-z
1/2-x,y,1/2-z
-x,-y,-z
1/2+x,1/2+y,-z
-x,1/2+y,1/2+z
1/2+x,-y,1/2+z
loop_
_atom_site_type_symbol
_atom_site_label
_atom_site_fract_x
_atom_site_fract_y
_atom_site_fract_z
Si Si1 0.015294 0.136895 0.687533
Si Si2 0.250000 0.250000 0.250000
Si Si3 0.250000 0.250000 0.553566
Si Si4 0.934672 0.325691 0.404677
Si Si5 0.741938 0.495267 0.434280
O O1 0.250000 0.164720 0.750000
O O2 0.022344 0.205156 0.611080
O O3 0.750000 0.127062 0.750000
O O4 0.148314 0.058138 0.641448
O O5 0.413845 0.193155 0.314418
O O6 0.368959 0.181167 0.489375
O O7 0.750000 0.250000 0.418790
O O8 0.777145 0.406946 0.395693
O O9 0.500000 0.500000 0.500000
O O10 0.000000 0.500000 0.500000
#
# Coordination Sequence:
#
# PCOD9391486 Si02
#       5
#     8   2   4   8   8
#     4  12  28  49  74 118 162 206 268 337 402 474
#     4  10  26  48  74 130 154 208 266 344 410 478
#     4  11  25  47  79 114 158 220 267 331 409 489
#     4  11  25  48  84 112 158 210 272 331 407 493
#     4  12  26  52  79 110 153 210 272 324 404 481
#
# _framework density 23.624645999999998
#
# number of rings (size 3 to 8) (size 9 to 14) (size 15 to 20)
#    0.000    0.533    2.667    4.000    7.467    3.200 
#    4.800    0.000    0.000    0.000    0.000    0.000 
#    0.000    0.000    0.000    0.000    0.000    0.000 
#
# Total GULP energy -167487.320800 kJ/mol
# GULP energy per Si atom -5582.910693 kJ/mol
# Density = 2.357088 g / cm^3
# Si number density = 23.624646 Si / 1000 Ang^3
#
#
#
# Elastic Constant Matrix: (Units=GPa)
#
#
# Indices 1 2 3 4 5 6 
#
# 1 181.2084 65.9124 84.6225 0.0000 0.0000 0.0000
# 2 65.9124 196.6563 84.0584 0.0000 0.0000 0.0000
# 3 84.6225 84.0584 163.4521 0.0000 0.0000 0.0000
# 4 0.0000 0.0000 0.0000 6.3306 0.0000 0.0000
# 5 0.0000 0.0000 0.0000 0.0000 95.3473 0.0000
# 6 0.0000 0.0000 0.0000 0.0000 0.0000 -339.4839
#
#
#
# Elastic Compliance Matrix: (Units=1/GPa)
#
#
# Indices 1 2 3 4 5 6 
#
# 1 0.007456 -0.001088 -0.003300 0.000000 0.000000 0.000000
# 2 -0.001088 0.006677 -0.002870 0.000000 0.000000 0.000000
# 3 -0.003300 -0.002870 0.009303 0.000000 0.000000 0.000000
# 4 0.000000 0.000000 0.000000 0.157963 0.000000 0.000000
# 5 0.000000 0.000000 0.000000 0.000000 0.010488 0.000000
# 6 0.000000 0.000000 0.000000 0.000000 0.000000 -0.002946
#
#
# Mechanical properties :
#
#
# Convention : Reuss Voigt Hill
#
# Bulk Modulus (GPa) = 112.13900 112.27815 112.20858
# Shear Modulus (GPa) = 24.22126 -27.11298 -1.44586
#
# Velocity S-wave (km/s) = 3.20543 -3.39138 -0.78316
# Velocity P-wave (km/s) = 7.82750 5.68276 6.83972
#
# Compressibility (1/GPa) = 0.00891750
#
# Stress axis : x y z
#
# Youngs Moduli (GPa) = 134.12915 149.77780 107.49622
#
# Poissons Ratio (x) = 0.16298 0.35476
# Poissons Ratio (y) = 0.14596 0.30853
# Poissons Ratio (z) = 0.44266 0.42989
#
# Static dielectric constant tensor:
#      x y z
#    x 1.984870 0.000000 0.000000 
#    y 0.000000 2.031630 0.000000 
#    z 0.000000 0.000000 1.470210 
# 
# From -- ./inp_files/24126.got.cif
#   From: 2010.05.17/outbox.cif.g08.bks.cpg/sg48_13_cif.got.tgz:24126.got - 2010.06.03 20:39:00.
