data_PCOD9391876
_publ_section_title
;
Structure prediction by ZEFSAII (Michael W. Deem and Ramdas Pophale) SiO2 
 PCOD9391876
Probable space group: P N N N
;
_chemical_formula_sum "Si O2"
_cell_formula_units_Z 44
_cell_length_a 9.036460
_cell_length_b 13.231184
_cell_length_c 17.410567
_cell_angle_alpha 90.000000
_cell_angle_beta 90.000000
_cell_angle_gamma 90.000000
_cell_volume 2081.660753
_symmetry_space_group_name_H-M "P N N N"
_symmetry_group_IT_number 48
_space_group.IT_coordinate_system_code '2'
_symmetry_cell_setting 'orthorhombic'
loop_
_space_group_symop_operation_xyz
x,y,z
1/2-x,1/2-y,z
x,1/2-y,1/2-z
1/2-x,y,1/2-z
-x,-y,-z
1/2+x,1/2+y,-z
-x,1/2+y,1/2+z
1/2+x,-y,1/2+z
loop_
_atom_site_type_symbol
_atom_site_label
_atom_site_fract_x
_atom_site_fract_y
_atom_site_fract_z
Si Si1 0.230793 0.085403 0.585404
Si Si2 0.943811 0.311789 0.958880
Si Si3 0.726103 0.517237 0.588855
Si Si4 0.562289 0.118236 0.131536
Si Si5 0.750000 0.250000 0.250000
Si Si6 0.551052 0.123697 0.636051
Si Si7 0.750000 0.250000 0.750000
O O1 0.375478 0.112302 0.633417
O O2 0.106595 0.171064 0.577286
O O3 0.262503 0.061437 0.495256
O O4 0.154103 0.985223 0.619332
O O5 0.857978 0.409668 0.925342
O O6 0.905291 0.198884 0.934334
O O7 0.934937 0.323488 0.049918
O O8 0.610648 0.585151 0.636345
O O9 0.877866 0.486649 0.628335
O O10 0.642067 0.182255 0.196787
O O11 0.636865 0.178699 0.704275
#
# Coordination Sequence:
#
# PCOD9391876 Si02
#       7
#     8   8   8   8   2   8   2
#     4   9  20  37  64  95 114 155 215 269 307 353
#     4   9  18  38  64  89 121 152 205 269 300 362
#     4   9  18  38  63  89 120 154 205 269 311 346
#     4   9  22  39  61  92 123 159 213 263 304 367
#     4  12  24  38  68  90 126 186 212 234 328 390
#     4  12  21  38  62  88 127 166 207 243 328 381
#     4  12  28  34  50  92 136 172 182 252 312 382
#
# _framework density 21.136972
#
# number of rings (size 3 to 8) (size 9 to 14) (size 15 to 20)
#    0.000    2.182    1.818    3.273    5.091    1.455 
#    0.000    0.909    0.000    1.091    0.000    0.000 
#    0.000    0.000    0.000    0.000    0.000    0.000 
#
# Total GULP energy -245375.259166 kJ/mol
# GULP energy per Si atom -5576.710436 kJ/mol
# Density = 2.108886 g / cm^3
# Si number density = 21.136972 Si / 1000 Ang^3
#
#
#
# Elastic Constant Matrix: (Units=GPa)
#
#
# Indices 1 2 3 4 5 6 
#
# 1 136.3764 35.6727 59.8225 0.0000 0.0000 0.0000
# 2 35.6727 70.2404 41.9768 0.0000 0.0000 0.0000
# 3 59.8225 41.9768 62.8901 0.0000 0.0000 0.0000
# 4 0.0000 0.0000 0.0000 12.3771 0.0000 0.0000
# 5 0.0000 0.0000 0.0000 0.0000 26.5474 0.0000
# 6 0.0000 0.0000 0.0000 0.0000 0.0000 15.0941
#
#
#
# Elastic Compliance Matrix: (Units=1/GPa)
#
#
# Indices 1 2 3 4 5 6 
#
# 1 0.012651 0.001275 -0.012886 0.000000 0.000000 0.000000
# 2 0.001275 0.023813 -0.017107 0.000000 0.000000 0.000000
# 3 -0.012886 -0.017107 0.039576 0.000000 0.000000 0.000000
# 4 0.000000 0.000000 0.000000 0.080795 0.000000 0.000000
# 5 0.000000 0.000000 0.000000 0.000000 0.037668 0.000000
# 6 0.000000 0.000000 0.000000 0.000000 0.000000 0.066251
#
#
# Mechanical properties :
#
#
# Convention : Reuss Voigt Hill
#
# Bulk Modulus (GPa) = 53.74767 60.49453 57.12110
# Shear Modulus (GPa) = 15.41348 19.60604 17.50976
#
# Velocity S-wave (km/s) = 2.70333 3.04891 2.88131
# Velocity P-wave (km/s) = 5.93528 6.40912 6.17674
#
# Compressibility (1/GPa) = 0.01860546
#
# Stress axis : x y z
#
# Youngs Moduli (GPa) = 79.04282 41.99438 25.26762
#
# Poissons Ratio (x) = -0.05356 0.32559
# Poissons Ratio (y) = -0.10081 0.43226
# Poissons Ratio (z) = 1.01851 0.71841
#
# Static dielectric constant tensor:
#      x y z
#    x 1.821890 0.000000 0.000000 
#    y 0.000000 1.750250 0.000000 
#    z 0.000000 0.000000 1.754300 
# 
# From -- ./inp_files/30226.got.cif
#   From: 2010.05.17/outbox.cif.g08.bks.cpg/sg48_16_cif.got.tgz:30226.got - 2010.06.03 20:39:00.
