data_PCOD9391210
_publ_section_title
;
Structure prediction by ZEFSAII (Michael W. Deem and Ramdas Pophale) SiO2 
 PCOD9391210
Probable space group: P N N N
;
_chemical_formula_sum "Si O2"
_cell_formula_units_Z 60
_cell_length_a 7.142171
_cell_length_b 20.472292
_cell_length_c 19.910328
_cell_angle_alpha 90.000000
_cell_angle_beta 90.000000
_cell_angle_gamma 90.000000
_cell_volume 2911.220669
_symmetry_space_group_name_H-M "P N N N"
_symmetry_group_IT_number 48
_space_group.IT_coordinate_system_code '2'
_symmetry_cell_setting 'orthorhombic'
loop_
_space_group_symop_operation_xyz
x,y,z
1/2-x,1/2-y,z
x,1/2-y,1/2-z
1/2-x,y,1/2-z
-x,-y,-z
1/2+x,1/2+y,-z
-x,1/2+y,1/2+z
1/2+x,-y,1/2+z
loop_
_atom_site_type_symbol
_atom_site_label
_atom_site_fract_x
_atom_site_fract_y
_atom_site_fract_z
Si Si1 0.960082 0.538265 0.645234
Si Si2 0.585699 0.341252 0.062944
Si Si3 0.795603 0.325060 0.828406
Si Si4 0.750000 0.440621 0.250000
Si Si5 0.372500 0.116906 0.188659
Si Si6 0.334837 0.322891 0.592253
Si Si7 0.978762 0.695405 0.941295
Si Si8 0.520545 0.406994 0.920266
O O1 0.027603 0.609391 0.621007
O O2 0.118126 0.518666 0.699460
O O3 0.962932 0.484213 0.587983
O O4 0.750409 0.551678 0.672126
O O5 0.470184 0.273940 0.062483
O O6 0.802854 0.322871 0.065966
O O7 0.554984 0.379907 0.994200
O O8 0.750000 0.250000 0.847687
O O9 0.750000 0.332658 0.750000
O O10 0.669794 0.373971 0.870912
O O11 0.007101 0.334012 0.852272
O O12 0.585016 0.399101 0.287541
O O13 0.250000 0.147171 0.250000
O O14 0.381773 0.159637 0.121290
O O15 0.250000 0.250000 0.600548
O O16 0.413761 0.325590 0.515754
O O17 0.179272 0.377922 0.599703
#
# Coordination Sequence:
#
# PCOD9391210 Si02
#       8
#     8   8   8   4   8   8   8   8
#     4  11  25  42  67  98 138 178 230 278 345 411
#     4  11  22  43  70  99 140 177 224 291 347 403
#     4  11  24  43  64  97 135 168 223 294 339 403
#     4  10  22  48  65  94 141 186 228 284 332 426
#     4  10  23  44  72 101 138 185 234 287 339 416
#     4  12  23  42  73  98 131 178 227 276 355 416
#     4  11  22  42  75  99 137 183 225 290 354 396
#     4  12  25  43  68 100 136 176 225 282 344 416
#
# _framework density 20.609912000000001
#
# number of rings (size 3 to 8) (size 9 to 14) (size 15 to 20)
#    0.000    0.933    5.333    1.200    0.000    4.267 
#    0.000    6.667    0.000    0.000    0.000    0.000 
#    0.000    0.000    0.000    0.000    0.000    0.000 
#
# Total GULP energy -335201.444067 kJ/mol
# GULP energy per Si atom -5586.690734 kJ/mol
# Density = 2.056300 g / cm^3
# Si number density = 20.609912 Si / 1000 Ang^3
#
#
#
# Elastic Constant Matrix: (Units=GPa)
#
#
# Indices 1 2 3 4 5 6 
#
# 1 139.4383 28.9335 42.8792 0.0000 0.0000 0.0000
# 2 28.9335 67.2567 24.1450 0.0000 0.0000 0.0000
# 3 42.8792 24.1450 86.8912 0.0000 0.0000 0.0000
# 4 0.0000 0.0000 0.0000 74.6782 0.0000 0.0000
# 5 0.0000 0.0000 0.0000 0.0000 -385.9935 0.0000
# 6 0.0000 0.0000 0.0000 0.0000 0.0000 20.3889
#
#
#
# Elastic Compliance Matrix: (Units=1/GPa)
#
#
# Indices 1 2 3 4 5 6 
#
# 1 0.008811 -0.002477 -0.003660 0.000000 0.000000 0.000000
# 2 -0.002477 0.017212 -0.003561 0.000000 0.000000 0.000000
# 3 -0.003660 -0.003561 0.014304 0.000000 0.000000 0.000000
# 4 0.000000 0.000000 0.000000 0.013391 0.000000 0.000000
# 5 0.000000 0.000000 0.000000 0.000000 -0.002591 0.000000
# 6 0.000000 0.000000 0.000000 0.000000 0.000000 0.049046
#
#
# Mechanical properties :
#
#
# Convention : Reuss Voigt Hill
#
# Bulk Modulus (GPa) = 47.77151 53.94460 50.85806
# Shear Modulus (GPa) = 39.51145 -45.01005 -2.74930
#
# Velocity S-wave (km/s) = 4.38323 -4.67829 -1.15623
# Velocity P-wave (km/s) = 6.98900 1.71785 4.79036
#
# Compressibility (1/GPa) = 0.02093298
#
# Stress axis : x y z
#
# Youngs Moduli (GPa) = 113.49472 58.09872 69.90977
#
# Poissons Ratio (x) = 0.14388 0.25586
# Poissons Ratio (y) = 0.28108 0.24893
# Poissons Ratio (z) = 0.41538 0.20687
#
# Static dielectric constant tensor:
#      x y z
#    x 1.756080 0.000000 0.000000 
#    y 0.000000 1.705780 0.000000 
#    z 0.000000 0.000000 1.757930 
# 
# From -- ./inp_files/32996.got.cif
#   From: 2010.05.17/outbox.cif.g08.bks.cpg/sg48_17_cif.got.tgz:32996.got - 2010.06.03 20:39:00.
