data_PCOD9391813
_publ_section_title
;
Structure prediction by ZEFSAII (Michael W. Deem and Ramdas Pophale) SiO2 
 PCOD9391813
Probable space group: P N N N
;
_chemical_formula_sum "Si O2"
_cell_formula_units_Z 32
_cell_length_a 29.459445
_cell_length_b 5.228597
_cell_length_c 8.948364
_cell_angle_alpha 90.000000
_cell_angle_beta 90.000000
_cell_angle_gamma 90.000000
_cell_volume 1378.330518
_symmetry_space_group_name_H-M "P N N N"
_symmetry_group_IT_number 48
_space_group.IT_coordinate_system_code '2'
_symmetry_cell_setting 'orthorhombic'
loop_
_space_group_symop_operation_xyz
x,y,z
1/2-x,1/2-y,z
x,1/2-y,1/2-z
1/2-x,y,1/2-z
-x,-y,-z
1/2+x,1/2+y,-z
-x,1/2+y,1/2+z
1/2+x,-y,1/2+z
loop_
_atom_site_type_symbol
_atom_site_label
_atom_site_fract_x
_atom_site_fract_y
_atom_site_fract_z
Si Si1 0.196282 0.775822 0.429124
Si Si2 0.131506 0.501578 0.650341
Si Si3 0.620483 0.653751 0.585343
Si Si4 0.472389 0.511472 0.347969
O O1 0.250000 0.750000 0.447202
O O2 0.187693 0.750000 0.250000
O O3 0.174015 0.581855 0.547114
O O4 0.167615 0.029792 0.468133
O O5 0.139280 0.250000 0.750000
O O6 0.100376 0.376588 0.520571
O O7 0.118110 0.750000 0.750000
O O8 0.630093 0.750000 0.750000
O O9 0.580348 0.450995 0.604301
O O10 0.475071 0.250000 0.250000
O O11 0.500000 0.500000 0.500000
O O12 0.487951 0.750000 0.250000
#
# Coordination Sequence:
#
# PCOD9391813 Si02
#       4
#     8   8   8   8
#     4  11  24  46  74 103 141 194 249 294 349 439
#     4  12  26  46  68 106 142 186 237 304 364 417
#     4  11  24  47  78 100 147 193 247 293 361 436
#     4  11  26  49  78 111 147 191 237 304 368 436
#
# _framework density 23.216491999999999
#
# number of rings (size 3 to 8) (size 9 to 14) (size 15 to 20)
#    0.000    0.750    5.000    1.500    3.500    2.500 
#    9.000    0.000    0.000    0.000    0.000    0.000 
#    0.000    0.000    0.000    0.000    0.000    0.000 
#
# Total GULP energy -178435.262506 kJ/mol
# GULP energy per Si atom -5576.101953 kJ/mol
# Density = 2.316365 g / cm^3
# Si number density = 23.216492 Si / 1000 Ang^3
#
#
#
# Elastic Constant Matrix: (Units=GPa)
#
#
# Indices 1 2 3 4 5 6 
#
# 1 60.1626 20.5148 7.9338 0.0000 0.0000 0.0000
# 2 20.5148 172.0471 86.5500 0.0000 0.0000 0.0000
# 3 7.9338 86.5500 142.7123 0.0000 0.0000 0.0000
# 4 0.0000 0.0000 0.0000 55.9635 0.0000 0.0000
# 5 0.0000 0.0000 0.0000 0.0000 -40.8817 0.0000
# 6 0.0000 0.0000 0.0000 0.0000 0.0000 15.2838
#
#
#
# Elastic Compliance Matrix: (Units=1/GPa)
#
#
# Indices 1 2 3 4 5 6 
#
# 1 0.017343 -0.002278 0.000417 0.000000 0.000000 0.000000
# 2 -0.002278 0.008663 -0.005127 0.000000 0.000000 0.000000
# 3 0.000417 -0.005127 0.010093 0.000000 0.000000 0.000000
# 4 0.000000 0.000000 0.000000 0.017869 0.000000 0.000000
# 5 0.000000 0.000000 0.000000 0.000000 -0.024461 0.000000
# 6 0.000000 0.000000 0.000000 0.000000 0.000000 0.065429
#
#
# Mechanical properties :
#
#
# Convention : Reuss Voigt Hill
#
# Bulk Modulus (GPa) = 45.19944 67.21324 56.20634
# Shear Modulus (GPa) = 42.99674 23.40133 33.19904
#
# Velocity S-wave (km/s) = 4.30815 3.17829 3.78561
# Velocity P-wave (km/s) = 6.65265 6.51783 6.58559
#
# Compressibility (1/GPa) = 0.02212417
#
# Stress axis : x y z
#
# Youngs Moduli (GPa) = 57.65905 115.42859 99.07386
#
# Poissons Ratio (x) = 0.26294 -0.04135
# Poissons Ratio (y) = 0.13134 0.50799
# Poissons Ratio (z) = -0.02406 0.59185
#
# Static dielectric constant tensor:
#      x y z
#    x 1.847870 0.000000 0.000000 
#    y 0.000000 2.481310 0.000000 
#    z 0.000000 0.000000 1.952130 
# 
# From -- ./inp_files/1054.got.cif
#   From: 2010.05.17/outbox.cif.g08.bks.cpg/sg48_1_cif.got.tgz:1054.got - 2010.06.03 20:39:00.
