data_PCOD9391298
_publ_section_title
;
Structure prediction by ZEFSAII (Michael W. Deem and Ramdas Pophale) SiO2 
 PCOD9391298
Probable space group: P N N N
;
_chemical_formula_sum "Si O2"
_cell_formula_units_Z 34
_cell_length_a 7.743705
_cell_length_b 6.001714
_cell_length_c 33.375503
_cell_angle_alpha 90.000000
_cell_angle_beta 90.000000
_cell_angle_gamma 90.000000
_cell_volume 1551.143280
_symmetry_space_group_name_H-M "P N N N"
_symmetry_group_IT_number 48
_space_group.IT_coordinate_system_code '2'
_symmetry_cell_setting 'orthorhombic'
loop_
_space_group_symop_operation_xyz
x,y,z
1/2-x,1/2-y,z
x,1/2-y,1/2-z
1/2-x,y,1/2-z
-x,-y,-z
1/2+x,1/2+y,-z
-x,1/2+y,1/2+z
1/2+x,-y,1/2+z
loop_
_atom_site_type_symbol
_atom_site_label
_atom_site_fract_x
_atom_site_fract_y
_atom_site_fract_z
Si Si1 0.750000 0.250000 0.685302
Si Si2 0.421643 0.628352 0.947347
Si Si3 0.492970 0.901750 0.789020
Si Si4 0.250000 0.250000 0.750000
Si Si5 0.073296 0.394160 0.362171
Si Si6 0.250000 0.250000 0.004711
O O1 0.668306 0.456022 0.708209
O O2 0.892289 0.368732 0.658257
O O3 0.250000 0.750000 0.933727
O O4 0.503863 0.549057 0.906007
O O5 0.332584 0.446214 0.977182
O O6 0.575687 0.779034 0.967802
O O7 0.496138 0.750000 0.750000
O O8 0.471592 0.757795 0.829549
O O9 0.353697 0.088289 0.779309
O O10 0.250000 0.250000 0.367559
#
# Coordination Sequence:
#
# PCOD9391298 Si02
#       6
#     4   8   8   2   8   4
#     4  10  24  43  68  96 132 176 228 280 344 406
#     4  11  23  44  70 102 138 179 228 287 351 414
#     4  11  25  43  66  95 134 179 227 281 340 409
#     4  12  26  42  62  94 136 178 234 284 332 410
#     4  10  23  43  66  97 135 178 225 287 343 415
#     4  10  24  44  69 104 135 181 230 282 352 425
#
# _framework density 21.919316999999999
#
# number of rings (size 3 to 8) (size 9 to 14) (size 15 to 20)
#    0.000    1.412    1.176    2.471    0.000   18.824 
#    8.471    1.176    0.000    0.000    0.000    0.000 
#    0.000    0.000    0.000    0.000    0.000    0.000 
#
# Total GULP energy -189397.612729 kJ/mol
# GULP energy per Si atom -5570.518021 kJ/mol
# Density = 2.186943 g / cm^3
# Si number density = 21.919317 Si / 1000 Ang^3
#
#
#
# Elastic Constant Matrix: (Units=GPa)
#
#
# Indices 1 2 3 4 5 6 
#
# 1 105.7264 25.4182 44.1486 0.0000 0.0000 0.0000
# 2 25.4182 79.8412 30.3043 0.0000 0.0000 0.0000
# 3 44.1486 30.3043 103.4138 0.0000 0.0000 0.0000
# 4 0.0000 0.0000 0.0000 77.0538 0.0000 0.0000
# 5 0.0000 0.0000 0.0000 0.0000 56.3221 0.0000
# 6 0.0000 0.0000 0.0000 0.0000 0.0000 41.4862
#
#
#
# Elastic Compliance Matrix: (Units=1/GPa)
#
#
# Indices 1 2 3 4 5 6 
#
# 1 0.011809 -0.002077 -0.004433 0.000000 0.000000 0.000000
# 2 -0.002077 0.014458 -0.003350 0.000000 0.000000 0.000000
# 3 -0.004433 -0.003350 0.012544 0.000000 0.000000 0.000000
# 4 0.000000 0.000000 0.000000 0.012978 0.000000 0.000000
# 5 0.000000 0.000000 0.000000 0.000000 0.017755 0.000000
# 6 0.000000 0.000000 0.000000 0.000000 0.000000 0.024104
#
#
# Mechanical properties :
#
#
# Convention : Reuss Voigt Hill
#
# Bulk Modulus (GPa) = 52.38056 54.30260 53.34158
# Shear Modulus (GPa) = 41.76053 47.57976 44.67015
#
# Velocity S-wave (km/s) = 4.36959 4.66411 4.51925
# Velocity P-wave (km/s) = 7.02898 7.33709 7.18469
#
# Compressibility (1/GPa) = 0.01909105
#
# Stress axis : x y z
#
# Youngs Moduli (GPa) = 84.68367 69.16788 79.72009
#
# Poissons Ratio (x) = 0.14366 0.35337
# Poissons Ratio (y) = 0.17588 0.26706
# Poissons Ratio (z) = 0.37537 0.23171
#
# Static dielectric constant tensor:
#      x y z
#    x 2.037640 0.000000 0.000000 
#    y 0.000000 2.061150 0.000000 
#    z 0.000000 0.000000 1.896560 
# 
# From -- ./inp_files/38559.got.cif
#   From: 2010.05.17/outbox.cif.g08.bks.cpg/sg48_20_cif.got.tgz:38559.got - 2010.06.03 20:39:00.
