data_PCOD9391339
_publ_section_title
;
Structure prediction by ZEFSAII (Michael W. Deem and Ramdas Pophale) SiO2 
 PCOD9391339
Probable space group: P N N N
;
_chemical_formula_sum "Si O2"
_cell_formula_units_Z 56
_cell_length_a 15.038424
_cell_length_b 9.366631
_cell_length_c 16.871430
_cell_angle_alpha 90.000000
_cell_angle_beta 90.000000
_cell_angle_gamma 90.000000
_cell_volume 2376.498974
_symmetry_space_group_name_H-M "P N N N"
_symmetry_group_IT_number 48
_space_group.IT_coordinate_system_code '2'
_symmetry_cell_setting 'orthorhombic'
loop_
_space_group_symop_operation_xyz
x,y,z
1/2-x,1/2-y,z
x,1/2-y,1/2-z
1/2-x,y,1/2-z
-x,-y,-z
1/2+x,1/2+y,-z
-x,1/2+y,1/2+z
1/2+x,-y,1/2+z
loop_
_atom_site_type_symbol
_atom_site_label
_atom_site_fract_x
_atom_site_fract_y
_atom_site_fract_z
Si Si1 0.188136 0.930772 0.923319
Si Si2 0.984811 0.488710 0.235232
Si Si3 0.750000 0.250000 0.564970
Si Si4 0.750000 0.750000 0.889947
Si Si5 0.175902 0.546578 0.186436
Si Si6 0.961855 0.272982 0.376695
Si Si7 0.827523 0.631168 0.155161
Si Si8 0.094217 0.305057 0.514839
O O1 0.142980 0.799024 0.879945
O O2 0.268625 0.000319 0.876596
O O3 0.212285 0.872313 0.008862
O O4 0.111296 0.049340 0.937410
O O5 0.992293 0.393224 0.314075
O O6 0.981307 0.378608 0.161529
O O7 0.895854 0.584595 0.224698
O O8 0.079613 0.560490 0.225111
O O9 0.819431 0.163008 0.617398
O O10 0.793906 0.615157 0.842512
O O11 0.828079 0.801123 0.948510
O O12 0.250000 0.583931 0.250000
O O13 0.005906 0.287470 0.463110
O O14 0.750000 0.750000 0.168971
O O15 0.886961 0.685093 0.080837
#
# Coordination Sequence:
#
# PCOD9391339 Si02
#       8
#     8   8   4   4   8   8   8   8
#     4  11  23  43  67  97 143 186 239 312 369 425
#     4  11  26  45  70 107 141 194 249 295 374 455
#     4  12  25  42  66 105 138 192 238 304 376 423
#     4  12  19  42  74 100 137 186 246 282 368 447
#     4  12  26  44  71 104 151 192 237 306 373 453
#     4  11  25  42  69 104 142 188 245 304 367 450
#     4  10  23  46  74 106 141 194 253 308 372 443
#     4  11  20  42  69 104 139 189 245 300 365 443
#
# _framework density 23.564076
#
# number of rings (size 3 to 8) (size 9 to 14) (size 15 to 20)
#    0.000    0.857    5.000    2.571    4.000    1.143 
#    0.000    6.429    0.000    0.000    0.000    0.000 
#    0.000    0.000    0.000    0.000    0.000    0.000 
#
# Total GULP energy -313045.750221 kJ/mol
# GULP energy per Si atom -5590.102683 kJ/mol
# Density = 2.351044 g / cm^3
# Si number density = 23.564076 Si / 1000 Ang^3
#
#
#
# Elastic Constant Matrix: (Units=GPa)
#
#
# Indices 1 2 3 4 5 6 
#
# 1 109.1637 42.7392 22.2215 0.0000 0.0000 0.0000
# 2 42.7392 77.7805 4.6990 0.0000 0.0000 0.0000
# 3 22.2215 4.6990 50.1881 0.0000 0.0000 0.0000
# 4 0.0000 0.0000 0.0000 26.9462 0.0000 0.0000
# 5 0.0000 0.0000 0.0000 0.0000 -421.5525 0.0000
# 6 0.0000 0.0000 0.0000 0.0000 0.0000 16.3091
#
#
#
# Elastic Compliance Matrix: (Units=1/GPa)
#
#
# Indices 1 2 3 4 5 6 
#
# 1 0.012829 -0.006744 -0.005049 0.000000 0.000000 0.000000
# 2 -0.006744 0.016475 0.001444 0.000000 0.000000 0.000000
# 3 -0.005049 0.001444 0.022025 0.000000 0.000000 0.000000
# 4 0.000000 0.000000 0.000000 0.037111 0.000000 0.000000
# 5 0.000000 0.000000 0.000000 0.000000 -0.002372 0.000000
# 6 0.000000 0.000000 0.000000 0.000000 0.000000 0.061316
#
#
# Mechanical properties :
#
#
# Convention : Reuss Voigt Hill
#
# Bulk Modulus (GPa) = 32.64699 41.82796 37.23748
# Shear Modulus (GPa) = 28.04380 -64.49462 -18.22541
#
# Velocity S-wave (km/s) = 3.45354 -5.23730 -2.78410
# Velocity P-wave (km/s) = 5.45776 4.33395 2.34564
#
# Compressibility (1/GPa) = 0.03063069
#
# Stress axis : x y z
#
# Youngs Moduli (GPa) = 77.95014 60.69685 45.40244
#
# Poissons Ratio (x) = 0.40935 0.22922
# Poissons Ratio (y) = 0.52571 -0.06554
# Poissons Ratio (z) = 0.39354 -0.08762
#
# Static dielectric constant tensor:
#      x y z
#    x 1.870190 0.000000 0.000000 
#    y 0.000000 1.924780 0.000000 
#    z 0.000000 0.000000 1.997160 
# 
# From -- ./inp_files/34500.got.cif
#   From: 2010.05.17/outbox.cif.g08.bks.cpg/sg48_18_cif.got.tgz:34500.got - 2010.06.03 20:39:00.
