data_PCOD9391238
_publ_section_title
;
Structure prediction by ZEFSAII (Michael W. Deem and Ramdas Pophale) SiO2 
 PCOD9391238
Probable space group: P N N N
;
_chemical_formula_sum "Si O2"
_cell_formula_units_Z 64
_cell_length_a 12.299881
_cell_length_b 17.079282
_cell_length_c 13.844577
_cell_angle_alpha 90.000000
_cell_angle_beta 90.000000
_cell_angle_gamma 90.000000
_cell_volume 2908.373709
_symmetry_space_group_name_H-M "P N N N"
_symmetry_group_IT_number 48
_space_group.IT_coordinate_system_code '2'
_symmetry_cell_setting 'orthorhombic'
loop_
_space_group_symop_operation_xyz
x,y,z
1/2-x,1/2-y,z
x,1/2-y,1/2-z
1/2-x,y,1/2-z
-x,-y,-z
1/2+x,1/2+y,-z
-x,1/2+y,1/2+z
1/2+x,-y,1/2+z
loop_
_atom_site_type_symbol
_atom_site_label
_atom_site_fract_x
_atom_site_fract_y
_atom_site_fract_z
Si Si1 0.107680 0.553072 0.992962
Si Si2 0.875827 0.728133 0.915424
Si Si3 0.063956 0.368617 0.687837
Si Si4 0.505784 0.897095 0.810150
Si Si5 0.656139 0.514561 0.023198
Si Si6 0.496625 0.389843 0.093809
Si Si7 0.633679 0.793527 0.124847
Si Si8 0.368307 0.940587 0.204692
O O1 0.217193 0.502899 0.978808
O O2 0.083453 0.601068 0.895066
O O3 0.123712 0.596020 0.096358
O O4 0.000000 0.500000 0.000000
O O5 0.750000 0.750000 0.903776
O O6 0.917879 0.676556 0.828672
O O7 0.953325 0.803330 0.927128
O O8 0.883042 0.679305 0.015868
O O9 0.121287 0.427063 0.611622
O O10 0.124995 0.357194 0.791263
O O11 0.056517 0.280646 0.646641
O O12 0.947957 0.399791 0.719601
O O13 0.460908 0.893941 0.702593
O O14 0.582426 0.973196 0.811998
O O15 0.589214 0.433221 0.031941
O O16 0.610538 0.557362 0.927738
O O17 0.750000 0.750000 0.129281
O O18 0.250000 0.942094 0.250000
#
# Coordination Sequence:
#
# PCOD9391238 Si02
#       8
#     8   8   8   8   8   8   8   8
#     4  10  25  41  63 102 139 172 217 286 348 402
#     4  11  25  41  67  97 140 182 227 289 349 409
#     4  11  21  41  67  98 131 175 224 282 342 414
#     4  11  24  41  62  98 135 174 224 281 340 407
#     4  11  24  44  74  97 136 182 235 281 340 420
#     4  11  24  44  66 102 128 180 237 277 332 412
#     4  10  23  40  64 101 135 170 223 288 352 409
#     4  11  24  41  67  98 139 175 227 285 342 409
#
# _framework density 22.005424999999999
#
# number of rings (size 3 to 8) (size 9 to 14) (size 15 to 20)
#    0.000    1.250    2.500    2.625    7.000    5.000 
#    0.000    1.875    0.000    6.000    0.000    0.000 
#    0.000    0.000    0.000    0.000    0.000    0.000 
#
# Total GULP energy -357658.138398 kJ/mol
# GULP energy per Si atom -5588.408412 kJ/mol
# Density = 2.195534 g / cm^3
# Si number density = 22.005425 Si / 1000 Ang^3
#
#
#
# Elastic Constant Matrix: (Units=GPa)
#
#
# Indices 1 2 3 4 5 6 
#
# 1 101.6025 18.3423 6.7471 0.0000 0.0000 0.0000
# 2 18.3423 67.6103 0.8270 0.0000 0.0000 0.0000
# 3 6.7471 0.8270 101.4032 0.0000 0.0000 0.0000
# 4 0.0000 0.0000 0.0000 18.4313 0.0000 0.0000
# 5 0.0000 0.0000 0.0000 0.0000 34.2964 0.0000
# 6 0.0000 0.0000 0.0000 0.0000 0.0000 7.2052
#
#
#
# Elastic Compliance Matrix: (Units=1/GPa)
#
#
# Indices 1 2 3 4 5 6 
#
# 1 0.010394 -0.002812 -0.000669 0.000000 0.000000 0.000000
# 2 -0.002812 0.015553 0.000060 0.000000 0.000000 0.000000
# 3 -0.000669 0.000060 0.009906 0.000000 0.000000 0.000000
# 4 0.000000 0.000000 0.000000 0.054255 0.000000 0.000000
# 5 0.000000 0.000000 0.000000 0.000000 0.029158 0.000000
# 6 0.000000 0.000000 0.000000 0.000000 0.000000 0.138789
#
#
# Mechanical properties :
#
#
# Convention : Reuss Voigt Hill
#
# Bulk Modulus (GPa) = 34.46815 35.82765 35.14790
# Shear Modulus (GPa) = 18.21059 28.29989 23.25524
#
# Velocity S-wave (km/s) = 2.87984 3.59003 3.25437
# Velocity P-wave (km/s) = 5.17257 5.78801 5.48892
#
# Compressibility (1/GPa) = 0.02901229
#
# Stress axis : x y z
#
# Youngs Moduli (GPa) = 96.20672 64.29747 100.95277
#
# Poissons Ratio (x) = 0.18079 0.06751
# Poissons Ratio (y) = 0.27051 -0.00608
# Poissons Ratio (z) = 0.06433 -0.00387
#
# Static dielectric constant tensor:
#      x y z
#    x 1.785030 0.000000 0.000000 
#    y 0.000000 1.819750 0.000000 
#    z 0.000000 0.000000 1.909920 
# 
# From -- ./inp_files/26738.got.cif
#   From: 2010.05.17/outbox.cif.g08.bks.cpg/sg48_14_cif.got.tgz:26738.got - 2010.06.03 20:39:00.
