data_PCOD9391277
_publ_section_title
;
Structure prediction by ZEFSAII (Michael W. Deem and Ramdas Pophale) SiO2 
 PCOD9391277
Probable space group: P N N N
;
_chemical_formula_sum "Si O2"
_cell_formula_units_Z 38
_cell_length_a 19.303810
_cell_length_b 16.403960
_cell_length_c 5.967905
_cell_angle_alpha 90.000000
_cell_angle_beta 90.000000
_cell_angle_gamma 90.000000
_cell_volume 1889.790394
_symmetry_space_group_name_H-M "P N N N"
_symmetry_group_IT_number 48
_space_group.IT_coordinate_system_code '2'
_symmetry_cell_setting 'orthorhombic'
loop_
_space_group_symop_operation_xyz
x,y,z
1/2-x,1/2-y,z
x,1/2-y,1/2-z
1/2-x,y,1/2-z
-x,-y,-z
1/2+x,1/2+y,-z
-x,1/2+y,1/2+z
1/2+x,-y,1/2+z
loop_
_atom_site_type_symbol
_atom_site_label
_atom_site_fract_x
_atom_site_fract_y
_atom_site_fract_z
Si Si1 0.567087 0.889044 0.531004
Si Si2 0.250000 0.750000 0.750000
Si Si3 0.365264 0.809977 0.055756
Si Si4 0.959325 0.047564 0.695190
Si Si5 0.484492 0.750000 0.750000
Si Si6 0.774273 0.844539 0.002321
O O1 0.516418 0.895976 0.317795
O O2 0.530485 0.828518 0.705216
O O3 0.643118 0.855172 0.488602
O O4 0.568263 0.979592 0.632761
O O5 0.302052 0.691513 0.615388
O O6 0.341172 0.750000 0.250000
O O7 0.394589 0.897916 0.119553
O O8 0.432620 0.765772 0.953119
O O9 0.000000 0.000000 0.500000
O O10 0.750000 0.750000 0.002042
O O11 0.750000 0.878122 0.250000
O O12 0.750000 0.875947 0.750000
#
# Coordination Sequence:
#
# PCOD9391277 Si02
#       6
#     8   2   8   8   4   8
#     4  11  24  40  69 101 137 182 226 296 352 416
#     4  10  26  40  72  94 130 180 234 284 342 434
#     4  11  22  43  68  98 130 176 229 284 348 415
#     4  11  24  42  68 101 138 174 228 293 358 419
#     4  11  20  37  69 106 127 168 234 278 343 408
#     4  10  23  42  66  99 141 186 236 277 340 430
#
# _framework density 20.108049999999999
#
# number of rings (size 3 to 8) (size 9 to 14) (size 15 to 20)
#    0.000    1.263    4.211    1.579    2.947    3.368 
#    0.000    4.211    2.316    0.000    0.000    0.000 
#    0.000    0.000    0.000    0.000    0.000    0.000 
#
# Total GULP energy -211874.144262 kJ/mol
# GULP energy per Si atom -5575.635375 kJ/mol
# Density = 2.006228 g / cm^3
# Si number density = 20.108050 Si / 1000 Ang^3
#
#
#
# Elastic Constant Matrix: (Units=GPa)
#
#
# Indices 1 2 3 4 5 6 
#
# 1 172.3985 54.9400 51.5299 0.0000 0.0000 0.0000
# 2 54.9400 76.2356 22.0753 0.0000 0.0000 0.0000
# 3 51.5299 22.0753 104.9439 0.0000 0.0000 0.0000
# 4 0.0000 0.0000 0.0000 24.2174 0.0000 0.0000
# 5 0.0000 0.0000 0.0000 0.0000 9.2590 0.0000
# 6 0.0000 0.0000 0.0000 0.0000 0.0000 2.5897
#
#
#
# Elastic Compliance Matrix: (Units=1/GPa)
#
#
# Indices 1 2 3 4 5 6 
#
# 1 0.008338 -0.005136 -0.003014 0.000000 0.000000 0.000000
# 2 -0.005136 0.017132 -0.001082 0.000000 0.000000 0.000000
# 3 -0.003014 -0.001082 0.011236 0.000000 0.000000 0.000000
# 4 0.000000 0.000000 0.000000 0.041293 0.000000 0.000000
# 5 0.000000 0.000000 0.000000 0.000000 0.108003 0.000000
# 6 0.000000 0.000000 0.000000 0.000000 0.000000 0.386145
#
#
# Mechanical properties :
#
#
# Convention : Reuss Voigt Hill
#
# Bulk Modulus (GPa) = 54.81615 67.85205 61.33410
# Shear Modulus (GPa) = 8.37953 22.21540 15.29747
#
# Velocity S-wave (km/s) = 2.04360 3.32746 2.76119
# Velocity P-wave (km/s) = 5.73484 6.96991 6.38232
#
# Compressibility (1/GPa) = 0.01824280
#
# Stress axis : x y z
#
# Youngs Moduli (GPa) = 119.93033 58.37032 88.99727
#
# Poissons Ratio (x) = 0.29981 0.26822
# Poissons Ratio (y) = 0.61600 0.09627
# Poissons Ratio (z) = 0.36145 0.06314
#
# Static dielectric constant tensor:
#      x y z
#    x 1.654960 0.000000 0.000000 
#    y 0.000000 1.668200 0.000000 
#    z 0.000000 0.000000 1.794690 
# 
# From -- ./inp_files/4214.got.cif
#   From: 2010.05.17/outbox.cif.g08.bks.cpg/sg48_3_cif.got.tgz:4214.got - 2010.06.03 20:39:00.
