data_PCOD9391488
_publ_section_title
;
Structure prediction by ZEFSAII (Michael W. Deem and Ramdas Pophale) SiO2 
 PCOD9391488
Probable space group: P N N N
;
_chemical_formula_sum "Si O2"
_cell_formula_units_Z 30
_cell_length_a 20.278286
_cell_length_b 5.440457
_cell_length_c 11.827841
_cell_angle_alpha 90.000000
_cell_angle_beta 90.000000
_cell_angle_gamma 90.000000
_cell_volume 1304.884594
_symmetry_space_group_name_H-M "P N N N"
_symmetry_group_IT_number 48
_space_group.IT_coordinate_system_code '2'
_symmetry_cell_setting 'orthorhombic'
loop_
_space_group_symop_operation_xyz
x,y,z
1/2-x,1/2-y,z
x,1/2-y,1/2-z
1/2-x,y,1/2-z
-x,-y,-z
1/2+x,1/2+y,-z
-x,1/2+y,1/2+z
1/2+x,-y,1/2+z
loop_
_atom_site_type_symbol
_atom_site_label
_atom_site_fract_x
_atom_site_fract_y
_atom_site_fract_z
Si Si1 0.866511 0.250000 0.750000
Si Si2 0.164006 0.828796 0.868060
Si Si3 0.572143 0.951420 0.552101
Si Si4 0.313563 0.433714 0.448913
Si Si5 0.250000 0.250000 0.750000
O O1 0.912790 0.429355 0.674523
O O2 0.820557 0.396560 0.838264
O O3 0.132355 0.750000 0.750000
O O4 0.204285 0.066364 0.823230
O O5 0.194986 0.597750 0.937519
O O6 0.113907 0.905244 0.960731
O O7 0.613671 0.695557 0.549518
O O8 0.500000 0.000000 0.500000
O O9 0.250000 0.250000 0.437975
#
# Coordination Sequence:
#
# PCOD9391488 Si02
#       5
#     4   8   8   8   2
#     4  10  26  50  78 109 157 210 260 326 389 474
#     4  11  27  43  77 112 158 204 256 335 400 476
#     4  11  27  48  76 114 157 211 265 321 396 486
#     4  11  27  50  78 116 156 207 269 326 404 472
#     4  12  26  46  74 118 158 202 264 332 416 470
#
# _framework density 22.990539999999999
#
# number of rings (size 3 to 8) (size 9 to 14) (size 15 to 20)
#    0.000    1.067    0.000    2.800   11.200   16.000 
#    7.200    0.000    0.000    0.000    0.000    0.000 
#    0.000    0.000    0.000    0.000    0.000    0.000 
#
# Total GULP energy -167120.996007 kJ/mol
# GULP energy per Si atom -5570.699867 kJ/mol
# Density = 2.293821 g / cm^3
# Si number density = 22.990540 Si / 1000 Ang^3
#
#
#
# Elastic Constant Matrix: (Units=GPa)
#
#
# Indices 1 2 3 4 5 6 
#
# 1 90.9081 33.3228 18.2009 0.0000 0.0000 0.0000
# 2 33.3228 105.2593 47.0443 0.0000 0.0000 0.0000
# 3 18.2009 47.0443 171.2126 0.0000 0.0000 0.0000
# 4 0.0000 0.0000 0.0000 63.2880 0.0000 0.0000
# 5 0.0000 0.0000 0.0000 0.0000 19.8502 0.0000
# 6 0.0000 0.0000 0.0000 0.0000 0.0000 47.1979
#
#
#
# Elastic Compliance Matrix: (Units=1/GPa)
#
#
# Indices 1 2 3 4 5 6 
#
# 1 0.012455 -0.003821 -0.000274 0.000000 0.000000 0.000000
# 2 -0.003821 0.012002 -0.002892 0.000000 0.000000 0.000000
# 3 -0.000274 -0.002892 0.006664 0.000000 0.000000 0.000000
# 4 0.000000 0.000000 0.000000 0.015801 0.000000 0.000000
# 5 0.000000 0.000000 0.000000 0.000000 0.050377 0.000000
# 6 0.000000 0.000000 0.000000 0.000000 0.000000 0.021187
#
#
# Mechanical properties :
#
#
# Convention : Reuss Voigt Hill
#
# Bulk Modulus (GPa) = 58.31246 62.72402 60.51824
# Shear Modulus (GPa) = 36.18544 43.98803 40.08674
#
# Velocity S-wave (km/s) = 3.97158 4.37889 4.18020
# Velocity P-wave (km/s) = 6.81542 7.27378 7.04833
#
# Compressibility (1/GPa) = 0.01714899
#
# Stress axis : x y z
#
# Youngs Moduli (GPa) = 80.28591 83.31759 150.05058
#
# Poissons Ratio (x) = 0.31832 0.04116
# Poissons Ratio (y) = 0.30674 0.43391
# Poissons Ratio (z) = 0.02202 0.24093
#
# Static dielectric constant tensor:
#      x y z
#    x 1.884040 0.000000 0.000000 
#    y 0.000000 2.113410 0.000000 
#    z 0.000000 0.000000 1.863260 
# 
# From -- ./inp_files/22563.got.cif
#   From: 2010.05.17/outbox.cif.g08.bks.cpg/sg48_12_cif.got.tgz:22563.got - 2010.06.03 20:39:00.
