data_PCOD9391299
_publ_section_title
;
Structure prediction by ZEFSAII (Michael W. Deem and Ramdas Pophale) SiO2 
 PCOD9391299
Probable space group: P N N N
;
_chemical_formula_sum "Si O2"
_cell_formula_units_Z 56
_cell_length_a 15.149313
_cell_length_b 9.927766
_cell_length_c 18.627924
_cell_angle_alpha 90.000000
_cell_angle_beta 90.000000
_cell_angle_gamma 90.000000
_cell_volume 2801.618059
_symmetry_space_group_name_H-M "P N N N"
_symmetry_group_IT_number 48
_space_group.IT_coordinate_system_code '2'
_symmetry_cell_setting 'orthorhombic'
loop_
_space_group_symop_operation_xyz
x,y,z
1/2-x,1/2-y,z
x,1/2-y,1/2-z
1/2-x,y,1/2-z
-x,-y,-z
1/2+x,1/2+y,-z
-x,1/2+y,1/2+z
1/2+x,-y,1/2+z
loop_
_atom_site_type_symbol
_atom_site_label
_atom_site_fract_x
_atom_site_fract_y
_atom_site_fract_z
Si Si1 0.543100 0.730323 0.333910
Si Si2 0.676080 0.143734 0.024337
Si Si3 0.832776 0.837236 0.455586
Si Si4 0.981540 0.766340 0.570818
Si Si5 0.565869 0.495923 0.860700
Si Si6 0.931330 0.533572 0.806085
Si Si7 0.735914 0.100722 0.862275
O O1 0.561628 0.750000 0.250000
O O2 0.629865 0.718736 0.381158
O O3 0.487225 0.592675 0.336820
O O4 0.484980 0.853966 0.363525
O O5 0.750000 0.250000 0.048745
O O6 0.579386 0.195920 0.045040
O O7 0.689807 0.993739 0.053930
O O8 0.688961 0.126365 0.938791
O O9 0.750000 0.750000 0.480699
O O10 0.911671 0.821343 0.512856
O O11 0.969277 0.607696 0.584639
O O12 0.957970 0.840673 0.645484
O O13 0.552684 0.546237 0.778615
O O14 0.669283 0.467314 0.873098
O O15 0.829437 0.491529 0.816723
O O16 0.750000 0.250000 0.830410
#
# Coordination Sequence:
#
# PCOD9391299 Si02
#       7
#     8   8   8   8   8   8   8
#     4  10  23  43  67  95 126 176 223 265 329 394
#     4  11  25  43  68  96 130 172 219 278 334 394
#     4  12  25  43  68  97 132 173 219 274 327 394
#     4  12  25  43  66  97 135 175 217 271 337 394
#     4  11  25  38  65 101 134 173 222 275 325 402
#     4  11  21  42  66  92 137 180 214 268 338 398
#     4  11  21  38  64  98 132 172 222 269 329 403
#
# _framework density 19.988448000000002
#
# number of rings (size 3 to 8) (size 9 to 14) (size 15 to 20)
#    0.000    0.857    4.286    3.000    4.000    1.429 
#    0.000    1.429    0.000    1.714    0.000    0.000 
#    0.000    0.000    0.000    0.000    0.000    0.000 
#
# Total GULP energy -313289.443599 kJ/mol
# GULP energy per Si atom -5594.454350 kJ/mol
# Density = 1.994295 g / cm^3
# Si number density = 19.988448 Si / 1000 Ang^3
#
#
#
# Elastic Constant Matrix: (Units=GPa)
#
#
# Indices 1 2 3 4 5 6 
#
# 1 123.0934 43.9129 15.5749 0.0000 0.0000 0.0000
# 2 43.9129 104.6791 12.2512 0.0000 0.0000 0.0000
# 3 15.5749 12.2512 22.6147 0.0000 0.0000 0.0000
# 4 0.0000 0.0000 0.0000 -6.3669 0.0000 0.0000
# 5 0.0000 0.0000 0.0000 0.0000 1.0510 0.0000
# 6 0.0000 0.0000 0.0000 0.0000 0.0000 28.8431
#
#
#
# Elastic Compliance Matrix: (Units=1/GPa)
#
#
# Indices 1 2 3 4 5 6 
#
# 1 0.010047 -0.003635 -0.004950 0.000000 0.000000 0.000000
# 2 -0.003635 0.011515 -0.003734 0.000000 0.000000 0.000000
# 3 -0.004950 -0.003734 0.049651 0.000000 0.000000 0.000000
# 4 0.000000 0.000000 0.000000 -0.157063 0.000000 0.000000
# 5 0.000000 0.000000 0.000000 0.000000 0.951502 0.000000
# 6 0.000000 0.000000 0.000000 0.000000 0.000000 0.034670
#
#
# Mechanical properties :
#
#
# Convention : Reuss Voigt Hill
#
# Bulk Modulus (GPa) = 21.47134 43.76279 32.61706
# Shear Modulus (GPa) = 5.31639 16.61531 10.96585
#
# Velocity S-wave (km/s) = 1.63264 2.88626 2.34478
# Velocity P-wave (km/s) = 3.78407 5.74882 4.86663
#
# Compressibility (1/GPa) = 0.04657371
#
# Stress axis : x y z
#
# Youngs Moduli (GPa) = 99.53056 86.84216 20.14043
#
# Poissons Ratio (x) = 0.31571 0.09970
# Poissons Ratio (y) = 0.36184 0.07521
# Poissons Ratio (z) = 0.49269 0.32431
#
# Static dielectric constant tensor:
#      x y z
#    x 1.678040 0.000000 0.000000 
#    y 0.000000 1.712030 0.000000 
#    z 0.000000 0.000000 1.699970 
# 
# From -- ./inp_files/13128.got.cif
#   From: 2010.05.17/outbox.cif.g08.bks.cpg/sg48_7_cif.got.tgz:13128.got - 2010.06.03 20:39:00.
