data_PCOD9391443
_publ_section_title
;
Structure prediction by ZEFSAII (Michael W. Deem and Ramdas Pophale) SiO2 
 PCOD9391443
Probable space group: P N N N
;
_chemical_formula_sum "Si O2"
_cell_formula_units_Z 40
_cell_length_a 12.153522
_cell_length_b 19.384082
_cell_length_c 8.861315
_cell_angle_alpha 90.000000
_cell_angle_beta 90.000000
_cell_angle_gamma 90.000000
_cell_volume 2087.591716
_symmetry_space_group_name_H-M "P N N N"
_symmetry_group_IT_number 48
_space_group.IT_coordinate_system_code '2'
_symmetry_cell_setting 'orthorhombic'
loop_
_space_group_symop_operation_xyz
x,y,z
1/2-x,1/2-y,z
x,1/2-y,1/2-z
1/2-x,y,1/2-z
-x,-y,-z
1/2+x,1/2+y,-z
-x,1/2+y,1/2+z
1/2+x,-y,1/2+z
loop_
_atom_site_type_symbol
_atom_site_label
_atom_site_fract_x
_atom_site_fract_y
_atom_site_fract_z
Si Si1 0.750000 0.397687 0.250000
Si Si2 0.076330 0.240818 0.430928
Si Si3 0.761535 0.865790 0.931858
Si Si4 0.344378 0.806342 0.013487
Si Si5 0.868092 0.491699 0.491337
Si Si6 0.750000 0.093275 0.750000
O O1 0.678391 0.349660 0.360836
O O2 0.829956 0.445220 0.350353
O O3 0.062359 0.250000 0.250000
O O4 0.147193 0.307980 0.470289
O O5 0.146908 0.172255 0.469378
O O6 0.959328 0.232508 0.506372
O O7 0.750000 0.876495 0.750000
O O8 0.801726 0.935929 0.008144
O O9 0.250000 0.750000 0.026537
O O10 0.329509 0.859073 0.150128
O O11 0.823458 0.452248 0.638783
O O12 0.000000 0.500000 0.500000
#
# Coordination Sequence:
#
# PCOD9391443 Si02
#       6
#     4   8   8   8   8   4
#     4  10  25  38  58  99 118 168 216 244 318 379
#     4   9  19  34  64  92 116 155 210 258 306 360
#     4   9  19  37  61  92 119 159 205 255 310 367
#     4  11  22  39  64  91 128 159 211 263 312 375
#     4  11  24  41  65  89 135 168 210 262 316 387
#     4  10  25  42  58  97 122 170 208 248 330 375
#
# _framework density 19.160834000000001
#
# number of rings (size 3 to 8) (size 9 to 14) (size 15 to 20)
#    0.000    2.000    1.000    3.000   11.200    1.600 
#    0.000    4.000    0.000    1.200    0.000    0.000 
#    0.000    0.000    0.000    0.000    0.000    0.000 
#
# Total GULP energy -223309.738249 kJ/mol
# GULP energy per Si atom -5582.743456 kJ/mol
# Density = 1.911722 g / cm^3
# Si number density = 19.160834 Si / 1000 Ang^3
#
#
#
# Elastic Constant Matrix: (Units=GPa)
#
#
# Indices 1 2 3 4 5 6 
#
# 1 131.7233 27.6510 16.3066 0.0000 0.0000 0.0000
# 2 27.6510 91.6048 18.5313 0.0000 0.0000 0.0000
# 3 16.3066 18.5313 56.0036 0.0000 0.0000 0.0000
# 4 0.0000 0.0000 0.0000 76.8374 0.0000 0.0000
# 5 0.0000 0.0000 0.0000 0.0000 7.9174 0.0000
# 6 0.0000 0.0000 0.0000 0.0000 0.0000 17.8925
#
#
#
# Elastic Compliance Matrix: (Units=1/GPa)
#
#
# Indices 1 2 3 4 5 6 
#
# 1 0.008252 -0.002149 -0.001692 0.000000 0.000000 0.000000
# 2 -0.002149 0.012259 -0.003431 0.000000 0.000000 0.000000
# 3 -0.001692 -0.003431 0.019484 0.000000 0.000000 0.000000
# 4 0.000000 0.000000 0.000000 0.013015 0.000000 0.000000
# 5 0.000000 0.000000 0.000000 0.000000 0.126304 0.000000
# 6 0.000000 0.000000 0.000000 0.000000 0.000000 0.055889
#
#
# Mechanical properties :
#
#
# Convention : Reuss Voigt Hill
#
# Bulk Modulus (GPa) = 39.28893 44.92329 42.10611
# Shear Modulus (GPa) = 19.36263 34.98564 27.17414
#
# Velocity S-wave (km/s) = 3.18233 4.27768 3.77000
# Velocity P-wave (km/s) = 5.83544 6.92058 6.40104
#
# Compressibility (1/GPa) = 0.02545246
#
# Stress axis : x y z
#
# Youngs Moduli (GPa) = 121.18052 81.57218 51.32456
#
# Poissons Ratio (x) = 0.17527 0.08683
# Poissons Ratio (y) = 0.26038 0.17609
# Poissons Ratio (z) = 0.20501 0.27986
#
# Static dielectric constant tensor:
#      x y z
#    x 1.630410 0.000000 0.000000 
#    y 0.000000 1.663340 0.000000 
#    z 0.000000 0.000000 1.667270 
# 
# From -- ./inp_files/11042.got.cif
#   From: 2010.05.17/outbox.cif.g08.bks.cpg/sg48_6_cif.got.tgz:11042.got - 2010.06.03 20:39:00.
