data_PCOD9391884
_publ_section_title
;
Structure prediction by ZEFSAII (Michael W. Deem and Ramdas Pophale) SiO2 
 PCOD9391884
Probable space group: P N N N
;
_chemical_formula_sum "Si O2"
_cell_formula_units_Z 34
_cell_length_a 5.361858
_cell_length_b 32.529919
_cell_length_c 10.142251
_cell_angle_alpha 90.000000
_cell_angle_beta 90.000000
_cell_angle_gamma 90.000000
_cell_volume 1769.019598
_symmetry_space_group_name_H-M "P N N N"
_symmetry_group_IT_number 48
_space_group.IT_coordinate_system_code '2'
_symmetry_cell_setting 'orthorhombic'
loop_
_space_group_symop_operation_xyz
x,y,z
1/2-x,1/2-y,z
x,1/2-y,1/2-z
1/2-x,y,1/2-z
-x,-y,-z
1/2+x,1/2+y,-z
-x,1/2+y,1/2+z
1/2+x,-y,1/2+z
loop_
_atom_site_type_symbol
_atom_site_label
_atom_site_fract_x
_atom_site_fract_y
_atom_site_fract_z
Si Si1 0.750000 0.250000 0.750000
Si Si2 0.784211 0.867337 0.597913
Si Si3 0.283811 0.918488 0.535662
Si Si4 0.141786 0.295184 0.892838
Si Si5 0.250000 0.989193 0.750000
Si Si6 0.250000 0.956259 0.250000
O O1 0.635240 0.217361 0.853390
O O2 0.750000 0.855198 0.750000
O O3 0.541011 0.894261 0.561388
O O4 0.808481 0.828343 0.502453
O O5 0.039591 0.893047 0.579901
O O6 0.280662 0.959834 0.623089
O O7 0.266133 0.929441 0.382100
O O8 0.250000 0.250000 0.924721
O O9 0.250000 0.308216 0.750000
O O10 0.499792 0.016289 0.760439
#
# Coordination Sequence:
#
# PCOD9391884 Si02
#       6
#     2   8   8   8   4   4
#     4   8  18  42  64 104 124 168 214 282 318 364
#     4  12  25  44  66  95 139 179 211 273 328 385
#     4  12  26  44  66 101 134 170 221 273 332 389
#     4   9  22  40  69  97 131 170 220 267 321 384
#     4  12  22  48  66  96 135 172 213 280 330 402
#     4  12  26  41  74  98 123 176 229 268 332 392
#
# _framework density 19.219685999999999
#
# number of rings (size 3 to 8) (size 9 to 14) (size 15 to 20)
#    0.000    1.176    2.353    4.235    9.882    0.471 
#    0.000    0.000    0.000    0.000    0.000    0.000 
#    0.000    0.000    0.000    0.000    0.000    0.000 
#
# Total GULP energy -189712.048732 kJ/mol
# GULP energy per Si atom -5579.766139 kJ/mol
# Density = 1.917594 g / cm^3
# Si number density = 19.219686 Si / 1000 Ang^3
#
#
#
# Elastic Constant Matrix: (Units=GPa)
#
#
# Indices 1 2 3 4 5 6 
#
# 1 122.6812 38.6625 19.9415 0.0000 0.0000 0.0000
# 2 38.6625 68.2344 47.7787 0.0000 0.0000 0.0000
# 3 19.9415 47.7787 127.4879 0.0000 0.0000 0.0000
# 4 0.0000 0.0000 0.0000 54.7339 0.0000 0.0000
# 5 0.0000 0.0000 0.0000 0.0000 33.5044 0.0000
# 6 0.0000 0.0000 0.0000 0.0000 0.0000 40.4645
#
#
#
# Elastic Compliance Matrix: (Units=1/GPa)
#
#
# Indices 1 2 3 4 5 6 
#
# 1 0.009977 -0.006183 0.000757 0.000000 0.000000 0.000000
# 2 -0.006183 0.023701 -0.007915 0.000000 0.000000 0.000000
# 3 0.000757 -0.007915 0.010692 0.000000 0.000000 0.000000
# 4 0.000000 0.000000 0.000000 0.018270 0.000000 0.000000
# 5 0.000000 0.000000 0.000000 0.000000 0.029847 0.000000
# 6 0.000000 0.000000 0.000000 0.000000 0.000000 0.024713
#
#
# Mechanical properties :
#
#
# Convention : Reuss Voigt Hill
#
# Bulk Modulus (GPa) = 56.53963 59.01878 57.77921
# Shear Modulus (GPa) = 33.38268 39.87526 36.62897
#
# Velocity S-wave (km/s) = 4.17213 4.55984 4.37029
# Velocity P-wave (km/s) = 7.25881 7.64833 7.45612
#
# Compressibility (1/GPa) = 0.01768671
#
# Stress axis : x y z
#
# Youngs Moduli (GPa) = 100.23375 42.19232 93.52801
#
# Poissons Ratio (x) = 0.26086 -0.07076
# Poissons Ratio (y) = 0.61971 0.74031
# Poissons Ratio (z) = -0.07583 0.33397
#
# Static dielectric constant tensor:
#      x y z
#    x 1.731220 0.000000 0.000000 
#    y 0.000000 1.635260 0.000000 
#    z 0.000000 0.000000 1.636080 
# 
# From -- ./inp_files/6852.got.cif
#   From: 2010.05.17/outbox.cif.g08.bks.cpg/sg48_4_cif.got.tgz:6852.got - 2010.06.03 20:39:00.
