data_PCOD9391905
_publ_section_title
;
Structure prediction by ZEFSAII (Michael W. Deem and Ramdas Pophale) SiO2 
 PCOD9391905
Probable space group: P N N N
;
_chemical_formula_sum "Si O2"
_cell_formula_units_Z 30
_cell_length_a 20.420696
_cell_length_b 12.650807
_cell_length_c 5.657236
_cell_angle_alpha 90.000000
_cell_angle_beta 90.000000
_cell_angle_gamma 90.000000
_cell_volume 1461.480640
_symmetry_space_group_name_H-M "P N N N"
_symmetry_group_IT_number 48
_space_group.IT_coordinate_system_code '2'
_symmetry_cell_setting 'orthorhombic'
loop_
_space_group_symop_operation_xyz
x,y,z
1/2-x,1/2-y,z
x,1/2-y,1/2-z
1/2-x,y,1/2-z
-x,-y,-z
1/2+x,1/2+y,-z
-x,1/2+y,1/2+z
1/2+x,-y,1/2+z
loop_
_atom_site_type_symbol
_atom_site_label
_atom_site_fract_x
_atom_site_fract_y
_atom_site_fract_z
Si Si1 0.816822 0.902792 0.642544
Si Si2 0.966413 0.250000 0.250000
Si Si3 0.415574 0.339750 0.950855
Si Si4 0.750000 0.750000 0.250000
Si Si5 0.571235 0.028410 0.108004
O O1 0.750000 0.947946 0.750000
O O2 0.790191 0.827864 0.428418
O O3 0.868768 0.986497 0.547073
O O4 0.858114 0.847547 0.854685
O O5 0.926249 0.346644 0.143823
O O6 0.016477 0.305650 0.430684
O O7 0.406143 0.250000 0.750000
O O8 0.422763 0.455524 0.839862
O O9 0.500000 0.000000 0.000000
#
# Coordination Sequence:
#
# PCOD9391905 Si02
#       5
#     8   4   8   2   8
#     4  12  29  43  71 108 150 193 238 313 375 450
#     4  12  26  44  71 107 152 196 242 306 366 440
#     4  12  25  44  73 113 149 186 242 302 379 440
#     4  12  30  48  74 106 152 190 242 306 382 440
#     4  12  26  44  72 110 147 194 245 304 372 449
#
# _framework density 20.527125999999999
#
# number of rings (size 3 to 8) (size 9 to 14) (size 15 to 20)
#    0.000    0.000    5.333    2.800   18.667    0.000 
#    0.000    0.000    0.000   12.000    0.000    0.000 
#    0.000    0.000    0.000    0.000    0.000    0.000 
#
# Total GULP energy -167671.781087 kJ/mol
# GULP energy per Si atom -5589.059370 kJ/mol
# Density = 2.048041 g / cm^3
# Si number density = 20.527126 Si / 1000 Ang^3
#
#
#
# Elastic Constant Matrix: (Units=GPa)
#
#
# Indices 1 2 3 4 5 6 
#
# 1 172.5285 79.6218 68.4381 0.0000 0.0000 0.0000
# 2 79.6218 143.5163 49.2332 0.0000 0.0000 0.0000
# 3 68.4381 49.2332 112.3912 0.0000 0.0000 0.0000
# 4 0.0000 0.0000 0.0000 32.3450 0.0000 0.0000
# 5 0.0000 0.0000 0.0000 0.0000 -2.4697 0.0000
# 6 0.0000 0.0000 0.0000 0.0000 0.0000 43.0964
#
#
#
# Elastic Compliance Matrix: (Units=1/GPa)
#
#
# Indices 1 2 3 4 5 6 
#
# 1 0.009038 -0.003679 -0.003892 0.000000 0.000000 0.000000
# 2 -0.003679 0.009698 -0.002008 0.000000 0.000000 0.000000
# 3 -0.003892 -0.002008 0.012147 0.000000 0.000000 0.000000
# 4 0.000000 0.000000 0.000000 0.030917 0.000000 0.000000
# 5 0.000000 0.000000 0.000000 0.000000 -0.404902 0.000000
# 6 0.000000 0.000000 0.000000 0.000000 0.000000 0.023204
#
#
# Mechanical properties :
#
#
# Convention : Reuss Voigt Hill
#
# Bulk Modulus (GPa) = 85.28720 91.44693 88.36706
# Shear Modulus (GPa) = -16.84445 30.00386 6.57970
#
# Velocity S-wave (km/s) = -2.86771 3.82733 1.79230
# Velocity P-wave (km/s) = 5.53839 8.01107 6.88662
#
# Compressibility (1/GPa) = 0.01172509
#
# Stress axis : x y z
#
# Youngs Moduli (GPa) = 110.64654 103.11672 82.32600
#
# Poissons Ratio (x) = 0.37937 0.32039
# Poissons Ratio (y) = 0.40707 0.16530
# Poissons Ratio (z) = 0.43061 0.20704
#
# Static dielectric constant tensor:
#      x y z
#    x 1.759930 0.000000 0.000000 
#    y 0.000000 1.736840 0.000000 
#    z 0.000000 0.000000 1.839330 
# 
# From -- ./inp_files/4891.got.cif
#   From: 2010.05.17/outbox.cif.g08.bks.cpg/sg48_3_cif.got.tgz:4891.got - 2010.06.03 20:39:00.
