data_PCOD9391160
_publ_section_title
;
Structure prediction by ZEFSAII (Michael W. Deem and Ramdas Pophale) SiO2 
 PCOD9391160
Probable space group: P N N N
;
_chemical_formula_sum "Si O2"
_cell_formula_units_Z 52
_cell_length_a 21.012205
_cell_length_b 5.691686
_cell_length_c 19.730378
_cell_angle_alpha 90.000000
_cell_angle_beta 90.000000
_cell_angle_gamma 90.000000
_cell_volume 2359.652052
_symmetry_space_group_name_H-M "P N N N"
_symmetry_group_IT_number 48
_space_group.IT_coordinate_system_code '2'
_symmetry_cell_setting 'orthorhombic'
loop_
_space_group_symop_operation_xyz
x,y,z
1/2-x,1/2-y,z
x,1/2-y,1/2-z
1/2-x,y,1/2-z
-x,-y,-z
1/2+x,1/2+y,-z
-x,1/2+y,1/2+z
1/2+x,-y,1/2+z
loop_
_atom_site_type_symbol
_atom_site_label
_atom_site_fract_x
_atom_site_fract_y
_atom_site_fract_z
Si Si1 0.250000 0.250000 0.984473
Si Si2 0.028472 0.100297 0.094997
Si Si3 0.141183 0.119189 0.414254
Si Si4 0.427839 0.004006 0.708842
Si Si5 0.677272 0.492889 0.725431
Si Si6 0.919765 0.233184 0.484404
Si Si7 0.809324 0.383038 0.382176
O O1 0.269355 0.454546 0.933386
O O2 0.191066 0.267954 0.035240
O O3 0.092003 0.212263 0.123758
O O4 0.980303 0.294270 0.063960
O O5 0.983560 0.981944 0.151373
O O6 0.058047 0.948886 0.032728
O O7 0.176876 0.981234 0.355778
O O8 0.098680 0.962816 0.463036
O O9 0.430994 0.250000 0.750000
O O10 0.434516 0.750000 0.750000
O O11 0.358757 0.993945 0.671391
O O12 0.654188 0.750000 0.750000
O O13 0.750000 0.487538 0.750000
O O14 0.644905 0.250000 0.750000
O O15 0.859346 0.259486 0.434275
O O16 0.750000 0.250000 0.347089
#
# Coordination Sequence:
#
# PCOD9391160 Si02
#       7
#     4   8   8   8   8   8   8
#     4  12  24  40  72 112 144 182 242 304 388 458
#     4  10  24  45  71 101 138 185 241 306 366 427
#     4  12  24  40  73 100 143 187 238 301 371 440
#     4  11  29  53  75 104 148 202 260 306 356 441
#     4  10  24  44  63  92 140 191 232 277 335 417
#     4  10  22  43  70 104 137 178 235 302 377 433
#     4  11  24  45  73 109 150 187 237 310 380 450
#
# _framework density 22.037147999999998
#
# number of rings (size 3 to 8) (size 9 to 14) (size 15 to 20)
#    0.000    1.231    3.077    1.385    6.462    3.385 
#    0.000    0.000    0.000    0.000    0.000    0.000 
#    0.000    0.000    0.000    0.000    0.000    0.000 
#
# Total GULP energy -289496.002744 kJ/mol
# GULP energy per Si atom -5567.230822 kJ/mol
# Density = 2.198699 g / cm^3
# Si number density = 22.037148 Si / 1000 Ang^3
#
#
#
# Elastic Constant Matrix: (Units=GPa)
#
#
# Indices 1 2 3 4 5 6 
#
# 1 227.1695 65.7279 82.9462 0.0000 0.0000 0.0000
# 2 65.7279 93.0442 48.3974 0.0000 0.0000 0.0000
# 3 82.9462 48.3974 125.0637 0.0000 0.0000 0.0000
# 4 0.0000 0.0000 0.0000 34.5042 0.0000 0.0000
# 5 0.0000 0.0000 0.0000 0.0000 20.5985 0.0000
# 6 0.0000 0.0000 0.0000 0.0000 0.0000 9.3166
#
#
#
# Elastic Compliance Matrix: (Units=1/GPa)
#
#
# Indices 1 2 3 4 5 6 
#
# 1 0.006372 -0.002883 -0.003110 0.000000 0.000000 0.000000
# 2 -0.002883 0.014761 -0.003800 0.000000 0.000000 0.000000
# 3 -0.003110 -0.003800 0.011529 0.000000 0.000000 0.000000
# 4 0.000000 0.000000 0.000000 0.028982 0.000000 0.000000
# 5 0.000000 0.000000 0.000000 0.000000 0.048547 0.000000
# 6 0.000000 0.000000 0.000000 0.000000 0.000000 0.107335
#
#
# Mechanical properties :
#
#
# Convention : Reuss Voigt Hill
#
# Bulk Modulus (GPa) = 76.48126 93.26892 84.87509
# Shear Modulus (GPa) = 20.70640 29.43094 25.06867
#
# Velocity S-wave (km/s) = 3.06864 3.65843 3.37644
# Velocity P-wave (km/s) = 6.88014 7.76279 7.33475
#
# Compressibility (1/GPa) = 0.01307510
#
# Stress axis : x y z
#
# Youngs Moduli (GPa) = 156.93907 67.74618 86.73630
#
# Poissons Ratio (x) = 0.19534 0.26977
# Poissons Ratio (y) = 0.45252 0.32959
# Poissons Ratio (z) = 0.48811 0.25743
#
# Static dielectric constant tensor:
#      x y z
#    x 1.593290 0.000000 0.000000 
#    y 0.000000 2.506750 0.000000 
#    z 0.000000 0.000000 1.827050 
# 
# From -- ./inp_files/34821.got.cif
#   From: 2010.05.17/outbox.cif.g08.bks.cpg/sg48_18_cif.got.tgz:34821.got - 2010.06.03 20:39:00.
