data_PCOD9391422
_publ_section_title
;
Structure prediction by ZEFSAII (Michael W. Deem and Ramdas Pophale) SiO2 
 PCOD9391422
Probable space group: P N N N
;
_chemical_formula_sum "Si O2"
_cell_formula_units_Z 48
_cell_length_a 8.458992
_cell_length_b 18.355510
_cell_length_c 14.065576
_cell_angle_alpha 90.000000
_cell_angle_beta 90.000000
_cell_angle_gamma 90.000000
_cell_volume 2183.949499
_symmetry_space_group_name_H-M "P N N N"
_symmetry_group_IT_number 48
_space_group.IT_coordinate_system_code '2'
_symmetry_cell_setting 'orthorhombic'
loop_
_space_group_symop_operation_xyz
x,y,z
1/2-x,1/2-y,z
x,1/2-y,1/2-z
1/2-x,y,1/2-z
-x,-y,-z
1/2+x,1/2+y,-z
-x,1/2+y,1/2+z
1/2+x,-y,1/2+z
loop_
_atom_site_type_symbol
_atom_site_label
_atom_site_fract_x
_atom_site_fract_y
_atom_site_fract_z
Si Si1 0.937679 0.232026 0.639458
Si Si2 0.140032 0.930397 0.338994
Si Si3 0.143842 0.969184 0.658033
Si Si4 0.321390 0.472285 0.011063
Si Si5 0.713418 0.174214 0.361898
Si Si6 0.385538 0.191859 0.458482
O O1 0.750000 0.250000 0.631737
O O2 0.985688 0.250000 0.750000
O O3 0.945535 0.144010 0.628790
O O4 0.036032 0.276715 0.558028
O O5 0.250000 0.910434 0.250000
O O6 0.245042 0.969400 0.418131
O O7 0.020438 0.995917 0.313349
O O8 0.250000 0.964160 0.750000
O O9 0.168307 0.890334 0.608501
O O10 0.227198 0.022677 0.586238
O O11 0.308926 0.387747 0.035200
O O12 0.500000 0.500000 0.000000
O O13 0.750000 0.250000 0.411330
O O14 0.750000 0.180316 0.250000
O O15 0.528372 0.170930 0.385293
O O16 0.250000 0.250000 0.429173
#
# Coordination Sequence:
#
# PCOD9391422 Si02
#       6
#     8   8   8   8   8   8
#     4  11  24  46  74 105 150 203 245 306 391 464
#     4  12  26  44  73 110 146 193 254 306 377 464
#     4  11  25  44  71  99 143 189 241 303 374 448
#     4  12  25  45  71 107 147 193 242 313 375 447
#     4  10  24  46  70  95 136 193 238 291 374 437
#     4  12  27  45  74 109 149 190 253 318 375 452
#
# _framework density 21.978532000000001
#
# number of rings (size 3 to 8) (size 9 to 14) (size 15 to 20)
#    0.000    0.667    3.333    4.000    9.333    0.333 
#    0.000    1.667    0.000    0.000    0.000    0.000 
#    0.000    0.000    0.000    0.000    0.000    0.000 
#
# Total GULP energy -267566.912228 kJ/mol
# GULP energy per Si atom -5574.310671 kJ/mol
# Density = 2.192851 g / cm^3
# Si number density = 21.978532 Si / 1000 Ang^3
#
#
#
# Elastic Constant Matrix: (Units=GPa)
#
#
# Indices 1 2 3 4 5 6 
#
# 1 29.6023 14.9399 5.4966 0.0000 0.0000 0.0000
# 2 14.9399 173.1962 13.6940 0.0000 0.0000 0.0000
# 3 5.4966 13.6940 100.9804 0.0000 0.0000 0.0000
# 4 0.0000 0.0000 0.0000 39.2539 0.0000 0.0000
# 5 0.0000 0.0000 0.0000 0.0000 33.1618 0.0000
# 6 0.0000 0.0000 0.0000 0.0000 0.0000 32.9292
#
#
#
# Elastic Compliance Matrix: (Units=1/GPa)
#
#
# Indices 1 2 3 4 5 6 
#
# 1 0.035553 -0.002945 -0.001536 0.000000 0.000000 0.000000
# 2 -0.002945 0.006080 -0.000664 0.000000 0.000000 0.000000
# 3 -0.001536 -0.000664 0.010077 0.000000 0.000000 0.000000
# 4 0.000000 0.000000 0.000000 0.025475 0.000000 0.000000
# 5 0.000000 0.000000 0.000000 0.000000 0.030155 0.000000
# 6 0.000000 0.000000 0.000000 0.000000 0.000000 0.030368
#
#
# Mechanical properties :
#
#
# Convention : Reuss Voigt Hill
#
# Bulk Modulus (GPa) = 24.14354 41.33775 32.74065
# Shear Modulus (GPa) = 30.90133 39.04555 34.97344
#
# Velocity S-wave (km/s) = 3.75371 4.21946 3.99338
# Velocity P-wave (km/s) = 5.45857 6.52592 6.01596
#
# Compressibility (1/GPa) = 0.04141895
#
# Stress axis : x y z
#
# Youngs Moduli (GPa) = 28.12722 164.46330 99.23994
#
# Poissons Ratio (x) = 0.48440 0.15241
# Poissons Ratio (y) = 0.08284 0.06592
# Poissons Ratio (z) = 0.04320 0.10924
#
# Static dielectric constant tensor:
#      x y z
#    x 1.962290 0.000000 0.000000 
#    y 0.000000 2.392290 0.000000 
#    z 0.000000 0.000000 1.838320 
# 
# From -- ./inp_files/25401.got.cif
#   From: 2010.05.17/outbox.cif.g08.bks.cpg/sg48_13_cif.got.tgz:25401.got - 2010.06.03 20:39:00.
