data_PCOD9391496
_publ_section_title
;
Structure prediction by ZEFSAII (Michael W. Deem and Ramdas Pophale) SiO2 
 PCOD9391496
Probable space group: P N N N
;
_chemical_formula_sum "Si O2"
_cell_formula_units_Z 54
_cell_length_a 16.974225
_cell_length_b 13.256923
_cell_length_c 10.882411
_cell_angle_alpha 90.000000
_cell_angle_beta 90.000000
_cell_angle_gamma 90.000000
_cell_volume 2448.825350
_symmetry_space_group_name_H-M "P N N N"
_symmetry_group_IT_number 48
_space_group.IT_coordinate_system_code '2'
_symmetry_cell_setting 'orthorhombic'
loop_
_space_group_symop_operation_xyz
x,y,z
1/2-x,1/2-y,z
x,1/2-y,1/2-z
1/2-x,y,1/2-z
-x,-y,-z
1/2+x,1/2+y,-z
-x,1/2+y,1/2+z
1/2+x,-y,1/2+z
loop_
_atom_site_type_symbol
_atom_site_label
_atom_site_fract_x
_atom_site_fract_y
_atom_site_fract_z
Si Si1 0.822071 0.801841 0.500670
Si Si2 0.250000 0.096850 0.250000
Si Si3 0.250000 0.750000 0.250000
Si Si4 0.837770 0.971415 0.300730
Si Si5 0.532278 0.721344 0.882347
Si Si6 0.933565 0.409094 0.015896
Si Si7 0.977574 0.000825 0.139488
Si Si8 0.867137 0.418422 0.746206
O O1 0.750000 0.750000 0.433588
O O2 0.784361 0.846881 0.628608
O O3 0.849118 0.887246 0.406519
O O4 0.890629 0.722826 0.532128
O O5 0.321419 0.021591 0.284658
O O6 0.187326 0.670736 0.308332
O O7 0.750000 0.979523 0.250000
O O8 0.874071 0.066309 0.373516
O O9 0.895235 0.959335 0.185062
O O10 0.566883 0.750000 0.750000
O O11 0.478385 0.806534 0.946632
O O12 0.486403 0.620971 0.842468
O O13 0.880899 0.403533 0.892341
O O14 0.000000 0.500000 0.000000
O O15 0.044627 0.932728 0.201107
O O16 0.000000 0.000000 0.000000
#
# Coordination Sequence:
#
# PCOD9391496 Si02
#       8
#     8   4   2   8   8   8   8   8
#     4  12  24  41  70 109 147 184 246 309 380 450
#     4  11  21  39  73 108 140 184 237 321 362 426
#     4  10  28  40  70 112 138 196 242 304 366 458
#     4  12  28  49  70 106 154 197 241 313 396 441
#     4  12  23  43  76 109 134 189 262 295 367 446
#     4  12  21  48  76 101 144 199 240 306 378 456
#     4  12  28  47  74 105 149 196 251 312 370 451
#     4  11  23  46  71 101 148 193 250 297 377 450
#
# _framework density 22.051389
#
# number of rings (size 3 to 8) (size 9 to 14) (size 15 to 20)
#    0.000    0.296    5.926    2.889    6.222    0.296 
#    0.000    0.741    0.000    0.000    0.000    0.000 
#    0.000    0.000    0.000    0.000    0.000    0.000 
#
# Total GULP energy -301051.080856 kJ/mol
# GULP energy per Si atom -5575.020016 kJ/mol
# Density = 2.200120 g / cm^3
# Si number density = 22.051389 Si / 1000 Ang^3
#
#
#
# Elastic Constant Matrix: (Units=GPa)
#
#
# Indices 1 2 3 4 5 6 
#
# 1 161.0722 36.8543 41.8445 0.0000 0.0000 0.0000
# 2 36.8543 85.5806 10.9188 0.0000 0.0000 0.0000
# 3 41.8445 10.9188 114.5225 0.0000 0.0000 0.0000
# 4 0.0000 0.0000 0.0000 -21.9516 0.0000 0.0000
# 5 0.0000 0.0000 0.0000 0.0000 19.2596 0.0000
# 6 0.0000 0.0000 0.0000 0.0000 0.0000 32.7126
#
#
#
# Elastic Compliance Matrix: (Units=1/GPa)
#
#
# Indices 1 2 3 4 5 6 
#
# 1 0.007518 -0.002923 -0.002468 0.000000 0.000000 0.000000
# 2 -0.002923 0.012965 -0.000168 0.000000 0.000000 0.000000
# 3 -0.002468 -0.000168 0.009650 0.000000 0.000000 0.000000
# 4 0.000000 0.000000 0.000000 -0.045555 0.000000 0.000000
# 5 0.000000 0.000000 0.000000 0.000000 0.051922 0.000000
# 6 0.000000 0.000000 0.000000 0.000000 0.000000 0.030569
#
#
# Mechanical properties :
#
#
# Convention : Reuss Voigt Hill
#
# Bulk Modulus (GPa) = 52.59143 60.04562 56.31852
# Shear Modulus (GPa) = 59.15277 24.10797 41.63037
#
# Velocity S-wave (km/s) = 5.18490 3.31004 4.34969
# Velocity P-wave (km/s) = 7.72952 6.47282 7.12892
#
# Compressibility (1/GPa) = 0.01901451
#
# Stress axis : x y z
#
# Youngs Moduli (GPa) = 133.00683 77.13063 103.62842
#
# Poissons Ratio (x) = 0.22544 0.25580
# Poissons Ratio (y) = 0.38875 0.01743
# Poissons Ratio (z) = 0.32832 0.01297
#
# Static dielectric constant tensor:
#      x y z
#    x 1.868930 0.000000 0.000000 
#    y 0.000000 1.836470 0.000000 
#    z 0.000000 0.000000 1.566250 
# 
# From -- ./inp_files/21388.got.cif
#   From: 2010.05.17/outbox.cif.g08.bks.cpg/sg48_11_cif.got.tgz:21388.got - 2010.06.03 20:39:00.
