data_PCOD9391593
_publ_section_title
;
Structure prediction by ZEFSAII (Michael W. Deem and Ramdas Pophale) SiO2 
 PCOD9391593
Probable space group: P N N N
;
_chemical_formula_sum "Si O2"
_cell_formula_units_Z 34
_cell_length_a 10.318756
_cell_length_b 10.655062
_cell_length_c 15.275456
_cell_angle_alpha 90.000000
_cell_angle_beta 90.000000
_cell_angle_gamma 90.000000
_cell_volume 1679.490331
_symmetry_space_group_name_H-M "P N N N"
_symmetry_group_IT_number 48
_space_group.IT_coordinate_system_code '2'
_symmetry_cell_setting 'orthorhombic'
loop_
_space_group_symop_operation_xyz
x,y,z
1/2-x,1/2-y,z
x,1/2-y,1/2-z
1/2-x,y,1/2-z
-x,-y,-z
1/2+x,1/2+y,-z
-x,1/2+y,1/2+z
1/2+x,-y,1/2+z
loop_
_atom_site_type_symbol
_atom_site_label
_atom_site_fract_x
_atom_site_fract_y
_atom_site_fract_z
Si Si1 0.531806 0.820454 0.341849
Si Si2 0.750000 0.250000 0.250000
Si Si3 0.222561 0.898489 0.075790
Si Si4 0.998453 0.944553 0.403660
Si Si5 0.228271 0.533401 0.627404
O O1 0.510887 0.750000 0.250000
O O2 0.409302 0.904783 0.369763
O O3 0.540736 0.702064 0.406998
O O4 0.655946 0.908111 0.342962
O O5 0.818602 0.346034 0.317920
O O6 0.250000 0.750000 0.065690
O O7 0.350944 0.951258 0.124124
O O8 0.208927 0.950928 0.977174
O O9 0.882548 0.016310 0.355454
O O10 0.000000 0.000000 0.500000
#
# Coordination Sequence:
#
# PCOD9391593 Si02
#       5
#     8   2   8   8   8
#     4  11  22  37  60  92 120 155 206 254 304 365
#     4  12  24  36  62  86 126 160 204 252 312 364
#     4   9  19  38  60  86 117 159 195 243 309 376
#     4   9  20  37  61  87 119 152 197 250 308 367
#     4  11  21  38  59  88 119 159 204 251 304 368
#
# _framework density 20.244237999999999
#
# number of rings (size 3 to 8) (size 9 to 14) (size 15 to 20)
#    0.000    1.882    1.176    2.824    0.000    5.176 
#    0.000    0.000    0.000    1.412    0.000    0.000 
#    0.000    0.000    0.000    0.000    0.000    0.000 
#
# Total GULP energy -189500.113187 kJ/mol
# GULP energy per Si atom -5573.532741 kJ/mol
# Density = 2.019816 g / cm^3
# Si number density = 20.244238 Si / 1000 Ang^3
#
#
#
# Elastic Constant Matrix: (Units=GPa)
#
#
# Indices 1 2 3 4 5 6 
#
# 1 112.6113 29.0380 58.4257 0.0000 0.0000 0.0000
# 2 29.0380 73.9617 34.7621 0.0000 0.0000 0.0000
# 3 58.4257 34.7621 88.7806 0.0000 0.0000 0.0000
# 4 0.0000 0.0000 0.0000 22.1953 0.0000 0.0000
# 5 0.0000 0.0000 0.0000 0.0000 11.4489 0.0000
# 6 0.0000 0.0000 0.0000 0.0000 0.0000 31.7443
#
#
#
# Elastic Compliance Matrix: (Units=1/GPa)
#
#
# Indices 1 2 3 4 5 6 
#
# 1 0.013599 -0.001388 -0.008406 0.000000 0.000000 0.000000
# 2 -0.001388 0.016712 -0.005630 0.000000 0.000000 0.000000
# 3 -0.008406 -0.005630 0.019000 0.000000 0.000000 0.000000
# 4 0.000000 0.000000 0.000000 0.045055 0.000000 0.000000
# 5 0.000000 0.000000 0.000000 0.000000 0.087345 0.000000
# 6 0.000000 0.000000 0.000000 0.000000 0.000000 0.031502
#
#
# Mechanical properties :
#
#
# Convention : Reuss Voigt Hill
#
# Bulk Modulus (GPa) = 54.16339 57.75614 55.95976
# Shear Modulus (GPa) = 19.98286 23.28622 21.63454
#
# Velocity S-wave (km/s) = 3.14521 3.39523 3.27261
# Velocity P-wave (km/s) = 6.32478 6.63037 6.47937
#
# Compressibility (1/GPa) = 0.01846265
#
# Stress axis : x y z
#
# Youngs Moduli (GPa) = 73.53286 59.83870 52.63178
#
# Poissons Ratio (x) = 0.08308 0.44242
# Poissons Ratio (y) = 0.10209 0.29630
# Poissons Ratio (z) = 0.61812 0.33688
#
# Static dielectric constant tensor:
#      x y z
#    x 1.796450 0.000000 0.000000 
#    y 0.000000 1.697550 0.000000 
#    z 0.000000 0.000000 1.757210 
# 
# From -- ./inp_files/29980.got.cif
#   From: 2010.05.17/outbox.cif.g08.bks.cpg/sg48_15_cif.got.tgz:29980.got - 2010.06.03 20:39:00.
