data_PCOD9391037
_publ_section_title
;
Structure prediction by ZEFSAII (Michael W. Deem and Ramdas Pophale) SiO2 
 PCOD9391037
Probable space group: P N N N
;
_chemical_formula_sum "Si O2"
_cell_formula_units_Z 48
_cell_length_a 31.434127
_cell_length_b 8.594341
_cell_length_c 9.321075
_cell_angle_alpha 90.000000
_cell_angle_beta 90.000000
_cell_angle_gamma 90.000000
_cell_volume 2518.140670
_symmetry_space_group_name_H-M "P N N N"
_symmetry_group_IT_number 48
_space_group.IT_coordinate_system_code '2'
_symmetry_cell_setting 'orthorhombic'
loop_
_space_group_symop_operation_xyz
x,y,z
1/2-x,1/2-y,z
x,1/2-y,1/2-z
1/2-x,y,1/2-z
-x,-y,-z
1/2+x,1/2+y,-z
-x,1/2+y,1/2+z
1/2+x,-y,1/2+z
loop_
_atom_site_type_symbol
_atom_site_label
_atom_site_fract_x
_atom_site_fract_y
_atom_site_fract_z
Si Si1 0.625017 0.312779 0.089499
Si Si2 0.125017 0.312779 0.589499
Si Si3 0.703393 0.813865 0.909885
Si Si4 0.541432 0.812244 0.588908
Si Si5 0.703393 0.313865 0.590115
Si Si6 0.041432 0.812244 0.088908
O O1 0.620215 0.250000 0.250000
O O2 0.627193 0.500000 0.091557
O O3 0.667373 0.245679 0.016909
O O4 0.584257 0.265326 0.994310
O O5 0.120215 0.250000 0.750000
O O6 0.167373 0.245679 0.516908
O O7 0.084257 0.265326 0.494311
O O8 0.750000 0.750000 0.950133
O O9 0.694084 0.750000 0.750000
O O10 0.704388 1.000000 0.905808
O O11 0.540831 0.750000 0.750000
O O12 0.500000 0.759996 0.500000
O O13 0.540687 1.000000 0.594168
O O14 0.750000 0.250000 0.549867
O O15 0.694084 0.250000 0.750000
O O16 0.040831 0.750000 0.250000
#
# Coordination Sequence:
#
# PCOD9391037 Si02
#       6
#     8   8   8   8   8   8
#     4  11  23  39  59  86 119 155 197 242 292 347
#     4  11  23  39  59  86 119 155 197 242 292 347
#     4  11  22  39  62  88 118 153 195 241 292 348
#     4  10  22  39  60  87 118 153 194 239 288 344
#     4  11  22  39  62  88 118 153 195 241 292 348
#     4  10  22  39  60  87 118 153 194 239 288 344
#
# _framework density 19.061684
#
# number of rings (size 3 to 8) (size 9 to 14) (size 15 to 20)
#    0.000    1.333    0.000    7.000    0.000    6.667 
#    0.000    3.333    0.000    0.000    0.000    0.000 
#    0.000    0.000    0.000    0.000    0.000    0.000 
#
# Total GULP energy -268504.250314 kJ/mol
# GULP energy per Si atom -5593.838548 kJ/mol
# Density = 1.901830 g / cm^3
# Si number density = 19.061684 Si / 1000 Ang^3
#
#
#
# Elastic Constant Matrix: (Units=GPa)
#
#
# Indices 1 2 3 4 5 6 
#
# 1 151.9080 55.0396 133.1743 0.0000 0.0000 0.0000
# 2 55.0396 97.6043 54.9770 0.0000 0.0000 0.0000
# 3 133.1743 54.9770 193.8824 0.0000 0.0000 0.0000
# 4 0.0000 0.0000 0.0000 40.4018 0.0000 0.0000
# 5 0.0000 0.0000 0.0000 0.0000 44.2203 0.0000
# 6 0.0000 0.0000 0.0000 0.0000 0.0000 25.7432
#
#
#
# Elastic Compliance Matrix: (Units=1/GPa)
#
#
# Indices 1 2 3 4 5 6 
#
# 1 0.017608 -0.003709 -0.011043 0.000000 0.000000 0.000000
# 2 -0.003709 0.012974 -0.001131 0.000000 0.000000 0.000000
# 3 -0.011043 -0.001131 0.013064 0.000000 0.000000 0.000000
# 4 0.000000 0.000000 0.000000 0.024751 0.000000 0.000000
# 5 0.000000 0.000000 0.000000 0.000000 0.022614 0.000000
# 6 0.000000 0.000000 0.000000 0.000000 0.000000 0.038845
#
#
# Mechanical properties :
#
#
# Convention : Reuss Voigt Hill
#
# Bulk Modulus (GPa) = 84.17903 103.30853 93.74378
# Shear Modulus (GPa) = 30.19655 35.41996 32.80825
#
# Velocity S-wave (km/s) = 3.98445 4.31533 4.15319
# Velocity P-wave (km/s) = 8.08858 8.89630 8.50203
#
# Compressibility (1/GPa) = 0.01187944
#
# Stress axis : x y z
#
# Youngs Moduli (GPa) = 56.79353 77.07585 76.54916
#
# Poissons Ratio (x) = 0.28589 0.84530
# Poissons Ratio (y) = 0.21066 0.08659
# Poissons Ratio (z) = 0.62715 0.08719
#
# Static dielectric constant tensor:
#      x y z
#    x 1.647080 0.000000 0.000000 
#    y 0.000000 1.644980 0.000000 
#    z 0.000000 0.000000 1.617750 
# 
# From -- ./inp_files/9439.got.cif
#   From: 2010.05.17/outbox.cif.g08.bks.cpg/sg48_5_cif.got.tgz:9439.got - 2010.06.03 20:39:00.
