data_PCOD9391430
_publ_section_title
;
Structure prediction by ZEFSAII (Michael W. Deem and Ramdas Pophale) SiO2 
 PCOD9391430
Probable space group: P N N N
;
_chemical_formula_sum "Si O2"
_cell_formula_units_Z 38
_cell_length_a 18.552398
_cell_length_b 6.149765
_cell_length_c 15.452423
_cell_angle_alpha 90.000000
_cell_angle_beta 90.000000
_cell_angle_gamma 90.000000
_cell_volume 1763.011565
_symmetry_space_group_name_H-M "P N N N"
_symmetry_group_IT_number 48
_space_group.IT_coordinate_system_code '2'
_symmetry_cell_setting 'orthorhombic'
loop_
_space_group_symop_operation_xyz
x,y,z
1/2-x,1/2-y,z
x,1/2-y,1/2-z
1/2-x,y,1/2-z
-x,-y,-z
1/2+x,1/2+y,-z
-x,1/2+y,1/2+z
1/2+x,-y,1/2+z
loop_
_atom_site_type_symbol
_atom_site_label
_atom_site_fract_x
_atom_site_fract_y
_atom_site_fract_z
Si Si1 0.182599 0.900042 0.376344
Si Si2 0.440368 0.348505 0.654307
Si Si3 0.250000 0.250000 0.250000
Si Si4 0.662113 0.742955 0.492519
Si Si5 0.997579 0.250000 0.250000
Si Si6 0.927937 0.435836 0.616157
O O1 0.250000 0.750000 0.402562
O O2 0.127505 0.728105 0.340823
O O3 0.205761 0.089378 0.311531
O O4 0.145337 0.021870 0.455715
O O5 0.439812 0.250000 0.750000
O O6 0.367917 0.292912 0.603098
O O7 0.454808 0.599783 0.680071
O O8 0.502798 0.221395 0.599159
O O9 0.750000 0.750000 0.497042
O O10 0.617525 0.936927 0.541168
O O11 0.046123 0.396033 0.312141
#
# Coordination Sequence:
#
# PCOD9391430 Si02
#       6
#     8   8   2   8   4   8
#     4  12  25  41  62  99 137 184 220 276 340 415
#     4  10  25  46  74  98 133 179 237 292 344 409
#     4  12  26  42  60  98 142 186 226 266 342 414
#     4  12  25  46  69 101 141 181 229 286 353 416
#     4  10  24  47  69 105 136 181 238 284 345 406
#     4  11  24  44  69 102 134 184 229 286 342 409
#
# _framework density 21.554029
#
# number of rings (size 3 to 8) (size 9 to 14) (size 15 to 20)
#    0.000    0.842    3.158    2.211    0.000   23.158 
#    0.000    0.000    0.000    0.000    0.000    0.000 
#    0.000    0.000    0.000    0.000    0.000    0.000 
#
# Total GULP energy -212022.206257 kJ/mol
# GULP energy per Si atom -5579.531744 kJ/mol
# Density = 2.150497 g / cm^3
# Si number density = 21.554029 Si / 1000 Ang^3
#
#
#
# Elastic Constant Matrix: (Units=GPa)
#
#
# Indices 1 2 3 4 5 6 
#
# 1 81.9708 33.4913 46.7029 0.0000 0.0000 0.0000
# 2 33.4913 128.4174 36.2376 0.0000 0.0000 0.0000
# 3 46.7029 36.2376 69.0329 0.0000 0.0000 0.0000
# 4 0.0000 0.0000 0.0000 6.9572 0.0000 0.0000
# 5 0.0000 0.0000 0.0000 0.0000 -12.6919 0.0000
# 6 0.0000 0.0000 0.0000 0.0000 0.0000 4.3126
#
#
#
# Elastic Compliance Matrix: (Units=1/GPa)
#
#
# Indices 1 2 3 4 5 6 
#
# 1 0.020146 -0.001653 -0.012761 0.000000 0.000000 0.000000
# 2 -0.001653 0.009277 -0.003751 0.000000 0.000000 0.000000
# 3 -0.012761 -0.003751 0.025089 0.000000 0.000000 0.000000
# 4 0.000000 0.000000 0.000000 0.143735 0.000000 0.000000
# 5 0.000000 0.000000 0.000000 0.000000 -0.078790 0.000000
# 6 0.000000 0.000000 0.000000 0.000000 0.000000 0.231876
#
#
# Mechanical properties :
#
#
# Convention : Reuss Voigt Hill
#
# Bulk Modulus (GPa) = 55.00726 56.92051 55.96388
# Shear Modulus (GPa) = 12.69927 10.58155 11.64041
#
# Velocity S-wave (km/s) = 2.42994 2.21810 2.32643
# Velocity P-wave (km/s) = 5.78350 5.74679 5.76517
#
# Compressibility (1/GPa) = 0.01817942
#
# Stress axis : x y z
#
# Youngs Moduli (GPa) = 49.63850 107.79590 39.85868
#
# Poissons Ratio (x) = 0.17817 0.50866
# Poissons Ratio (y) = 0.08205 0.14953
# Poissons Ratio (z) = 0.63346 0.40439
#
# Static dielectric constant tensor:
#      x y z
#    x 1.912100 0.000000 0.000000 
#    y 0.000000 1.860950 0.000000 
#    z 0.000000 0.000000 1.810420 
# 
# From -- ./inp_files/31838.got.cif
#   From: 2010.05.17/outbox.cif.g08.bks.cpg/sg48_16_cif.got.tgz:31838.got - 2010.06.03 20:39:00.
