data_PCOD9391009
_publ_section_title
;
Structure prediction by ZEFSAII (Michael W. Deem and Ramdas Pophale) SiO2 
 PCOD9391009
Probable space group: P N N N
;
_chemical_formula_sum "Si O2"
_cell_formula_units_Z 56
_cell_length_a 15.674544
_cell_length_b 5.090970
_cell_length_c 30.690744
_cell_angle_alpha 90.000000
_cell_angle_beta 90.000000
_cell_angle_gamma 90.000000
_cell_volume 2449.079425
_symmetry_space_group_name_H-M "P N N N"
_symmetry_group_IT_number 48
_space_group.IT_coordinate_system_code '2'
_symmetry_cell_setting 'orthorhombic'
loop_
_space_group_symop_operation_xyz
x,y,z
1/2-x,1/2-y,z
x,1/2-y,1/2-z
1/2-x,y,1/2-z
-x,-y,-z
1/2+x,1/2+y,-z
-x,1/2+y,1/2+z
1/2+x,-y,1/2+z
loop_
_atom_site_type_symbol
_atom_site_label
_atom_site_fract_x
_atom_site_fract_y
_atom_site_fract_z
Si Si1 0.025656 0.872156 0.650595
Si Si2 0.661858 0.090935 0.402678
Si Si3 0.932287 0.822850 0.025565
Si Si4 0.654665 0.746716 0.184836
Si Si5 0.848424 0.811463 0.559900
Si Si6 0.992492 0.498050 0.721072
Si Si7 0.568293 0.218221 0.598571
O O1 0.104515 0.979575 0.679893
O O2 0.969457 0.131723 0.641647
O O3 0.077225 0.757847 0.609416
O O4 0.973516 0.636557 0.673559
O O5 0.750000 0.250000 0.400547
O O6 0.644758 0.971870 0.450022
O O7 0.661535 0.875513 0.364066
O O8 0.989463 0.724181 0.065464
O O9 0.892017 0.649424 0.987537
O O10 0.000000 0.000000 0.000000
O O11 0.750000 0.750000 0.201378
O O12 0.591435 0.572048 0.213155
O O13 0.750000 0.750000 0.554076
O O14 0.896740 0.573843 0.586446
O O15 0.857487 0.081836 0.585450
O O16 0.976936 0.750000 0.750000
O O17 0.957711 0.250000 0.750000
#
# Coordination Sequence:
#
# PCOD9391009 Si02
#       7
#     8   8   8   8   8   8   8
#     4  11  22  39  65  83 123 166 220 265 318 377
#     4  11  22  36  57  87 121 165 221 283 320 374
#     4  10  22  38  58  87 119 165 219 272 335 390
#     4  11  22  39  56  85 121 166 218 262 312 366
#     4  11  25  42  63  91 128 164 212 275 342 399
#     4  11  24  41  58  88 124 166 209 262 311 372
#     4  11  23  42  65  90 121 169 218 269 328 391
#
# _framework density 22.865734
#
# number of rings (size 3 to 8) (size 9 to 14) (size 15 to 20)
#    0.000    1.143    4.286    2.571    2.000    5.429 
#    2.571    0.000    0.000    0.000    0.000    0.000 
#    0.000    0.571    5.714    0.143    0.000    0.000 
#
# Total GULP energy -312110.032334 kJ/mol
# GULP energy per Si atom -5573.393435 kJ/mol
# Density = 2.281369 g / cm^3
# Si number density = 22.865734 Si / 1000 Ang^3
#
#
#
# Elastic Constant Matrix: (Units=GPa)
#
#
# Indices 1 2 3 4 5 6 
#
# 1 56.7638 -9.0243 1.1831 0.0000 0.0000 0.0000
# 2 -9.0243 125.0761 19.1169 0.0000 0.0000 0.0000
# 3 1.1831 19.1169 70.2475 0.0000 0.0000 0.0000
# 4 0.0000 0.0000 0.0000 38.7262 0.0000 0.0000
# 5 0.0000 0.0000 0.0000 0.0000 5.3143 0.0000
# 6 0.0000 0.0000 0.0000 0.0000 0.0000 30.8937
#
#
#
# Elastic Compliance Matrix: (Units=1/GPa)
#
#
# Indices 1 2 3 4 5 6 
#
# 1 0.017852 0.001392 -0.000679 0.000000 0.000000 0.000000
# 2 0.001392 0.008451 -0.002323 0.000000 0.000000 0.000000
# 3 -0.000679 -0.002323 0.014879 0.000000 0.000000 0.000000
# 4 0.000000 0.000000 0.000000 0.025822 0.000000 0.000000
# 5 0.000000 0.000000 0.000000 0.000000 0.188171 0.000000
# 6 0.000000 0.000000 0.000000 0.000000 0.000000 0.032369
#
#
# Mechanical properties :
#
#
# Convention : Reuss Voigt Hill
#
# Bulk Modulus (GPa) = 26.34313 30.51541 28.42927
# Shear Modulus (GPa) = 16.47884 31.04097 23.75991
#
# Velocity S-wave (km/s) = 2.68746 3.68847 3.22701
# Velocity P-wave (km/s) = 4.60171 5.61375 5.13273
#
# Compressibility (1/GPa) = 0.03796056
#
# Stress axis : x y z
#
# Youngs Moduli (GPa) = 56.01515 118.33427 67.20859
#
# Poissons Ratio (x) = -0.16471 0.04567
# Poissons Ratio (y) = -0.07797 0.15614
# Poissons Ratio (z) = 0.03806 0.27491
#
# Static dielectric constant tensor:
#      x y z
#    x 1.829560 0.000000 0.000000 
#    y 0.000000 1.868840 0.000000 
#    z 0.000000 0.000000 2.120860 
# 
# From -- ./inp_files/39057.got.cif
#   From: 2010.05.17/outbox.cif.g08.bks.cpg/sg48_20_cif.got.tgz:39057.got - 2010.06.03 20:39:00.
