data_PCOD9391049
_publ_section_title
;
Structure prediction by ZEFSAII (Michael W. Deem and Ramdas Pophale) SiO2 
 PCOD9391049
Probable space group: P N N N
;
_chemical_formula_sum "Si O2"
_cell_formula_units_Z 34
_cell_length_a 15.809297
_cell_length_b 18.552730
_cell_length_c 5.106974
_cell_angle_alpha 90.000000
_cell_angle_beta 90.000000
_cell_angle_gamma 90.000000
_cell_volume 1497.904169
_symmetry_space_group_name_H-M "P N N N"
_symmetry_group_IT_number 48
_space_group.IT_coordinate_system_code '2'
_symmetry_cell_setting 'orthorhombic'
loop_
_space_group_symop_operation_xyz
x,y,z
1/2-x,1/2-y,z
x,1/2-y,1/2-z
1/2-x,y,1/2-z
-x,-y,-z
1/2+x,1/2+y,-z
-x,1/2+y,1/2+z
1/2+x,-y,1/2+z
loop_
_atom_site_type_symbol
_atom_site_label
_atom_site_fract_x
_atom_site_fract_y
_atom_site_fract_z
Si Si1 0.750000 0.250000 0.750000
Si Si2 0.924559 0.700923 0.007938
Si Si3 0.851464 0.555506 0.769030
Si Si4 0.647409 0.471278 0.238556
Si Si5 0.892479 0.178452 0.417551
O O1 0.810295 0.195409 0.589995
O O2 0.926218 0.750000 0.750000
O O3 0.875730 0.630756 0.903609
O O4 0.019855 0.674893 0.076360
O O5 0.891931 0.750000 0.250000
O O6 0.750000 0.555025 0.750000
O O7 0.880976 0.527736 0.484174
O O8 0.881730 0.496588 0.976595
O O9 0.750000 0.470865 0.250000
O O10 0.617093 0.389296 0.224217
O O11 0.899052 0.250000 0.250000
#
# Coordination Sequence:
#
# PCOD9391049 Si02
#       5
#     2   8   8   8   8
#     4  12  22  40  64  94 132 182 236 268 350 412
#     4  11  24  44  66  96 135 172 222 284 338 401
#     4  10  23  42  65  95 128 172 224 277 342 402
#     4  10  22  39  64  94 131 172 222 279 329 401
#     4  11  25  39  64  96 135 177 229 273 338 406
#
# _framework density 22.698381999999999
#
# number of rings (size 3 to 8) (size 9 to 14) (size 15 to 20)
#    0.000    1.412    1.176    3.176    8.235    2.353 
#    0.000    1.176    0.000    0.000    0.000    0.000 
#    0.000    0.000    0.000    0.000    0.000    0.000 
#
# Total GULP energy -189768.093097 kJ/mol
# GULP energy per Si atom -5581.414503 kJ/mol
# Density = 2.264672 g / cm^3
# Si number density = 22.698382 Si / 1000 Ang^3
#
#
#
# Elastic Constant Matrix: (Units=GPa)
#
#
# Indices 1 2 3 4 5 6 
#
# 1 27.9309 23.6898 28.1452 0.0000 0.0000 0.0000
# 2 23.6898 137.3055 49.9104 0.0000 0.0000 0.0000
# 3 28.1452 49.9104 116.6721 0.0000 0.0000 0.0000
# 4 0.0000 0.0000 0.0000 47.8599 0.0000 0.0000
# 5 0.0000 0.0000 0.0000 0.0000 3.6716 0.0000
# 6 0.0000 0.0000 0.0000 0.0000 0.0000 -14.5238
#
#
#
# Elastic Compliance Matrix: (Units=1/GPa)
#
#
# Indices 1 2 3 4 5 6 
#
# 1 0.050073 -0.005031 -0.009927 0.000000 0.000000 0.000000
# 2 -0.005031 0.009129 -0.002692 0.000000 0.000000 0.000000
# 3 -0.009927 -0.002692 0.012117 0.000000 0.000000 0.000000
# 4 0.000000 0.000000 0.000000 0.020894 0.000000 0.000000
# 5 0.000000 0.000000 0.000000 0.000000 0.272359 0.000000
# 6 0.000000 0.000000 0.000000 0.000000 0.000000 -0.068852
#
#
# Mechanical properties :
#
#
# Convention : Reuss Voigt Hill
#
# Bulk Modulus (GPa) = 27.76223 53.93324 40.84774
# Shear Modulus (GPa) = 14.57612 19.41242 16.99427
#
# Velocity S-wave (km/s) = 2.53685 2.92761 2.73921
# Velocity P-wave (km/s) = 4.56490 5.93635 5.29521
#
# Compressibility (1/GPa) = 0.03602016
#
# Stress axis : x y z
#
# Youngs Moduli (GPa) = 19.97089 109.53509 82.52649
#
# Poissons Ratio (x) = 0.55104 0.81925
# Poissons Ratio (y) = 0.10047 0.22215
# Poissons Ratio (z) = 0.19825 0.29485
#
# Static dielectric constant tensor:
#      x y z
#    x 1.918600 0.000000 0.000000 
#    y 0.000000 1.760690 0.000000 
#    z 0.000000 0.000000 1.877450 
# 
# From -- ./inp_files/3072.got.cif
#   From: 2010.05.17/outbox.cif.g08.bks.cpg/sg48_2_cif.got.tgz:3072.got - 2010.06.03 20:39:00.
