data_PCOD9391400
_publ_section_title
;
Structure prediction by ZEFSAII (Michael W. Deem and Ramdas Pophale) SiO2 
 PCOD9391400
Probable space group: P N N N
;
_chemical_formula_sum "Si O2"
_cell_formula_units_Z 38
_cell_length_a 7.384748
_cell_length_b 8.136465
_cell_length_c 23.969036
_cell_angle_alpha 90.000000
_cell_angle_beta 90.000000
_cell_angle_gamma 90.000000
_cell_volume 1440.197352
_symmetry_space_group_name_H-M "P N N N"
_symmetry_group_IT_number 48
_space_group.IT_coordinate_system_code '2'
_symmetry_cell_setting 'orthorhombic'
loop_
_space_group_symop_operation_xyz
x,y,z
1/2-x,1/2-y,z
x,1/2-y,1/2-z
1/2-x,y,1/2-z
-x,-y,-z
1/2+x,1/2+y,-z
-x,1/2+y,1/2+z
1/2+x,-y,1/2+z
loop_
_atom_site_type_symbol
_atom_site_label
_atom_site_fract_x
_atom_site_fract_y
_atom_site_fract_z
Si Si1 0.966090 0.134252 0.644037
Si Si2 0.708337 0.442675 0.185630
Si Si3 0.050378 0.188921 0.017456
Si Si4 0.844047 0.898823 0.861644
Si Si5 0.250000 0.750000 0.250000
Si Si6 0.250000 0.750000 0.444656
O O1 0.881116 0.157948 0.705712
O O2 0.914916 0.280581 0.601647
O O3 0.828219 0.001460 0.617063
O O4 0.164505 0.062536 0.649661
O O5 0.750000 0.250000 0.174272
O O6 0.750000 0.472646 0.250000
O O7 0.497596 0.475078 0.176383
O O8 0.250000 0.250000 0.999921
O O9 0.897256 0.306604 0.991911
O O10 0.057217 0.174304 0.084222
O O11 0.000000 0.000000 0.000000
O O12 0.750000 0.750000 0.828470
#
# Coordination Sequence:
#
# PCOD9391400 Si02
#       6
#     8   8   8   8   2   4
#     4  11  23  45  67  98 138 180 229 281 356 422
#     4  11  24  41  68 103 134 178 233 290 352 416
#     4  11  26  45  69 104 139 186 237 291 355 426
#     4  11  23  43  68  99 139 179 232 292 348 417
#     4  10  24  44  68  96 140 186 222 290 348 432
#     4  11  26  43  72 100 139 186 231 288 354 430
#
# _framework density 26.385272000000001
#
# number of rings (size 3 to 8) (size 9 to 14) (size 15 to 20)
#    0.000    1.053    4.211    1.263    4.421    0.842 
#    0.000    8.947    0.000    0.000    0.000    0.000 
#    0.000    0.000    0.000    0.000    0.000    0.000 
#
# Total GULP energy -211680.079344 kJ/mol
# GULP energy per Si atom -5570.528404 kJ/mol
# Density = 2.632522 g / cm^3
# Si number density = 26.385272 Si / 1000 Ang^3
#
#
#
# Elastic Constant Matrix: (Units=GPa)
#
#
# Indices 1 2 3 4 5 6 
#
# 1 196.7408 26.4433 48.4659 0.0000 0.0000 0.0000
# 2 26.4433 69.8449 8.2181 0.0000 0.0000 0.0000
# 3 48.4659 8.2181 134.7010 0.0000 0.0000 0.0000
# 4 0.0000 0.0000 0.0000 23.8950 0.0000 0.0000
# 5 0.0000 0.0000 0.0000 0.0000 53.7545 0.0000
# 6 0.0000 0.0000 0.0000 0.0000 0.0000 55.1429
#
#
#
# Elastic Compliance Matrix: (Units=1/GPa)
#
#
# Indices 1 2 3 4 5 6 
#
# 1 0.005836 -0.001977 -0.001979 0.000000 0.000000 0.000000
# 2 -0.001977 0.015090 -0.000209 0.000000 0.000000 0.000000
# 3 -0.001979 -0.000209 0.008149 0.000000 0.000000 0.000000
# 4 0.000000 0.000000 0.000000 0.041850 0.000000 0.000000
# 5 0.000000 0.000000 0.000000 0.000000 0.018603 0.000000
# 6 0.000000 0.000000 0.000000 0.000000 0.000000 0.018135
#
#
# Mechanical properties :
#
#
# Convention : Reuss Voigt Hill
#
# Bulk Modulus (GPa) = 48.20537 63.06012 55.63275
# Shear Modulus (GPa) = 40.68066 47.76909 44.22487
#
# Velocity S-wave (km/s) = 3.93083 4.25955 4.09849
# Velocity P-wave (km/s) = 6.23790 6.93854 6.59752
#
# Compressibility (1/GPa) = 0.02074458
#
# Stress axis : x y z
#
# Youngs Moduli (GPa) = 171.34784 66.26708 122.71791
#
# Poissons Ratio (x) = 0.13099 0.24289
# Poissons Ratio (y) = 0.33870 0.02570
# Poissons Ratio (z) = 0.33914 0.01388
#
# Static dielectric constant tensor:
#      x y z
#    x 2.027230 0.000000 0.000000 
#    y 0.000000 1.749200 0.000000 
#    z 0.000000 0.000000 2.051340 
# 
# From -- ./inp_files/36990.got.cif
#   From: 2010.05.17/outbox.cif.g08.bks.cpg/sg48_19_cif.got.tgz:36990.got - 2010.06.03 20:39:00.
