data_PCOD9391104
_publ_section_title
;
Structure prediction by ZEFSAII (Michael W. Deem and Ramdas Pophale) SiO2 
 PCOD9391104
Probable space group: P N N N
;
_chemical_formula_sum "Si O2"
_cell_formula_units_Z 64
_cell_length_a 8.778082
_cell_length_b 19.049526
_cell_length_c 16.427164
_cell_angle_alpha 90.000000
_cell_angle_beta 90.000000
_cell_angle_gamma 90.000000
_cell_volume 2746.922459
_symmetry_space_group_name_H-M "P N N N"
_symmetry_group_IT_number 48
_space_group.IT_coordinate_system_code '2'
_symmetry_cell_setting 'orthorhombic'
loop_
_space_group_symop_operation_xyz
x,y,z
1/2-x,1/2-y,z
x,1/2-y,1/2-z
1/2-x,y,1/2-z
-x,-y,-z
1/2+x,1/2+y,-z
-x,1/2+y,1/2+z
1/2+x,-y,1/2+z
loop_
_atom_site_type_symbol
_atom_site_label
_atom_site_fract_x
_atom_site_fract_y
_atom_site_fract_z
Si Si1 0.577804 0.491821 0.214720
Si Si2 0.351280 0.505804 0.442789
Si Si3 0.126055 0.111588 0.317897
Si Si4 0.955302 0.297912 0.566263
Si Si5 0.577047 0.652256 0.220688
Si Si6 0.129814 0.915497 0.947180
Si Si7 0.123994 0.659893 0.124052
Si Si8 0.327250 0.677702 0.660893
O O1 0.750000 0.492221 0.250000
O O2 0.479415 0.448057 0.277182
O O3 0.530074 0.571719 0.206134
O O4 0.555954 0.453825 0.128758
O O5 0.500000 0.500000 0.500000
O O6 0.321206 0.432335 0.396597
O O7 0.199607 0.527854 0.491714
O O8 0.387555 0.576656 0.390668
O O9 0.250000 0.130182 0.250000
O O10 0.008956 0.175261 0.333273
O O11 0.958765 0.352008 0.491468
O O12 0.943361 0.213876 0.555471
O O13 0.802173 0.321397 0.616296
O O14 0.081480 0.311650 0.633109
O O15 0.750000 0.654649 0.250000
O O16 0.462152 0.677413 0.291874
O O17 0.276268 0.879011 0.904638
O O18 0.250000 0.750000 0.634766
O O19 0.250000 0.663629 0.750000
#
# Coordination Sequence:
#
# PCOD9391104 Si02
#       8
#     8   8   8   8   8   8   8   8
#     4  11  21  42  65  93 133 184 234 277 343 440
#     4  11  22  37  65 104 136 180 225 293 358 411
#     4  12  24  42  68 105 141 175 235 301 357 415
#     4  10  24  40  62  96 129 177 233 292 336 416
#     4  11  24  39  65  91 133 181 228 281 346 424
#     4  11  22  39  68  98 137 175 240 285 344 425
#     4  10  22  41  64  92 131 178 228 277 344 420
#     4  11  23  44  74  96 128 191 239 273 346 440
#
# _framework density 23.298802999999999
#
# number of rings (size 3 to 8) (size 9 to 14) (size 15 to 20)
#    0.000    1.125    5.000    0.750    8.750    2.500 
#    0.000    1.250    0.000    1.500    0.000    0.000 
#    0.000    0.000    0.000    0.000    0.000    0.000 
#
# Total GULP energy -357470.180172 kJ/mol
# GULP energy per Si atom -5585.471565 kJ/mol
# Density = 2.324577 g / cm^3
# Si number density = 23.298803 Si / 1000 Ang^3
#
#
#
# Elastic Constant Matrix: (Units=GPa)
#
#
# Indices 1 2 3 4 5 6 
#
# 1 44.2297 16.0052 2.7347 0.0000 0.0000 0.0000
# 2 16.0052 88.6420 21.0931 0.0000 0.0000 0.0000
# 3 2.7347 21.0931 82.8071 0.0000 0.0000 0.0000
# 4 0.0000 0.0000 0.0000 40.7037 0.0000 0.0000
# 5 0.0000 0.0000 0.0000 0.0000 31.9857 0.0000
# 6 0.0000 0.0000 0.0000 0.0000 0.0000 21.7567
#
#
#
# Elastic Compliance Matrix: (Units=1/GPa)
#
#
# Indices 1 2 3 4 5 6 
#
# 1 0.024198 -0.004449 0.000334 0.000000 0.000000 0.000000
# 2 -0.004449 0.012827 -0.003120 0.000000 0.000000 0.000000
# 3 0.000334 -0.003120 0.012860 0.000000 0.000000 0.000000
# 4 0.000000 0.000000 0.000000 0.024568 0.000000 0.000000
# 5 0.000000 0.000000 0.000000 0.000000 0.031264 0.000000
# 6 0.000000 0.000000 0.000000 0.000000 0.000000 0.045963
#
#
# Mechanical properties :
#
#
# Convention : Reuss Voigt Hill
#
# Bulk Modulus (GPa) = 28.23639 32.81611 30.52625
# Shear Modulus (GPa) = 28.09686 30.61227 29.35457
#
# Velocity S-wave (km/s) = 3.47643 3.62871 3.55338
# Velocity P-wave (km/s) = 5.31598 5.62780 5.47411
#
# Compressibility (1/GPa) = 0.03541529
#
# Stress axis : x y z
#
# Youngs Moduli (GPa) = 41.32498 77.95967 77.75994
#
# Poissons Ratio (x) = 0.34682 -0.02598
# Poissons Ratio (y) = 0.18385 0.24265
# Poissons Ratio (z) = -0.01381 0.24327
#
# Static dielectric constant tensor:
#      x y z
#    x 1.916930 0.000000 0.000000 
#    y 0.000000 1.921560 0.000000 
#    z 0.000000 0.000000 1.949820 
# 
# From -- ./inp_files/30592.got.cif
#   From: 2010.05.17/outbox.cif.g08.bks.cpg/sg48_16_cif.got.tgz:30592.got - 2010.06.03 20:39:00.
