data_PCOD9391194
_publ_section_title
;
Structure prediction by ZEFSAII (Michael W. Deem and Ramdas Pophale) SiO2 
 PCOD9391194
Probable space group: P N N N
;
_chemical_formula_sum "Si O2"
_cell_formula_units_Z 48
_cell_length_a 25.262454
_cell_length_b 11.742287
_cell_length_c 7.141023
_cell_angle_alpha 90.000000
_cell_angle_beta 90.000000
_cell_angle_gamma 90.000000
_cell_volume 2118.305816
_symmetry_space_group_name_H-M "P N N N"
_symmetry_group_IT_number 48
_space_group.IT_coordinate_system_code '2'
_symmetry_cell_setting 'orthorhombic'
loop_
_space_group_symop_operation_xyz
x,y,z
1/2-x,1/2-y,z
x,1/2-y,1/2-z
1/2-x,y,1/2-z
-x,-y,-z
1/2+x,1/2+y,-z
-x,1/2+y,1/2+z
1/2+x,-y,1/2+z
loop_
_atom_site_type_symbol
_atom_site_label
_atom_site_fract_x
_atom_site_fract_y
_atom_site_fract_z
Si Si1 0.618781 0.839127 0.464827
Si Si2 0.250000 0.007399 0.250000
Si Si3 0.483704 0.053675 0.696644
Si Si4 0.370669 0.750000 0.750000
Si Si5 0.800726 0.037945 0.121244
Si Si6 0.142273 0.100644 0.385131
Si Si7 0.931740 0.395904 0.993136
O O1 0.565065 0.865493 0.356652
O O2 0.614564 0.872761 0.685567
O O3 0.664096 0.924053 0.390403
O O4 0.633532 0.793459 0.023142
O O5 0.279343 0.937803 0.411906
O O6 0.204290 0.083106 0.345303
O O7 0.530838 0.112130 0.812937
O O8 0.500000 0.000000 0.500000
O O9 0.464159 0.953720 0.836362
O O10 0.335168 0.641803 0.801940
O O11 0.407013 0.718929 0.572726
O O12 0.750000 0.020652 0.250000
O O13 0.115569 0.984902 0.453514
#
# Coordination Sequence:
#
# PCOD9391194 Si02
#       7
#     8   4   8   4   8   8   8
#     4  10  22  45  74 108 147 183 246 311 379 443
#     4  10  24  45  75 106 146 192 247 307 376 444
#     4  11  23  49  74 106 141 190 246 302 373 444
#     4  12  25  50  72 104 152 200 246 309 366 452
#     4  11  24  47  73 103 148 196 252 309 370 442
#     4  10  22  45  75 109 147 190 242 312 377 449
#     4  11  25  47  74 105 148 192 247 304 371 449
#
# _framework density 22.659617000000001
#
# number of rings (size 3 to 8) (size 9 to 14) (size 15 to 20)
#    0.000    1.333    3.333    1.250    0.000    6.000 
#    9.000   20.000    0.000    0.000    0.000    0.000 
#    0.000    0.000    0.000    0.000    0.000    0.000 
#
# Total GULP energy -268780.649510 kJ/mol
# GULP energy per Si atom -5599.596865 kJ/mol
# Density = 2.260804 g / cm^3
# Si number density = 22.659617 Si / 1000 Ang^3
#
#
#
# Elastic Constant Matrix: (Units=GPa)
#
#
# Indices 1 2 3 4 5 6 
#
# 1 165.3206 68.9346 83.3424 0.0000 0.0000 0.0000
# 2 68.9346 88.6951 59.0273 0.0000 0.0000 0.0000
# 3 83.3424 59.0273 148.4045 0.0000 0.0000 0.0000
# 4 0.0000 0.0000 0.0000 37.5752 0.0000 0.0000
# 5 0.0000 0.0000 0.0000 0.0000 58.9148 0.0000
# 6 0.0000 0.0000 0.0000 0.0000 0.0000 -36.6139
#
#
#
# Elastic Compliance Matrix: (Units=1/GPa)
#
#
# Indices 1 2 3 4 5 6 
#
# 1 0.010113 -0.005549 -0.003472 0.000000 0.000000 0.000000
# 2 -0.005549 0.018378 -0.004193 0.000000 0.000000 0.000000
# 3 -0.003472 -0.004193 0.010356 0.000000 0.000000 0.000000
# 4 0.000000 0.000000 0.000000 0.026613 0.000000 0.000000
# 5 0.000000 0.000000 0.000000 0.000000 0.016974 0.000000
# 6 0.000000 0.000000 0.000000 0.000000 0.000000 -0.027312
#
#
# Mechanical properties :
#
#
# Convention : Reuss Voigt Hill
#
# Bulk Modulus (GPa) = 80.52989 91.66986 86.09988
# Shear Modulus (GPa) = 58.34844 24.71627 41.53235
#
# Velocity S-wave (km/s) = 5.07995 3.30625 4.28586
# Velocity P-wave (km/s) = 8.36803 7.42415 7.91018
#
# Compressibility (1/GPa) = 0.01241775
#
# Stress axis : x y z
#
# Youngs Moduli (GPa) = 98.88043 54.41198 96.55971
#
# Poissons Ratio (x) = 0.30195 0.33528
# Poissons Ratio (y) = 0.54871 0.40492
# Poissons Ratio (z) = 0.34334 0.22818
#
# Static dielectric constant tensor:
#      x y z
#    x 1.835530 0.000000 0.000000 
#    y 0.000000 1.814200 0.000000 
#    z 0.000000 0.000000 1.895820 
# 
# From -- ./inp_files/6499.got.cif
#   From: 2010.05.17/outbox.cif.g08.bks.cpg/sg48_4_cif.got.tgz:6499.got - 2010.06.03 20:39:00.
