data_PCOD9391749
_publ_section_title
;
Structure prediction by ZEFSAII (Michael W. Deem and Ramdas Pophale) SiO2 
 PCOD9391749
Probable space group: P N N N
;
_chemical_formula_sum "Si O2"
_cell_formula_units_Z 38
_cell_length_a 7.689291
_cell_length_b 14.187005
_cell_length_c 14.760930
_cell_angle_alpha 90.000000
_cell_angle_beta 90.000000
_cell_angle_gamma 90.000000
_cell_volume 1610.240477
_symmetry_space_group_name_H-M "P N N N"
_symmetry_group_IT_number 48
_space_group.IT_coordinate_system_code '2'
_symmetry_cell_setting 'orthorhombic'
loop_
_space_group_symop_operation_xyz
x,y,z
1/2-x,1/2-y,z
x,1/2-y,1/2-z
1/2-x,y,1/2-z
-x,-y,-z
1/2+x,1/2+y,-z
-x,1/2+y,1/2+z
1/2+x,-y,1/2+z
loop_
_atom_site_type_symbol
_atom_site_label
_atom_site_fract_x
_atom_site_fract_y
_atom_site_fract_z
Si Si1 0.750000 0.750000 0.967355
Si Si2 0.750000 0.250000 0.250000
Si Si3 0.970560 0.910865 0.315473
Si Si4 0.990706 0.385117 0.131357
Si Si5 0.415829 0.123348 0.612687
Si Si6 0.232583 0.860274 0.463262
O O1 0.657519 0.828917 0.906156
O O2 0.617753 0.703342 0.037979
O O3 0.874375 0.315520 0.190741
O O4 0.780935 0.912329 0.364928
O O5 0.967924 0.862492 0.217466
O O6 0.108980 0.859470 0.376844
O O7 0.025726 0.020581 0.312079
O O8 0.873166 0.409475 0.043627
O O9 0.592544 0.083572 0.566013
O O10 0.250000 0.750000 0.490433
#
# Coordination Sequence:
#
# PCOD9391749 Si02
#       6
#     4   2   8   8   8   8
#     4  12  24  48  78 106 150 196 252 299 377 450
#     4  12  24  50  76  96 154 204 252 300 378 444
#     4  11  26  45  70 110 153 182 247 314 365 445
#     4  12  26  51  70 108 147 198 246 311 368 445
#     4  11  23  44  74 110 140 199 237 308 371 437
#     4  12  23  45  74 107 144 195 245 302 374 448
#
# _framework density 23.598960000000002
#
# number of rings (size 3 to 8) (size 9 to 14) (size 15 to 20)
#    0.000    0.421    5.263    2.526    0.000    8.000 
#   11.368    0.000    0.000    0.000    0.000    0.000 
#    0.000    0.000    0.000    0.000    0.000    0.000 
#
# Total GULP energy -211986.791784 kJ/mol
# GULP energy per Si atom -5578.599784 kJ/mol
# Density = 2.354525 g / cm^3
# Si number density = 23.598960 Si / 1000 Ang^3
#
#
#
# Elastic Constant Matrix: (Units=GPa)
#
#
# Indices 1 2 3 4 5 6 
#
# 1 106.9916 6.6460 27.8690 0.0000 0.0000 0.0000
# 2 6.6460 66.1632 21.5496 0.0000 0.0000 0.0000
# 3 27.8690 21.5496 57.6845 0.0000 0.0000 0.0000
# 4 0.0000 0.0000 0.0000 -17.5860 0.0000 0.0000
# 5 0.0000 0.0000 0.0000 0.0000 14.6280 0.0000
# 6 0.0000 0.0000 0.0000 0.0000 0.0000 -188.2229
#
#
#
# Elastic Compliance Matrix: (Units=1/GPa)
#
#
# Indices 1 2 3 4 5 6 
#
# 1 0.010720 0.000695 -0.005439 0.000000 0.000000 0.000000
# 2 0.000695 0.017253 -0.006781 0.000000 0.000000 0.000000
# 3 -0.005439 -0.006781 0.022496 0.000000 0.000000 0.000000
# 4 0.000000 0.000000 0.000000 -0.056863 0.000000 0.000000
# 5 0.000000 0.000000 0.000000 0.000000 0.068362 0.000000
# 6 0.000000 0.000000 0.000000 0.000000 0.000000 -0.005313
#
#
# Mechanical properties :
#
#
# Convention : Reuss Voigt Hill
#
# Bulk Modulus (GPa) = 36.47038 38.10763 37.28900
# Shear Modulus (GPa) = 56.27776 -26.58454 14.84661
#
# Velocity S-wave (km/s) = 4.88869 -3.36000 2.51095
# Velocity P-wave (km/s) = 6.88139 1.06315 4.92361
#
# Compressibility (1/GPa) = 0.02741951
#
# Stress axis : x y z
#
# Youngs Moduli (GPa) = 93.28332 57.96114 44.45153
#
# Poissons Ratio (x) = -0.04026 0.24176
# Poissons Ratio (y) = -0.06479 0.30142
# Poissons Ratio (z) = 0.50733 0.39303
#
# Static dielectric constant tensor:
#      x y z
#    x 1.978510 0.000000 0.000000 
#    y 0.000000 1.933920 0.000000 
#    z 0.000000 0.000000 -0.285200 
# 
# From -- ./inp_files/25047.got.cif
#   From: 2010.05.17/outbox.cif.g08.bks.cpg/sg48_13_cif.got.tgz:25047.got - 2010.06.03 20:39:00.
