data_PCOD9391094
_publ_section_title
;
Structure prediction by ZEFSAII (Michael W. Deem and Ramdas Pophale) SiO2 
 PCOD9391094
Probable space group: P N N N
;
_chemical_formula_sum "Si O2"
_cell_formula_units_Z 40
_cell_length_a 15.642185
_cell_length_b 8.807768
_cell_length_c 12.049192
_cell_angle_alpha 90.000000
_cell_angle_beta 90.000000
_cell_angle_gamma 90.000000
_cell_volume 1660.050154
_symmetry_space_group_name_H-M "P N N N"
_symmetry_group_IT_number 48
_space_group.IT_coordinate_system_code '2'
_symmetry_cell_setting 'orthorhombic'
loop_
_space_group_symop_operation_xyz
x,y,z
1/2-x,1/2-y,z
x,1/2-y,1/2-z
1/2-x,y,1/2-z
-x,-y,-z
1/2+x,1/2+y,-z
-x,1/2+y,1/2+z
1/2+x,-y,1/2+z
loop_
_atom_site_type_symbol
_atom_site_label
_atom_site_fract_x
_atom_site_fract_y
_atom_site_fract_z
Si Si1 0.042136 0.490318 0.377277
Si Si2 0.967894 0.315409 0.081186
Si Si3 0.741475 0.572221 0.910074
Si Si4 0.714328 0.081584 0.130228
Si Si5 0.913345 0.076851 0.642439
O O1 0.143352 0.469039 0.392357
O O2 0.041974 0.586102 0.262383
O O3 0.000000 0.500000 0.500000
O O4 0.993496 0.332645 0.351748
O O5 0.938485 0.297123 0.950368
O O6 0.886841 0.399364 0.132328
O O7 0.049618 0.423692 0.085885
O O8 0.750000 0.750000 0.880821
O O9 0.812002 0.461085 0.852184
O O10 0.759752 0.540497 0.039458
O O11 0.750000 0.250000 0.098431
O O12 0.750000 0.044446 0.250000
#
# Coordination Sequence:
#
# PCOD9391094 Si02
#       5
#     8   8   8   8   8
#     4  12  25  39  68 100 131 170 227 282 333 404
#     4  10  22  41  62  92 128 172 219 267 333 403
#     4  11  23  43  64 100 130 175 226 277 339 401
#     4  10  23  40  64  91 133 178 220 271 341 406
#     4  10  23  42  65  90 132 173 215 271 335 402
#
# _framework density 24.095658
#
# number of rings (size 3 to 8) (size 9 to 14) (size 15 to 20)
#    0.000    1.400    2.000    2.400    8.400    2.000 
#    0.000    2.000    0.000    3.600    0.000    0.000 
#    0.000    0.000    0.000    0.000    0.000    0.000 
#
# Total GULP energy -223219.653667 kJ/mol
# GULP energy per Si atom -5580.491342 kJ/mol
# Density = 2.404082 g / cm^3
# Si number density = 24.095658 Si / 1000 Ang^3
#
#
#
# Elastic Constant Matrix: (Units=GPa)
#
#
# Indices 1 2 3 4 5 6 
#
# 1 129.1590 12.6471 77.4468 0.0000 0.0000 0.0000
# 2 12.6471 55.1204 43.2284 0.0000 0.0000 0.0000
# 3 77.4468 43.2284 194.0558 0.0000 0.0000 0.0000
# 4 0.0000 0.0000 0.0000 31.2276 0.0000 0.0000
# 5 0.0000 0.0000 0.0000 0.0000 33.2200 0.0000
# 6 0.0000 0.0000 0.0000 0.0000 0.0000 19.4993
#
#
#
# Elastic Compliance Matrix: (Units=1/GPa)
#
#
# Indices 1 2 3 4 5 6 
#
# 1 0.010227 0.001035 -0.004312 0.000000 0.000000 0.000000
# 2 0.001035 0.022087 -0.005333 0.000000 0.000000 0.000000
# 3 -0.004312 -0.005333 0.008062 0.000000 0.000000 0.000000
# 4 0.000000 0.000000 0.000000 0.032023 0.000000 0.000000
# 5 0.000000 0.000000 0.000000 0.000000 0.030102 0.000000
# 6 0.000000 0.000000 0.000000 0.000000 0.000000 0.051284
#
#
# Mechanical properties :
#
#
# Convention : Reuss Voigt Hill
#
# Bulk Modulus (GPa) = 43.18576 71.66440 57.42508
# Shear Modulus (GPa) = 27.97606 33.12355 30.54981
#
# Velocity S-wave (km/s) = 3.41110 3.71168 3.56456
# Velocity P-wave (km/s) = 5.78582 6.94081 6.38947
#
# Compressibility (1/GPa) = 0.02315578
#
# Stress axis : x y z
#
# Youngs Moduli (GPa) = 97.78412 45.27487 124.03646
#
# Poissons Ratio (x) = -0.04687 0.53485
# Poissons Ratio (y) = -0.10123 0.66154
# Poissons Ratio (z) = 0.42165 0.24147
#
# Static dielectric constant tensor:
#      x y z
#    x 1.892480 0.000000 0.000000 
#    y 0.000000 1.957500 0.000000 
#    z 0.000000 0.000000 34.364870 
# 
# From -- ./inp_files/20962.got.cif
#   From: 2010.05.17/outbox.cif.g08.bks.cpg/sg48_11_cif.got.tgz:20962.got - 2010.06.03 20:39:00.
