data_PCOD9391346
_publ_section_title
;
Structure prediction by ZEFSAII (Michael W. Deem and Ramdas Pophale) SiO2 
 PCOD9391346
Probable space group: P N N N
;
_chemical_formula_sum "Si O2"
_cell_formula_units_Z 64
_cell_length_a 9.773967
_cell_length_b 27.381701
_cell_length_c 14.578431
_cell_angle_alpha 90.000000
_cell_angle_beta 90.000000
_cell_angle_gamma 90.000000
_cell_volume 3901.594028
_symmetry_space_group_name_H-M "P N N N"
_symmetry_group_IT_number 48
_space_group.IT_coordinate_system_code '2'
_symmetry_cell_setting 'orthorhombic'
loop_
_space_group_symop_operation_xyz
x,y,z
1/2-x,1/2-y,z
x,1/2-y,1/2-z
1/2-x,y,1/2-z
-x,-y,-z
1/2+x,1/2+y,-z
-x,1/2+y,1/2+z
1/2+x,-y,1/2+z
loop_
_atom_site_type_symbol
_atom_site_label
_atom_site_fract_x
_atom_site_fract_y
_atom_site_fract_z
Si Si1 0.483541 0.132222 0.581685
Si Si2 0.086942 0.545994 0.957952
Si Si3 0.086687 0.931091 0.250441
Si Si4 0.773854 0.193031 0.858415
Si Si5 0.769772 0.692082 0.139351
Si Si6 0.972815 0.133329 0.577157
Si Si7 0.088947 0.546678 0.539432
Si Si8 0.597530 0.478843 0.248539
O O1 0.520436 0.096751 0.665662
O O2 0.579486 0.178409 0.603843
O O3 0.334395 0.155142 0.588969
O O4 0.523967 0.097327 0.497425
O O5 0.248710 0.542695 0.988650
O O6 0.088344 0.546567 0.847380
O O7 0.021867 0.597163 0.991306
O O8 0.000000 0.500000 0.000000
O O9 0.250000 0.929639 0.250000
O O10 0.030112 0.904913 0.339773
O O11 0.028630 0.984756 0.247828
O O12 0.750000 0.250000 0.866655
O O13 0.750000 0.180743 0.750000
O O14 0.669914 0.161522 0.917918
O O15 0.750000 0.750000 0.121330
O O16 0.750000 0.685723 0.250000
O O17 0.915160 0.673567 0.102699
O O18 0.089279 0.547491 0.650301
O O19 0.000000 0.500000 0.500000
O O20 0.750000 0.503333 0.250000
#
# Coordination Sequence:
#
# PCOD9391346 Si02
#       8
#     8   8   8   8   8   8   8   8
#     4  12  21  36  55  79 113 154 183 221 276 331
#     4  11  23  37  56  82 112 149 189 226 271 329
#     4  12  20  32  51  83 115 145 185 224 269 323
#     4  11  20  34  55  81 109 139 181 232 281 331
#     4  11  24  38  55  83 117 149 185 228 277 337
#     4  12  21  36  55  79 113 154 183 221 276 331
#     4  11  23  37  56  82 112 149 189 226 271 329
#     4  10  24  38  54  79 114 151 190 228 266 321
#
# _framework density 16.403552999999999
#
# number of rings (size 3 to 8) (size 9 to 14) (size 15 to 20)
#    0.000    0.750    7.500    0.750    3.500    2.000 
#    0.000    0.000    0.000    0.000    0.000    5.250 
#    0.000    0.000    0.000    0.000    0.000    0.000 
#
# Total GULP energy -356581.311569 kJ/mol
# GULP energy per Si atom -5571.582993 kJ/mol
# Density = 1.636622 g / cm^3
# Si number density = 16.403553 Si / 1000 Ang^3
#
#
#
# Elastic Constant Matrix: (Units=GPa)
#
#
# Indices 1 2 3 4 5 6 
#
# 1 25.2226 0.5738 9.0886 0.0000 0.0000 0.0000
# 2 0.5738 74.7301 29.0810 0.0000 0.0000 0.0000
# 3 9.0886 29.0810 81.0320 0.0000 0.0000 0.0000
# 4 0.0000 0.0000 0.0000 33.9088 0.0000 0.0000
# 5 0.0000 0.0000 0.0000 0.0000 46.8451 0.0000
# 6 0.0000 0.0000 0.0000 0.0000 0.0000 -317.1330
#
#
#
# Elastic Compliance Matrix: (Units=1/GPa)
#
#
# Indices 1 2 3 4 5 6 
#
# 1 0.041509 0.001735 -0.005279 0.000000 0.000000 0.000000
# 2 0.001735 0.015626 -0.005803 0.000000 0.000000 0.000000
# 3 -0.005279 -0.005803 0.015015 0.000000 0.000000 0.000000
# 4 0.000000 0.000000 0.000000 0.029491 0.000000 0.000000
# 5 0.000000 0.000000 0.000000 0.000000 0.021347 0.000000
# 6 0.000000 0.000000 0.000000 0.000000 0.000000 -0.003153
#
#
# Mechanical properties :
#
#
# Convention : Reuss Voigt Hill
#
# Bulk Modulus (GPa) = 18.70575 28.71906 23.71241
# Shear Modulus (GPa) = 31.98014 -37.79309 -2.90647
#
# Velocity S-wave (km/s) = 4.42020 -4.80516 -1.33256
# Velocity P-wave (km/s) = 6.12202 3.63872 3.48130
#
# Compressibility (1/GPa) = 0.05345949
#
# Stress axis : x y z
#
# Youngs Moduli (GPa) = 24.09088 63.99488 66.59865
#
# Poissons Ratio (x) = -0.11106 0.35154
# Poissons Ratio (y) = -0.04181 0.38645
# Poissons Ratio (z) = 0.12716 0.37134
#
# Static dielectric constant tensor:
#      x y z
#    x 1.579910 0.000000 0.000000 
#    y 0.000000 1.550080 0.000000 
#    z 0.000000 0.000000 1.745830 
# 
# From -- ./inp_files/25742.got.cif
#   From: 2010.05.17/outbox.cif.g08.bks.cpg/sg48_13_cif.got.tgz:25742.got - 2010.06.03 20:39:00.
