data_PCOD9391588
_publ_section_title
;
Structure prediction by ZEFSAII (Michael W. Deem and Ramdas Pophale) SiO2 
 PCOD9391588
Probable space group: P N N N
;
_chemical_formula_sum "Si O2"
_cell_formula_units_Z 54
_cell_length_a 5.645385
_cell_length_b 15.568863
_cell_length_c 32.325843
_cell_angle_alpha 90.000000
_cell_angle_beta 90.000000
_cell_angle_gamma 90.000000
_cell_volume 2841.190287
_symmetry_space_group_name_H-M "P N N N"
_symmetry_group_IT_number 48
_space_group.IT_coordinate_system_code '2'
_symmetry_cell_setting 'orthorhombic'
loop_
_space_group_symop_operation_xyz
x,y,z
1/2-x,1/2-y,z
x,1/2-y,1/2-z
1/2-x,y,1/2-z
-x,-y,-z
1/2+x,1/2+y,-z
-x,1/2+y,1/2+z
1/2+x,-y,1/2+z
loop_
_atom_site_type_symbol
_atom_site_label
_atom_site_fract_x
_atom_site_fract_y
_atom_site_fract_z
Si Si1 0.045426 0.818929 0.490757
Si Si2 0.140571 0.157907 0.294690
Si Si3 0.250000 0.750000 0.750000
Si Si4 0.288618 0.157578 0.432348
Si Si5 0.674998 0.456139 0.031556
Si Si6 0.188542 0.065128 0.887414
Si Si7 0.250000 0.250000 0.915890
Si Si8 0.822615 0.980471 0.633531
O O1 0.250000 0.750000 0.501411
O O2 0.151112 0.912452 0.498619
O O3 0.835618 0.827207 0.523814
O O4 0.948825 0.788864 0.446719
O O5 0.250000 0.250000 0.308008
O O6 0.250000 0.135002 0.250000
O O7 0.879401 0.185630 0.281504
O O8 0.175074 0.083612 0.327436
O O9 0.250000 0.250000 0.410783
O O10 0.549745 0.121159 0.442022
O O11 0.163555 0.082805 0.406354
O O12 0.727915 0.526797 0.066264
O O13 0.500000 0.500000 0.000000
O O14 0.165309 0.167885 0.890217
O O15 0.436314 0.037230 0.865374
O O16 0.935616 0.027212 0.870819
#
# Coordination Sequence:
#
# PCOD9391588 Si02
#       8
#     8   8   2   8   8   8   4   8
#     4  12  21  36  58  78 112 157 214 270 328 382
#     4   9  20  39  67 106 142 177 206 240 304 390
#     4   8  18  36  68 102 144 182 202 228 294 384
#     4  11  21  37  50  85 115 158 202 254 314 377
#     4  11  23  38  56  80 111 155 216 276 327 380
#     4  11  27  43  62  89 122 168 219 276 334 379
#     4  12  28  42  60  84 115 170 227 282 344 380
#     4  11  25  43  64  94 132 166 210 262 317 384
#
# _framework density 19.006119000000002
#
# number of rings (size 3 to 8) (size 9 to 14) (size 15 to 20)
#    0.000    1.333    3.704    2.222   10.370    1.185 
#    1.333    0.000    0.000    0.000    0.000    3.111 
#    0.000    0.000    0.000    0.000    0.000    0.000 
#
# Total GULP energy -300663.942529 kJ/mol
# GULP energy per Si atom -5567.850788 kJ/mol
# Density = 1.896286 g / cm^3
# Si number density = 19.006119 Si / 1000 Ang^3
#
#
#
# Elastic Constant Matrix: (Units=GPa)
#
#
# Indices 1 2 3 4 5 6 
#
# 1 87.2624 61.4032 26.3398 0.0000 0.0000 0.0000
# 2 61.4032 150.5411 45.9045 0.0000 0.0000 0.0000
# 3 26.3398 45.9045 76.3470 0.0000 0.0000 0.0000
# 4 0.0000 0.0000 0.0000 44.9558 0.0000 0.0000
# 5 0.0000 0.0000 0.0000 0.0000 74.9380 0.0000
# 6 0.0000 0.0000 0.0000 0.0000 0.0000 50.0165
#
#
#
# Elastic Compliance Matrix: (Units=1/GPa)
#
#
# Indices 1 2 3 4 5 6 
#
# 1 0.016317 -0.006048 -0.001993 0.000000 0.000000 0.000000
# 2 -0.006048 0.010375 -0.004152 0.000000 0.000000 0.000000
# 3 -0.001993 -0.004152 0.016282 0.000000 0.000000 0.000000
# 4 0.000000 0.000000 0.000000 0.022244 0.000000 0.000000
# 5 0.000000 0.000000 0.000000 0.000000 0.013344 0.000000
# 6 0.000000 0.000000 0.000000 0.000000 0.000000 0.019993
#
#
# Mechanical properties :
#
#
# Convention : Reuss Voigt Hill
#
# Bulk Modulus (GPa) = 53.79513 64.60507 59.20010
# Shear Modulus (GPa) = 38.71834 46.01559 42.36696
#
# Velocity S-wave (km/s) = 4.51838 4.92580 4.72648
# Velocity P-wave (km/s) = 7.45564 8.14965 7.81036
#
# Compressibility (1/GPa) = 0.01858904
#
# Stress axis : x y z
#
# Youngs Moduli (GPa) = 61.28679 96.38139 61.41705
#
# Poissons Ratio (x) = 0.58287 0.12241
# Poissons Ratio (y) = 0.37063 0.25500
# Poissons Ratio (z) = 0.12215 0.40017
#
# Static dielectric constant tensor:
#      x y z
#    x 1.735520 0.000000 0.000000 
#    y 0.000000 1.682290 0.000000 
#    z 0.000000 0.000000 1.631940 
# 
# From -- ./inp_files/38376.got.cif
#   From: 2010.05.17/outbox.cif.g08.bks.cpg/sg48_20_cif.got.tgz:38376.got - 2010.06.03 20:39:00.
