data_PCOD9391088
_publ_section_title
;
Structure prediction by ZEFSAII (Michael W. Deem and Ramdas Pophale) SiO2 
 PCOD9391088
Probable space group: P N N N
;
_chemical_formula_sum "Si O2"
_cell_formula_units_Z 40
_cell_length_a 12.069958
_cell_length_b 16.601657
_cell_length_c 8.980572
_cell_angle_alpha 90.000000
_cell_angle_beta 90.000000
_cell_angle_gamma 90.000000
_cell_volume 1799.538717
_symmetry_space_group_name_H-M "P N N N"
_symmetry_group_IT_number 48
_space_group.IT_coordinate_system_code '2'
_symmetry_cell_setting 'orthorhombic'
loop_
_space_group_symop_operation_xyz
x,y,z
1/2-x,1/2-y,z
x,1/2-y,1/2-z
1/2-x,y,1/2-z
-x,-y,-z
1/2+x,1/2+y,-z
-x,1/2+y,1/2+z
1/2+x,-y,1/2+z
loop_
_atom_site_type_symbol
_atom_site_label
_atom_site_fract_x
_atom_site_fract_y
_atom_site_fract_z
Si Si1 0.555014 0.750000 0.250000
Si Si2 0.355863 0.082420 0.668232
Si Si3 0.042968 0.750000 0.750000
Si Si4 0.643862 0.877416 0.676605
Si Si5 0.437662 0.527257 0.350086
Si Si6 0.860048 0.301091 0.953116
O O1 0.628599 0.828064 0.266237
O O2 0.469576 0.759067 0.114398
O O3 0.250000 0.044006 0.750000
O O4 0.341730 0.091311 0.491960
O O5 0.469895 0.042792 0.722720
O O6 0.961787 0.681357 0.684045
O O7 0.118666 0.794722 0.628595
O O8 0.750000 0.835292 0.750000
O O9 0.628942 0.952719 0.787102
O O10 0.500000 0.500000 0.500000
O O11 0.367743 0.608105 0.388057
O O12 0.750000 0.250000 0.916798
#
# Coordination Sequence:
#
# PCOD9391088 Si02
#       6
#     4   8   4   8   8   8
#     4  10  22  40  70  96 142 178 248 298 356 434
#     4  11  24  42  69 102 140 191 241 298 366 436
#     4  12  24  46  72 104 148 184 252 304 368 444
#     4  12  26  45  71 106 143 194 237 301 372 446
#     4  11  24  47  70 103 151 185 244 304 372 448
#     4  11  24  45  72 104 139 194 241 306 373 446
#
# _framework density 22.227919
#
# number of rings (size 3 to 8) (size 9 to 14) (size 15 to 20)
#    0.000    0.800    4.000    3.000    2.800    4.800 
#    7.200    0.000    0.000    0.000    0.000    0.000 
#    0.000    0.000    0.000    0.000    0.000    0.000 
#
# Total GULP energy -223585.049142 kJ/mol
# GULP energy per Si atom -5589.626229 kJ/mol
# Density = 2.217733 g / cm^3
# Si number density = 22.227919 Si / 1000 Ang^3
#
#
#
# Elastic Constant Matrix: (Units=GPa)
#
#
# Indices 1 2 3 4 5 6 
#
# 1 88.8587 62.8923 48.7239 0.0000 0.0000 0.0000
# 2 62.8923 98.2217 12.6383 0.0000 0.0000 0.0000
# 3 48.7239 12.6383 147.0378 0.0000 0.0000 0.0000
# 4 0.0000 0.0000 0.0000 13.5874 0.0000 0.0000
# 5 0.0000 0.0000 0.0000 0.0000 34.0596 0.0000
# 6 0.0000 0.0000 0.0000 0.0000 0.0000 -10.3030
#
#
#
# Elastic Compliance Matrix: (Units=1/GPa)
#
#
# Indices 1 2 3 4 5 6 
#
# 1 0.026857 -0.016231 -0.007504 0.000000 0.000000 0.000000
# 2 -0.016231 0.020104 0.003650 0.000000 0.000000 0.000000
# 3 -0.007504 0.003650 0.008974 0.000000 0.000000 0.000000
# 4 0.000000 0.000000 0.000000 0.073598 0.000000 0.000000
# 5 0.000000 0.000000 0.000000 0.000000 0.029360 0.000000
# 6 0.000000 0.000000 0.000000 0.000000 0.000000 -0.097060
#
#
# Mechanical properties :
#
#
# Convention : Reuss Voigt Hill
#
# Bulk Modulus (GPa) = 63.43189 64.73635 64.08412
# Shear Modulus (GPa) = 46.61662 21.45972 34.03817
#
# Velocity S-wave (km/s) = 4.58450 3.11052 3.91746
# Velocity P-wave (km/s) = 7.52479 6.48750 7.02531
#
# Compressibility (1/GPa) = 0.01576494
#
# Stress axis : x y z
#
# Youngs Moduli (GPa) = 37.23475 49.74090 111.43389
#
# Poissons Ratio (x) = 0.80734 0.83624
# Poissons Ratio (y) = 0.60436 -0.40678
# Poissons Ratio (z) = 0.27942 -0.18158
#
# Static dielectric constant tensor:
#      x y z
#    x 1.834650 0.000000 0.000000 
#    y 0.000000 1.783940 0.000000 
#    z 0.000000 0.000000 1.823050 
# 
# From -- ./inp_files/10741.got.cif
#   From: 2010.05.17/outbox.cif.g08.bks.cpg/sg48_6_cif.got.tgz:10741.got - 2010.06.03 20:39:00.
