data_PCOD9391846
_publ_section_title
;
Structure prediction by ZEFSAII (Michael W. Deem and Ramdas Pophale) SiO2 
 PCOD9391846
Probable space group: P N N N
;
_chemical_formula_sum "Si O2"
_cell_formula_units_Z 30
_cell_length_a 7.705609
_cell_length_b 11.321127
_cell_length_c 15.481532
_cell_angle_alpha 90.000000
_cell_angle_beta 90.000000
_cell_angle_gamma 90.000000
_cell_volume 1350.549683
_symmetry_space_group_name_H-M "P N N N"
_symmetry_group_IT_number 48
_space_group.IT_coordinate_system_code '2'
_symmetry_cell_setting 'orthorhombic'
loop_
_space_group_symop_operation_xyz
x,y,z
1/2-x,1/2-y,z
x,1/2-y,1/2-z
1/2-x,y,1/2-z
-x,-y,-z
1/2+x,1/2+y,-z
-x,1/2+y,1/2+z
1/2+x,-y,1/2+z
loop_
_atom_site_type_symbol
_atom_site_label
_atom_site_fract_x
_atom_site_fract_y
_atom_site_fract_z
Si Si1 0.126055 0.534994 0.424618
Si Si2 0.750000 0.750000 0.750000
Si Si3 0.542004 0.612542 0.251917
Si Si4 0.750000 0.250000 0.019889
Si Si5 0.038927 0.090510 0.381874
O O1 0.153591 0.667890 0.452858
O O2 0.294601 0.451441 0.437011
O O3 0.000000 0.500000 0.500000
O O4 0.045815 0.540965 0.328324
O O5 0.875438 0.826609 0.690214
O O6 0.481505 0.750000 0.250000
O O7 0.750000 0.615636 0.250000
O O8 0.507585 0.534067 0.336776
O O9 0.617823 0.165704 0.074970
#
# Coordination Sequence:
#
# PCOD9391846 Si02
#       5
#     8   2   8   4   8
#     4  12  25  47  68 106 148 190 243 314 383 445
#     4  12  24  42  74 104 144 190 250 318 358 456
#     4  11  25  46  73 101 143 197 255 306 373 461
#     4  12  28  43  79 106 156 194 246 324 389 454
#     4  12  26  47  72 111 144 199 255 306 383 462
#
# _framework density 22.213177000000002
#
# number of rings (size 3 to 8) (size 9 to 14) (size 15 to 20)
#    0.000    0.267    2.667    5.600    3.733    5.333 
#    0.000    0.000    0.000    0.000    0.000    0.000 
#    0.000    0.000    0.000    0.000    0.000    0.000 
#
# Total GULP energy -167320.737305 kJ/mol
# GULP energy per Si atom -5577.357910 kJ/mol
# Density = 2.216262 g / cm^3
# Si number density = 22.213177 Si / 1000 Ang^3
#
#
#
# Elastic Constant Matrix: (Units=GPa)
#
#
# Indices 1 2 3 4 5 6 
#
# 1 113.8477 41.5997 54.3225 0.0000 0.0000 0.0000
# 2 41.5997 103.2971 23.9901 0.0000 0.0000 0.0000
# 3 54.3225 23.9901 88.8120 0.0000 0.0000 0.0000
# 4 0.0000 0.0000 0.0000 50.6916 0.0000 0.0000
# 5 0.0000 0.0000 0.0000 0.0000 -33.1665 0.0000
# 6 0.0000 0.0000 0.0000 0.0000 0.0000 83.4100
#
#
#
# Elastic Compliance Matrix: (Units=1/GPa)
#
#
# Indices 1 2 3 4 5 6 
#
# 1 0.013674 -0.003803 -0.007336 0.000000 0.000000 0.000000
# 2 -0.003803 0.011386 -0.000750 0.000000 0.000000 0.000000
# 3 -0.007336 -0.000750 0.015950 0.000000 0.000000 0.000000
# 4 0.000000 0.000000 0.000000 0.019727 0.000000 0.000000
# 5 0.000000 0.000000 0.000000 0.000000 -0.030151 0.000000
# 6 0.000000 0.000000 0.000000 0.000000 0.000000 0.011989
#
#
# Mechanical properties :
#
#
# Convention : Reuss Voigt Hill
#
# Bulk Modulus (GPa) = 58.03196 60.64238 59.33717
# Shear Modulus (GPa) = 69.35108 32.58998 50.97053
#
# Velocity S-wave (km/s) = 5.59361 3.83449 4.79540
# Velocity P-wave (km/s) = 8.24013 6.85302 7.57838
#
# Compressibility (1/GPa) = 0.01723189
#
# Stress axis : x y z
#
# Youngs Moduli (GPa) = 73.13256 87.82396 62.69741
#
# Poissons Ratio (x) = 0.33398 0.45998
# Poissons Ratio (y) = 0.27811 0.04700
# Poissons Ratio (z) = 0.53653 0.06584
#
# Static dielectric constant tensor:
#      x y z
#    x 2.185110 0.000000 0.000000 
#    y 0.000000 1.804690 0.000000 
#    z 0.000000 0.000000 1.797010 
# 
# From -- ./inp_files/11922.got.cif
#   From: 2010.05.17/outbox.cif.g08.bks.cpg/sg48_6_cif.got.tgz:11922.got - 2010.06.03 20:39:00.
