data_PCOD9391485
_publ_section_title
;
Structure prediction by ZEFSAII (Michael W. Deem and Ramdas Pophale) SiO2 
 PCOD9391485
Probable space group: P N N N
;
_chemical_formula_sum "Si O2"
_cell_formula_units_Z 46
_cell_length_a 6.738109
_cell_length_b 14.104845
_cell_length_c 22.642626
_cell_angle_alpha 90.000000
_cell_angle_beta 90.000000
_cell_angle_gamma 90.000000
_cell_volume 2151.954791
_symmetry_space_group_name_H-M "P N N N"
_symmetry_group_IT_number 48
_space_group.IT_coordinate_system_code '2'
_symmetry_cell_setting 'orthorhombic'
loop_
_space_group_symop_operation_xyz
x,y,z
1/2-x,1/2-y,z
x,1/2-y,1/2-z
1/2-x,y,1/2-z
-x,-y,-z
1/2+x,1/2+y,-z
-x,1/2+y,1/2+z
1/2+x,-y,1/2+z
loop_
_atom_site_type_symbol
_atom_site_label
_atom_site_fract_x
_atom_site_fract_y
_atom_site_fract_z
Si Si1 0.557452 0.903158 0.792641
Si Si2 0.942725 0.832623 0.142675
Si Si3 0.750000 0.250000 0.250000
Si Si4 0.556103 0.548677 0.574579
Si Si5 0.250000 0.438019 0.750000
Si Si6 0.810270 0.958919 0.032582
Si Si7 0.144524 0.664626 0.103285
O O1 0.750000 0.893400 0.750000
O O2 0.400980 0.817260 0.785665
O O3 0.611901 0.911703 0.861718
O O4 0.426981 0.995214 0.774635
O O5 0.836919 0.873201 0.198950
O O6 0.877867 0.889144 0.084232
O O7 0.543744 0.780430 0.130182
O O8 0.180611 0.853581 0.150311
O O9 0.678392 0.588554 0.519443
O O10 0.321482 0.543445 0.561537
O O11 0.602080 0.435299 0.575494
O O12 0.000000 0.000000 0.000000
O O13 0.250000 0.750000 0.065559
#
# Coordination Sequence:
#
# PCOD9391485 Si02
#       7
#     8   8   2   8   4   8   8
#     4  11  24  42  75  98 134 170 236 283 356 416
#     4   9  19  38  65  93 140 180 218 284 334 410
#     4  10  26  48  70  94 138 176 216 316 346 404
#     4  11  22  39  70 100 127 185 227 279 341 418
#     4  11  20  41  68 100 128 184 223 279 349 415
#     4  11  21  38  66  92 134 178 234 275 335 401
#     4   8  19  38  64  93 143 173 222 273 332 397
#
# _framework density 21.375914000000002
#
# number of rings (size 3 to 8) (size 9 to 14) (size 15 to 20)
#    1.043    0.696    3.478    1.304    0.000    0.696 
#    0.000    2.609   38.261    0.000    0.000    0.000 
#    0.000    0.000    0.000    0.000    0.000    0.000 
#
# Total GULP energy -256433.047935 kJ/mol
# GULP energy per Si atom -5574.631477 kJ/mol
# Density = 2.132726 g / cm^3
# Si number density = 21.375914 Si / 1000 Ang^3
#
#
#
# Elastic Constant Matrix: (Units=GPa)
#
#
# Indices 1 2 3 4 5 6 
#
# 1 126.3363 34.7404 68.5525 0.0000 0.0000 0.0000
# 2 34.7404 75.0256 48.5689 0.0000 0.0000 0.0000
# 3 68.5525 48.5689 174.5442 0.0000 0.0000 0.0000
# 4 0.0000 0.0000 0.0000 -3.8696 0.0000 0.0000
# 5 0.0000 0.0000 0.0000 0.0000 27.5636 0.0000
# 6 0.0000 0.0000 0.0000 0.0000 0.0000 39.8427
#
#
#
# Elastic Compliance Matrix: (Units=1/GPa)
#
#
# Indices 1 2 3 4 5 6 
#
# 1 0.010480 -0.002669 -0.003373 0.000000 0.000000 0.000000
# 2 -0.002669 0.016937 -0.003665 0.000000 0.000000 0.000000
# 3 -0.003373 -0.003665 0.008074 0.000000 0.000000 0.000000
# 4 0.000000 0.000000 0.000000 -0.258425 0.000000 0.000000
# 5 0.000000 0.000000 0.000000 0.000000 0.036280 0.000000
# 6 0.000000 0.000000 0.000000 0.000000 0.000000 0.025099
#
#
# Mechanical properties :
#
#
# Convention : Reuss Voigt Hill
#
# Bulk Modulus (GPa) = 62.20141 75.51441 68.85791
# Shear Modulus (GPa) = -36.55425 27.64363 -4.45531
#
# Velocity S-wave (km/s) = -4.13978 3.60003 -1.44526
# Velocity P-wave (km/s) = 2.51229 7.25836 5.43118
#
# Compressibility (1/GPa) = 0.01607681
#
# Stress axis : x y z
#
# Youngs Moduli (GPa) = 95.42282 59.04237 123.85722
#
# Poissons Ratio (x) = 0.15758 0.41780
# Poissons Ratio (y) = 0.25467 0.45390
# Poissons Ratio (z) = 0.32189 0.21637
#
# Static dielectric constant tensor:
#      x y z
#    x 1.950110 0.000000 0.000000 
#    y 0.000000 1.798400 0.000000 
#    z 0.000000 0.000000 1.741330 
# 
# From -- ./inp_files/35374.got.cif
#   From: 2010.05.17/outbox.cif.g08.bks.cpg/sg48_18_cif.got.tgz:35374.got - 2010.06.03 20:39:00.
