data_PCOD9391537
_publ_section_title
;
Structure prediction by ZEFSAII (Michael W. Deem and Ramdas Pophale) SiO2 
 PCOD9391537
Probable space group: P N N N
;
_chemical_formula_sum "Si O2"
_cell_formula_units_Z 64
_cell_length_a 27.149992
_cell_length_b 12.803375
_cell_length_c 9.469556
_cell_angle_alpha 90.000000
_cell_angle_beta 90.000000
_cell_angle_gamma 90.000000
_cell_volume 3291.726838
_symmetry_space_group_name_H-M "P N N N"
_symmetry_group_IT_number 48
_space_group.IT_coordinate_system_code '2'
_symmetry_cell_setting 'orthorhombic'
loop_
_space_group_symop_operation_xyz
x,y,z
1/2-x,1/2-y,z
x,1/2-y,1/2-z
1/2-x,y,1/2-z
-x,-y,-z
1/2+x,1/2+y,-z
-x,1/2+y,1/2+z
1/2+x,-y,1/2+z
loop_
_atom_site_type_symbol
_atom_site_label
_atom_site_fract_x
_atom_site_fract_y
_atom_site_fract_z
Si Si1 0.946433 0.678047 0.372436
Si Si2 0.450790 0.870565 0.236774
Si Si3 0.095689 0.977558 0.012480
Si Si4 0.451758 0.629241 0.764328
Si Si5 0.194022 0.873559 0.916681
Si Si6 0.694194 0.127798 0.076273
Si Si7 0.945374 0.677055 0.871030
Si Si8 0.595708 0.023623 0.010952
O O1 0.922261 0.750000 0.250000
O O2 0.913652 0.592081 0.450537
O O3 0.964545 0.751191 0.500525
O O4 0.993414 0.627730 0.293303
O O5 0.434221 0.750000 0.250000
O O6 0.418978 0.952121 0.328028
O O7 0.442018 0.904399 0.077297
O O8 0.057944 0.904706 0.923422
O O9 0.150811 0.940195 0.984049
O O10 0.434496 0.750000 0.750000
O O11 0.507660 0.627735 0.709678
O O12 0.420443 0.548055 0.670861
O O13 0.249690 0.900752 0.961548
O O14 0.186582 0.751063 0.950917
O O15 0.190721 0.884272 0.746525
O O16 0.651564 0.062975 0.001010
O O17 0.921147 0.750000 0.750000
O O18 0.912547 0.590993 0.949010
#
# Coordination Sequence:
#
# PCOD9391537 Si02
#       8
#     8   8   8   8   8   8   8   8
#     4  11  23  38  51  77 116 153 190 236 277 315
#     4  11  22  35  51  81 120 147 179 231 284 339
#     4  12  21  35  58  80 109 154 188 226 285 340
#     4  11  20  33  55  83 108 143 195 235 273 336
#     4   9  18  34  57  87 114 135 173 231 291 341
#     4   9  18  34  57  87 114 135 173 233 287 344
#     4  11  23  38  53  77 114 156 201 237 267 328
#     4  12  21  35  58  82 109 154 194 229 284 346
#
# _framework density 19.442682999999999
#
# number of rings (size 3 to 8) (size 9 to 14) (size 15 to 20)
#    0.000    1.250    1.250    9.000    0.000    0.000 
#    0.000    0.625    0.000    3.000    0.000    0.875 
#    0.000    0.000    0.000    0.000    0.000    0.000 
#
# Total GULP energy -357626.094090 kJ/mol
# GULP energy per Si atom -5587.907720 kJ/mol
# Density = 1.939843 g / cm^3
# Si number density = 19.442683 Si / 1000 Ang^3
#
#
#
# Elastic Constant Matrix: (Units=GPa)
#
#
# Indices 1 2 3 4 5 6 
#
# 1 127.4404 51.8021 16.4681 0.0000 0.0000 0.0000
# 2 51.8021 86.8289 14.5160 0.0000 0.0000 0.0000
# 3 16.4681 14.5160 55.2481 0.0000 0.0000 0.0000
# 4 0.0000 0.0000 0.0000 42.4272 0.0000 0.0000
# 5 0.0000 0.0000 0.0000 0.0000 16.6011 0.0000
# 6 0.0000 0.0000 0.0000 0.0000 0.0000 23.5715
#
#
#
# Elastic Compliance Matrix: (Units=1/GPa)
#
#
# Indices 1 2 3 4 5 6 
#
# 1 0.010484 -0.005996 -0.001550 0.000000 0.000000 0.000000
# 2 -0.005996 0.015475 -0.002279 0.000000 0.000000 0.000000
# 3 -0.001550 -0.002279 0.019161 0.000000 0.000000 0.000000
# 4 0.000000 0.000000 0.000000 0.023570 0.000000 0.000000
# 5 0.000000 0.000000 0.000000 0.000000 0.060237 0.000000
# 6 0.000000 0.000000 0.000000 0.000000 0.000000 0.042424
#
#
# Mechanical properties :
#
#
# Convention : Reuss Voigt Hill
#
# Bulk Modulus (GPa) = 39.25959 48.34331 43.80145
# Shear Modulus (GPa) = 25.06394 28.96872 27.01633
#
# Velocity S-wave (km/s) = 3.59433 3.86418 3.73169
# Velocity P-wave (km/s) = 6.12061 6.69535 6.41442
#
# Compressibility (1/GPa) = 0.02547148
#
# Stress axis : x y z
#
# Youngs Moduli (GPa) = 95.38118 64.62053 52.18984
#
# Poissons Ratio (x) = 0.38745 0.08088
# Poissons Ratio (y) = 0.57189 0.11893
# Poissons Ratio (z) = 0.14782 0.14725
#
# Static dielectric constant tensor:
#      x y z
#    x 1.661120 0.000000 0.000000 
#    y 0.000000 1.739140 0.000000 
#    z 0.000000 0.000000 1.677390 
# 
# From -- ./inp_files/16031.got.cif
#   From: 2010.05.17/outbox.cif.g08.bks.cpg/sg48_9_cif.got.tgz:16031.got - 2010.06.03 20:39:00.
