data_PCOD9391721
_publ_section_title
;
Structure prediction by ZEFSAII (Michael W. Deem and Ramdas Pophale) SiO2 
 PCOD9391721
Probable space group: P N N N
;
_chemical_formula_sum "Si O2"
_cell_formula_units_Z 40
_cell_length_a 16.582659
_cell_length_b 12.098032
_cell_length_c 9.294011
_cell_angle_alpha 90.000000
_cell_angle_beta 90.000000
_cell_angle_gamma 90.000000
_cell_volume 1864.541616
_symmetry_space_group_name_H-M "P N N N"
_symmetry_group_IT_number 48
_space_group.IT_coordinate_system_code '2'
_symmetry_cell_setting 'orthorhombic'
loop_
_space_group_symop_operation_xyz
x,y,z
1/2-x,1/2-y,z
x,1/2-y,1/2-z
1/2-x,y,1/2-z
-x,-y,-z
1/2+x,1/2+y,-z
-x,1/2+y,1/2+z
1/2+x,-y,1/2+z
loop_
_atom_site_type_symbol
_atom_site_label
_atom_site_fract_x
_atom_site_fract_y
_atom_site_fract_z
Si Si1 0.736634 0.879594 0.583211
Si Si2 0.958965 0.364056 0.845502
Si Si3 0.841361 0.362448 0.312682
Si Si4 0.384295 0.010504 0.924527
Si Si5 0.588318 0.479868 0.938260
O O1 0.750000 0.750000 0.569871
O O2 0.750000 0.911663 0.750000
O O3 0.801527 0.940285 0.483546
O O4 0.646332 0.915386 0.546010
O O5 0.960549 0.250000 0.750000
O O6 0.927436 0.450714 0.726732
O O7 0.045495 0.397400 0.915092
O O8 0.902509 0.400003 0.980396
O O9 0.877835 0.250000 0.250000
O O10 0.750000 0.363191 0.250000
O O11 0.879177 0.468467 0.237569
O O12 0.862469 0.381467 0.479339
O O13 0.500000 0.500000 0.000000
#
# Coordination Sequence:
#
# PCOD9391721 Si02
#       5
#     8   8   8   8   8
#     4  11  25  46  70  98 136 186 228 279 350 417
#     4  11  25  43  68 100 135 179 227 282 348 408
#     4  11  23  41  66  96 133 174 217 271 342 402
#     4  11  23  45  67  98 139 173 231 287 329 421
#     4  12  24  44  67 100 137 174 226 286 339 410
#
# _framework density 21.452994
#
# number of rings (size 3 to 8) (size 9 to 14) (size 15 to 20)
#    0.000    0.800    6.000    1.200    2.800    0.000 
#    3.600    2.000    0.000    0.000    0.000    0.000 
#    0.000    0.000    0.000    0.000    0.000    0.000 
#
# Total GULP energy -222861.152541 kJ/mol
# GULP energy per Si atom -5571.528814 kJ/mol
# Density = 2.140417 g / cm^3
# Si number density = 21.452994 Si / 1000 Ang^3
#
#
#
# Elastic Constant Matrix: (Units=GPa)
#
#
# Indices 1 2 3 4 5 6 
#
# 1 133.0986 36.8942 22.0192 0.0000 0.0000 0.0000
# 2 36.8942 70.8832 11.0307 0.0000 0.0000 0.0000
# 3 22.0192 11.0307 89.6887 0.0000 0.0000 0.0000
# 4 0.0000 0.0000 0.0000 30.5270 0.0000 0.0000
# 5 0.0000 0.0000 0.0000 0.0000 35.3560 0.0000
# 6 0.0000 0.0000 0.0000 0.0000 0.0000 16.9499
#
#
#
# Elastic Compliance Matrix: (Units=1/GPa)
#
#
# Indices 1 2 3 4 5 6 
#
# 1 0.009018 -0.004434 -0.001669 0.000000 0.000000 0.000000
# 2 -0.004434 0.016563 -0.000948 0.000000 0.000000 0.000000
# 3 -0.001669 -0.000948 0.011676 0.000000 0.000000 0.000000
# 4 0.000000 0.000000 0.000000 0.032758 0.000000 0.000000
# 5 0.000000 0.000000 0.000000 0.000000 0.028284 0.000000
# 6 0.000000 0.000000 0.000000 0.000000 0.000000 0.058997
#
#
# Mechanical properties :
#
#
# Convention : Reuss Voigt Hill
#
# Bulk Modulus (GPa) = 43.18761 48.17318 45.68039
# Shear Modulus (GPa) = 27.91454 31.48168 29.69811
#
# Velocity S-wave (km/s) = 3.61112 3.83492 3.72470
# Velocity P-wave (km/s) = 6.12878 6.48943 6.31168
#
# Compressibility (1/GPa) = 0.02315479
#
# Stress axis : x y z
#
# Youngs Moduli (GPa) = 110.88348 60.37415 85.64577
#
# Poissons Ratio (x) = 0.26772 0.14292
# Poissons Ratio (y) = 0.49170 0.08123
# Poissons Ratio (z) = 0.18503 0.05726
#
# Static dielectric constant tensor:
#      x y z
#    x 1.835990 0.000000 0.000000 
#    y 0.000000 1.799600 0.000000 
#    z 0.000000 0.000000 1.767150 
# 
# From -- ./inp_files/10711.got.cif
#   From: 2010.05.17/outbox.cif.g08.bks.cpg/sg48_6_cif.got.tgz:10711.got - 2010.06.03 20:39:00.
