data_PCOD9391683
_publ_section_title
;
Structure prediction by ZEFSAII (Michael W. Deem and Ramdas Pophale) SiO2 
 PCOD9391683
Probable space group: P N N N
;
_chemical_formula_sum "Si O2"
_cell_formula_units_Z 56
_cell_length_a 14.397827
_cell_length_b 20.001580
_cell_length_c 9.139105
_cell_angle_alpha 90.000000
_cell_angle_beta 90.000000
_cell_angle_gamma 90.000000
_cell_volume 2631.872956
_symmetry_space_group_name_H-M "P N N N"
_symmetry_group_IT_number 48
_space_group.IT_coordinate_system_code '2'
_symmetry_cell_setting 'orthorhombic'
loop_
_space_group_symop_operation_xyz
x,y,z
1/2-x,1/2-y,z
x,1/2-y,1/2-z
1/2-x,y,1/2-z
-x,-y,-z
1/2+x,1/2+y,-z
-x,1/2+y,1/2+z
1/2+x,-y,1/2+z
loop_
_atom_site_type_symbol
_atom_site_label
_atom_site_fract_x
_atom_site_fract_y
_atom_site_fract_z
Si Si1 0.752012 0.324342 0.489391
Si Si2 0.048016 0.403838 0.082904
Si Si3 0.023145 0.949026 0.293159
Si Si4 0.827786 0.935716 0.126034
Si Si5 0.257484 0.328600 0.425581
Si Si6 0.700841 0.044775 0.616610
Si Si7 0.592457 0.175986 0.258213
O O1 0.750000 0.250000 0.555857
O O2 0.740048 0.388702 0.588216
O O3 0.851142 0.334251 0.407398
O O4 0.672922 0.325460 0.365237
O O5 0.055064 0.481039 0.131439
O O6 0.143219 0.365155 0.049822
O O7 0.988811 0.373043 0.214992
O O8 0.989867 0.400869 0.932051
O O9 0.100151 0.934247 0.172978
O O10 0.924789 0.948922 0.208434
O O11 0.750000 0.927498 0.250000
O O12 0.817989 0.872321 0.016103
O O13 0.804712 0.999864 0.026280
O O14 0.250000 0.250000 0.467959
O O15 0.250000 0.331353 0.250000
O O16 0.750000 0.006082 0.750000
O O17 0.551452 0.250000 0.250000
#
# Coordination Sequence:
#
# PCOD9391683 Si02
#       7
#     8   8   8   8   8   8   8
#     4   9  20  39  60  95 135 176 220 273 348 421
#     4  11  22  43  66 101 137 173 232 292 346 416
#     4  11  25  42  68 100 135 178 231 290 345 411
#     4  12  25  45  70 100 137 190 233 292 353 421
#     4  11  26  47  73 101 140 184 237 295 358 425
#     4  12  25  40  67  99 134 174 226 289 347 414
#     4   9  19  35  64  92 127 174 217 269 335 414
#
# _framework density 21.277622000000001
#
# number of rings (size 3 to 8) (size 9 to 14) (size 15 to 20)
#    0.000    1.286    1.429    5.143    8.000    1.714 
#    2.571    0.000    0.000    0.000    0.000    0.000 
#    0.000    0.000    0.000    0.000    0.000    0.000 
#
# Total GULP energy -312707.724846 kJ/mol
# GULP energy per Si atom -5584.066515 kJ/mol
# Density = 2.122919 g / cm^3
# Si number density = 21.277622 Si / 1000 Ang^3
#
#
#
# Elastic Constant Matrix: (Units=GPa)
#
#
# Indices 1 2 3 4 5 6 
#
# 1 75.8714 17.6328 7.4562 0.0000 0.0000 0.0000
# 2 17.6328 99.7888 27.5819 0.0000 0.0000 0.0000
# 3 7.4562 27.5819 85.6985 0.0000 0.0000 0.0000
# 4 0.0000 0.0000 0.0000 30.8150 0.0000 0.0000
# 5 0.0000 0.0000 0.0000 0.0000 26.1291 0.0000
# 6 0.0000 0.0000 0.0000 0.0000 0.0000 18.3703
#
#
#
# Elastic Compliance Matrix: (Units=1/GPa)
#
#
# Indices 1 2 3 4 5 6 
#
# 1 0.013761 -0.002306 -0.000455 0.000000 0.000000 0.000000
# 2 -0.002306 0.011386 -0.003464 0.000000 0.000000 0.000000
# 3 -0.000455 -0.003464 0.012823 0.000000 0.000000 0.000000
# 4 0.000000 0.000000 0.000000 0.032452 0.000000 0.000000
# 5 0.000000 0.000000 0.000000 0.000000 0.038272 0.000000
# 6 0.000000 0.000000 0.000000 0.000000 0.000000 0.054436
#
#
# Mechanical properties :
#
#
# Convention : Reuss Voigt Hill
#
# Bulk Modulus (GPa) = 39.18438 40.74453 39.96445
# Shear Modulus (GPa) = 27.16128 28.97539 28.06833
#
# Velocity S-wave (km/s) = 3.57672 3.69423 3.63595
# Velocity P-wave (km/s) = 5.95927 6.11449 6.03738
#
# Compressibility (1/GPa) = 0.02552037
#
# Stress axis : x y z
#
# Youngs Moduli (GPa) = 72.67021 87.82681 77.98308
#
# Poissons Ratio (x) = 0.20251 0.03550
# Poissons Ratio (y) = 0.16756 0.27013
# Poissons Ratio (z) = 0.03308 0.30423
#
# Static dielectric constant tensor:
#      x y z
#    x 1.818760 0.000000 0.000000 
#    y 0.000000 1.794040 0.000000 
#    z 0.000000 0.000000 1.785030 
# 
# From -- ./inp_files/13132.got.cif
#   From: 2010.05.17/outbox.cif.g08.bks.cpg/sg48_7_cif.got.tgz:13132.got - 2010.06.03 20:39:00.
