data_PCOD9391792
_publ_section_title
;
Structure prediction by ZEFSAII (Michael W. Deem and Ramdas Pophale) SiO2 
 PCOD9391792
Probable space group: P N N N
;
_chemical_formula_sum "Si O2"
_cell_formula_units_Z 38
_cell_length_a 11.393632
_cell_length_b 5.130649
_cell_length_c 26.377087
_cell_angle_alpha 90.000000
_cell_angle_beta 90.000000
_cell_angle_gamma 90.000000
_cell_volume 1541.918164
_symmetry_space_group_name_H-M "P N N N"
_symmetry_group_IT_number 48
_space_group.IT_coordinate_system_code '2'
_symmetry_cell_setting 'orthorhombic'
loop_
_space_group_symop_operation_xyz
x,y,z
1/2-x,1/2-y,z
x,1/2-y,1/2-z
1/2-x,y,1/2-z
-x,-y,-z
1/2+x,1/2+y,-z
-x,1/2+y,1/2+z
1/2+x,-y,1/2+z
loop_
_atom_site_type_symbol
_atom_site_label
_atom_site_fract_x
_atom_site_fract_y
_atom_site_fract_z
Si Si1 0.630716 0.410899 0.103220
Si Si2 0.750000 0.750000 0.042780
Si Si3 0.750000 0.750000 0.250000
Si Si4 0.940696 0.384767 0.198764
Si Si5 0.327600 0.996295 0.139526
Si Si6 0.074690 0.322093 0.037934
O O1 0.750000 0.250000 0.083647
O O2 0.652089 0.708044 0.087861
O O3 0.611014 0.331981 0.160527
O O4 0.516661 0.328958 0.072594
O O5 0.841405 0.847215 0.998558
O O6 0.836407 0.575306 0.215663
O O7 0.984254 0.250000 0.250000
O O8 0.049920 0.510795 0.169573
O O9 0.250000 0.750000 0.151764
O O10 0.250000 0.250000 0.152107
O O11 0.353731 0.011958 0.079273
O O12 0.000000 0.500000 0.000000
#
# Coordination Sequence:
#
# PCOD9391792 Si02
#       6
#     8   4   2   8   8   8
#     4  11  24  43  68 109 141 195 261 307 395 476
#     4  12  24  43  74 101 155 204 246 323 384 482
#     4  12  26  54  86 110 164 200 266 340 434 484
#     4  11  28  52  79 114 155 205 267 345 416 490
#     4  11  28  53  83 118 164 213 278 336 405 485
#     4  11  24  44  71 110 152 209 258 318 391 472
#
# _framework density 24.644627
#
# number of rings (size 3 to 8) (size 9 to 14) (size 15 to 20)
#    0.000    0.842    3.158    2.211    5.895    7.158 
#    0.000    0.000    0.000    0.000    0.000    0.000 
#    0.000    0.000    0.000    0.000    0.000    0.000 
#
# Total GULP energy -211820.726105 kJ/mol
# GULP energy per Si atom -5574.229634 kJ/mol
# Density = 2.458853 g / cm^3
# Si number density = 24.644627 Si / 1000 Ang^3
#
#
#
# Elastic Constant Matrix: (Units=GPa)
#
#
# Indices 1 2 3 4 5 6 
#
# 1 133.8414 40.9267 69.6860 0.0000 0.0000 0.0000
# 2 40.9267 75.8040 37.6196 0.0000 0.0000 0.0000
# 3 69.6860 37.6196 188.2495 0.0000 0.0000 0.0000
# 4 0.0000 0.0000 0.0000 26.0780 0.0000 0.0000
# 5 0.0000 0.0000 0.0000 0.0000 63.0892 0.0000
# 6 0.0000 0.0000 0.0000 0.0000 0.0000 32.5240
#
#
#
# Elastic Compliance Matrix: (Units=1/GPa)
#
#
# Indices 1 2 3 4 5 6 
#
# 1 0.010270 -0.004061 -0.002990 0.000000 0.000000 0.000000
# 2 -0.004061 0.016250 -0.001744 0.000000 0.000000 0.000000
# 3 -0.002990 -0.001744 0.006768 0.000000 0.000000 0.000000
# 4 0.000000 0.000000 0.000000 0.038346 0.000000 0.000000
# 5 0.000000 0.000000 0.000000 0.000000 0.015851 0.000000
# 6 0.000000 0.000000 0.000000 0.000000 0.000000 0.030747
#
#
# Mechanical properties :
#
#
# Convention : Reuss Voigt Hill
#
# Bulk Modulus (GPa) = 63.70583 77.15104 70.42844
# Shear Modulus (GPa) = 35.44732 40.98242 38.21487
#
# Velocity S-wave (km/s) = 3.79666 4.08233 3.94208
# Velocity P-wave (km/s) = 6.71754 7.32079 7.02564
#
# Compressibility (1/GPa) = 0.01569715
#
# Stress axis : x y z
#
# Youngs Moduli (GPa) = 97.36893 61.53859 147.76320
#
# Poissons Ratio (x) = 0.24990 0.44185
# Poissons Ratio (y) = 0.39541 0.25772
# Poissons Ratio (z) = 0.29116 0.10733
#
# Static dielectric constant tensor:
#      x y z
#    x 1.919960 0.000000 0.000000 
#    y 0.000000 2.367380 0.000000 
#    z 0.000000 0.000000 1.842310 
# 
# From -- ./inp_files/37625.got.cif
#   From: 2010.05.17/outbox.cif.g08.bks.cpg/sg48_19_cif.got.tgz:37625.got - 2010.06.03 20:39:00.
