data_PCOD9391158
_publ_section_title
;
Structure prediction by ZEFSAII (Michael W. Deem and Ramdas Pophale) SiO2 
 PCOD9391158
Probable space group: P N N N
;
_chemical_formula_sum "Si O2"
_cell_formula_units_Z 64
_cell_length_a 15.807047
_cell_length_b 8.354737
_cell_length_c 23.635544
_cell_angle_alpha 90.000000
_cell_angle_beta 90.000000
_cell_angle_gamma 90.000000
_cell_volume 3121.397875
_symmetry_space_group_name_H-M "P N N N"
_symmetry_group_IT_number 48
_space_group.IT_coordinate_system_code '2'
_symmetry_cell_setting 'orthorhombic'
loop_
_space_group_symop_operation_xyz
x,y,z
1/2-x,1/2-y,z
x,1/2-y,1/2-z
1/2-x,y,1/2-z
-x,-y,-z
1/2+x,1/2+y,-z
-x,1/2+y,1/2+z
1/2+x,-y,1/2+z
loop_
_atom_site_type_symbol
_atom_site_label
_atom_site_fract_x
_atom_site_fract_y
_atom_site_fract_z
Si Si1 0.410161 0.429223 0.131094
Si Si2 0.826810 0.637176 0.325110
Si Si3 0.587097 0.597366 0.000947
Si Si4 0.511259 0.923208 0.272713
Si Si5 0.761188 0.061137 0.074255
Si Si6 0.052804 0.435134 0.159925
Si Si7 0.760235 0.555040 0.815099
Si Si8 0.413977 0.122578 0.913518
O O1 0.395032 0.399023 0.065255
O O2 0.477746 0.539312 0.164228
O O3 0.438712 0.253631 0.151193
O O4 0.321941 0.500822 0.152489
O O5 0.750000 0.750000 0.308815
O O6 0.887430 0.575737 0.276232
O O7 0.793822 0.491752 0.363666
O O8 0.882489 0.754382 0.365194
O O9 0.500000 0.500000 0.000000
O O10 0.666846 0.514106 0.032866
O O11 0.567299 0.765017 0.032413
O O12 0.483878 0.750000 0.250000
O O13 0.478829 0.039755 0.224078
O O14 0.750000 0.250000 0.067331
O O15 0.668395 0.981302 0.069199
O O16 0.150170 0.495141 0.159173
O O17 0.989852 0.519590 0.114804
O O18 0.750000 0.750000 0.816741
O O19 0.750000 0.506764 0.750000
#
# Coordination Sequence:
#
# PCOD9391158 Si02
#       8
#     8   8   8   8   8   8   8   8
#     4  11  24  43  68  94 132 186 229 295 350 425
#     4   9  20  41  64  93 135 183 219 270 357 430
#     4  11  25  46  70  99 139 184 237 288 359 432
#     4  12  23  40  67  96 139 175 235 287 359 422
#     4  10  23  45  71 102 143 177 231 300 361 420
#     4  11  23  40  68 101 132 181 234 285 354 435
#     4   9  18  38  61  91 133 173 222 276 348 418
#     4  10  22  43  70 100 137 187 224 287 362 429
#
# _framework density 20.503634000000002
#
# number of rings (size 3 to 8) (size 9 to 14) (size 15 to 20)
#    0.000    1.625    2.500    3.000    3.500    3.750 
#    2.250    1.250    0.000    0.750    0.000    0.000 
#    0.000    0.000    0.000    0.000    0.000    0.000 
#
# Total GULP energy -356894.410514 kJ/mol
# GULP energy per Si atom -5576.475164 kJ/mol
# Density = 2.045697 g / cm^3
# Si number density = 20.503634 Si / 1000 Ang^3
#
#
#
# Elastic Constant Matrix: (Units=GPa)
#
#
# Indices 1 2 3 4 5 6 
#
# 1 169.9124 53.2392 50.8704 0.0000 0.0000 0.0000
# 2 53.2392 87.8617 35.5245 0.0000 0.0000 0.0000
# 3 50.8704 35.5245 103.0371 0.0000 0.0000 0.0000
# 4 0.0000 0.0000 0.0000 24.8610 0.0000 0.0000
# 5 0.0000 0.0000 0.0000 0.0000 33.8082 0.0000
# 6 0.0000 0.0000 0.0000 0.0000 0.0000 29.2142
#
#
#
# Elastic Compliance Matrix: (Units=1/GPa)
#
#
# Indices 1 2 3 4 5 6 
#
# 1 0.007816 -0.003690 -0.002587 0.000000 0.000000 0.000000
# 2 -0.003690 0.014967 -0.003338 0.000000 0.000000 0.000000
# 3 -0.002587 -0.003338 0.012133 0.000000 0.000000 0.000000
# 4 0.000000 0.000000 0.000000 0.040224 0.000000 0.000000
# 5 0.000000 0.000000 0.000000 0.000000 0.029579 0.000000
# 6 0.000000 0.000000 0.000000 0.000000 0.000000 0.034230
#
#
# Mechanical properties :
#
#
# Convention : Reuss Voigt Hill
#
# Bulk Modulus (GPa) = 63.75040 71.11994 67.43517
# Shear Modulus (GPa) = 30.59818 32.32180 31.45999
#
# Velocity S-wave (km/s) = 3.86726 3.97469 3.92134
# Velocity P-wave (km/s) = 7.14847 7.47168 7.31186
#
# Compressibility (1/GPa) = 0.01568618
#
# Stress axis : x y z
#
# Youngs Moduli (GPa) = 127.94150 66.81163 82.41812
#
# Poissons Ratio (x) = 0.24655 0.21318
# Poissons Ratio (y) = 0.47214 0.27515
# Poissons Ratio (z) = 0.33093 0.22305
#
# Static dielectric constant tensor:
#      x y z
#    x 1.766500 0.000000 0.000000 
#    y 0.000000 1.739550 0.000000 
#    z 0.000000 0.000000 1.724060 
# 
# From -- ./inp_files/36570.got.cif
#   From: 2010.05.17/outbox.cif.g08.bks.cpg/sg48_19_cif.got.tgz:36570.got - 2010.06.03 20:39:00.
