data_PCOD9391916
_publ_section_title
;
Structure prediction by ZEFSAII (Michael W. Deem and Ramdas Pophale) SiO2 
 PCOD9391916
Probable space group: P N N N
;
_chemical_formula_sum "Si O2"
_cell_formula_units_Z 32
_cell_length_a 13.393678
_cell_length_b 6.234887
_cell_length_c 16.819768
_cell_angle_alpha 90.000000
_cell_angle_beta 90.000000
_cell_angle_gamma 90.000000
_cell_volume 1404.586344
_symmetry_space_group_name_H-M "P N N N"
_symmetry_group_IT_number 48
_space_group.IT_coordinate_system_code '2'
_symmetry_cell_setting 'orthorhombic'
loop_
_space_group_symop_operation_xyz
x,y,z
1/2-x,1/2-y,z
x,1/2-y,1/2-z
1/2-x,y,1/2-z
-x,-y,-z
1/2+x,1/2+y,-z
-x,1/2+y,1/2+z
1/2+x,-y,1/2+z
loop_
_atom_site_type_symbol
_atom_site_label
_atom_site_fract_x
_atom_site_fract_y
_atom_site_fract_z
Si Si1 0.399133 0.907452 0.673947
Si Si2 0.750000 0.750000 0.250000
Si Si3 0.614572 0.050255 0.621558
Si Si4 0.107513 0.890027 0.518625
Si Si5 0.750000 0.250000 0.750000
Si Si6 0.250000 0.250000 0.023881
O O1 0.407799 0.750000 0.750000
O O2 0.384055 0.756754 0.596815
O O3 0.318869 0.089922 0.697121
O O4 0.502980 0.021597 0.651985
O O5 0.623647 0.240757 0.558033
O O6 0.682183 0.103290 0.695769
O O7 0.661365 0.845754 0.577794
O O8 0.194579 0.065480 0.524178
O O9 0.000000 0.000000 0.500000
#
# Coordination Sequence:
#
# PCOD9391916 Si02
#       6
#     8   2   8   8   2   4
#     4  12  31  53  84 118 165 217 278 338 409 490
#     4  12  32  58  80 118 168 222 268 354 388 496
#     4  12  28  50  80 120 161 210 268 339 417 488
#     4  12  28  54  79 120 161 220 271 336 414 487
#     4  12  26  46  80 122 156 200 270 334 416 490
#     4  12  26  50  84 114 166 212 266 339 401 495
#
# _framework density 22.782506999999999
#
# number of rings (size 3 to 8) (size 9 to 14) (size 15 to 20)
#    0.000    0.000    5.000    1.875   10.500    6.000 
#    0.000    0.000    0.000    0.000    0.000    0.000 
#    0.000    0.000    0.000    0.000    0.000    0.000 
#
# Total GULP energy -179371.562814 kJ/mol
# GULP energy per Si atom -5605.361338 kJ/mol
# Density = 2.273065 g / cm^3
# Si number density = 22.782507 Si / 1000 Ang^3
#
#
#
# Elastic Constant Matrix: (Units=GPa)
#
#
# Indices 1 2 3 4 5 6 
#
# 1 197.2012 96.8651 87.9503 0.0000 0.0000 0.0000
# 2 96.8651 137.7430 87.5914 0.0000 0.0000 0.0000
# 3 87.9503 87.5914 172.3508 0.0000 0.0000 0.0000
# 4 0.0000 0.0000 0.0000 11.8571 0.0000 0.0000
# 5 0.0000 0.0000 0.0000 0.0000 51.5956 0.0000
# 6 0.0000 0.0000 0.0000 0.0000 0.0000 67.9273
#
#
#
# Elastic Compliance Matrix: (Units=1/GPa)
#
#
# Indices 1 2 3 4 5 6 
#
# 1 0.008122 -0.004545 -0.001835 0.000000 0.000000 0.000000
# 2 -0.004545 0.013269 -0.004425 0.000000 0.000000 0.000000
# 3 -0.001835 -0.004425 0.008987 0.000000 0.000000 0.000000
# 4 0.000000 0.000000 0.000000 0.084338 0.000000 0.000000
# 5 0.000000 0.000000 0.000000 0.000000 0.019381 0.000000
# 6 0.000000 0.000000 0.000000 0.000000 0.000000 0.014722
#
#
# Mechanical properties :
#
#
# Convention : Reuss Voigt Hill
#
# Bulk Modulus (GPa) = 114.02443 116.90096 115.46269
# Shear Modulus (GPa) = 28.84333 41.93520 35.38927
#
# Velocity S-wave (km/s) = 3.56199 4.29496 3.94554
# Velocity P-wave (km/s) = 8.18992 8.71887 8.45853
#
# Compressibility (1/GPa) = 0.00877005
#
# Stress axis : x y z
#
# Youngs Moduli (GPa) = 123.12902 75.36113 111.27075
#
# Poissons Ratio (x) = 0.34248 0.20416
# Poissons Ratio (y) = 0.55957 0.49233
# Poissons Ratio (z) = 0.22592 0.33345
#
# Static dielectric constant tensor:
#      x y z
#    x 1.851150 0.000000 0.000000 
#    y 0.000000 1.812160 0.000000 
#    z 0.000000 0.000000 1.818880 
# 
# From -- ./inp_files/4065.got.cif
#   From: 2010.05.17/outbox.cif.g08.bks.cpg/sg48_3_cif.got.tgz:4065.got - 2010.06.03 20:39:00.
