data_PCOD9391615
_publ_section_title
;
Structure prediction by ZEFSAII (Michael W. Deem and Ramdas Pophale) SiO2 
 PCOD9391615
Probable space group: P N N N
;
_chemical_formula_sum "Si O2"
_cell_formula_units_Z 42
_cell_length_a 20.237917
_cell_length_b 20.714147
_cell_length_c 4.813990
_cell_angle_alpha 90.000000
_cell_angle_beta 90.000000
_cell_angle_gamma 90.000000
_cell_volume 2018.078466
_symmetry_space_group_name_H-M "P N N N"
_symmetry_group_IT_number 48
_space_group.IT_coordinate_system_code '2'
_symmetry_cell_setting 'orthorhombic'
loop_
_space_group_symop_operation_xyz
x,y,z
1/2-x,1/2-y,z
x,1/2-y,1/2-z
1/2-x,y,1/2-z
-x,-y,-z
1/2+x,1/2+y,-z
-x,1/2+y,1/2+z
1/2+x,-y,1/2+z
loop_
_atom_site_type_symbol
_atom_site_label
_atom_site_fract_x
_atom_site_fract_y
_atom_site_fract_z
Si Si1 0.250000 0.250000 0.250000
Si Si2 0.827469 0.546258 0.269200
Si Si3 0.906552 0.503001 0.763303
Si Si4 0.856108 0.688928 0.059183
Si Si5 0.475273 0.902561 0.621337
Si Si6 0.505168 0.184084 0.882116
O O1 0.193592 0.195933 0.310193
O O2 0.750000 0.531242 0.250000
O O3 0.851366 0.537898 0.581772
O O4 0.842819 0.619527 0.186819
O O5 0.875021 0.502044 0.069350
O O6 0.973507 0.545924 0.753023
O O7 0.923779 0.439489 0.581736
O O8 0.835168 0.750000 0.250000
O O9 0.932924 0.697616 0.991369
O O10 0.510293 0.859251 0.387378
O O11 0.455994 0.855346 0.877882
O O12 0.534204 0.250000 0.750000
#
# Coordination Sequence:
#
# PCOD9391615 Si02
#       6
#     2   8   8   8   8   8
#     4  12  26  36  52  70 116 176 202 252 278 328
#     4  12  24  38  57  83 117 154 208 252 299 363
#     4  11  23  39  59  82 112 159 203 246 309 359
#     4  11  25  37  51  76 114 160 211 251 298 335
#     4  11  21  41  60  82 114 153 202 253 305 366
#     4  11  23  36  61  85 116 146 199 256 306 355
#
# _framework density 20.811878
#
# number of rings (size 3 to 8) (size 9 to 14) (size 15 to 20)
#    0.000    0.762    3.810    3.714   10.667    3.048 
#    0.000    0.000    0.000    0.000    0.000    0.000 
#    0.000   21.333    0.000    0.000    0.000    0.000 
#
# Total GULP energy -234078.970100 kJ/mol
# GULP energy per Si atom -5573.308812 kJ/mol
# Density = 2.076451 g / cm^3
# Si number density = 20.811878 Si / 1000 Ang^3
#
#
#
# Elastic Constant Matrix: (Units=GPa)
#
#
# Indices 1 2 3 4 5 6 
#
# 1 47.4187 21.2218 6.0288 0.0000 0.0000 0.0000
# 2 21.2218 82.7281 32.1406 0.0000 0.0000 0.0000
# 3 6.0288 32.1406 100.2668 0.0000 0.0000 0.0000
# 4 0.0000 0.0000 0.0000 45.2259 0.0000 0.0000
# 5 0.0000 0.0000 0.0000 0.0000 53.3675 0.0000
# 6 0.0000 0.0000 0.0000 0.0000 0.0000 22.6927
#
#
#
# Elastic Compliance Matrix: (Units=1/GPa)
#
#
# Indices 1 2 3 4 5 6 
#
# 1 0.023856 -0.006354 0.000602 0.000000 0.000000 0.000000
# 2 -0.006354 0.015499 -0.004586 0.000000 0.000000 0.000000
# 3 0.000602 -0.004586 0.011407 0.000000 0.000000 0.000000
# 4 0.000000 0.000000 0.000000 0.022111 0.000000 0.000000
# 5 0.000000 0.000000 0.000000 0.000000 0.018738 0.000000
# 6 0.000000 0.000000 0.000000 0.000000 0.000000 0.044067
#
#
# Mechanical properties :
#
#
# Convention : Reuss Voigt Hill
#
# Bulk Modulus (GPa) = 33.23678 38.79956 36.01817
# Shear Modulus (GPa) = 30.05115 35.65870 32.85493
#
# Velocity S-wave (km/s) = 3.80405 4.14379 3.97755
# Velocity P-wave (km/s) = 5.94131 6.44811 6.19989
#
# Compressibility (1/GPa) = 0.03008715
#
# Stress axis : x y z
#
# Youngs Moduli (GPa) = 41.91889 64.51837 87.66290
#
# Poissons Ratio (x) = 0.40992 -0.05279
# Poissons Ratio (y) = 0.26633 0.40205
# Poissons Ratio (z) = -0.02525 0.29590
#
# Static dielectric constant tensor:
#      x y z
#    x 1.751520 0.000000 0.000000 
#    y 0.000000 1.835160 0.000000 
#    z 0.000000 0.000000 1.857720 
# 
# From -- ./inp_files/5160.got.cif
#   From: 2010.05.17/outbox.cif.g08.bks.cpg/sg48_3_cif.got.tgz:5160.got - 2010.06.03 20:39:00.
