data_PCOD9391728
_publ_section_title
;
Structure prediction by ZEFSAII (Michael W. Deem and Ramdas Pophale) SiO2 
 PCOD9391728
Probable space group: P N N N
;
_chemical_formula_sum "Si O2"
_cell_formula_units_Z 48
_cell_length_a 8.584059
_cell_length_b 20.598757
_cell_length_c 14.089981
_cell_angle_alpha 90.000000
_cell_angle_beta 90.000000
_cell_angle_gamma 90.000000
_cell_volume 2491.403761
_symmetry_space_group_name_H-M "P N N N"
_symmetry_group_IT_number 48
_space_group.IT_coordinate_system_code '2'
_symmetry_cell_setting 'orthorhombic'
loop_
_space_group_symop_operation_xyz
x,y,z
1/2-x,1/2-y,z
x,1/2-y,1/2-z
1/2-x,y,1/2-z
-x,-y,-z
1/2+x,1/2+y,-z
-x,1/2+y,1/2+z
1/2+x,-y,1/2+z
loop_
_atom_site_type_symbol
_atom_site_label
_atom_site_fract_x
_atom_site_fract_y
_atom_site_fract_z
Si Si1 0.650515 0.648375 0.495081
Si Si2 0.838228 0.143116 0.835360
Si Si3 0.100832 0.067306 0.313813
Si Si4 0.075094 0.817139 0.788322
Si Si5 0.508424 0.787964 0.501859
Si Si6 0.975925 0.424299 0.832228
O O1 0.640312 0.601529 0.586258
O O2 0.537217 0.710856 0.506399
O O3 0.823643 0.677672 0.490653
O O4 0.597497 0.611115 0.400296
O O5 0.750000 0.179615 0.750000
O O6 0.699921 0.094573 0.869420
O O7 0.968483 0.102871 0.776001
O O8 0.904811 0.188964 0.914485
O O9 0.250000 0.048618 0.250000
O O10 0.012253 0.121027 0.252254
O O11 0.007049 0.001333 0.332054
O O12 0.999898 0.750000 0.750000
O O13 0.250000 0.819137 0.750000
O O14 0.067963 0.812339 0.901036
#
# Coordination Sequence:
#
# PCOD9391728 Si02
#       6
#     8   8   8   8   8   8
#     4  11  24  38  68  98 131 171 216 276 325 396
#     4   8  21  43  65  87 125 171 217 270 315 387
#     4  12  21  44  67  94 138 173 213 269 333 397
#     4  11  25  41  65  98 133 171 213 270 322 396
#     4  11  23  42  65 101 128 168 225 268 333 382
#     4   9  22  44  63  94 125 182 217 264 330 386
#
# _framework density 19.266245999999999
#
# number of rings (size 3 to 8) (size 9 to 14) (size 15 to 20)
#    1.000    0.500    5.000    0.500    2.333    2.333 
#    6.000    3.333    0.000    0.000    0.000    0.000 
#    0.000    0.000    0.000    0.000    0.000    0.000 
#
# Total GULP energy -267709.496233 kJ/mol
# GULP energy per Si atom -5577.281172 kJ/mol
# Density = 1.922240 g / cm^3
# Si number density = 19.266246 Si / 1000 Ang^3
#
#
#
# Elastic Constant Matrix: (Units=GPa)
#
#
# Indices 1 2 3 4 5 6 
#
# 1 39.7718 19.5291 33.9918 0.0000 0.0000 0.0000
# 2 19.5291 110.1529 36.6136 0.0000 0.0000 0.0000
# 3 33.9918 36.6136 112.7791 0.0000 0.0000 0.0000
# 4 0.0000 0.0000 0.0000 25.4363 0.0000 0.0000
# 5 0.0000 0.0000 0.0000 0.0000 36.1831 0.0000
# 6 0.0000 0.0000 0.0000 0.0000 0.0000 35.7483
#
#
#
# Elastic Compliance Matrix: (Units=1/GPa)
#
#
# Indices 1 2 3 4 5 6 
#
# 1 0.034731 -0.003002 -0.009493 0.000000 0.000000 0.000000
# 2 -0.003002 0.010436 -0.002483 0.000000 0.000000 0.000000
# 3 -0.009493 -0.002483 0.012534 0.000000 0.000000 0.000000
# 4 0.000000 0.000000 0.000000 0.039314 0.000000 0.000000
# 5 0.000000 0.000000 0.000000 0.000000 0.027637 0.000000
# 6 0.000000 0.000000 0.000000 0.000000 0.000000 0.027973
#
#
# Mechanical properties :
#
#
# Convention : Reuss Voigt Hill
#
# Bulk Modulus (GPa) = 36.04349 49.21920 42.63134
# Shear Modulus (GPa) = 26.06455 30.97817 28.52136
#
# Velocity S-wave (km/s) = 3.68212 4.01421 3.85174
# Velocity P-wave (km/s) = 6.06844 6.86203 6.47740
#
# Compressibility (1/GPa) = 0.02774426
#
# Stress axis : x y z
#
# Youngs Moduli (GPa) = 28.79248 95.82299 79.78048
#
# Poissons Ratio (x) = 0.28766 0.75739
# Poissons Ratio (y) = 0.08644 0.19811
# Poissons Ratio (z) = 0.27334 0.23795
#
# Static dielectric constant tensor:
#      x y z
#    x 1.669200 0.000000 0.000000 
#    y 0.000000 1.638110 0.000000 
#    z 0.000000 0.000000 1.629560 
# 
# From -- ./inp_files/25388.got.cif
#   From: 2010.05.17/outbox.cif.g08.bks.cpg/sg48_13_cif.got.tgz:25388.got - 2010.06.03 20:39:00.
