data_PCOD9391132
_publ_section_title
;
Structure prediction by ZEFSAII (Michael W. Deem and Ramdas Pophale) SiO2 
 PCOD9391132
Probable space group: P N N N
;
_chemical_formula_sum "Si O2"
_cell_formula_units_Z 34
_cell_length_a 12.054921
_cell_length_b 15.063172
_cell_length_c 7.204273
_cell_angle_alpha 90.000000
_cell_angle_beta 90.000000
_cell_angle_gamma 90.000000
_cell_volume 1308.190423
_symmetry_space_group_name_H-M "P N N N"
_symmetry_group_IT_number 48
_space_group.IT_coordinate_system_code '2'
_symmetry_cell_setting 'orthorhombic'
loop_
_space_group_symop_operation_xyz
x,y,z
1/2-x,1/2-y,z
x,1/2-y,1/2-z
1/2-x,y,1/2-z
-x,-y,-z
1/2+x,1/2+y,-z
-x,1/2+y,1/2+z
1/2+x,-y,1/2+z
loop_
_atom_site_type_symbol
_atom_site_label
_atom_site_fract_x
_atom_site_fract_y
_atom_site_fract_z
Si Si1 0.124301 0.899184 0.776595
Si Si2 0.872855 0.852939 0.806450
Si Si3 0.130700 0.854553 0.203892
Si Si4 0.250000 0.250000 0.750000
Si Si5 0.101102 0.399273 0.750082
O O1 0.250000 0.857417 0.750000
O O2 0.994915 0.878382 0.719803
O O3 0.138280 0.001277 0.719883
O O4 0.113292 0.878398 0.992729
O O5 0.866329 0.750000 0.750000
O O6 0.750000 0.891350 0.750000
O O7 0.884226 0.874824 0.029025
O O8 0.129442 0.750000 0.250000
O O9 0.250000 0.891086 0.250000
O O10 0.026513 0.894866 0.305549
O O11 0.168053 0.319995 0.848518
#
# Coordination Sequence:
#
# PCOD9391132 Si02
#       5
#     8   8   8   2   8
#     4  11  25  44  67 103 137 176 230 291 341 409
#     4  10  22  42  67  95 133 178 225 277 344 405
#     4  10  22  42  66  95 135 180 221 274 349 412
#     4  12  20  40  68  88 130 172 232 268 336 384
#     4  11  23  42  67  94 133 177 225 283 341 410
#
# _framework density 25.990100000000002
#
# number of rings (size 3 to 8) (size 9 to 14) (size 15 to 20)
#    0.000    1.412    2.353    4.235    0.000   11.765 
#    4.235    2.353    0.000    0.000    0.000    0.000 
#    0.000    0.000    0.000    0.000    0.000    0.000 
#
# Total GULP energy -189335.453191 kJ/mol
# GULP energy per Si atom -5568.689800 kJ/mol
# Density = 2.593095 g / cm^3
# Si number density = 25.990100 Si / 1000 Ang^3
#
#
#
# Elastic Constant Matrix: (Units=GPa)
#
#
# Indices 1 2 3 4 5 6 
#
# 1 349.4845 45.1130 16.1471 0.0000 0.0000 0.0000
# 2 45.1130 113.7251 -18.6398 0.0000 0.0000 0.0000
# 3 16.1471 -18.6398 85.4446 0.0000 0.0000 0.0000
# 4 0.0000 0.0000 0.0000 22.8086 0.0000 0.0000
# 5 0.0000 0.0000 0.0000 0.0000 25.9492 0.0000
# 6 0.0000 0.0000 0.0000 0.0000 0.0000 6.0008
#
#
#
# Elastic Compliance Matrix: (Units=1/GPa)
#
#
# Indices 1 2 3 4 5 6 
#
# 1 0.003078 -0.001365 -0.000880 0.000000 0.000000 0.000000
# 2 -0.001365 0.009725 0.002379 0.000000 0.000000 0.000000
# 3 -0.000880 0.002379 0.012389 0.000000 0.000000 0.000000
# 4 0.000000 0.000000 0.000000 0.043843 0.000000 0.000000
# 5 0.000000 0.000000 0.000000 0.000000 0.038537 0.000000
# 6 0.000000 0.000000 0.000000 0.000000 0.000000 0.166645
#
#
# Mechanical properties :
#
#
# Convention : Reuss Voigt Hill
#
# Bulk Modulus (GPa) = 39.27570 70.43275 54.85423
# Shear Modulus (GPa) = 17.70321 44.68731 31.19526
#
# Velocity S-wave (km/s) = 2.61272 4.15106 3.46826
# Velocity P-wave (km/s) = 4.92406 7.08052 6.09836
#
# Compressibility (1/GPa) = 0.02546103
#
# Stress axis : x y z
#
# Youngs Moduli (GPa) = 324.86236 102.83087 80.71821
#
# Poissons Ratio (x) = 0.14039 0.07100
# Poissons Ratio (y) = 0.44352 -0.19206
# Poissons Ratio (z) = 0.28573 -0.24468
#
# Static dielectric constant tensor:
#      x y z
#    x 2.205020 0.000000 0.000000 
#    y 0.000000 1.955860 0.000000 
#    z 0.000000 0.000000 2.077380 
# 
# From -- ./inp_files/10299.got.cif
#   From: 2010.05.17/outbox.cif.g08.bks.cpg/sg48_6_cif.got.tgz:10299.got - 2010.06.03 20:39:00.
