data_PCOD9391404
_publ_section_title
;
Structure prediction by ZEFSAII (Michael W. Deem and Ramdas Pophale) SiO2 
 PCOD9391404
Probable space group: P N N N
;
_chemical_formula_sum "Si O2"
_cell_formula_units_Z 40
_cell_length_a 5.315745
_cell_length_b 17.982352
_cell_length_c 18.960519
_cell_angle_alpha 90.000000
_cell_angle_beta 90.000000
_cell_angle_gamma 90.000000
_cell_volume 1812.428384
_symmetry_space_group_name_H-M "P N N N"
_symmetry_group_IT_number 48
_space_group.IT_coordinate_system_code '2'
_symmetry_cell_setting 'orthorhombic'
loop_
_space_group_symop_operation_xyz
x,y,z
1/2-x,1/2-y,z
x,1/2-y,1/2-z
1/2-x,y,1/2-z
-x,-y,-z
1/2+x,1/2+y,-z
-x,1/2+y,1/2+z
1/2+x,-y,1/2+z
loop_
_atom_site_type_symbol
_atom_site_label
_atom_site_fract_x
_atom_site_fract_y
_atom_site_fract_z
Si Si1 0.494797 0.798091 0.098202
Si Si2 0.258324 0.483629 0.042897
Si Si3 0.101127 0.556249 0.178722
Si Si4 0.013915 0.888425 0.705799
Si Si5 0.406160 0.175497 0.059880
O O1 0.750000 0.750000 0.100126
O O2 0.530965 0.870420 0.147774
O O3 0.250000 0.750000 0.119865
O O4 0.453581 0.821348 0.015716
O O5 0.275876 0.531154 0.113872
O O6 0.270183 0.396352 0.056744
O O7 0.500000 0.500000 0.000000
O O8 0.000000 0.500000 0.000000
O O9 0.250000 0.573654 0.250000
O O10 0.957848 0.477699 0.190595
O O11 0.750000 0.879561 0.750000
O O12 0.040458 0.843170 0.632955
O O13 0.250000 0.863990 0.750000
O O14 0.250000 0.250000 0.066535
#
# Coordination Sequence:
#
# PCOD9391404 Si02
#       5
#     8   8   8   8   8
#     4  11  26  44  69 102 140 185 238 283 350 417
#     4  11  24  43  72 102 134 184 234 286 344 413
#     4  10  24  46  71 101 141 183 235 293 347 415
#     4  10  24  45  69 104 137 182 236 289 354 420
#     4  10  24  44  72 103 142 183 234 289 351 422
#
# _framework density 22.069837
#
# number of rings (size 3 to 8) (size 9 to 14) (size 15 to 20)
#    0.000    1.600    2.000    0.000    5.600   16.800 
#    0.000    2.000    0.000    0.000    0.000    0.000 
#    0.000    0.000    0.000    0.000    0.000    0.000 
#
# Total GULP energy -223302.822998 kJ/mol
# GULP energy per Si atom -5582.570575 kJ/mol
# Density = 2.201960 g / cm^3
# Si number density = 22.069837 Si / 1000 Ang^3
#
#
#
# Elastic Constant Matrix: (Units=GPa)
#
#
# Indices 1 2 3 4 5 6 
#
# 1 104.9663 24.7420 52.2163 0.0000 0.0000 0.0000
# 2 24.7420 109.8590 52.4231 0.0000 0.0000 0.0000
# 3 52.2163 52.4231 168.0423 0.0000 0.0000 0.0000
# 4 0.0000 0.0000 0.0000 33.6888 0.0000 0.0000
# 5 0.0000 0.0000 0.0000 0.0000 38.8038 0.0000
# 6 0.0000 0.0000 0.0000 0.0000 0.0000 -24.6887
#
#
#
# Elastic Compliance Matrix: (Units=1/GPa)
#
#
# Indices 1 2 3 4 5 6 
#
# 1 0.011367 -0.001027 -0.003211 0.000000 0.000000 0.000000
# 2 -0.001027 0.010788 -0.003046 0.000000 0.000000 0.000000
# 3 -0.003211 -0.003046 0.007899 0.000000 0.000000 0.000000
# 4 0.000000 0.000000 0.000000 0.029683 0.000000 0.000000
# 5 0.000000 0.000000 0.000000 0.000000 0.025771 0.000000
# 6 0.000000 0.000000 0.000000 0.000000 0.000000 -0.040504
#
#
# Mechanical properties :
#
#
# Convention : Reuss Voigt Hill
#
# Bulk Modulus (GPa) = 64.58603 71.29228 67.93915
# Shear Modulus (GPa) = 77.23915 26.45985 51.84950
#
# Velocity S-wave (km/s) = 5.92230 3.46629 4.85225
# Velocity P-wave (km/s) = 8.72311 6.95654 7.88943
#
# Compressibility (1/GPa) = 0.01548322
#
# Stress axis : x y z
#
# Youngs Moduli (GPa) = 87.97686 92.69981 126.59766
#
# Poissons Ratio (x) = 0.09525 0.40656
# Poissons Ratio (y) = 0.09040 0.38562
# Poissons Ratio (z) = 0.28253 0.28237
#
# Static dielectric constant tensor:
#      x y z
#    x 1.804370 0.000000 0.000000 
#    y 0.000000 1.808100 0.000000 
#    z 0.000000 0.000000 1.839030 
# 
# From -- ./inp_files/4178.got.cif
#   From: 2010.05.17/outbox.cif.g08.bks.cpg/sg48_3_cif.got.tgz:4178.got - 2010.06.03 20:39:00.
