data_PCOD9391169
_publ_section_title
;
Structure prediction by ZEFSAII (Michael W. Deem and Ramdas Pophale) SiO2 
 PCOD9391169
Probable space group: P N N N
;
_chemical_formula_sum "Si O2"
_cell_formula_units_Z 38
_cell_length_a 23.679124
_cell_length_b 5.030665
_cell_length_c 13.526091
_cell_angle_alpha 90.000000
_cell_angle_beta 90.000000
_cell_angle_gamma 90.000000
_cell_volume 1611.251500
_symmetry_space_group_name_H-M "P N N N"
_symmetry_group_IT_number 48
_space_group.IT_coordinate_system_code '2'
_symmetry_cell_setting 'orthorhombic'
loop_
_space_group_symop_operation_xyz
x,y,z
1/2-x,1/2-y,z
x,1/2-y,1/2-z
1/2-x,y,1/2-z
-x,-y,-z
1/2+x,1/2+y,-z
-x,1/2+y,1/2+z
1/2+x,-y,1/2+z
loop_
_atom_site_type_symbol
_atom_site_label
_atom_site_fract_x
_atom_site_fract_y
_atom_site_fract_z
Si Si1 0.299637 0.436341 0.586966
Si Si2 0.515033 0.262754 0.078030
Si Si3 0.750000 0.250000 0.591113
Si Si4 0.156910 0.750000 0.250000
Si Si5 0.579233 0.732173 0.131314
Si Si6 0.750000 0.250000 0.250000
Si Si7 0.422962 0.250000 0.250000
O O1 0.250000 0.250000 0.628010
O O2 0.277955 0.534480 0.481079
O O3 0.360027 0.303785 0.587735
O O4 0.296636 0.663344 0.667742
O O5 0.569987 0.418226 0.116834
O O6 0.463928 0.280642 0.156066
O O7 0.535951 0.951264 0.078594
O O8 0.500000 0.500000 0.000000
O O9 0.801227 0.337012 0.661609
O O10 0.116453 0.502489 0.229132
O O11 0.574039 0.750000 0.250000
#
# Coordination Sequence:
#
# PCOD9391169 Si02
#       7
#     8   8   4   4   8   2   4
#     4  11  26  42  73 103 146 189 250 296 382 455
#     4  12  28  47  73 110 147 194 259 311 379 457
#     4  10  28  48  70 114 144 190 256 312 370 472
#     4  11  28  48  80 104 152 198 247 316 386 434
#     4  12  25  46  73 105 152 195 241 317 379 451
#     4  10  22  44  60 104 136 180 230 294 350 460
#     4  12  26  50  78 106 149 199 254 316 386 452
#
# _framework density 23.584152
#
# number of rings (size 3 to 8) (size 9 to 14) (size 15 to 20)
#    0.000    0.632    2.105    3.474   17.684    0.842 
#    0.000    0.000    0.000    0.000    0.000    0.000 
#    0.000    0.000    0.000    0.000    0.000    0.000 
#
# Total GULP energy -211667.389923 kJ/mol
# GULP energy per Si atom -5570.194472 kJ/mol
# Density = 2.353047 g / cm^3
# Si number density = 23.584152 Si / 1000 Ang^3
#
#
#
# Elastic Constant Matrix: (Units=GPa)
#
#
# Indices 1 2 3 4 5 6 
#
# 1 132.8593 45.2969 23.1035 0.0000 0.0000 0.0000
# 2 45.2969 135.0215 23.8487 0.0000 0.0000 0.0000
# 3 23.1035 23.8487 80.4237 0.0000 0.0000 0.0000
# 4 0.0000 0.0000 0.0000 64.7559 0.0000 0.0000
# 5 0.0000 0.0000 0.0000 0.0000 -12.8241 0.0000
# 6 0.0000 0.0000 0.0000 0.0000 0.0000-1561.9713
#
#
#
# Elastic Compliance Matrix: (Units=1/GPa)
#
#
# Indices 1 2 3 4 5 6 
#
# 1 0.008721 -0.002620 -0.001728 0.000000 0.000000 0.000000
# 2 -0.002620 0.008603 -0.001798 0.000000 0.000000 0.000000
# 3 -0.001728 -0.001798 0.013464 0.000000 0.000000 0.000000
# 4 0.000000 0.000000 0.000000 0.015443 0.000000 0.000000
# 5 0.000000 0.000000 0.000000 0.000000 -0.077978 0.000000
# 6 0.000000 0.000000 0.000000 0.000000 0.000000 -0.000640
#
#
# Mechanical properties :
#
#
# Convention : Reuss Voigt Hill
#
# Bulk Modulus (GPa) = 54.07233 59.20028 56.63631
# Shear Modulus (GPa) = -358.93746 -284.93752 -321.93749
#
# Velocity S-wave (km/s) = -12.35009 -11.00362 -11.69625
# Velocity P-wave (km/s) = 13.43090 11.67404 12.58317
#
# Compressibility (1/GPa) = 0.01849375
#
# Stress axis : x y z
#
# Youngs Moduli (GPa) = 114.67025 116.23928 74.27281
#
# Poissons Ratio (x) = 0.30459 0.12836
# Poissons Ratio (y) = 0.30048 0.13357
# Poissons Ratio (z) = 0.19817 0.20904
#
# Static dielectric constant tensor:
#      x y z
#    x 2.229040 0.000000 0.000000 
#    y 0.000000 1.923010 0.000000 
#    z 0.000000 0.000000 2.023240 
# 
# From -- ./inp_files/5808.got.cif
#   From: 2010.05.17/outbox.cif.g08.bks.cpg/sg48_3_cif.got.tgz:5808.got - 2010.06.03 20:39:00.
