data_PCOD9391842
_publ_section_title
;
Structure prediction by ZEFSAII (Michael W. Deem and Ramdas Pophale) SiO2 
 PCOD9391842
Probable space group: P N N N
;
_chemical_formula_sum "Si O2"
_cell_formula_units_Z 40
_cell_length_a 23.913678
_cell_length_b 8.017180
_cell_length_c 8.088825
_cell_angle_alpha 90.000000
_cell_angle_beta 90.000000
_cell_angle_gamma 90.000000
_cell_volume 1550.791640
_symmetry_space_group_name_H-M "P N N N"
_symmetry_group_IT_number 48
_space_group.IT_coordinate_system_code '2'
_symmetry_cell_setting 'orthorhombic'
loop_
_space_group_symop_operation_xyz
x,y,z
1/2-x,1/2-y,z
x,1/2-y,1/2-z
1/2-x,y,1/2-z
-x,-y,-z
1/2+x,1/2+y,-z
-x,1/2+y,1/2+z
1/2+x,-y,1/2+z
loop_
_atom_site_type_symbol
_atom_site_label
_atom_site_fract_x
_atom_site_fract_y
_atom_site_fract_z
Si Si1 0.477810 0.552742 0.770275
Si Si2 0.182959 0.927695 0.332745
Si Si3 0.385938 0.063826 0.474477
Si Si4 0.584167 0.946469 0.948010
Si Si5 0.728678 0.444197 0.082771
O O1 0.469704 0.750000 0.750000
O O2 0.444457 0.495348 0.936411
O O3 0.543617 0.530657 0.714560
O O4 0.451031 0.459936 0.615170
O O5 0.193511 0.750000 0.250000
O O6 0.236669 0.005531 0.421804
O O7 0.132768 0.914629 0.465356
O O8 0.146352 0.025701 0.199242
O O9 0.390510 0.262523 0.465222
O O10 0.336882 0.978942 0.584062
O O11 0.750000 0.250000 0.082462
O O12 0.750000 0.524494 0.250000
#
# Coordination Sequence:
#
# PCOD9391842 Si02
#       5
#     8   8   8   8   8
#     4  11  25  47  74 106 153 211 276 331 406 494
#     4  12  24  44  74 111 155 205 266 324 409 495
#     4  12  25  44  76 108 158 205 266 349 400 488
#     4  11  27  47  71 113 156 206 274 340 412 478
#     4  11  25  45  75 114 155 204 266 324 408 511
#
# _framework density 25.793278000000001
#
# number of rings (size 3 to 8) (size 9 to 14) (size 15 to 20)
#    0.000    0.600    2.000    5.400    2.800    7.200 
#    0.000    3.000    0.000    0.000    0.000    0.000 
#    0.000    0.000    0.000    0.000    0.000    0.000 
#
# Total GULP energy -222869.792446 kJ/mol
# GULP energy per Si atom -5571.744811 kJ/mol
# Density = 2.573457 g / cm^3
# Si number density = 25.793278 Si / 1000 Ang^3
#
#
#
# Elastic Constant Matrix: (Units=GPa)
#
#
# Indices 1 2 3 4 5 6 
#
# 1 245.8594 72.1707 50.4947 0.0000 0.0000 0.0000
# 2 72.1707 76.8387 23.6524 0.0000 0.0000 0.0000
# 3 50.4947 23.6524 124.8726 0.0000 0.0000 0.0000
# 4 0.0000 0.0000 0.0000 31.7965 0.0000 0.0000
# 5 0.0000 0.0000 0.0000 0.0000 21.1204 0.0000
# 6 0.0000 0.0000 0.0000 0.0000 0.0000 29.5315
#
#
#
# Elastic Compliance Matrix: (Units=1/GPa)
#
#
# Indices 1 2 3 4 5 6 
#
# 1 0.005839 -0.005052 -0.001404 0.000000 0.000000 0.000000
# 2 -0.005052 0.018191 -0.001403 0.000000 0.000000 0.000000
# 3 -0.001404 -0.001403 0.008842 0.000000 0.000000 0.000000
# 4 0.000000 0.000000 0.000000 0.031450 0.000000 0.000000
# 5 0.000000 0.000000 0.000000 0.000000 0.047348 0.000000
# 6 0.000000 0.000000 0.000000 0.000000 0.000000 0.033862
#
#
# Mechanical properties :
#
#
# Convention : Reuss Voigt Hill
#
# Bulk Modulus (GPa) = 58.29577 82.24513 70.27045
# Shear Modulus (GPa) = 29.94617 36.57321 33.25969
#
# Velocity S-wave (km/s) = 3.41105 3.76963 3.59482
# Velocity P-wave (km/s) = 6.17769 7.13459 6.67331
#
# Compressibility (1/GPa) = 0.01715390
#
# Stress axis : x y z
#
# Youngs Moduli (GPa) = 171.27242 54.97244 113.10097
#
# Poissons Ratio (x) = 0.27771 0.15881
# Poissons Ratio (y) = 0.86522 0.15866
# Poissons Ratio (z) = 0.24049 0.07712
#
# Static dielectric constant tensor:
#      x y z
#    x 2.243250 0.000000 0.000000 
#    y 0.000000 1.951640 0.000000 
#    z 0.000000 0.000000 2.304640 
# 
# From -- ./inp_files/15703.got.cif
#   From: 2010.05.17/outbox.cif.g08.bks.cpg/sg48_8_cif.got.tgz:15703.got - 2010.06.03 20:39:00.
