data_PCOD9391775
_publ_section_title
;
Structure prediction by ZEFSAII (Michael W. Deem and Ramdas Pophale) SiO2 
 PCOD9391775
Probable space group: P N N N
;
_chemical_formula_sum "Si O2"
_cell_formula_units_Z 44
_cell_length_a 12.072242
_cell_length_b 17.397742
_cell_length_c 9.131504
_cell_angle_alpha 90.000000
_cell_angle_beta 90.000000
_cell_angle_gamma 90.000000
_cell_volume 1917.887518
_symmetry_space_group_name_H-M "P N N N"
_symmetry_group_IT_number 48
_space_group.IT_coordinate_system_code '2'
_symmetry_cell_setting 'orthorhombic'
loop_
_space_group_symop_operation_xyz
x,y,z
1/2-x,1/2-y,z
x,1/2-y,1/2-z
1/2-x,y,1/2-z
-x,-y,-z
1/2+x,1/2+y,-z
-x,1/2+y,1/2+z
1/2+x,-y,1/2+z
loop_
_atom_site_type_symbol
_atom_site_label
_atom_site_fract_x
_atom_site_fract_y
_atom_site_fract_z
Si Si1 0.037542 0.269384 0.895014
Si Si2 0.069437 0.002704 0.251584
Si Si3 0.513396 0.172714 0.200494
Si Si4 0.124392 0.118268 0.823774
Si Si5 0.250000 0.628711 0.750000
Si Si6 0.246525 0.505161 0.001942
O O1 0.963208 0.250000 0.750000
O O2 0.080738 0.184330 0.936811
O O3 0.130315 0.323886 0.817521
O O4 0.281139 0.431639 0.902943
O O5 0.133816 0.996069 0.405428
O O6 0.034136 0.091534 0.250196
O O7 0.032775 0.054973 0.774927
O O8 0.155544 0.987145 0.120525
O O9 0.450993 0.250000 0.250000
O O10 0.515359 0.316311 0.474834
O O11 0.636316 0.173229 0.265183
O O12 0.239271 0.574974 0.891051
#
# Coordination Sequence:
#
# PCOD9391775 Si02
#       6
#     8   8   8   8   4   8
#     4   8  22  38  70  94 130 186 218 284 357 420
#     4  11  24  42  71  94 142 181 233 286 352 431
#     4  12  25  45  66 101 138 185 234 294 357 419
#     4   9  19  43  68  95 133 183 227 280 356 419
#     4  12  27  38  72 101 138 176 240 295 342 438
#     4  11  24  40  67 106 127 183 230 286 354 416
#
# _framework density 22.941907
#
# number of rings (size 3 to 8) (size 9 to 14) (size 15 to 20)
#    1.091    0.364    1.818    3.000    5.091    1.455 
#    0.000    6.364    4.000    3.273    0.000    0.000 
#    0.000    0.000    0.000    0.000    0.000    0.000 
#
# Total GULP energy -245296.100599 kJ/mol
# GULP energy per Si atom -5574.911377 kJ/mol
# Density = 2.288969 g / cm^3
# Si number density = 22.941907 Si / 1000 Ang^3
#
#
#
# Elastic Constant Matrix: (Units=GPa)
#
#
# Indices 1 2 3 4 5 6 
#
# 1 68.4982 42.6866 23.2720 0.0000 0.0000 0.0000
# 2 42.6866 184.2413 33.2690 0.0000 0.0000 0.0000
# 3 23.2720 33.2690 86.9356 0.0000 0.0000 0.0000
# 4 0.0000 0.0000 0.0000 13.3451 0.0000 0.0000
# 5 0.0000 0.0000 0.0000 0.0000 22.0179 0.0000
# 6 0.0000 0.0000 0.0000 0.0000 0.0000 40.2161
#
#
#
# Elastic Compliance Matrix: (Units=1/GPa)
#
#
# Indices 1 2 3 4 5 6 
#
# 1 0.017981 -0.003542 -0.003458 0.000000 0.000000 0.000000
# 2 -0.003542 0.006528 -0.001550 0.000000 0.000000 0.000000
# 3 -0.003458 -0.001550 0.013022 0.000000 0.000000 0.000000
# 4 0.000000 0.000000 0.000000 0.074934 0.000000 0.000000
# 5 0.000000 0.000000 0.000000 0.000000 0.045418 0.000000
# 6 0.000000 0.000000 0.000000 0.000000 0.000000 0.024866
#
#
# Mechanical properties :
#
#
# Convention : Reuss Voigt Hill
#
# Bulk Modulus (GPa) = 48.94492 59.79225 54.36859
# Shear Modulus (GPa) = 24.19460 31.14565 27.67013
#
# Velocity S-wave (km/s) = 3.25099 3.68854 3.47666
# Velocity P-wave (km/s) = 5.95588 6.65278 6.31395
#
# Compressibility (1/GPa) = 0.02043113
#
# Stress axis : x y z
#
# Youngs Moduli (GPa) = 55.61498 153.18365 76.79497
#
# Poissons Ratio (x) = 0.54250 0.26556
# Poissons Ratio (y) = 0.19696 0.11905
# Poissons Ratio (z) = 0.19232 0.23746
#
# Static dielectric constant tensor:
#      x y z
#    x 1.937300 0.000000 0.000000 
#    y 0.000000 1.883800 0.000000 
#    z 0.000000 0.000000 1.951620 
# 
# From -- ./inp_files/12668.got.cif
#   From: 2010.05.17/outbox.cif.g08.bks.cpg/sg48_7_cif.got.tgz:12668.got - 2010.06.03 20:39:00.
