data_PCOD9391565
_publ_section_title
;
Structure prediction by ZEFSAII (Michael W. Deem and Ramdas Pophale) SiO2 
 PCOD9391565
Probable space group: P N N N
;
_chemical_formula_sum "Si O2"
_cell_formula_units_Z 32
_cell_length_a 14.395241
_cell_length_b 8.722601
_cell_length_c 10.620875
_cell_angle_alpha 90.000000
_cell_angle_beta 90.000000
_cell_angle_gamma 90.000000
_cell_volume 1333.598949
_symmetry_space_group_name_H-M "P N N N"
_symmetry_group_IT_number 48
_space_group.IT_coordinate_system_code '2'
_symmetry_cell_setting 'orthorhombic'
loop_
_space_group_symop_operation_xyz
x,y,z
1/2-x,1/2-y,z
x,1/2-y,1/2-z
1/2-x,y,1/2-z
-x,-y,-z
1/2+x,1/2+y,-z
-x,1/2+y,1/2+z
1/2+x,-y,1/2+z
loop_
_atom_site_type_symbol
_atom_site_label
_atom_site_fract_x
_atom_site_fract_y
_atom_site_fract_z
Si Si1 0.920258 0.750000 0.250000
Si Si2 0.750000 0.250000 0.472775
Si Si3 0.558242 0.120481 0.914406
Si Si4 0.856750 0.917442 0.796992
Si Si5 0.695259 0.583904 0.083831
O O1 0.857869 0.893950 0.215351
O O2 0.979278 0.737163 0.125006
O O3 0.651944 0.291898 0.543303
O O4 0.762313 0.414338 0.407403
O O5 0.584864 0.036231 0.784044
O O6 0.500000 0.000000 0.000000
O O7 0.886412 0.750000 0.750000
O O8 0.750000 0.937990 0.750000
O O9 0.856003 0.926396 0.947341
O O10 0.750000 0.750000 0.070276
#
# Coordination Sequence:
#
# PCOD9391565 Si02
#       5
#     4   4   8   8   8
#     4  12  29  45  70 108 166 190 252 349 395 458
#     4  12  26  49  85 106 152 214 268 314 416 482
#     4  12  27  47  74 119 155 200 272 331 387 495
#     4  11  20  40  77 107 151 206 261 314 390 477
#     4  12  25  49  75 113 153 210 263 330 402 479
#
# _framework density 23.995221000000001
#
# number of rings (size 3 to 8) (size 9 to 14) (size 15 to 20)
#    0.000    0.250    5.000    4.875    0.000    7.000 
#    0.000    8.750    0.000    0.000    0.000    0.000 
#    0.000    0.000    0.000    0.000    0.000    0.000 
#
# Total GULP energy -178291.238004 kJ/mol
# GULP energy per Si atom -5571.601188 kJ/mol
# Density = 2.394061 g / cm^3
# Si number density = 23.995221 Si / 1000 Ang^3
#
#
#
# Elastic Constant Matrix: (Units=GPa)
#
#
# Indices 1 2 3 4 5 6 
#
# 1 105.8684 63.0667 57.4867 0.0000 0.0000 0.0000
# 2 63.0667 175.5817 50.4421 0.0000 0.0000 0.0000
# 3 57.4867 50.4421 118.3197 0.0000 0.0000 0.0000
# 4 0.0000 0.0000 0.0000 39.3276 0.0000 0.0000
# 5 0.0000 0.0000 0.0000 0.0000 14.9625 0.0000
# 6 0.0000 0.0000 0.0000 0.0000 0.0000 31.8604
#
#
#
# Elastic Compliance Matrix: (Units=1/GPa)
#
#
# Indices 1 2 3 4 5 6 
#
# 1 0.014644 -0.003665 -0.005552 0.000000 0.000000 0.000000
# 2 -0.003665 0.007407 -0.001377 0.000000 0.000000 0.000000
# 3 -0.005552 -0.001377 0.011737 0.000000 0.000000 0.000000
# 4 0.000000 0.000000 0.000000 0.025427 0.000000 0.000000
# 5 0.000000 0.000000 0.000000 0.000000 0.066834 0.000000
# 6 0.000000 0.000000 0.000000 0.000000 0.000000 0.031387
#
#
# Mechanical properties :
#
#
# Convention : Reuss Voigt Hill
#
# Bulk Modulus (GPa) = 79.37371 82.41786 80.89578
# Shear Modulus (GPa) = 27.34859 32.48170 29.91515
#
# Velocity S-wave (km/s) = 3.37968 3.68322 3.53471
# Velocity P-wave (km/s) = 6.95561 7.24640 7.10249
#
# Compressibility (1/GPa) = 0.01259863
#
# Stress axis : x y z
#
# Youngs Moduli (GPa) = 68.28832 135.00057 85.20351
#
# Poissons Ratio (x) = 0.49474 0.47309
# Poissons Ratio (y) = 0.25026 0.11736
# Poissons Ratio (z) = 0.37917 0.18595
#
# Static dielectric constant tensor:
#      x y z
#    x 2.100240 0.000000 0.000000 
#    y 0.000000 1.979940 0.000000 
#    z 0.000000 0.000000 1.889040 
# 
# From -- ./inp_files/10349.got.cif
#   From: 2010.05.17/outbox.cif.g08.bks.cpg/sg48_6_cif.got.tgz:10349.got - 2010.06.03 20:39:00.
