data_PCOD9391648
_publ_section_title
;
Structure prediction by ZEFSAII (Michael W. Deem and Ramdas Pophale) SiO2 
 PCOD9391648
Probable space group: P N N N
;
_chemical_formula_sum "Si O2"
_cell_formula_units_Z 38
_cell_length_a 8.194715
_cell_length_b 9.319654
_cell_length_c 25.656098
_cell_angle_alpha 90.000000
_cell_angle_beta 90.000000
_cell_angle_gamma 90.000000
_cell_volume 1959.405167
_symmetry_space_group_name_H-M "P N N N"
_symmetry_group_IT_number 48
_space_group.IT_coordinate_system_code '2'
_symmetry_cell_setting 'orthorhombic'
loop_
_space_group_symop_operation_xyz
x,y,z
1/2-x,1/2-y,z
x,1/2-y,1/2-z
1/2-x,y,1/2-z
-x,-y,-z
1/2+x,1/2+y,-z
-x,1/2+y,1/2+z
1/2+x,-y,1/2+z
loop_
_atom_site_type_symbol
_atom_site_label
_atom_site_fract_x
_atom_site_fract_y
_atom_site_fract_z
Si Si1 0.500374 0.725262 0.830910
Si Si2 0.750000 0.750000 0.750000
Si Si3 0.706940 0.488935 0.308730
Si Si4 0.913735 0.826698 0.947800
Si Si5 0.250000 0.250000 0.613833
Si Si6 0.084565 0.668810 0.447543
O O1 0.637029 0.667586 0.791380
O O2 0.448184 0.882672 0.810611
O O3 0.351255 0.616708 0.826779
O O4 0.549370 0.734792 0.890826
O O5 0.750000 0.535252 0.250000
O O6 0.700635 0.618051 0.348921
O O7 0.750000 0.750000 0.966945
O O8 0.891696 0.997744 0.942175
O O9 0.051374 0.800965 0.991171
O O10 0.414623 0.210431 0.581481
O O11 0.250000 0.750000 0.430448
#
# Coordination Sequence:
#
# PCOD9391648 Si02
#       6
#     8   2   8   8   4   8
#     4  11  22  38  67  96 127 167 223 272 322 387
#     4  12  20  36  64  98 130 154 220 282 322 382
#     4  11  23  43  64  94 128 177 218 270 333 395
#     4  11  24  43  67  99 130 175 227 272 329 395
#     4  12  25  45  66  96 141 177 216 276 342 406
#     4  11  27  45  65  99 138 175 222 274 339 405
#
# _framework density 19.393640999999999
#
# number of rings (size 3 to 8) (size 9 to 14) (size 15 to 20)
#    0.000    0.842    6.316    0.947    5.895    0.842 
#    0.000    0.000    0.000    2.526    0.000    0.000 
#    0.000    0.000    0.000    0.000    0.000    0.000 
#
# Total GULP energy -211995.876576 kJ/mol
# GULP energy per Si atom -5578.838857 kJ/mol
# Density = 1.934950 g / cm^3
# Si number density = 19.393641 Si / 1000 Ang^3
#
#
#
# Elastic Constant Matrix: (Units=GPa)
#
#
# Indices 1 2 3 4 5 6 
#
# 1 103.3980 48.8126 29.2751 0.0000 0.0000 0.0000
# 2 48.8126 95.7716 33.6548 0.0000 0.0000 0.0000
# 3 29.2751 33.6548 117.6457 0.0000 0.0000 0.0000
# 4 0.0000 0.0000 0.0000 11.1330 0.0000 0.0000
# 5 0.0000 0.0000 0.0000 0.0000 29.1006 0.0000
# 6 0.0000 0.0000 0.0000 0.0000 0.0000 19.3441
#
#
#
# Elastic Compliance Matrix: (Units=1/GPa)
#
#
# Indices 1 2 3 4 5 6 
#
# 1 0.012965 -0.006086 -0.001485 0.000000 0.000000 0.000000
# 2 -0.006086 0.014465 -0.002624 0.000000 0.000000 0.000000
# 3 -0.001485 -0.002624 0.009620 0.000000 0.000000 0.000000
# 4 0.000000 0.000000 0.000000 0.089823 0.000000 0.000000
# 5 0.000000 0.000000 0.000000 0.000000 0.034364 0.000000
# 6 0.000000 0.000000 0.000000 0.000000 0.000000 0.051695
#
#
# Mechanical properties :
#
#
# Convention : Reuss Voigt Hill
#
# Bulk Modulus (GPa) = 60.02099 60.03335 60.02717
# Shear Modulus (GPa) = 20.93138 25.58707 23.25922
#
# Velocity S-wave (km/s) = 3.28882 3.63623 3.46688
# Velocity P-wave (km/s) = 6.74075 6.97509 6.85893
#
# Compressibility (1/GPa) = 0.01666084
#
# Stress axis : x y z
#
# Youngs Moduli (GPa) = 77.13075 69.13047 103.94773
#
# Poissons Ratio (x) = 0.42073 0.15438
# Poissons Ratio (y) = 0.46942 0.27272
# Poissons Ratio (z) = 0.11455 0.18137
#
# Static dielectric constant tensor:
#      x y z
#    x 1.756440 0.000000 0.000000 
#    y 0.000000 1.656910 0.000000 
#    z 0.000000 0.000000 1.693740 
# 
# From -- ./inp_files/9044.got.cif
#   From: 2010.05.17/outbox.cif.g08.bks.cpg/sg48_5_cif.got.tgz:9044.got - 2010.06.03 20:39:00.
