data_PCOD9391755
_publ_section_title
;
Structure prediction by ZEFSAII (Michael W. Deem and Ramdas Pophale) SiO2 
 PCOD9391755
Probable space group: P N N N
;
_chemical_formula_sum "Si O2"
_cell_formula_units_Z 36
_cell_length_a 4.957790
_cell_length_b 14.230576
_cell_length_c 21.214565
_cell_angle_alpha 90.000000
_cell_angle_beta 90.000000
_cell_angle_gamma 90.000000
_cell_volume 1496.734390
_symmetry_space_group_name_H-M "P N N N"
_symmetry_group_IT_number 48
_space_group.IT_coordinate_system_code '2'
_symmetry_cell_setting 'orthorhombic'
loop_
_space_group_symop_operation_xyz
x,y,z
1/2-x,1/2-y,z
x,1/2-y,1/2-z
1/2-x,y,1/2-z
-x,-y,-z
1/2+x,1/2+y,-z
-x,1/2+y,1/2+z
1/2+x,-y,1/2+z
loop_
_atom_site_type_symbol
_atom_site_label
_atom_site_fract_x
_atom_site_fract_y
_atom_site_fract_z
Si Si1 0.357262 0.151400 0.347358
Si Si2 0.482300 0.814192 0.995996
Si Si3 0.867178 0.049720 0.388907
Si Si4 0.750000 0.250000 0.750000
Si Si5 0.750000 0.250000 0.250000
Si Si6 0.048526 0.338000 0.865483
O O1 0.250000 0.250000 0.374914
O O2 0.569423 0.092621 0.387291
O O3 0.545781 0.186633 0.290548
O O4 0.085982 0.091193 0.338984
O O5 0.250000 0.750000 0.966445
O O6 0.496836 0.908820 0.954030
O O7 0.750000 0.750000 0.001508
O O8 0.389999 0.836795 0.067751
O O9 0.828336 0.941289 0.371657
O O10 0.600681 0.180916 0.799565
O O11 0.250000 0.250000 0.867121
#
# Coordination Sequence:
#
# PCOD9391755 Si02
#       6
#     8   8   8   2   2   8
#     4  12  25  45  69 109 153 198 242 316 379 462
#     4  11  23  45  79 116 154 188 238 321 394 459
#     4  12  26  44  80 112 150 193 254 309 391 450
#     4  12  26  56  74  94 162 204 278 306 374 432
#     4  12  26  44  68 100 168 192 254 294 390 460
#     4  11  28  51  75 108 149 204 261 319 369 443
#
# _framework density 24.052364000000001
#
# number of rings (size 3 to 8) (size 9 to 14) (size 15 to 20)
#    0.000    0.444    3.333    4.667    3.111    1.778 
#    0.000    5.556    0.000    0.000    0.000    0.000 
#    0.000    0.000    0.000    0.000    0.000    0.000 
#
# Total GULP energy -200781.573069 kJ/mol
# GULP energy per Si atom -5577.265919 kJ/mol
# Density = 2.399762 g / cm^3
# Si number density = 24.052364 Si / 1000 Ang^3
#
#
#
# Elastic Constant Matrix: (Units=GPa)
#
#
# Indices 1 2 3 4 5 6 
#
# 1 136.6308 62.7861 26.4360 0.0000 0.0000 0.0000
# 2 62.7861 207.2873 51.5578 0.0000 0.0000 0.0000
# 3 26.4360 51.5578 166.0122 0.0000 0.0000 0.0000
# 4 0.0000 0.0000 0.0000 292.3463 0.0000 0.0000
# 5 0.0000 0.0000 0.0000 0.0000 59.2128 0.0000
# 6 0.0000 0.0000 0.0000 0.0000 0.0000 35.4067
#
#
#
# Elastic Compliance Matrix: (Units=1/GPa)
#
#
# Indices 1 2 3 4 5 6 
#
# 1 0.008558 -0.002442 -0.000604 0.000000 0.000000 0.000000
# 2 -0.002442 0.005925 -0.001451 0.000000 0.000000 0.000000
# 3 -0.000604 -0.001451 0.006571 0.000000 0.000000 0.000000
# 4 0.000000 0.000000 0.000000 0.003421 0.000000 0.000000
# 5 0.000000 0.000000 0.000000 0.000000 0.016888 0.000000
# 6 0.000000 0.000000 0.000000 0.000000 0.000000 0.028243
#
#
# Mechanical properties :
#
#
# Convention : Reuss Voigt Hill
#
# Bulk Modulus (GPa) = 82.92922 87.94333 85.43627
# Shear Modulus (GPa) = 60.51804 102.00318 81.26061
#
# Velocity S-wave (km/s) = 5.02151 6.51927 5.81878
# Velocity P-wave (km/s) = 8.25677 9.65973 8.98567
#
# Compressibility (1/GPa) = 0.01205848
#
# Stress axis : x y z
#
# Youngs Moduli (GPa) = 116.84917 168.78229 152.19308
#
# Poissons Ratio (x) = 0.41214 0.09199
# Poissons Ratio (y) = 0.28533 0.22086
# Poissons Ratio (z) = 0.07063 0.24494
#
# Static dielectric constant tensor:
#      x y z
#    x 1.941590 0.000000 0.000000 
#    y 0.000000 1.921730 0.000000 
#    z 0.000000 0.000000 2.021440 
# 
# From -- ./inp_files/35233.got.cif
#   From: 2010.05.17/outbox.cif.g08.bks.cpg/sg48_18_cif.got.tgz:35233.got - 2010.06.03 20:39:00.
