data_PCOD9391162
_publ_section_title
;
Structure prediction by ZEFSAII (Michael W. Deem and Ramdas Pophale) SiO2 
 PCOD9391162
Probable space group: P N N N
;
_chemical_formula_sum "Si O2"
_cell_formula_units_Z 40
_cell_length_a 10.328300
_cell_length_b 17.151215
_cell_length_c 8.406357
_cell_angle_alpha 90.000000
_cell_angle_beta 90.000000
_cell_angle_gamma 90.000000
_cell_volume 1489.126406
_symmetry_space_group_name_H-M "P N N N"
_symmetry_group_IT_number 48
_space_group.IT_coordinate_system_code '2'
_symmetry_cell_setting 'orthorhombic'
loop_
_space_group_symop_operation_xyz
x,y,z
1/2-x,1/2-y,z
x,1/2-y,1/2-z
1/2-x,y,1/2-z
-x,-y,-z
1/2+x,1/2+y,-z
-x,1/2+y,1/2+z
1/2+x,-y,1/2+z
loop_
_atom_site_type_symbol
_atom_site_label
_atom_site_fract_x
_atom_site_fract_y
_atom_site_fract_z
Si Si1 0.895632 0.066323 0.466799
Si Si2 0.092920 0.313322 0.112223
Si Si3 0.884876 0.275294 0.567786
Si Si4 0.565160 0.067751 0.676455
Si Si5 0.304378 0.439631 0.983425
O O1 0.968492 0.129145 0.358306
O O2 0.883302 0.093345 0.651009
O O3 0.776984 0.013099 0.421170
O O4 0.000000 0.000000 0.500000
O O5 0.119387 0.250000 0.250000
O O6 0.288582 0.368840 0.451960
O O7 0.023450 0.258187 0.983696
O O8 0.750000 0.250000 0.485698
O O9 0.876558 0.250000 0.750000
O O10 0.885379 0.367847 0.553934
O O11 0.411017 0.077902 0.651121
O O12 0.615449 0.981670 0.628798
#
# Coordination Sequence:
#
# PCOD9391162 Si02
#       5
#     8   8   8   8   8
#     4  10  22  43  71 104 150 200 254 325 389 482
#     4  11  25  47  75 115 161 201 258 342 419 470
#     4  11  24  45  77 105 147 204 266 325 400 485
#     4  11  23  45  76 108 144 210 272 315 402 484
#     4  10  25  45  78 112 154 209 269 341 396 501
#
# _framework density 26.861387000000001
#
# number of rings (size 3 to 8) (size 9 to 14) (size 15 to 20)
#    0.000    1.400    2.000    1.800    2.800   12.400 
#    0.000    8.000    0.000    4.800    0.000    0.000 
#    0.000    0.000    0.000    0.000    0.000    0.000 
#
# Total GULP energy -223123.904429 kJ/mol
# GULP energy per Si atom -5578.097611 kJ/mol
# Density = 2.680025 g / cm^3
# Si number density = 26.861387 Si / 1000 Ang^3
#
#
#
# Elastic Constant Matrix: (Units=GPa)
#
#
# Indices 1 2 3 4 5 6 
#
# 1 198.4308 86.9152 58.9818 0.0000 0.0000 0.0000
# 2 86.9152 174.3031 53.3320 0.0000 0.0000 0.0000
# 3 58.9818 53.3320 98.4634 0.0000 0.0000 0.0000
# 4 0.0000 0.0000 0.0000 27.3466 0.0000 0.0000
# 5 0.0000 0.0000 0.0000 0.0000 34.6338 0.0000
# 6 0.0000 0.0000 0.0000 0.0000 0.0000 60.9781
#
#
#
# Elastic Compliance Matrix: (Units=1/GPa)
#
#
# Indices 1 2 3 4 5 6 
#
# 1 0.007026 -0.002656 -0.002770 0.000000 0.000000 0.000000
# 2 -0.002656 0.007881 -0.002678 0.000000 0.000000 0.000000
# 3 -0.002770 -0.002678 0.013266 0.000000 0.000000 0.000000
# 4 0.000000 0.000000 0.000000 0.036568 0.000000 0.000000
# 5 0.000000 0.000000 0.000000 0.000000 0.028874 0.000000
# 6 0.000000 0.000000 0.000000 0.000000 0.000000 0.016399
#
#
# Mechanical properties :
#
#
# Convention : Reuss Voigt Hill
#
# Bulk Modulus (GPa) = 83.57594 96.62838 90.10216
# Shear Modulus (GPa) = 38.39957 42.72291 40.56124
#
# Velocity S-wave (km/s) = 3.78503 3.99243 3.89011
# Velocity P-wave (km/s) = 7.09107 7.56992 7.33441
#
# Compressibility (1/GPa) = 0.01196517
#
# Stress axis : x y z
#
# Youngs Moduli (GPa) = 142.32103 126.89073 75.38149
#
# Poissons Ratio (x) = 0.33702 0.20883
# Poissons Ratio (y) = 0.37801 0.20184
# Poissons Ratio (z) = 0.39428 0.33976
#
# Static dielectric constant tensor:
#      x y z
#    x 2.271710 0.000000 0.000000 
#    y 0.000000 2.189530 0.000000 
#    z 0.000000 0.000000 1.760300 
# 
# From -- ./inp_files/10695.got.cif
#   From: 2010.05.17/outbox.cif.g08.bks.cpg/sg48_6_cif.got.tgz:10695.got - 2010.06.03 20:39:00.
