data_PCOD9391855
_publ_section_title
;
Structure prediction by ZEFSAII (Michael W. Deem and Ramdas Pophale) SiO2 
 PCOD9391855
Probable space group: P N N N
;
_chemical_formula_sum "Si O2"
_cell_formula_units_Z 48
_cell_length_a 8.260109
_cell_length_b 25.170641
_cell_length_c 9.972030
_cell_angle_alpha 90.000000
_cell_angle_beta 90.000000
_cell_angle_gamma 90.000000
_cell_volume 2073.307077
_symmetry_space_group_name_H-M "P N N N"
_symmetry_group_IT_number 48
_space_group.IT_coordinate_system_code '2'
_symmetry_cell_setting 'orthorhombic'
loop_
_space_group_symop_operation_xyz
x,y,z
1/2-x,1/2-y,z
x,1/2-y,1/2-z
1/2-x,y,1/2-z
-x,-y,-z
1/2+x,1/2+y,-z
-x,1/2+y,1/2+z
1/2+x,-y,1/2+z
loop_
_atom_site_type_symbol
_atom_site_label
_atom_site_fract_x
_atom_site_fract_y
_atom_site_fract_z
Si Si1 0.749174 0.808640 0.490077
Si Si2 0.219877 0.040140 0.599211
Si Si3 0.379120 0.927898 0.984619
Si Si4 0.619225 0.587864 0.862836
Si Si5 0.994164 0.691430 0.237866
Si Si6 0.750000 0.399289 0.750000
Si Si7 0.250000 0.601265 0.750000
O O1 0.750000 0.750000 0.553118
O O2 0.683596 0.854169 0.587610
O O3 0.633214 0.807142 0.359475
O O4 0.918503 0.816147 0.410592
O O5 0.250000 0.059885 0.750000
O O6 0.363529 0.052441 0.497217
O O7 0.063588 0.066452 0.528461
O O8 0.173797 0.978013 0.607134
O O9 0.278391 0.933207 0.119333
O O10 0.321395 0.878790 0.894629
O O11 0.750000 0.569704 0.750000
O O12 0.436464 0.587314 0.807881
O O13 0.070967 0.750000 0.250000
O O14 0.101975 0.640653 0.264737
#
# Coordination Sequence:
#
# PCOD9391855 Si02
#       7
#     8   8   8   8   8   4   4
#     4   9  20  41  67  96 133 178 230 285 351 421
#     4  11  26  47  71  99 139 192 245 295 359 425
#     4  11  26  44  66 104 141 186 239 296 359 423
#     4  12  26  44  73 103 144 190 238 294 365 429
#     4   9  19  37  64 100 135 173 227 287 344 413
#     4  12  23  36  66 102 138 178 231 286 352 412
#     4  12  26  48  64 103 148 188 233 292 354 432
#
# _framework density 23.151419000000001
#
# number of rings (size 3 to 8) (size 9 to 14) (size 15 to 20)
#    0.000    1.333    2.500    3.250    8.167    1.000 
#    0.000    0.000    0.000    1.000    0.000    0.000 
#    0.000    0.000    0.000    0.000    0.000    0.000 
#
# Total GULP energy -267466.612269 kJ/mol
# GULP energy per Si atom -5572.221089 kJ/mol
# Density = 2.309873 g / cm^3
# Si number density = 23.151419 Si / 1000 Ang^3
#
#
#
# Elastic Constant Matrix: (Units=GPa)
#
#
# Indices 1 2 3 4 5 6 
#
# 1 139.4452 20.8326 55.3247 0.0000 0.0000 0.0000
# 2 20.8326 79.9151 8.3329 0.0000 0.0000 0.0000
# 3 55.3247 8.3329 153.3313 0.0000 0.0000 0.0000
# 4 0.0000 0.0000 0.0000 -10.2590 0.0000 0.0000
# 5 0.0000 0.0000 0.0000 0.0000 40.7477 0.0000
# 6 0.0000 0.0000 0.0000 0.0000 0.0000 25.9488
#
#
#
# Elastic Compliance Matrix: (Units=1/GPa)
#
#
# Indices 1 2 3 4 5 6 
#
# 1 0.008659 -0.001943 -0.003019 0.000000 0.000000 0.000000
# 2 -0.001943 0.013020 -0.000007 0.000000 0.000000 0.000000
# 3 -0.003019 -0.000007 0.007611 0.000000 0.000000 0.000000
# 4 0.000000 0.000000 0.000000 -0.097476 0.000000 0.000000
# 5 0.000000 0.000000 0.000000 0.000000 0.024541 0.000000
# 6 0.000000 0.000000 0.000000 0.000000 0.000000 0.038537
#
#
# Mechanical properties :
#
#
# Convention : Reuss Voigt Hill
#
# Bulk Modulus (GPa) = 51.66656 60.18578 55.92617
# Shear Modulus (GPa) = 443.18798 30.50094 236.84446
#
# Velocity S-wave (km/s) = 13.85084 3.63361 10.12544
# Velocity P-wave (km/s) = 16.67812 6.60736 12.68497
#
# Compressibility (1/GPa) = 0.01935488
#
# Stress axis : x y z
#
# Youngs Moduli (GPa) = 115.48413 76.80277 131.38122
#
# Poissons Ratio (x) = 0.14919 0.39662
# Poissons Ratio (y) = 0.22433 0.00088
# Poissons Ratio (z) = 0.34863 0.00051
#
# Static dielectric constant tensor:
#      x y z
#    x 2.211890 0.000000 0.000000 
#    y 0.000000 2.006670 0.000000 
#    z 0.000000 0.000000 1.869680 
# 
# From -- ./inp_files/9530.got.cif
#   From: 2010.05.17/outbox.cif.g08.bks.cpg/sg48_5_cif.got.tgz:9530.got - 2010.06.03 20:39:00.
