data_PCOD9391377
_publ_section_title
;
Structure prediction by ZEFSAII (Michael W. Deem and Ramdas Pophale) SiO2 
 PCOD9391377
Probable space group: P N N N
;
_chemical_formula_sum "Si O2"
_cell_formula_units_Z 48
_cell_length_a 14.261299
_cell_length_b 18.314861
_cell_length_c 8.658659
_cell_angle_alpha 90.000000
_cell_angle_beta 90.000000
_cell_angle_gamma 90.000000
_cell_volume 2261.587258
_symmetry_space_group_name_H-M "P N N N"
_symmetry_group_IT_number 48
_space_group.IT_coordinate_system_code '2'
_symmetry_cell_setting 'orthorhombic'
loop_
_space_group_symop_operation_xyz
x,y,z
1/2-x,1/2-y,z
x,1/2-y,1/2-z
1/2-x,y,1/2-z
-x,-y,-z
1/2+x,1/2+y,-z
-x,1/2+y,1/2+z
1/2+x,-y,1/2+z
loop_
_atom_site_type_symbol
_atom_site_label
_atom_site_fract_x
_atom_site_fract_y
_atom_site_fract_z
Si Si1 0.271883 0.569343 0.577328
Si Si2 0.733363 0.930731 0.926823
Si Si3 0.948071 0.922498 0.965721
Si Si4 0.077853 0.327046 0.162111
Si Si5 0.105196 0.812114 0.466711
Si Si6 0.885337 0.148211 0.884444
O O1 0.250000 0.548271 0.750000
O O2 0.319693 0.498374 0.503538
O O3 0.334241 0.641256 0.584340
O O4 0.183124 0.591852 0.470731
O O5 0.750000 0.952591 0.750000
O O6 0.836928 0.923924 0.000182
O O7 0.672228 0.857918 0.915788
O O8 0.953018 0.888051 0.791460
O O9 0.007814 0.868451 0.071741
O O10 0.000000 0.000000 0.000000
O O11 0.091488 0.250000 0.250000
O O12 0.999486 0.316338 0.031793
O O13 0.122390 0.849415 0.299952
O O14 0.136110 0.728891 0.447446
#
# Coordination Sequence:
#
# PCOD9391377 Si02
#       6
#     8   8   8   8   8   8
#     4  12  25  40  68 103 143 180 230 291 354 425
#     4  10  24  42  66 101 134 183 227 294 350 409
#     4  11  22  41  73  96 137 178 229 292 349 415
#     4  11  24  46  70 103 136 184 245 286 346 423
#     4  11  25  41  69  98 138 186 229 286 354 423
#     4  11  23  45  66  99 140 183 229 288 357 417
#
# _framework density 21.224032000000001
#
# number of rings (size 3 to 8) (size 9 to 14) (size 15 to 20)
#    0.000    1.000    3.333    3.000    2.333    7.000 
#    0.000    0.000    0.000    2.000    0.000    0.000 
#    0.000    0.000    0.000    0.000    0.000    0.000 
#
# Total GULP energy -268009.898760 kJ/mol
# GULP energy per Si atom -5583.539557 kJ/mol
# Density = 2.117573 g / cm^3
# Si number density = 21.224032 Si / 1000 Ang^3
#
#
#
# Elastic Constant Matrix: (Units=GPa)
#
#
# Indices 1 2 3 4 5 6 
#
# 1 87.2565 43.2228 8.3180 0.0000 0.0000 0.0000
# 2 43.2228 102.2427 39.0664 0.0000 0.0000 0.0000
# 3 8.3180 39.0664 43.2402 0.0000 0.0000 0.0000
# 4 0.0000 0.0000 0.0000 21.9918 0.0000 0.0000
# 5 0.0000 0.0000 0.0000 0.0000 26.3097 0.0000
# 6 0.0000 0.0000 0.0000 0.0000 0.0000 31.1521
#
#
#
# Elastic Compliance Matrix: (Units=1/GPa)
#
#
# Indices 1 2 3 4 5 6 
#
# 1 0.015013 -0.008007 0.004346 0.000000 0.000000 0.000000
# 2 -0.008007 0.019208 -0.015814 0.000000 0.000000 0.000000
# 3 0.004346 -0.015814 0.036578 0.000000 0.000000 0.000000
# 4 0.000000 0.000000 0.000000 0.045471 0.000000 0.000000
# 5 0.000000 0.000000 0.000000 0.000000 0.038009 0.000000
# 6 0.000000 0.000000 0.000000 0.000000 0.000000 0.032101
#
#
# Mechanical properties :
#
#
# Convention : Reuss Voigt Hill
#
# Bulk Modulus (GPa) = 31.39778 45.99488 38.69633
# Shear Modulus (GPa) = 21.19145 25.36622 23.27883
#
# Velocity S-wave (km/s) = 3.16328 3.46087 3.31541
# Velocity P-wave (km/s) = 5.30730 6.13908 5.73828
#
# Compressibility (1/GPa) = 0.03184939
#
# Stress axis : x y z
#
# Youngs Moduli (GPa) = 66.61097 52.06174 27.33907
#
# Poissons Ratio (x) = 0.41687 -0.11883
# Poissons Ratio (y) = 0.53337 0.43233
# Poissons Ratio (z) = -0.28952 0.82328
#
# Static dielectric constant tensor:
#      x y z
#    x 1.821350 0.000000 0.000000 
#    y 0.000000 1.778660 0.000000 
#    z 0.000000 0.000000 1.749410 
# 
# From -- ./inp_files/12752.got.cif
#   From: 2010.05.17/outbox.cif.g08.bks.cpg/sg48_7_cif.got.tgz:12752.got - 2010.06.03 20:39:00.
