data_PCOD9391030
_publ_section_title
;
Structure prediction by ZEFSAII (Michael W. Deem and Ramdas Pophale) SiO2 
 PCOD9391030
Probable space group: P N N N
;
_chemical_formula_sum "Si O2"
_cell_formula_units_Z 32
_cell_length_a 5.309090
_cell_length_b 8.633584
_cell_length_c 29.627083
_cell_angle_alpha 90.000000
_cell_angle_beta 90.000000
_cell_angle_gamma 90.000000
_cell_volume 1358.001034
_symmetry_space_group_name_H-M "P N N N"
_symmetry_group_IT_number 48
_space_group.IT_coordinate_system_code '2'
_symmetry_cell_setting 'orthorhombic'
loop_
_space_group_symop_operation_xyz
x,y,z
1/2-x,1/2-y,z
x,1/2-y,1/2-z
1/2-x,y,1/2-z
-x,-y,-z
1/2+x,1/2+y,-z
-x,1/2+y,1/2+z
1/2+x,-y,1/2+z
loop_
_atom_site_type_symbol
_atom_site_label
_atom_site_fract_x
_atom_site_fract_y
_atom_site_fract_z
Si Si1 0.322287 0.428246 0.538141
Si Si2 0.003036 0.428815 0.769385
Si Si3 0.145428 0.921833 0.370053
Si Si4 0.502876 0.650545 0.911930
O O1 0.250000 0.250000 0.530443
O O2 0.500000 0.500000 0.500000
O O3 0.472386 0.436930 0.585865
O O4 0.082930 0.537964 0.547690
O O5 0.002222 0.250000 0.750000
O O6 0.750000 0.500493 0.750000
O O7 0.999699 0.435570 0.823143
O O8 0.250000 0.505142 0.750000
O O9 0.250000 0.750000 0.371111
O O10 0.379449 0.040767 0.373310
O O11 0.250000 0.750000 0.900870
O O12 0.750000 0.750000 0.924579
#
# Coordination Sequence:
#
# PCOD9391030 Si02
#       4
#     8   8   8   8
#     4  12  30  51  84 117 166 219 289 344 416 491
#     4  10  22  38  73 120 162 184 257 344 410 470
#     4  12  25  48  82 123 159 216 275 348 417 491
#     4  12  28  52  79 117 165 222 269 337 419 492
#
# _framework density 23.564050000000002
#
# number of rings (size 3 to 8) (size 9 to 14) (size 15 to 20)
#    0.000    0.500    7.500    0.000   10.500    2.000 
#    0.000    1.250    0.000    0.750    6.500    0.000 
#    0.000    0.000    0.000    0.000    0.000    0.000 
#
# Total GULP energy -179082.611897 kJ/mol
# GULP energy per Si atom -5596.331622 kJ/mol
# Density = 2.351042 g / cm^3
# Si number density = 23.564050 Si / 1000 Ang^3
#
#
#
# Elastic Constant Matrix: (Units=GPa)
#
#
# Indices 1 2 3 4 5 6 
#
# 1 210.4908 83.5236 81.4539 0.0000 0.0000 0.0000
# 2 83.5236 153.8688 49.0623 0.0000 0.0000 0.0000
# 3 81.4539 49.0623 212.7556 0.0000 0.0000 0.0000
# 4 0.0000 0.0000 0.0000 4.5614 0.0000 0.0000
# 5 0.0000 0.0000 0.0000 0.0000 43.7181 0.0000
# 6 0.0000 0.0000 0.0000 0.0000 0.0000 9.1658
#
#
#
# Elastic Compliance Matrix: (Units=1/GPa)
#
#
# Indices 1 2 3 4 5 6 
#
# 1 0.006671 -0.003030 -0.001855 0.000000 0.000000 0.000000
# 2 -0.003030 0.008391 -0.000775 0.000000 0.000000 0.000000
# 3 -0.001855 -0.000775 0.005589 0.000000 0.000000 0.000000
# 4 0.000000 0.000000 0.000000 0.219230 0.000000 0.000000
# 5 0.000000 0.000000 0.000000 0.000000 0.022874 0.000000
# 6 0.000000 0.000000 0.000000 0.000000 0.000000 0.109102
#
#
# Mechanical properties :
#
#
# Convention : Reuss Voigt Hill
#
# Bulk Modulus (GPa) = 107.16981 111.68832 109.42907
# Shear Modulus (GPa) = 12.94377 35.69409 24.31893
#
# Velocity S-wave (km/s) = 2.34626 3.89623 3.21602
# Velocity P-wave (km/s) = 7.27454 8.23052 7.76725
#
# Compressibility (1/GPa) = 0.00933099
#
# Stress axis : x y z
#
# Youngs Moduli (GPa) = 149.90490 119.17992 178.91386
#
# Poissons Ratio (x) = 0.36106 0.33195
# Poissons Ratio (y) = 0.45414 0.13867
# Poissons Ratio (z) = 0.27813 0.09237
#
# Static dielectric constant tensor:
#      x y z
#    x 1.955390 0.000000 0.000000 
#    y 0.000000 1.913480 0.000000 
#    z 0.000000 0.000000 1.984880 
# 
# From -- ./inp_files/6750.got.cif
#   From: 2010.05.17/outbox.cif.g08.bks.cpg/sg48_4_cif.got.tgz:6750.got - 2010.06.03 20:39:00.
