data_PCOD9391858
_publ_section_title
;
Structure prediction by ZEFSAII (Michael W. Deem and Ramdas Pophale) SiO2 
 PCOD9391858
Probable space group: P N N N
;
_chemical_formula_sum "Si O2"
_cell_formula_units_Z 32
_cell_length_a 10.477868
_cell_length_b 16.329436
_cell_length_c 7.681375
_cell_angle_alpha 90.000000
_cell_angle_beta 90.000000
_cell_angle_gamma 90.000000
_cell_volume 1314.265403
_symmetry_space_group_name_H-M "P N N N"
_symmetry_group_IT_number 48
_space_group.IT_coordinate_system_code '2'
_symmetry_cell_setting 'orthorhombic'
loop_
_space_group_symop_operation_xyz
x,y,z
1/2-x,1/2-y,z
x,1/2-y,1/2-z
1/2-x,y,1/2-z
-x,-y,-z
1/2+x,1/2+y,-z
-x,1/2+y,1/2+z
1/2+x,-y,1/2+z
loop_
_atom_site_type_symbol
_atom_site_label
_atom_site_fract_x
_atom_site_fract_y
_atom_site_fract_z
Si Si1 0.028739 0.750000 0.250000
Si Si2 0.156947 0.128222 0.603060
Si Si3 0.529149 0.022530 0.300379
Si Si4 0.618908 0.302225 0.101169
Si Si5 0.250000 0.079977 0.250000
O O1 0.088745 0.690094 0.394876
O O2 0.959515 0.809805 0.387680
O O3 0.250000 0.160086 0.750000
O O4 0.242335 0.128161 0.430442
O O5 0.104728 0.041607 0.679613
O O6 0.607362 0.107257 0.317309
O O7 0.384645 0.033680 0.231982
O O8 0.500000 0.000000 0.500000
O O9 0.750000 0.250000 0.088709
O O10 0.542425 0.250000 0.250000
#
# Coordination Sequence:
#
# PCOD9391858 Si02
#       5
#     4   8   8   8   4
#     4  12  24  46  70 110 146 201 263 330 398 478
#     4  12  26  46  74 108 154 200 268 323 398 474
#     4  12  25  49  74 114 156 206 265 324 403 483
#     4  11  26  45  73 108 154 200 255 331 400 478
#     4  12  26  46  79 107 152 214 254 330 391 480
#
# _framework density 24.348201
#
# number of rings (size 3 to 8) (size 9 to 14) (size 15 to 20)
#    0.000    0.250    5.000    3.000    3.500    2.000 
#    0.000    8.125    0.000    0.000    0.000    0.000 
#    0.000    0.000    0.000    0.000    0.000    0.000 
#
# Total GULP energy -178176.297779 kJ/mol
# GULP energy per Si atom -5568.009306 kJ/mol
# Density = 2.429278 g / cm^3
# Si number density = 24.348201 Si / 1000 Ang^3
#
#
#
# Elastic Constant Matrix: (Units=GPa)
#
#
# Indices 1 2 3 4 5 6 
#
# 1 72.2949 29.6939 7.9689 0.0000 0.0000 0.0000
# 2 29.6939 148.2101 15.3703 0.0000 0.0000 0.0000
# 3 7.9689 15.3703 186.3814 0.0000 0.0000 0.0000
# 4 0.0000 0.0000 0.0000 -63.7772 0.0000 0.0000
# 5 0.0000 0.0000 0.0000 0.0000 36.2545 0.0000
# 6 0.0000 0.0000 0.0000 0.0000 0.0000 -86.2705
#
#
#
# Elastic Compliance Matrix: (Units=1/GPa)
#
#
# Indices 1 2 3 4 5 6 
#
# 1 0.015102 -0.002984 -0.000400 0.000000 0.000000 0.000000
# 2 -0.002984 0.007395 -0.000482 0.000000 0.000000 0.000000
# 3 -0.000400 -0.000482 0.005422 0.000000 0.000000 0.000000
# 4 0.000000 0.000000 0.000000 -0.015680 0.000000 0.000000
# 5 0.000000 0.000000 0.000000 0.000000 0.027583 0.000000
# 6 0.000000 0.000000 0.000000 0.000000 0.000000 -0.011591
#
#
# Mechanical properties :
#
#
# Convention : Reuss Voigt Hill
#
# Bulk Modulus (GPa) = 49.53662 56.99475 53.26568
# Shear Modulus (GPa) = 117.11721 0.83158 58.97439
#
# Velocity S-wave (km/s) = 6.94301 0.58505 4.92685
# Velocity P-wave (km/s) = 9.20126 4.89034 7.36812
#
# Compressibility (1/GPa) = 0.02018709
#
# Stress axis : x y z
#
# Youngs Moduli (GPa) = 66.21634 135.22492 184.42706
#
# Poissons Ratio (x) = 0.40355 0.07370
# Poissons Ratio (y) = 0.19761 0.08894
# Poissons Ratio (z) = 0.02646 0.06521
#
# Static dielectric constant tensor:
#      x y z
#    x 2.137650 0.000000 0.000000 
#    y 0.000000 2.337220 0.000000 
#    z 0.000000 0.000000 2.220390 
# 
# From -- ./inp_files/10347.got.cif
#   From: 2010.05.17/outbox.cif.g08.bks.cpg/sg48_6_cif.got.tgz:10347.got - 2010.06.03 20:39:00.
