data_PCOD9391043
_publ_section_title
;
Structure prediction by ZEFSAII (Michael W. Deem and Ramdas Pophale) SiO2 
 PCOD9391043
Probable space group: P N N N
;
_chemical_formula_sum "Si O2"
_cell_formula_units_Z 56
_cell_length_a 15.136314
_cell_length_b 6.051236
_cell_length_c 27.898401
_cell_angle_alpha 90.000000
_cell_angle_beta 90.000000
_cell_angle_gamma 90.000000
_cell_volume 2555.309630
_symmetry_space_group_name_H-M "P N N N"
_symmetry_group_IT_number 48
_space_group.IT_coordinate_system_code '2'
_symmetry_cell_setting 'orthorhombic'
loop_
_space_group_symop_operation_xyz
x,y,z
1/2-x,1/2-y,z
x,1/2-y,1/2-z
1/2-x,y,1/2-z
-x,-y,-z
1/2+x,1/2+y,-z
-x,1/2+y,1/2+z
1/2+x,-y,1/2+z
loop_
_atom_site_type_symbol
_atom_site_label
_atom_site_fract_x
_atom_site_fract_y
_atom_site_fract_z
Si Si1 0.116414 0.750000 0.250000
Si Si2 0.838170 0.104552 0.973515
Si Si3 0.669259 0.612340 0.070212
Si Si4 0.987462 0.278358 0.596727
Si Si5 0.503504 0.061285 0.315236
Si Si6 0.385206 0.465556 0.332213
Si Si7 0.250000 0.250000 0.094177
Si Si8 0.208155 0.503643 0.678096
O O1 0.162777 0.906818 0.288666
O O2 0.053356 0.602888 0.283188
O O3 0.750000 0.250000 0.972910
O O4 0.921966 0.210924 0.947624
O O5 0.811234 0.897336 0.940182
O O6 0.860317 0.049954 0.028321
O O7 0.750000 0.750000 0.049312
O O8 0.587244 0.770289 0.082153
O O9 0.701972 0.507586 0.120024
O O10 0.947974 0.113793 0.635049
O O11 0.993529 0.504140 0.627921
O O12 0.453724 0.292078 0.309503
O O13 0.606861 0.025921 0.303724
O O14 0.312802 0.380288 0.369287
O O15 0.250000 0.250000 0.690527
O O16 0.250000 0.750000 0.690260
#
# Coordination Sequence:
#
# PCOD9391043 Si02
#       8
#     4   8   8   8   8   8   4   8
#     4  10  24  44  70  98 124 170 214 284 349 429
#     4  12  22  41  61  92 133 184 228 283 337 409
#     4  10  22  39  62  99 139 177 235 290 329 406
#     4  10  22  40  65  95 130 178 229 275 347 406
#     4  10  22  41  70  92 134 170 220 277 348 415
#     4  11  23  44  71  96 128 174 221 282 354 426
#     4  12  24  42  67  94 134 174 222 277 352 414
#     4  10  23  41  67 101 139 189 235 286 346 412
#
# _framework density 21.915153
#
# number of rings (size 3 to 8) (size 9 to 14) (size 15 to 20)
#    0.000    1.429    3.571    1.286    8.000    0.000 
#    0.000    3.929    0.000    0.000    0.000    0.000 
#    0.000    0.000    0.000    0.000    0.000    0.000 
#
# Total GULP energy -312199.651395 kJ/mol
# GULP energy per Si atom -5574.993775 kJ/mol
# Density = 2.186527 g / cm^3
# Si number density = 21.915153 Si / 1000 Ang^3
#
#
#
# Elastic Constant Matrix: (Units=GPa)
#
#
# Indices 1 2 3 4 5 6 
#
# 1 68.8541 15.2549 8.1231 0.0000 0.0000 0.0000
# 2 15.2549 67.9032 15.9722 0.0000 0.0000 0.0000
# 3 8.1231 15.9722 89.6786 0.0000 0.0000 0.0000
# 4 0.0000 0.0000 0.0000 102.1101 0.0000 0.0000
# 5 0.0000 0.0000 0.0000 0.0000 127.6535 0.0000
# 6 0.0000 0.0000 0.0000 0.0000 0.0000 116.8667
#
#
#
# Elastic Compliance Matrix: (Units=1/GPa)
#
#
# Indices 1 2 3 4 5 6 
#
# 1 0.015340 -0.003256 -0.000810 0.000000 0.000000 0.000000
# 2 -0.003256 0.016062 -0.002566 0.000000 0.000000 0.000000
# 3 -0.000810 -0.002566 0.011681 0.000000 0.000000 0.000000
# 4 0.000000 0.000000 0.000000 0.009793 0.000000 0.000000
# 5 0.000000 0.000000 0.000000 0.000000 0.007834 0.000000
# 6 0.000000 0.000000 0.000000 0.000000 0.000000 0.008557
#
#
# Mechanical properties :
#
#
# Convention : Reuss Voigt Hill
#
# Bulk Modulus (GPa) = 33.53359 33.90402 33.71880
# Shear Modulus (GPa) = 54.07159 81.79845 67.93502
#
# Velocity S-wave (km/s) = 4.97260 6.11605 5.57372
# Velocity P-wave (km/s) = 6.95009 8.08573 7.53932
#
# Compressibility (1/GPa) = 0.02982085
#
# Stress axis : x y z
#
# Youngs Moduli (GPa) = 65.18764 62.25952 85.60731
#
# Poissons Ratio (x) = 0.20271 0.06931
# Poissons Ratio (y) = 0.21224 0.21965
# Poissons Ratio (z) = 0.05278 0.15974
#
# Static dielectric constant tensor:
#      x y z
#    x 1.783470 0.000000 0.000000 
#    y 0.000000 1.910980 0.000000 
#    z 0.000000 0.000000 1.794480 
# 
# From -- ./inp_files/39110.got.cif
#   From: 2010.05.17/outbox.cif.g08.bks.cpg/sg48_20_cif.got.tgz:39110.got - 2010.06.03 20:39:00.
