data_PCOD9391134
_publ_section_title
;
Structure prediction by ZEFSAII (Michael W. Deem and Ramdas Pophale) SiO2 
 PCOD9391134
Probable space group: P N N N
;
_chemical_formula_sum "Si O2"
_cell_formula_units_Z 32
_cell_length_a 6.040259
_cell_length_b 10.264219
_cell_length_c 21.318634
_cell_angle_alpha 90.000000
_cell_angle_beta 90.000000
_cell_angle_gamma 90.000000
_cell_volume 1321.724208
_symmetry_space_group_name_H-M "P N N N"
_symmetry_group_IT_number 48
_space_group.IT_coordinate_system_code '2'
_symmetry_cell_setting 'orthorhombic'
loop_
_space_group_symop_operation_xyz
x,y,z
1/2-x,1/2-y,z
x,1/2-y,1/2-z
1/2-x,y,1/2-z
-x,-y,-z
1/2+x,1/2+y,-z
-x,1/2+y,1/2+z
1/2+x,-y,1/2+z
loop_
_atom_site_type_symbol
_atom_site_label
_atom_site_fract_x
_atom_site_fract_y
_atom_site_fract_z
Si Si1 0.974916 0.426127 0.129328
Si Si2 0.149928 0.100160 0.951876
Si Si3 0.250000 0.250000 0.451795
Si Si4 0.134445 0.614180 0.330570
Si Si5 0.250000 0.513390 0.750000
O O1 0.053206 0.303515 0.090514
O O2 0.183406 0.503388 0.158509
O O3 0.840204 0.515615 0.079817
O O4 0.827967 0.404075 0.190586
O O5 0.250000 0.250000 0.967287
O O6 0.978331 0.131494 0.898386
O O7 0.124703 0.095037 0.026688
O O8 0.250000 0.750000 0.315787
O O9 0.946994 0.574601 0.280113
#
# Coordination Sequence:
#
# PCOD9391134 Si02
#       5
#     8   8   4   8   4
#     4  11  22  42  64  94 131 176 225 270 342 401
#     4   9  20  39  62  99 130 157 214 282 338 405
#     4  10  22  42  67  91 132 180 214 270 336 414
#     4  11  21  40  65  93 128 168 218 282 347 397
#     4  10  26  41  59  96 130 172 229 283 320 402
#
# _framework density 24.210799999999999
#
# number of rings (size 3 to 8) (size 9 to 14) (size 15 to 20)
#    0.750    1.000    2.500    1.500    0.000    4.000 
#    0.000   16.250    0.000    0.000    0.000    0.000 
#    0.000    0.000    0.000    0.000    0.000    0.000 
#
# Total GULP energy -178396.589001 kJ/mol
# GULP energy per Si atom -5574.893406 kJ/mol
# Density = 2.415570 g / cm^3
# Si number density = 24.210800 Si / 1000 Ang^3
#
#
#
# Elastic Constant Matrix: (Units=GPa)
#
#
# Indices 1 2 3 4 5 6 
#
# 1 110.6292 42.8314 77.8344 0.0000 0.0000 0.0000
# 2 42.8314 81.9633 86.0406 0.0000 0.0000 0.0000
# 3 77.8344 86.0406 231.0120 0.0000 0.0000 0.0000
# 4 0.0000 0.0000 0.0000 -17.4905 0.0000 0.0000
# 5 0.0000 0.0000 0.0000 0.0000 38.5828 0.0000
# 6 0.0000 0.0000 0.0000 0.0000 0.0000 15.5955
#
#
#
# Elastic Compliance Matrix: (Units=1/GPa)
#
#
# Indices 1 2 3 4 5 6 
#
# 1 0.012412 -0.003442 -0.002900 0.000000 0.000000 0.000000
# 2 -0.003442 0.020988 -0.006657 0.000000 0.000000 0.000000
# 3 -0.002900 -0.006657 0.007785 0.000000 0.000000 0.000000
# 4 0.000000 0.000000 0.000000 -0.057174 0.000000 0.000000
# 5 0.000000 0.000000 0.000000 0.000000 0.025918 0.000000
# 6 0.000000 0.000000 0.000000 0.000000 0.000000 0.064121
#
#
# Mechanical properties :
#
#
# Convention : Reuss Voigt Hill
#
# Bulk Modulus (GPa) = 65.84649 93.00195 79.42422
# Shear Modulus (GPa) = 47.56885 21.79744 34.68315
#
# Velocity S-wave (km/s) = 4.43739 3.00379 3.78901
# Velocity P-wave (km/s) = 7.31506 7.10824 7.21239
#
# Compressibility (1/GPa) = 0.01518684
#
# Stress axis : x y z
#
# Youngs Moduli (GPa) = 80.56631 47.64736 128.44616
#
# Poissons Ratio (x) = 0.16399 0.37250
# Poissons Ratio (y) = 0.27730 0.85509
# Poissons Ratio (z) = 0.23365 0.31720
#
# Static dielectric constant tensor:
#      x y z
#    x 3.678670 0.000000 0.000000 
#    y 0.000000 3.167570 0.000000 
#    z 0.000000 0.000000 1.815090 
# 
# From -- ./inp_files/35180.got.cif
#   From: 2010.05.17/outbox.cif.g08.bks.cpg/sg48_18_cif.got.tgz:35180.got - 2010.06.03 20:39:00.
