data_PCOD9391939
_publ_section_title
;
Structure prediction by ZEFSAII (Michael W. Deem and Ramdas Pophale) SiO2 
 PCOD9391939
Probable space group: P N N N
;
_chemical_formula_sum "Si O2"
_cell_formula_units_Z 56
_cell_length_a 21.000000
_cell_length_b 9.000000
_cell_length_c 15.000000
_cell_angle_alpha 90.000000
_cell_angle_beta 90.000000
_cell_angle_gamma 90.000000
_cell_volume 2835.000000
_symmetry_space_group_name_H-M "P N N N"
_symmetry_group_IT_number 48
_space_group.IT_coordinate_system_code '2'
_symmetry_cell_setting 'orthorhombic'
loop_
_space_group_symop_operation_xyz
x,y,z
1/2-x,1/2-y,z
x,1/2-y,1/2-z
1/2-x,y,1/2-z
-x,-y,-z
1/2+x,1/2+y,-z
-x,1/2+y,1/2+z
1/2+x,-y,1/2+z
loop_
_atom_site_type_symbol
_atom_site_label
_atom_site_fract_x
_atom_site_fract_y
_atom_site_fract_z
Si Si1 0.647957 0.590753 0.527950
Si Si2 0.449147 0.446279 0.927969
Si Si3 0.250000 0.250000 0.900989
Si Si4 0.242915 0.921153 0.356616
Si Si5 0.629649 0.585186 0.908292
Si Si6 0.016921 0.423710 0.270583
Si Si7 0.443588 0.394759 0.627962
Si Si8 0.657357 0.750000 0.250000
O O1 0.706115 0.646268 0.463232
O O2 0.677699 0.478361 0.598971
O O3 0.627021 0.736098 0.583849
O O4 0.590585 0.540898 0.461522
O O5 0.459856 0.543721 0.840728
O O6 0.461282 0.274812 0.899742
O O7 0.500000 0.500000 0.000000
O O8 0.387019 0.459605 0.989428
O O9 0.299890 0.319426 0.829246
O O10 0.250000 0.750000 0.383334
O O11 0.250000 0.928734 0.250000
O O12 0.300881 0.023804 0.389090
O O13 0.580102 0.535579 0.830015
O O14 0.020509 0.250000 0.250000
O O15 0.998906 0.516085 0.180535
O O16 0.387546 0.367797 0.700463
#
# Coordination Sequence:
#
# PCOD9391939 Si02
#       8
#     8   8   4   8   8   8   8   4
#     4  10  20  38  66  89 117 160 205 258 304 368
#     4   9  19  39  59  84 118 163 204 244 305 365
#     4   9  16  30  57  94 112 148 201 246 294 359
#     4  11  25  43  60  90 120 157 203 257 320 364
#     4  10  22  41  63  84 119 166 208 249 299 375
#     4  11  23  37  59  94 124 162 205 254 308 367
#     4  10  19  37  60  90 124 158 201 252 308 371
#     4   9  16  28  58  88 118 152 195 240 298 372
#
# _framework density 19.753086
#
# number of rings (size 3 to 8) (size 9 to 14) (size 15 to 20)
#    0.000    2.000    2.857    0.000    2.000    1.714 
#   10.286    6.429    0.000    0.000    0.000    2.000 
#    0.000    0.000    0.000    0.000    0.000    0.000 
#
# Total GULP energy -311944.868635 kJ/mol
# GULP energy per Si atom -5570.444083 kJ/mol
# Density = 1.970813 g / cm^3
# Si number density = 19.753086 Si / 1000 Ang^3
#
#
#
# Elastic Constant Matrix: (Units=GPa)
#
#
# Indices 1 2 3 4 5 6 
#
# 1 54.4180 10.9163 28.7941 0.0000 0.0000 0.0000
# 2 10.9163 18.9692 31.9305 0.0000 0.0000 0.0000
# 3 28.7941 31.9305 99.5641 0.0000 0.0000 0.0000
# 4 0.0000 0.0000 0.0000 25.8290 0.0000 0.0000
# 5 0.0000 0.0000 0.0000 0.0000 42.4656 0.0000
# 6 0.0000 0.0000 0.0000 0.0000 0.0000 19.0817
#
#
#
# Elastic Compliance Matrix: (Units=1/GPa)
#
#
# Indices 1 2 3 4 5 6 
#
# 1 0.021850 -0.004210 -0.004969 0.000000 0.000000 0.000000
# 2 -0.004210 0.115372 -0.035782 0.000000 0.000000 0.000000
# 3 -0.004969 -0.035782 0.022956 0.000000 0.000000 0.000000
# 4 0.000000 0.000000 0.000000 0.038716 0.000000 0.000000
# 5 0.000000 0.000000 0.000000 0.000000 0.023548 0.000000
# 6 0.000000 0.000000 0.000000 0.000000 0.000000 0.052406
#
#
# Mechanical properties :
#
#
# Convention : Reuss Voigt Hill
#
# Bulk Modulus (GPa) = 14.23384 35.13699 24.68542
# Shear Modulus (GPa) = 12.88029 24.22930 18.55480
#
# Velocity S-wave (km/s) = 2.55633 3.50610 3.06818
# Velocity P-wave (km/s) = 3.99182 5.84953 5.00757
#
# Compressibility (1/GPa) = 0.07025511
#
# Stress axis : x y z
#
# Youngs Moduli (GPa) = 45.76663 8.66764 43.56107
#
# Poissons Ratio (x) = 0.03649 0.21645
# Poissons Ratio (y) = 0.19268 1.55872
# Poissons Ratio (z) = 0.22741 0.31015
#
# Static dielectric constant tensor:
#      x y z
#    x 1.766660 0.000000 0.000000 
#    y 0.000000 1.678970 0.000000 
#    z 0.000000 0.000000 1.744600 
# 
# From -- ./inp_files/28392.got.cif
#   From: 2010.05.17/outbox.ucp.g08.bks.cvg/sg48_15_cif.got.tgz:28392.got - 2010.06.11 16:38:40.
