data_PCOD9391568
_publ_section_title
;
Structure prediction by ZEFSAII (Michael W. Deem and Ramdas Pophale) SiO2 
 PCOD9391568
Probable space group: P N N N
;
_chemical_formula_sum "Si O2"
_cell_formula_units_Z 32
_cell_length_a 11.815142
_cell_length_b 6.943035
_cell_length_c 15.762304
_cell_angle_alpha 90.000000
_cell_angle_beta 90.000000
_cell_angle_gamma 90.000000
_cell_volume 1293.028208
_symmetry_space_group_name_H-M "P N N N"
_symmetry_group_IT_number 48
_space_group.IT_coordinate_system_code '2'
_symmetry_cell_setting 'orthorhombic'
loop_
_space_group_symop_operation_xyz
x,y,z
1/2-x,1/2-y,z
x,1/2-y,1/2-z
1/2-x,y,1/2-z
-x,-y,-z
1/2+x,1/2+y,-z
-x,1/2+y,1/2+z
1/2+x,-y,1/2+z
loop_
_atom_site_type_symbol
_atom_site_label
_atom_site_fract_x
_atom_site_fract_y
_atom_site_fract_z
Si Si1 0.083081 0.390496 0.562807
Si Si2 0.818949 0.560554 0.836303
Si Si3 0.942494 0.277658 0.336279
Si Si4 0.837113 0.479304 0.021657
O O1 0.043124 0.492322 0.649818
O O2 0.083172 0.164521 0.542234
O O3 0.212503 0.452554 0.548857
O O4 0.000000 0.500000 0.500000
O O5 0.750000 0.750000 0.865885
O O6 0.750000 0.497890 0.750000
O O7 0.943876 0.649387 0.823418
O O8 0.829097 0.432456 0.921078
O O9 0.875764 0.250000 0.250000
O O10 0.880123 0.186505 0.416753
#
# Coordination Sequence:
#
# PCOD9391568 Si02
#       4
#     8   8   8   8
#     4  11  23  42  70 102 143 190 243 301 379 449
#     4  11  20  41  73 104 138 192 247 307 377 442
#     4  12  25  43  73 104 145 194 251 311 379 463
#     4  11  24  44  72 105 147 190 242 315 387 437
#
# _framework density 24.748104999999999
#
# number of rings (size 3 to 8) (size 9 to 14) (size 15 to 20)
#    0.000    0.750    7.500    1.500    0.000    3.000 
#    0.000    2.500    0.000    6.000    0.000    0.000 
#    0.000    0.000    0.000    0.000    0.000    0.000 
#
# Total GULP energy -178561.311204 kJ/mol
# GULP energy per Si atom -5580.040975 kJ/mol
# Density = 2.469178 g / cm^3
# Si number density = 24.748105 Si / 1000 Ang^3
#
#
#
# Elastic Constant Matrix: (Units=GPa)
#
#
# Indices 1 2 3 4 5 6 
#
# 1 126.1169 22.3526 27.7756 0.0000 0.0000 0.0000
# 2 22.3526 135.0251 58.4748 0.0000 0.0000 0.0000
# 3 27.7756 58.4748 198.5600 0.0000 0.0000 0.0000
# 4 0.0000 0.0000 0.0000 37.2093 0.0000 0.0000
# 5 0.0000 0.0000 0.0000 0.0000 28.7199 0.0000
# 6 0.0000 0.0000 0.0000 0.0000 0.0000 37.8754
#
#
#
# Elastic Compliance Matrix: (Units=1/GPa)
#
#
# Indices 1 2 3 4 5 6 
#
# 1 0.008297 -0.000998 -0.000867 0.000000 0.000000 0.000000
# 2 -0.000998 0.008609 -0.002396 0.000000 0.000000 0.000000
# 3 -0.000867 -0.002396 0.005863 0.000000 0.000000 0.000000
# 4 0.000000 0.000000 0.000000 0.026875 0.000000 0.000000
# 5 0.000000 0.000000 0.000000 0.000000 0.034819 0.000000
# 6 0.000000 0.000000 0.000000 0.000000 0.000000 0.026402
#
#
# Mechanical properties :
#
#
# Convention : Reuss Voigt Hill
#
# Bulk Modulus (GPa) = 70.18642 75.21201 72.69922
# Shear Modulus (GPa) = 40.27867 44.16752 42.22309
#
# Velocity S-wave (km/s) = 4.03866 4.22913 4.13499
# Velocity P-wave (km/s) = 7.08305 7.36915 7.22752
#
# Compressibility (1/GPa) = 0.01424777
#
# Stress axis : x y z
#
# Youngs Moduli (GPa) = 120.52635 116.16123 170.56170
#
# Poissons Ratio (x) = 0.11595 0.14782
# Poissons Ratio (y) = 0.12031 0.40860
# Poissons Ratio (z) = 0.10446 0.27827
#
# Static dielectric constant tensor:
#      x y z
#    x 2.037010 0.000000 0.000000 
#    y 0.000000 1.950210 0.000000 
#    z 0.000000 0.000000 1.980600 
# 
# From -- ./inp_files/26004.got.cif
#   From: 2010.05.17/outbox.cif.g08.bks.cpg/sg48_14_cif.got.tgz:26004.got - 2010.06.03 20:39:00.
