data_PCOD9391600
_publ_section_title
;
Structure prediction by ZEFSAII (Michael W. Deem and Ramdas Pophale) SiO2 
 PCOD9391600
Probable space group: P N N N
;
_chemical_formula_sum "Si O2"
_cell_formula_units_Z 28
_cell_length_a 5.296499
_cell_length_b 12.835484
_cell_length_c 19.048464
_cell_angle_alpha 90.000000
_cell_angle_beta 90.000000
_cell_angle_gamma 90.000000
_cell_volume 1294.974170
_symmetry_space_group_name_H-M "P N N N"
_symmetry_group_IT_number 48
_space_group.IT_coordinate_system_code '2'
_symmetry_cell_setting 'orthorhombic'
loop_
_space_group_symop_operation_xyz
x,y,z
1/2-x,1/2-y,z
x,1/2-y,1/2-z
1/2-x,y,1/2-z
-x,-y,-z
1/2+x,1/2+y,-z
-x,1/2+y,1/2+z
1/2+x,-y,1/2+z
loop_
_atom_site_type_symbol
_atom_site_label
_atom_site_fract_x
_atom_site_fract_y
_atom_site_fract_z
Si Si1 0.515897 0.040572 0.792920
Si Si2 0.809823 0.031236 0.438295
Si Si3 0.750000 0.250000 0.858144
Si Si4 0.545834 0.827056 0.484310
O O1 0.250000 0.054760 0.750000
O O2 0.643674 0.150926 0.816273
O O3 0.750000 0.989913 0.750000
O O4 0.442641 0.976956 0.863159
O O5 0.666760 0.136234 0.460630
O O6 0.618061 0.935598 0.446459
O O7 0.000000 0.000000 0.500000
O O8 0.532121 0.265755 0.915084
O O9 0.750000 0.750000 0.519070
#
# Coordination Sequence:
#
# PCOD9391600 Si02
#       4
#     8   8   4   8
#     4  12  27  42  64 100 151 191 225 291 373 454
#     4  11  23  40  65  96 139 184 241 297 346 429
#     4  12  23  40  64 104 141 182 222 282 367 444
#     4  11  21  38  68  96 139 178 245 296 351 417
#
# _framework density 21.622053000000001
#
# number of rings (size 3 to 8) (size 9 to 14) (size 15 to 20)
#    0.000    0.571    5.714    2.143    4.000    3.429 
#    0.000    0.000    0.000    0.000    0.000   15.000 
#    0.000    0.000    0.000    0.000    0.000    0.000 
#
# Total GULP energy -155956.796041 kJ/mol
# GULP energy per Si atom -5569.885573 kJ/mol
# Density = 2.157284 g / cm^3
# Si number density = 21.622053 Si / 1000 Ang^3
#
#
#
# Elastic Constant Matrix: (Units=GPa)
#
#
# Indices 1 2 3 4 5 6 
#
# 1 128.1643 31.1612 75.7669 0.0000 0.0000 0.0000
# 2 31.1612 74.7651 44.3475 0.0000 0.0000 0.0000
# 3 75.7669 44.3475 173.1138 0.0000 0.0000 0.0000
# 4 0.0000 0.0000 0.0000 23.6519 0.0000 0.0000
# 5 0.0000 0.0000 0.0000 0.0000 49.7156 0.0000
# 6 0.0000 0.0000 0.0000 0.0000 0.0000 40.7573
#
#
#
# Elastic Compliance Matrix: (Units=1/GPa)
#
#
# Indices 1 2 3 4 5 6 
#
# 1 0.010773 -0.001997 -0.004203 0.000000 0.000000 0.000000
# 2 -0.001997 0.016142 -0.003261 0.000000 0.000000 0.000000
# 3 -0.004203 -0.003261 0.008452 0.000000 0.000000 0.000000
# 4 0.000000 0.000000 0.000000 0.042280 0.000000 0.000000
# 5 0.000000 0.000000 0.000000 0.000000 0.020114 0.000000
# 6 0.000000 0.000000 0.000000 0.000000 0.000000 0.024535
#
#
# Mechanical properties :
#
#
# Convention : Reuss Voigt Hill
#
# Bulk Modulus (GPa) = 60.81375 75.39940 68.10658
# Shear Modulus (GPa) = 34.08305 37.80945 35.94625
#
# Velocity S-wave (km/s) = 3.97458 4.18623 4.08178
# Velocity P-wave (km/s) = 7.01783 7.63631 7.33359
#
# Compressibility (1/GPa) = 0.01644365
#
# Stress axis : x y z
#
# Youngs Moduli (GPa) = 92.82522 61.95075 118.31871
#
# Poissons Ratio (x) = 0.12370 0.49735
# Poissons Ratio (y) = 0.18534 0.38587
# Poissons Ratio (z) = 0.39019 0.20204
#
# Static dielectric constant tensor:
#      x y z
#    x 1.961000 0.000000 0.000000 
#    y 0.000000 1.596270 0.000000 
#    z 0.000000 0.000000 1.758520 
# 
# From -- ./inp_files/3942.got.cif
#   From: 2010.05.17/outbox.cif.g08.bks.cpg/sg48_2_cif.got.tgz:3942.got - 2010.06.03 20:39:00.
