data_PCOD9391362
_publ_section_title
;
Structure prediction by ZEFSAII (Michael W. Deem and Ramdas Pophale) SiO2 
 PCOD9391362
Probable space group: P N N N
;
_chemical_formula_sum "Si O2"
_cell_formula_units_Z 48
_cell_length_a 9.040292
_cell_length_b 25.664869
_cell_length_c 9.292073
_cell_angle_alpha 90.000000
_cell_angle_beta 90.000000
_cell_angle_gamma 90.000000
_cell_volume 2155.927356
_symmetry_space_group_name_H-M "P N N N"
_symmetry_group_IT_number 48
_space_group.IT_coordinate_system_code '2'
_symmetry_cell_setting 'orthorhombic'
loop_
_space_group_symop_operation_xyz
x,y,z
1/2-x,1/2-y,z
x,1/2-y,1/2-z
1/2-x,y,1/2-z
-x,-y,-z
1/2+x,1/2+y,-z
-x,1/2+y,1/2+z
1/2+x,-y,1/2+z
loop_
_atom_site_type_symbol
_atom_site_label
_atom_site_fract_x
_atom_site_fract_y
_atom_site_fract_z
Si Si1 0.231635 0.635986 0.915577
Si Si2 0.991776 0.750000 0.250000
Si Si3 0.250000 0.750000 0.480684
Si Si4 0.750000 0.837312 0.250000
Si Si5 0.476327 0.083292 0.452737
Si Si6 0.750000 0.596178 0.750000
Si Si7 0.573067 0.911264 0.028798
Si Si8 0.416891 0.014988 0.719917
O O1 0.250000 0.621124 0.750000
O O2 0.366745 0.607215 0.993767
O O3 0.258408 0.697173 0.930947
O O4 0.074394 0.617749 0.975901
O O5 0.885020 0.798396 0.209982
O O6 0.104529 0.757846 0.381796
O O7 0.674679 0.871930 0.124038
O O8 0.381128 0.121425 0.347974
O O9 0.412500 0.060401 0.600026
O O10 0.496219 0.032313 0.351601
O O11 0.664092 0.571159 0.613181
O O12 0.529261 0.958671 0.133305
O O13 0.250000 0.997528 0.750000
#
# Coordination Sequence:
#
# PCOD9391362 Si02
#       8
#     8   4   4   4   8   4   8   8
#     4  12  26  47  69 104 147 193 236 300 370 440
#     4  10  24  40  72 104 140 172 248 298 358 438
#     4  11  25  42  70 106 137 191 234 302 366 434
#     4  11  22  46  68 106 140 188 234 299 364 424
#     4  11  26  44  70 100 144 181 243 295 358 434
#     4  12  24  44  66 103 132 190 240 289 352 434
#     4  12  25  44  74  99 146 194 235 303 361 435
#     4  11  24  43  69 104 136 189 239 294 359 429
#
# _framework density 22.264199999999999
#
# number of rings (size 3 to 8) (size 9 to 14) (size 15 to 20)
#    0.000    0.667    5.833    0.750    4.667    4.000 
#    0.000    0.000    0.000    1.000    0.000    0.000 
#    0.000    0.000    0.000    0.000    0.000    0.000 
#
# Total GULP energy -267845.934097 kJ/mol
# GULP energy per Si atom -5580.123627 kJ/mol
# Density = 2.221353 g / cm^3
# Si number density = 22.264200 Si / 1000 Ang^3
#
#
#
# Elastic Constant Matrix: (Units=GPa)
#
#
# Indices 1 2 3 4 5 6 
#
# 1 129.3855 39.8080 52.8902 0.0000 0.0000 0.0000
# 2 39.8080 98.1864 40.0448 0.0000 0.0000 0.0000
# 3 52.8902 40.0448 136.4867 0.0000 0.0000 0.0000
# 4 0.0000 0.0000 0.0000 24.6534 0.0000 0.0000
# 5 0.0000 0.0000 0.0000 0.0000 41.2762 0.0000
# 6 0.0000 0.0000 0.0000 0.0000 0.0000 23.0391
#
#
#
# Elastic Compliance Matrix: (Units=1/GPa)
#
#
# Indices 1 2 3 4 5 6 
#
# 1 0.009798 -0.002753 -0.002989 0.000000 0.000000 0.000000
# 2 -0.002753 0.012343 -0.002554 0.000000 0.000000 0.000000
# 3 -0.002989 -0.002554 0.009234 0.000000 0.000000 0.000000
# 4 0.000000 0.000000 0.000000 0.040562 0.000000 0.000000
# 5 0.000000 0.000000 0.000000 0.000000 0.024227 0.000000
# 6 0.000000 0.000000 0.000000 0.000000 0.000000 0.043405
#
#
# Mechanical properties :
#
#
# Convention : Reuss Voigt Hill
#
# Bulk Modulus (GPa) = 67.65127 69.94938 68.80033
# Shear Modulus (GPa) = 31.03866 33.21477 32.12672
#
# Velocity S-wave (km/s) = 3.73782 3.86663 3.80277
# Velocity P-wave (km/s) = 7.00572 7.17081 7.08875
#
# Compressibility (1/GPa) = 0.01478169
#
# Stress axis : x y z
#
# Youngs Moduli (GPa) = 102.06401 81.01895 108.29049
#
# Poissons Ratio (x) = 0.22307 0.32367
# Poissons Ratio (y) = 0.28101 0.27662
# Poissons Ratio (z) = 0.30506 0.20695
#
# Static dielectric constant tensor:
#      x y z
#    x 4.293560 0.000000 0.000000 
#    y 0.000000 1.817760 0.000000 
#    z 0.000000 0.000000 1.821800 
# 
# From -- ./inp_files/9541.got.cif
#   From: 2010.05.17/outbox.cif.g08.bks.cpg/sg48_5_cif.got.tgz:9541.got - 2010.06.03 20:39:00.
