data_PCOD9391228
_publ_section_title
;
Structure prediction by ZEFSAII (Michael W. Deem and Ramdas Pophale) SiO2 
 PCOD9391228
Probable space group: P N N N
;
_chemical_formula_sum "Si O2"
_cell_formula_units_Z 40
_cell_length_a 7.670585
_cell_length_b 8.622153
_cell_length_c 27.553415
_cell_angle_alpha 90.000000
_cell_angle_beta 90.000000
_cell_angle_gamma 90.000000
_cell_volume 1822.299036
_symmetry_space_group_name_H-M "P N N N"
_symmetry_group_IT_number 48
_space_group.IT_coordinate_system_code '2'
_symmetry_cell_setting 'orthorhombic'
loop_
_space_group_symop_operation_xyz
x,y,z
1/2-x,1/2-y,z
x,1/2-y,1/2-z
1/2-x,y,1/2-z
-x,-y,-z
1/2+x,1/2+y,-z
-x,1/2+y,1/2+z
1/2+x,-y,1/2+z
loop_
_atom_site_type_symbol
_atom_site_label
_atom_site_fract_x
_atom_site_fract_y
_atom_site_fract_z
Si Si1 0.834159 0.003914 0.423113
Si Si2 0.250000 0.750000 0.502654
Si Si3 0.673270 0.421849 0.315151
Si Si4 0.501819 0.079303 0.728859
Si Si5 0.750000 0.250000 0.665613
Si Si6 0.505323 0.316867 0.923286
O O1 0.630721 0.955338 0.417961
O O2 0.918944 0.844090 0.440143
O O3 0.856992 0.140248 0.461297
O O4 0.894790 0.053610 0.369498
O O5 0.357404 0.856339 0.465151
O O6 0.750000 0.250000 0.309979
O O7 0.840201 0.533409 0.305804
O O8 0.530948 0.462720 0.273995
O O9 0.467857 0.250000 0.750000
O O10 0.685261 0.108156 0.700525
O O11 0.591498 0.238046 0.627361
#
# Coordination Sequence:
#
# PCOD9391228 Si02
#       6
#     8   4   8   8   4   8
#     4  11  21  40  64  92 126 166 220 258 327 389
#     4  11  22  40  63  95 127 169 210 274 329 380
#     4  11  22  39  64  95 128 173 220 266 321 396
#     4  11  22  36  64  93 125 166 220 265 318 383
#     4  11  21  40  61  98 130 159 212 277 317 370
#     4  10  23  38  65  93 130 166 215 267 324 390
#
# _framework density 21.950295000000001
#
# number of rings (size 3 to 8) (size 9 to 14) (size 15 to 20)
#    0.000    1.200    3.000    5.100    2.800    0.000 
#    0.000    0.000    0.000   30.000    0.000    0.000 
#    0.000    0.000    0.000    0.000    0.000    0.000 
#
# Total GULP energy -222846.329083 kJ/mol
# GULP energy per Si atom -5571.158227 kJ/mol
# Density = 2.190033 g / cm^3
# Si number density = 21.950295 Si / 1000 Ang^3
#
#
#
# Elastic Constant Matrix: (Units=GPa)
#
#
# Indices 1 2 3 4 5 6 
#
# 1 56.3865 -6.0725 16.1667 0.0000 0.0000 0.0000
# 2 -6.0725 70.8334 9.1446 0.0000 0.0000 0.0000
# 3 16.1667 9.1446 153.4030 0.0000 0.0000 0.0000
# 4 0.0000 0.0000 0.0000 31.0914 0.0000 0.0000
# 5 0.0000 0.0000 0.0000 0.0000 26.3728 0.0000
# 6 0.0000 0.0000 0.0000 0.0000 0.0000 21.7892
#
#
#
# Elastic Compliance Matrix: (Units=1/GPa)
#
#
# Indices 1 2 3 4 5 6 
#
# 1 0.018526 0.001855 -0.002063 0.000000 0.000000 0.000000
# 2 0.001855 0.014413 -0.001055 0.000000 0.000000 0.000000
# 3 -0.002063 -0.001055 0.006799 0.000000 0.000000 0.000000
# 4 0.000000 0.000000 0.000000 0.032163 0.000000 0.000000
# 5 0.000000 0.000000 0.000000 0.000000 0.037918 0.000000
# 6 0.000000 0.000000 0.000000 0.000000 0.000000 0.045894
#
#
# Mechanical properties :
#
#
# Convention : Reuss Voigt Hill
#
# Bulk Modulus (GPa) = 26.87325 35.45562 31.16444
# Shear Modulus (GPa) = 29.30090 33.27627 31.28859
#
# Velocity S-wave (km/s) = 3.65756 3.89779 3.77958
# Velocity P-wave (km/s) = 5.48692 6.03695 5.76849
#
# Compressibility (1/GPa) = 0.03721172
#
# Stress axis : x y z
#
# Youngs Moduli (GPa) = 53.97835 69.38291 147.07937
#
# Poissons Ratio (x) = -0.12867 0.30342
# Poissons Ratio (y) = -0.10010 0.15511
# Poissons Ratio (z) = 0.11135 0.07317
#
# Static dielectric constant tensor:
#      x y z
#    x 1.902450 0.000000 0.000000 
#    y 0.000000 1.762570 0.000000 
#    z 0.000000 0.000000 1.843180 
# 
# From -- ./inp_files/37409.got.cif
#   From: 2010.05.17/outbox.cif.g08.bks.cpg/sg48_19_cif.got.tgz:37409.got - 2010.06.03 20:39:00.
