data_PCOD9391699
_publ_section_title
;
Structure prediction by ZEFSAII (Michael W. Deem and Ramdas Pophale) SiO2 
 PCOD9391699
Probable space group: P N N N
;
_chemical_formula_sum "Si O2"
_cell_formula_units_Z 58
_cell_length_a 15.266592
_cell_length_b 8.657751
_cell_length_c 18.368161
_cell_angle_alpha 90.000000
_cell_angle_beta 90.000000
_cell_angle_gamma 90.000000
_cell_volume 2427.799780
_symmetry_space_group_name_H-M "P N N N"
_symmetry_group_IT_number 48
_space_group.IT_coordinate_system_code '2'
_symmetry_cell_setting 'orthorhombic'
loop_
_space_group_symop_operation_xyz
x,y,z
1/2-x,1/2-y,z
x,1/2-y,1/2-z
1/2-x,y,1/2-z
-x,-y,-z
1/2+x,1/2+y,-z
-x,1/2+y,1/2+z
1/2+x,-y,1/2+z
loop_
_atom_site_type_symbol
_atom_site_label
_atom_site_fract_x
_atom_site_fract_y
_atom_site_fract_z
Si Si1 0.250000 0.750000 0.750000
Si Si2 0.111915 0.351677 0.659204
Si Si3 0.598562 0.059282 0.478195
Si Si4 0.923960 0.107808 0.789084
Si Si5 0.521380 0.123668 0.063307
Si Si6 0.352535 0.021519 0.820252
Si Si7 0.272061 0.933961 0.393549
Si Si8 0.617656 0.637577 0.681137
O O1 0.202248 0.632533 0.805101
O O2 0.121309 0.476110 0.596975
O O3 0.132959 0.426305 0.736696
O O4 0.163735 0.193378 0.647322
O O5 0.007319 0.323275 0.669254
O O6 0.580379 0.240935 0.470146
O O7 0.683319 0.029456 0.528859
O O8 0.500000 0.000000 0.500000
O O9 0.877669 0.250000 0.750000
O O10 0.855632 0.036835 0.843059
O O11 0.942258 0.983132 0.727195
O O12 0.440394 0.194560 0.111775
O O13 0.576041 0.035803 0.123638
O O14 0.500000 0.000000 0.000000
O O15 0.250000 0.750000 0.392439
O O16 0.195642 0.040606 0.358585
O O17 0.643485 0.750000 0.750000
#
# Coordination Sequence:
#
# PCOD9391699 Si02
#       8
#     2   8   8   8   8   8   8   8
#     4  12  28  50  80 120 152 208 276 358 408 482
#     4  11  22  46  84 112 144 217 268 334 402 505
#     4  12  26  47  75 107 160 216 268 326 414 501
#     4  12  21  43  79 110 152 200 264 317 406 498
#     4  12  26  49  80 116 163 220 280 338 418 514
#     4  11  25  49  81 110 153 199 278 335 410 490
#     4  12  27  47  75 115 166 211 263 338 423 500
#     4  12  27  47  78 122 161 207 273 350 421 502
#
# _framework density 23.889942999999999
#
# number of rings (size 3 to 8) (size 9 to 14) (size 15 to 20)
#    0.000    0.276    5.517    3.724    0.966    2.207 
#    9.931    0.000    6.069    0.000    0.000    0.000 
#    0.000    0.000    0.000    0.000    0.000    0.000 
#
# Total GULP energy -323380.008164 kJ/mol
# GULP energy per Si atom -5575.517382 kJ/mol
# Density = 2.383557 g / cm^3
# Si number density = 23.889943 Si / 1000 Ang^3
#
#
#
# Elastic Constant Matrix: (Units=GPa)
#
#
# Indices 1 2 3 4 5 6 
#
# 1 93.1777 54.4882 39.7405 0.0000 0.0000 0.0000
# 2 54.4882 149.6084 63.0585 0.0000 0.0000 0.0000
# 3 39.7405 63.0585 122.4102 0.0000 0.0000 0.0000
# 4 0.0000 0.0000 0.0000 41.5791 0.0000 0.0000
# 5 0.0000 0.0000 0.0000 0.0000 13.1885 0.0000
# 6 0.0000 0.0000 0.0000 0.0000 0.0000 396.9574
#
#
#
# Elastic Compliance Matrix: (Units=1/GPa)
#
#
# Indices 1 2 3 4 5 6 
#
# 1 0.014205 -0.004126 -0.002486 0.000000 0.000000 0.000000
# 2 -0.004126 0.009736 -0.003676 0.000000 0.000000 0.000000
# 3 -0.002486 -0.003676 0.010870 0.000000 0.000000 0.000000
# 4 0.000000 0.000000 0.000000 0.024051 0.000000 0.000000
# 5 0.000000 0.000000 0.000000 0.000000 0.075823 0.000000
# 6 0.000000 0.000000 0.000000 0.000000 0.000000 0.002519
#
#
# Mechanical properties :
#
#
# Convention : Reuss Voigt Hill
#
# Bulk Modulus (GPa) = 70.24831 75.53007 72.88919
# Shear Modulus (GPa) = 30.76430 104.20561 67.48496
#
# Velocity S-wave (km/s) = 3.59242 6.61164 5.32068
# Velocity P-wave (km/s) = 6.83199 9.48522 8.26576
#
# Compressibility (1/GPa) = 0.01423522
#
# Stress axis : x y z
#
# Youngs Moduli (GPa) = 70.39663 102.71027 91.99472
#
# Poissons Ratio (x) = 0.42374 0.22874
# Poissons Ratio (y) = 0.29043 0.33818
# Poissons Ratio (z) = 0.17504 0.37757
#
# Static dielectric constant tensor:
#      x y z
#    x 1.991900 0.000000 0.000000 
#    y 0.000000 1.869970 0.000000 
#    z 0.000000 0.000000 1.877570 
# 
# From -- ./inp_files/32029.got.cif
#   From: 2010.05.17/outbox.cif.g08.bks.cpg/sg48_17_cif.got.tgz:32029.got - 2010.06.03 20:39:00.
