data_PCOD9391332
_publ_section_title
;
Structure prediction by ZEFSAII (Michael W. Deem and Ramdas Pophale) SiO2 
 PCOD9391332
Probable space group: P N N N
;
_chemical_formula_sum "Si O2"
_cell_formula_units_Z 34
_cell_length_a 9.008071
_cell_length_b 12.100384
_cell_length_c 13.867082
_cell_angle_alpha 90.000000
_cell_angle_beta 90.000000
_cell_angle_gamma 90.000000
_cell_volume 1511.527444
_symmetry_space_group_name_H-M "P N N N"
_symmetry_group_IT_number 48
_space_group.IT_coordinate_system_code '2'
_symmetry_cell_setting 'orthorhombic'
loop_
_space_group_symop_operation_xyz
x,y,z
1/2-x,1/2-y,z
x,1/2-y,1/2-z
1/2-x,y,1/2-z
-x,-y,-z
1/2+x,1/2+y,-z
-x,1/2+y,1/2+z
1/2+x,-y,1/2+z
loop_
_atom_site_type_symbol
_atom_site_label
_atom_site_fract_x
_atom_site_fract_y
_atom_site_fract_z
Si Si1 0.250000 0.250000 0.750000
Si Si2 0.889347 0.596402 0.087042
Si Si3 0.846024 0.425127 0.347558
Si Si4 0.073929 0.271166 0.110110
Si Si5 0.417325 0.015897 0.221677
O O1 0.161130 0.326131 0.824738
O O2 0.767796 0.495618 0.085375
O O3 0.043063 0.547261 0.124932
O O4 0.918014 0.666151 0.992168
O O5 0.750000 0.397557 0.250000
O O6 0.945546 0.323835 0.390389
O O7 0.972694 0.509764 0.309511
O O8 0.250000 0.250000 0.126101
O O9 0.043647 0.357927 0.194952
O O10 0.250000 0.003226 0.250000
#
# Coordination Sequence:
#
# PCOD9391332 Si02
#       5
#     2   8   8   8   8
#     4  12  20  48  70  90 134 216 226 288 352 442
#     4  11  25  46  72  99 147 194 244 286 368 435
#     4  10  23  45  75 104 140 192 234 294 363 438
#     4  12  24  40  73 111 143 180 239 309 360 421
#     4  11  22  43  69 102 140 181 240 298 362 423
#
# _framework density 22.493801999999999
#
# number of rings (size 3 to 8) (size 9 to 14) (size 15 to 20)
#    0.000    0.941    7.059    1.412    0.000    7.529 
#    4.235    0.588    0.000    0.000    0.000    0.000 
#    0.000    0.000    0.000    0.000    0.000    0.000 
#
# Total GULP energy -189520.679193 kJ/mol
# GULP energy per Si atom -5574.137623 kJ/mol
# Density = 2.244261 g / cm^3
# Si number density = 22.493802 Si / 1000 Ang^3
#
#
#
# Elastic Constant Matrix: (Units=GPa)
#
#
# Indices 1 2 3 4 5 6 
#
# 1 185.7761 52.0580 58.7937 0.0000 0.0000 0.0000
# 2 52.0580 91.2097 41.9592 0.0000 0.0000 0.0000
# 3 58.7937 41.9592 101.9621 0.0000 0.0000 0.0000
# 4 0.0000 0.0000 0.0000 49.6444 0.0000 0.0000
# 5 0.0000 0.0000 0.0000 0.0000 35.1853 0.0000
# 6 0.0000 0.0000 0.0000 0.0000 0.0000 27.0382
#
#
#
# Elastic Compliance Matrix: (Units=1/GPa)
#
#
# Indices 1 2 3 4 5 6 
#
# 1 0.007073 -0.002665 -0.002982 0.000000 0.000000 0.000000
# 2 -0.002665 0.014528 -0.004442 0.000000 0.000000 0.000000
# 3 -0.002982 -0.004442 0.013355 0.000000 0.000000 0.000000
# 4 0.000000 0.000000 0.000000 0.020143 0.000000 0.000000
# 5 0.000000 0.000000 0.000000 0.000000 0.028421 0.000000
# 6 0.000000 0.000000 0.000000 0.000000 0.000000 0.036985
#
#
# Mechanical properties :
#
#
# Convention : Reuss Voigt Hill
#
# Bulk Modulus (GPa) = 67.66531 76.06329 71.86430
# Shear Modulus (GPa) = 34.33836 37.44936 35.89386
#
# Velocity S-wave (km/s) = 3.91137 4.08471 3.99898
# Velocity P-wave (km/s) = 7.10954 7.49234 7.30345
#
# Compressibility (1/GPa) = 0.01477862
#
# Stress axis : x y z
#
# Youngs Moduli (GPa) = 141.37472 68.83078 74.87945
#
# Poissons Ratio (x) = 0.18346 0.22328
# Poissons Ratio (y) = 0.37682 0.33260
# Poissons Ratio (z) = 0.42155 0.30573
#
# Static dielectric constant tensor:
#      x y z
#    x 1.893630 0.000000 0.000000 
#    y 0.000000 1.978950 0.000000 
#    z 0.000000 0.000000 1.839930 
# 
# From -- ./inp_files/10292.got.cif
#   From: 2010.05.17/outbox.cif.g08.bks.cpg/sg48_6_cif.got.tgz:10292.got - 2010.06.03 20:39:00.
