data_PCOD9391033
_publ_section_title
;
Structure prediction by ZEFSAII (Michael W. Deem and Ramdas Pophale) SiO2 
 PCOD9391033
Probable space group: P N N N
;
_chemical_formula_sum "Si O2"
_cell_formula_units_Z 40
_cell_length_a 8.321296
_cell_length_b 8.594276
_cell_length_c 25.515494
_cell_angle_alpha 90.000000
_cell_angle_beta 90.000000
_cell_angle_gamma 90.000000
_cell_volume 1824.753681
_symmetry_space_group_name_H-M "P N N N"
_symmetry_group_IT_number 48
_space_group.IT_coordinate_system_code '2'
_symmetry_cell_setting 'orthorhombic'
loop_
_space_group_symop_operation_xyz
x,y,z
1/2-x,1/2-y,z
x,1/2-y,1/2-z
1/2-x,y,1/2-z
-x,-y,-z
1/2+x,1/2+y,-z
-x,1/2+y,1/2+z
1/2+x,-y,1/2+z
loop_
_atom_site_type_symbol
_atom_site_label
_atom_site_fract_x
_atom_site_fract_y
_atom_site_fract_z
Si Si1 0.432277 0.576504 0.808912
Si Si2 0.591600 0.137938 0.902563
Si Si3 0.057571 0.445085 0.578255
Si Si4 0.956872 0.058983 0.306103
Si Si5 0.251617 0.064320 0.486082
O O1 0.474214 0.498318 0.863036
O O2 0.497782 0.511660 0.753793
O O3 0.238059 0.556737 0.808294
O O4 0.487500 0.756289 0.811781
O O5 0.750000 0.250000 0.895208
O O6 0.455221 0.259605 0.918976
O O7 0.541353 0.042886 0.850701
O O8 0.618940 0.022478 0.951501
O O9 0.216653 0.491931 0.545898
O O10 0.911525 0.513164 0.545084
O O11 0.250000 0.250000 0.483331
#
# Coordination Sequence:
#
# PCOD9391033 Si02
#       5
#     8   8   8   8   8
#     4   9  19  38  63  92 118 156 198 245 308 356
#     4  10  22  40  60  88 122 159 204 248 304 360
#     4  10  22  39  57  88 122 152 201 251 299 361
#     4   9  19  38  64  90 121 154 200 249 297 370
#     4  10  22  40  58  81 121 161 202 244 297 362
#
# _framework density 21.920767000000001
#
# number of rings (size 3 to 8) (size 9 to 14) (size 15 to 20)
#    0.000    2.400    0.000    2.400    2.800    1.600 
#   18.000    9.000    0.000   10.800    0.000    0.000 
#    0.000    0.000    0.000    0.000    0.000    0.000 
#
# Total GULP energy -223068.670617 kJ/mol
# GULP energy per Si atom -5576.716765 kJ/mol
# Density = 2.187087 g / cm^3
# Si number density = 21.920767 Si / 1000 Ang^3
#
#
#
# Elastic Constant Matrix: (Units=GPa)
#
#
# Indices 1 2 3 4 5 6 
#
# 1 38.5594 16.9217 46.6651 0.0000 0.0000 0.0000
# 2 16.9217 80.0938 81.3223 0.0000 0.0000 0.0000
# 3 46.6651 81.3223 191.6471 0.0000 0.0000 0.0000
# 4 0.0000 0.0000 0.0000 35.1815 0.0000 0.0000
# 5 0.0000 0.0000 0.0000 0.0000 36.7635 0.0000
# 6 0.0000 0.0000 0.0000 0.0000 0.0000 26.9463
#
#
#
# Elastic Compliance Matrix: (Units=1/GPa)
#
#
# Indices 1 2 3 4 5 6 
#
# 1 0.037017 0.002339 -0.010006 0.000000 0.000000 0.000000
# 2 0.002339 0.022084 -0.009941 0.000000 0.000000 0.000000
# 3 -0.010006 -0.009941 0.011872 0.000000 0.000000 0.000000
# 4 0.000000 0.000000 0.000000 0.028424 0.000000 0.000000
# 5 0.000000 0.000000 0.000000 0.000000 0.027201 0.000000
# 6 0.000000 0.000000 0.000000 0.000000 0.000000 0.037111
#
#
# Mechanical properties :
#
#
# Convention : Reuss Voigt Hill
#
# Bulk Modulus (GPa) = 27.96576 66.67983 47.32280
# Shear Modulus (GPa) = 23.71423 30.80435 27.25929
#
# Velocity S-wave (km/s) = 3.29266 3.75274 3.53021
# Velocity P-wave (km/s) = 5.21928 7.01869 6.18478
#
# Compressibility (1/GPa) = 0.03575801
#
# Stress axis : x y z
#
# Youngs Moduli (GPa) = 27.01476 45.28111 84.22934
#
# Poissons Ratio (x) = -0.10589 0.84277
# Poissons Ratio (y) = -0.06317 0.83728
# Poissons Ratio (z) = 0.27030 0.45012
#
# Static dielectric constant tensor:
#      x y z
#    x 1.887430 0.000000 0.000000 
#    y 0.000000 1.785840 0.000000 
#    z 0.000000 0.000000 1.870390 
# 
# From -- ./inp_files/9032.got.cif
#   From: 2010.05.17/outbox.cif.g08.bks.cpg/sg48_5_cif.got.tgz:9032.got - 2010.06.03 20:39:00.
