data_PCOD9391977
_publ_section_title
;
Structure prediction by ZEFSAII (Michael W. Deem and Ramdas Pophale) SiO2 
 PCOD9391977
Probable space group: P C C M
;
_chemical_formula_sum "Si O2"
_cell_formula_units_Z 56
_cell_length_a 33.615396
_cell_length_b 5.377133
_cell_length_c 14.594292
_cell_angle_alpha 90.000000
_cell_angle_beta 90.000000
_cell_angle_gamma 90.000000
_cell_volume 2637.983299
_symmetry_space_group_name_H-M "P C C M"
_symmetry_group_IT_number 49
_symmetry_cell_setting 'orthorhombic'
loop_
_space_group_symop_operation_xyz
x,y,z
-x,-y,z
x,-y,1/2-z
-x,y,1/2-z
-x,-y,-z
x,y,-z
-x,y,1/2+z
x,-y,1/2+z
loop_
_atom_site_type_symbol
_atom_site_label
_atom_site_fract_x
_atom_site_fract_y
_atom_site_fract_z
Si Si1 0.817506 0.617836 0.891103
Si Si2 0.777201 0.126584 0.890847
Si Si3 0.693159 0.247995 0.188577
Si Si4 0.482948 0.249782 0.356539
Si Si5 0.393784 0.749201 0.188878
Si Si6 0.909960 0.510313 0.140013
Si Si7 0.046141 0.996670 0.861823
O O1 0.799875 0.364404 0.851032
O O2 0.864684 0.584651 0.881656
O O3 0.795867 0.867402 0.854969
O O4 0.808856 0.617948 0.000000
O O5 0.731118 0.187940 0.873242
O O6 0.783730 0.119543 0.000000
O O7 0.698684 0.500000 0.250000
O O8 0.649582 0.265118 0.141601
O O9 0.690818 0.000000 0.250000
O O10 0.500000 0.500000 0.396953
O O11 0.500000 0.249815 0.250000
O O12 0.435444 0.248140 0.362946
O O13 0.500000 0.000000 0.397178
O O14 0.395464 0.500000 0.250000
O O15 0.394605 0.000000 0.250000
O O16 0.912689 0.500000 0.250000
O O17 0.928023 0.244702 0.108669
O O18 0.935478 0.743549 0.106997
O O19 0.047096 0.000000 0.750000
O O20 0.000000 0.000000 0.888691
#
# Coordination Sequence:
#
# PCOD9391977 Si02
#       7
#     8   8   8   8   8   8   8
#     4  10  21  36  55  74  98 130 166 211 252 296
#     4  10  21  38  55  72  96 134 174 202 248 314
#     4  10  21  33  50  74 103 129 159 210 262 297
#     4  10  14  20  34  53  81 121 154 179 224 287
#     4  10  16  25  37  59  90 123 150 191 239 292
#     4  10  19  31  50  77 100 126 164 205 245 288
#     4   9  17  30  49  73 103 134 164 196 237 290
#
# _framework density 21.228337
#
# number of rings (size 3 to 8) (size 9 to 14) (size 15 to 20)
#    0.000    2.143    2.857    2.143    0.000    3.429 
#    0.000    0.000    0.000    2.571    0.000    0.000 
#    0.000    1.143    0.000    0.000    0.000    5.714 
#
# Total GULP energy -312173.179302 kJ/mol
# GULP energy per Si atom -5574.521059 kJ/mol
# Density = 2.118002 g / cm^3
# Si number density = 21.228337 Si / 1000 Ang^3
#
#
#
# Elastic Constant Matrix: (Units=GPa)
#
#
# Indices 1 2 3 4 5 6 
#
# 1 173.4000 83.7081 -8.1509 0.0000 0.0000 0.0000
# 2 83.7081 226.4912 20.5020 0.0000 0.0000 0.0000
# 3 -8.1509 20.5020 50.6656 0.0000 0.0000 0.0000
# 4 0.0000 0.0000 0.0000 -4.9929 0.0000 0.0000
# 5 0.0000 0.0000 0.0000 0.0000 -84.4639 0.0000
# 6 0.0000 0.0000 0.0000 0.0000 0.0000 44.9368
#
#
#
# Elastic Compliance Matrix: (Units=1/GPa)
#
#
# Indices 1 2 3 4 5 6 
#
# 1 0.007278 -0.002902 0.002345 0.000000 0.000000 0.000000
# 2 -0.002902 0.005740 -0.002790 0.000000 0.000000 0.000000
# 3 0.002345 -0.002790 0.021243 0.000000 0.000000 0.000000
# 4 0.000000 0.000000 0.000000 -0.200284 0.000000 0.000000
# 5 0.000000 0.000000 0.000000 0.000000 -0.011839 0.000000
# 6 0.000000 0.000000 0.000000 0.000000 0.000000 0.022253
#
#
# Mechanical properties :
#
#
# Convention : Reuss Voigt Hill
#
# Bulk Modulus (GPa) = 36.27301 71.40836 53.84068
# Shear Modulus (GPa) = -35.78463 14.72916 -10.52774
#
# Velocity S-wave (km/s) = -4.11018 2.63695 -2.22936
# Velocity P-wave (km/s) = 2.32393 6.55611 4.33486
#
# Compressibility (1/GPa) = 0.02756871
#
# Stress axis : x y z
#
# Youngs Moduli (GPa) = 137.39450 174.20541 47.07331
#
# Poissons Ratio (x) = 0.50559 -0.11040
# Poissons Ratio (y) = 0.39876 0.13132
# Poissons Ratio (z) = -0.32223 0.48599
#
# Static dielectric constant tensor:
#      x y z
#    x 1.812210 0.000000 0.000000 
#    y 0.000000 1.780800 0.000000 
#    z 0.000000 0.000000 1.763250 
# 
# From -- ./inp_files/21261.got.cif
#   From: 2010.05.17/outbox.cif.g08.bks.cpg/sg49_11_cif.got.tgz:21261.got - 2010.06.03 21:02:19.
