data_PCOD9391924
_publ_section_title
;
Structure prediction by ZEFSAII (Michael W. Deem and Ramdas Pophale) SiO2 
 PCOD9391924
Probable space group: P N N N
;
_chemical_formula_sum "Si O2"
_cell_formula_units_Z 22
_cell_length_a 5.066481
_cell_length_b 5.165299
_cell_length_c 32.059186
_cell_angle_alpha 90.000000
_cell_angle_beta 90.000000
_cell_angle_gamma 90.000000
_cell_volume 838.985347
_symmetry_space_group_name_H-M "P N N N"
_symmetry_group_IT_number 48
_space_group.IT_coordinate_system_code '2'
_symmetry_cell_setting 'orthorhombic'
loop_
_space_group_symop_operation_xyz
x,y,z
1/2-x,1/2-y,z
x,1/2-y,1/2-z
1/2-x,y,1/2-z
-x,-y,-z
1/2+x,1/2+y,-z
-x,1/2+y,1/2+z
1/2+x,-y,1/2+z
loop_
_atom_site_type_symbol
_atom_site_label
_atom_site_fract_x
_atom_site_fract_y
_atom_site_fract_z
Si Si1 0.427593 0.996312 0.451277
Si Si2 0.250000 0.250000 0.250000
Si Si3 0.250000 0.750000 0.609895
Si Si4 0.992166 0.433615 0.676749
O O1 0.250000 0.250000 0.442473
O O2 0.690792 0.024146 0.423649
O O3 0.250000 0.750000 0.441833
O O4 0.500000 0.000000 0.500000
O O5 0.426962 0.431805 0.220604
O O6 0.031609 0.663398 0.643575
O O7 0.250000 0.250000 0.677750
O O8 0.750000 0.250000 0.665039
#
# Coordination Sequence:
#
# PCOD9391924 Si02
#       4
#     8   2   4   8
#     4  12  28  50  81 119 168 230 294 363 436 518
#     4  12  30  58  84 132 160 234 286 362 454 538
#     4  12  30  47  82 118 170 224 296 353 450 512
#     4  12  30  53  84 121 172 221 287 365 445 538
#
# _framework density 26.222148000000001
#
# number of rings (size 3 to 8) (size 9 to 14) (size 15 to 20)
#    0.000    0.000    1.818    4.909   12.727   10.909 
#    0.000    0.000    0.000    0.000    0.000    0.000 
#    0.000    0.000    0.000    0.000    0.000    0.000 
#
# Total GULP energy -123161.700777 kJ/mol
# GULP energy per Si atom -5598.259126 kJ/mol
# Density = 2.616247 g / cm^3
# Si number density = 26.222148 Si / 1000 Ang^3
#
#
#
# Elastic Constant Matrix: (Units=GPa)
#
#
# Indices 1 2 3 4 5 6 
#
# 1 203.9249 113.4647 67.0159 0.0000 0.0000 0.0000
# 2 113.4647 219.2244 58.4890 0.0000 0.0000 0.0000
# 3 67.0159 58.4890 215.6721 0.0000 0.0000 0.0000
# 4 0.0000 0.0000 0.0000 -8.6519 0.0000 0.0000
# 5 0.0000 0.0000 0.0000 0.0000 -10.3047 0.0000
# 6 0.0000 0.0000 0.0000 0.0000 0.0000 66.6078
#
#
#
# Elastic Compliance Matrix: (Units=1/GPa)
#
#
# Indices 1 2 3 4 5 6 
#
# 1 0.007223 -0.003384 -0.001327 0.000000 0.000000 0.000000
# 2 -0.003384 0.006503 -0.000712 0.000000 0.000000 0.000000
# 3 -0.001327 -0.000712 0.005242 0.000000 0.000000 0.000000
# 4 0.000000 0.000000 0.000000 -0.115581 0.000000 0.000000
# 5 0.000000 0.000000 0.000000 0.000000 -0.097043 0.000000
# 6 0.000000 0.000000 0.000000 0.000000 0.000000 0.015013
#
#
# Mechanical properties :
#
#
# Convention : Reuss Voigt Hill
#
# Bulk Modulus (GPa) = 123.12085 124.08450 123.60268
# Shear Modulus (GPa) = -30.28657 36.18701 2.95022
#
# Velocity S-wave (km/s) = -3.40222 3.71889 1.06185
# Velocity P-wave (km/s) = 5.62330 8.11563 6.98158
#
# Compressibility (1/GPa) = 0.00812210
#
# Stress axis : x y z
#
# Youngs Moduli (GPa) = 138.45040 153.77104 190.76900
#
# Poissons Ratio (x) = 0.52043 0.25306
# Poissons Ratio (y) = 0.46857 0.13582
# Poissons Ratio (z) = 0.18366 0.10948
#
# Static dielectric constant tensor:
#      x y z
#    x 3.042220 0.000000 0.000000 
#    y 0.000000 1.684870 0.000000 
#    z 0.000000 0.000000 2.010310 
# 
# From -- ./inp_files/38139.got.cif
#   From: 2010.05.17/outbox.cif.g08.bks.cpg/sg48_20_cif.got.tgz:38139.got - 2010.06.03 20:39:00.
