data_PCOD9391059
_publ_section_title
;
Structure prediction by ZEFSAII (Michael W. Deem and Ramdas Pophale) SiO2 
 PCOD9391059
Probable space group: P N N N
;
_chemical_formula_sum "Si O2"
_cell_formula_units_Z 36
_cell_length_a 9.863665
_cell_length_b 22.215842
_cell_length_c 7.403027
_cell_angle_alpha 90.000000
_cell_angle_beta 90.000000
_cell_angle_gamma 90.000000
_cell_volume 1622.222517
_symmetry_space_group_name_H-M "P N N N"
_symmetry_group_IT_number 48
_space_group.IT_coordinate_system_code '2'
_symmetry_cell_setting 'orthorhombic'
loop_
_space_group_symop_operation_xyz
x,y,z
1/2-x,1/2-y,z
x,1/2-y,1/2-z
1/2-x,y,1/2-z
-x,-y,-z
1/2+x,1/2+y,-z
-x,1/2+y,1/2+z
1/2+x,-y,1/2+z
loop_
_atom_site_type_symbol
_atom_site_label
_atom_site_fract_x
_atom_site_fract_y
_atom_site_fract_z
Si Si1 0.915075 0.588084 0.014940
Si Si2 0.592643 0.815166 0.305035
Si Si3 0.037458 0.180339 0.221523
Si Si4 0.290574 0.532035 0.462090
Si Si5 0.250000 0.624438 0.750000
O O1 0.950159 0.628336 0.187277
O O2 0.058038 0.554739 0.987574
O O3 0.797257 0.537953 0.022438
O O4 0.885915 0.634947 0.854629
O O5 0.530804 0.750000 0.250000
O O6 0.750000 0.810870 0.250000
O O7 0.566372 0.829277 0.511946
O O8 0.072380 0.250000 0.250000
O O9 0.880523 0.166918 0.273133
O O10 0.250000 0.535027 0.250000
O O11 0.208760 0.578905 0.586211
#
# Coordination Sequence:
#
# PCOD9391059 Si02
#       5
#     8   8   8   8   4
#     4  10  23  40  61  93 125 165 213 264 322 387
#     4  11  24  40  61  91 126 166 212 259 319 392
#     4  11  22  42  65  92 130 166 216 270 327 395
#     4  10  22  40  62  91 126 163 213 264 321 385
#     4  10  23  40  68  94 123 168 214 272 328 388
#
# _framework density 22.191776999999998
#
# number of rings (size 3 to 8) (size 9 to 14) (size 15 to 20)
#    0.000    1.556    2.222    1.667    4.667    0.000 
#    0.000    6.667    0.000    0.000    0.000    0.000 
#    0.000    0.000    0.000    0.000    0.000    0.000 
#
# Total GULP energy -200808.122323 kJ/mol
# GULP energy per Si atom -5578.003398 kJ/mol
# Density = 2.214127 g / cm^3
# Si number density = 22.191777 Si / 1000 Ang^3
#
#
#
# Elastic Constant Matrix: (Units=GPa)
#
#
# Indices 1 2 3 4 5 6 
#
# 1 33.4068 0.2061 -13.5167 0.0000 0.0000 0.0000
# 2 0.2061 144.9072 51.6163 0.0000 0.0000 0.0000
# 3 -13.5167 51.6163 170.5156 0.0000 0.0000 0.0000
# 4 0.0000 0.0000 0.0000 -2.4554 0.0000 0.0000
# 5 0.0000 0.0000 0.0000 0.0000 19.4703 0.0000
# 6 0.0000 0.0000 0.0000 0.0000 0.0000 18.0830
#
#
#
# Elastic Compliance Matrix: (Units=1/GPa)
#
#
# Indices 1 2 3 4 5 6 
#
# 1 0.031063 -0.001033 0.002775 0.000000 0.000000 0.000000
# 2 -0.001033 0.007769 -0.002434 0.000000 0.000000 0.000000
# 3 0.002775 -0.002434 0.006821 0.000000 0.000000 0.000000
# 4 0.000000 0.000000 0.000000 -0.407273 0.000000 0.000000
# 5 0.000000 0.000000 0.000000 0.000000 0.051360 0.000000
# 6 0.000000 0.000000 0.000000 0.000000 0.000000 0.055300
#
#
# Mechanical properties :
#
#
# Convention : Reuss Voigt Hill
#
# Bulk Modulus (GPa) = 22.58813 47.27122 34.92967
# Shear Modulus (GPa) = -20.93639 27.72119 3.39240
#
# Velocity S-wave (km/s) = -3.07486 3.53819 1.23774
# Velocity P-wave (km/s) = 1.55102 6.16759 4.22099
#
# Compressibility (1/GPa) = 0.04427104
#
# Stress axis : x y z
#
# Youngs Moduli (GPa) = 32.19243 128.71141 146.60117
#
# Poissons Ratio (x) = 0.13291 -0.40681
# Poissons Ratio (y) = 0.03324 0.35678
# Poissons Ratio (z) = -0.08933 0.31324
#
# Static dielectric constant tensor:
#      x y z
#    x 1.825200 0.000000 0.000000 
#    y 0.000000 1.958020 0.000000 
#    z 0.000000 0.000000 1.825340 
# 
# From -- ./inp_files/2233.got.cif
#   From: 2010.05.17/outbox.cif.g08.bks.cpg/sg48_2_cif.got.tgz:2233.got - 2010.06.03 20:39:00.
