data_PCOD9391425
_publ_section_title
;
Structure prediction by ZEFSAII (Michael W. Deem and Ramdas Pophale) SiO2 
 PCOD9391425
Probable space group: P N N N
;
_chemical_formula_sum "Si O2"
_cell_formula_units_Z 40
_cell_length_a 20.076009
_cell_length_b 5.531810
_cell_length_c 15.498002
_cell_angle_alpha 90.000000
_cell_angle_beta 90.000000
_cell_angle_gamma 90.000000
_cell_volume 1721.156453
_symmetry_space_group_name_H-M "P N N N"
_symmetry_group_IT_number 48
_space_group.IT_coordinate_system_code '2'
_symmetry_cell_setting 'orthorhombic'
loop_
_space_group_symop_operation_xyz
x,y,z
1/2-x,1/2-y,z
x,1/2-y,1/2-z
1/2-x,y,1/2-z
-x,-y,-z
1/2+x,1/2+y,-z
-x,1/2+y,1/2+z
1/2+x,-y,1/2+z
loop_
_atom_site_type_symbol
_atom_site_label
_atom_site_fract_x
_atom_site_fract_y
_atom_site_fract_z
Si Si1 0.250000 0.250000 0.120667
Si Si2 0.594204 0.394960 0.329931
Si Si3 0.984688 0.250000 0.750000
Si Si4 0.509273 0.753065 0.550285
Si Si5 0.316852 0.877243 0.989279
Si Si6 0.122499 0.001484 0.124418
O O1 0.307654 0.409786 0.165810
O O2 0.210655 0.429620 0.057065
O O3 0.626050 0.250000 0.250000
O O4 0.537742 0.584921 0.301147
O O5 0.546145 0.208487 0.377258
O O6 0.643266 0.477568 0.406361
O O7 0.932142 0.118267 0.813459
O O8 0.500000 0.500000 0.500000
O O9 0.500000 0.000000 0.500000
O O10 0.582906 0.765148 0.589008
O O11 0.250000 0.750000 0.954205
O O12 0.358180 0.680292 0.046057
#
# Coordination Sequence:
#
# PCOD9391425 Si02
#       6
#     4   8   4   8   8   8
#     4  10  24  46  77  99 136 202 260 316 376 471
#     4  12  26  43  69 110 151 194 244 314 391 456
#     4  12  28  44  71 115 160 192 248 326 392 470
#     4  12  24  43  77 107 145 197 254 316 371 446
#     4  10  24  47  74 102 142 196 260 309 377 469
#     4  11  24  46  72 106 144 197 257 316 386 465
#
# _framework density 23.240189000000001
#
# number of rings (size 3 to 8) (size 9 to 14) (size 15 to 20)
#    0.000    0.800    4.000    2.400    2.800    3.600 
#    0.000    5.500    0.000    0.000    0.000    0.000 
#    0.000    0.000    0.000    0.000    0.000    0.000 
#
# Total GULP energy -223241.067672 kJ/mol
# GULP energy per Si atom -5581.026692 kJ/mol
# Density = 2.318729 g / cm^3
# Si number density = 23.240189 Si / 1000 Ang^3
#
#
#
# Elastic Constant Matrix: (Units=GPa)
#
#
# Indices 1 2 3 4 5 6 
#
# 1 146.3631 35.1565 40.3843 0.0000 0.0000 0.0000
# 2 35.1565 86.5456 36.1782 0.0000 0.0000 0.0000
# 3 40.3843 36.1782 83.0070 0.0000 0.0000 0.0000
# 4 0.0000 0.0000 0.0000 37.8137 0.0000 0.0000
# 5 0.0000 0.0000 0.0000 0.0000 40.3332 0.0000
# 6 0.0000 0.0000 0.0000 0.0000 0.0000 51.5585
#
#
#
# Elastic Compliance Matrix: (Units=1/GPa)
#
#
# Indices 1 2 3 4 5 6 
#
# 1 0.008173 -0.002027 -0.003093 0.000000 0.000000 0.000000
# 2 -0.002027 0.014632 -0.005391 0.000000 0.000000 0.000000
# 3 -0.003093 -0.005391 0.015901 0.000000 0.000000 0.000000
# 4 0.000000 0.000000 0.000000 0.026445 0.000000 0.000000
# 5 0.000000 0.000000 0.000000 0.000000 0.024793 0.000000
# 6 0.000000 0.000000 0.000000 0.000000 0.000000 0.019395
#
#
# Mechanical properties :
#
#
# Convention : Reuss Voigt Hill
#
# Bulk Modulus (GPa) = 56.54712 59.92819 58.23765
# Shear Modulus (GPa) = 36.69571 39.55419 38.12495
#
# Velocity S-wave (km/s) = 3.97794 4.12997 4.05467
# Velocity P-wave (km/s) = 6.74412 6.97027 6.85813
#
# Compressibility (1/GPa) = 0.01768437
#
# Stress axis : x y z
#
# Youngs Moduli (GPa) = 122.36120 68.34536 62.88766
#
# Poissons Ratio (x) = 0.13854 0.19449
# Poissons Ratio (y) = 0.24803 0.33902
# Poissons Ratio (z) = 0.37841 0.36844
#
# Static dielectric constant tensor:
#      x y z
#    x 1.929990 0.000000 0.000000 
#    y 0.000000 1.908170 0.000000 
#    z 0.000000 0.000000 1.577720 
# 
# From -- ./inp_files/32137.got.cif
#   From: 2010.05.17/outbox.cif.g08.bks.cpg/sg48_17_cif.got.tgz:32137.got - 2010.06.03 20:39:00.
