data_PCOD9391125
_publ_section_title
;
Structure prediction by ZEFSAII (Michael W. Deem and Ramdas Pophale) SiO2 
 PCOD9391125
Probable space group: P N N N
;
_chemical_formula_sum "Si O2"
_cell_formula_units_Z 36
_cell_length_a 11.438760
_cell_length_b 24.759280
_cell_length_c 5.164148
_cell_angle_alpha 90.000000
_cell_angle_beta 90.000000
_cell_angle_gamma 90.000000
_cell_volume 1462.566560
_symmetry_space_group_name_H-M "P N N N"
_symmetry_group_IT_number 48
_space_group.IT_coordinate_system_code '2'
_symmetry_cell_setting 'orthorhombic'
loop_
_space_group_symop_operation_xyz
x,y,z
1/2-x,1/2-y,z
x,1/2-y,1/2-z
1/2-x,y,1/2-z
-x,-y,-z
1/2+x,1/2+y,-z
-x,1/2+y,1/2+z
1/2+x,-y,1/2+z
loop_
_atom_site_type_symbol
_atom_site_label
_atom_site_fract_x
_atom_site_fract_y
_atom_site_fract_z
Si Si1 0.043982 0.077421 0.107619
Si Si2 0.250000 0.138890 0.250000
Si Si3 0.868195 0.140502 0.381946
Si Si4 0.383007 0.526597 0.334424
Si Si5 0.942846 0.786060 0.495136
O O1 0.171608 0.101079 0.063651
O O2 0.966436 0.129272 0.169184
O O3 0.060738 0.034751 0.349690
O O4 0.969902 0.049416 0.885402
O O5 0.163748 0.174698 0.424398
O O6 0.750000 0.159641 0.250000
O O7 0.853395 0.079424 0.490490
O O8 0.937226 0.180965 0.567331
O O9 0.250000 0.512653 0.250000
O O10 0.911152 0.750000 0.250000
O O11 0.965304 0.750000 0.750000
#
# Coordination Sequence:
#
# PCOD9391125 Si02
#       5
#     8   4   8   8   8
#     4  10  22  42  65 106 145 190 244 302 377 468
#     4  10  23  46  74 108 146 198 251 316 398 460
#     4  11  24  43  70 101 142 194 248 312 383 455
#     4  11  21  39  69 100 149 190 243 302 375 461
#     4  11  28  51  76 108 150 195 264 328 391 460
#
# _framework density 24.614263000000001
#
# number of rings (size 3 to 8) (size 9 to 14) (size 15 to 20)
#    0.000    1.333    3.333    1.000    6.222    2.222 
#    4.000    1.111    0.000    0.000    0.000    0.000 
#    0.000    0.000    0.000    0.000    0.000    0.000 
#
# Total GULP energy -200598.883676 kJ/mol
# GULP energy per Si atom -5572.191213 kJ/mol
# Density = 2.455824 g / cm^3
# Si number density = 24.614263 Si / 1000 Ang^3
#
#
#
# Elastic Constant Matrix: (Units=GPa)
#
#
# Indices 1 2 3 4 5 6 
#
# 1 152.6936 52.1146 28.9139 0.0000 0.0000 0.0000
# 2 52.1146 94.2357 22.4431 0.0000 0.0000 0.0000
# 3 28.9139 22.4431 75.9971 0.0000 0.0000 0.0000
# 4 0.0000 0.0000 0.0000 29.3602 0.0000 0.0000
# 5 0.0000 0.0000 0.0000 0.0000 14.7607 0.0000
# 6 0.0000 0.0000 0.0000 0.0000 0.0000 59.9368
#
#
#
# Elastic Compliance Matrix: (Units=1/GPa)
#
#
# Indices 1 2 3 4 5 6 
#
# 1 0.008332 -0.004144 -0.001946 0.000000 0.000000 0.000000
# 2 -0.004144 0.013476 -0.002403 0.000000 0.000000 0.000000
# 3 -0.001946 -0.002403 0.014608 0.000000 0.000000 0.000000
# 4 0.000000 0.000000 0.000000 0.034060 0.000000 0.000000
# 5 0.000000 0.000000 0.000000 0.000000 0.067748 0.000000
# 6 0.000000 0.000000 0.000000 0.000000 0.000000 0.016684
#
#
# Mechanical properties :
#
#
# Convention : Reuss Voigt Hill
#
# Bulk Modulus (GPa) = 51.46765 58.87437 55.17101
# Shear Modulus (GPa) = 28.03143 35.44184 31.73664
#
# Velocity S-wave (km/s) = 3.37831 3.79871 3.59466
# Velocity P-wave (km/s) = 6.01435 6.57350 6.30013
#
# Compressibility (1/GPa) = 0.01942968
#
# Stress axis : x y z
#
# Youngs Moduli (GPa) = 120.01853 74.20673 68.45360
#
# Poissons Ratio (x) = 0.30754 0.13322
# Poissons Ratio (y) = 0.49740 0.16449
# Poissons Ratio (z) = 0.23357 0.17831
#
# Static dielectric constant tensor:
#      x y z
#    x 2.044400 0.000000 0.000000 
#    y 0.000000 2.051650 0.000000 
#    z 0.000000 0.000000 2.103810 
# 
# From -- ./inp_files/2230.got.cif
#   From: 2010.05.17/outbox.cif.g08.bks.cpg/sg48_2_cif.got.tgz:2230.got - 2010.06.03 20:39:00.
