data_PCOD9391507
_publ_section_title
;
Structure prediction by ZEFSAII (Michael W. Deem and Ramdas Pophale) SiO2 
 PCOD9391507
Probable space group: P N N N
;
_chemical_formula_sum "Si O2"
_cell_formula_units_Z 52
_cell_length_a 29.261876
_cell_length_b 10.965994
_cell_length_c 8.721668
_cell_angle_alpha 90.000000
_cell_angle_beta 90.000000
_cell_angle_gamma 90.000000
_cell_volume 2798.657291
_symmetry_space_group_name_H-M "P N N N"
_symmetry_group_IT_number 48
_space_group.IT_coordinate_system_code '2'
_symmetry_cell_setting 'orthorhombic'
loop_
_space_group_symop_operation_xyz
x,y,z
1/2-x,1/2-y,z
x,1/2-y,1/2-z
1/2-x,y,1/2-z
-x,-y,-z
1/2+x,1/2+y,-z
-x,1/2+y,1/2+z
1/2+x,-y,1/2+z
loop_
_atom_site_type_symbol
_atom_site_label
_atom_site_fract_x
_atom_site_fract_y
_atom_site_fract_z
Si Si1 0.798212 0.390266 0.308691
Si Si2 0.953305 0.577134 0.972772
Si Si3 0.938595 0.015245 0.852357
Si Si4 0.616185 0.093640 0.118710
Si Si5 0.149647 0.681592 0.405564
Si Si6 0.958451 0.250000 0.250000
Si Si7 0.015952 0.176876 0.950477
O O1 0.798072 0.250000 0.250000
O O2 0.750000 0.442119 0.250000
O O3 0.840652 0.446760 0.217210
O O4 0.811212 0.381010 0.488594
O O5 0.946408 0.577384 0.788874
O O6 0.956329 0.699464 0.074102
O O7 0.907482 0.507951 0.019751
O O8 0.000000 0.500000 0.000000
O O9 0.890332 0.084475 0.865020
O O10 0.951483 0.934321 0.000167
O O11 0.977548 0.120517 0.840167
O O12 0.575473 0.137545 0.228051
O O13 0.628767 0.210635 0.013046
O O14 0.165169 0.750000 0.250000
O O15 0.987105 0.223894 0.098985
#
# Coordination Sequence:
#
# PCOD9391507 Si02
#       7
#     8   8   8   8   8   4   8
#     4   9  19  37  56  78 110 143 173 219 290 354
#     4  12  21  32  50  75 110 150 195 235 267 323
#     4  11  21  34  50  72 113 148 193 235 272 322
#     4  11  19  31  54  76 107 148 181 219 282 332
#     4  11  19  32  56  82 105 140 180 228 277 330
#     4  12  16  34  47  70 106 152 183 212 276 330
#     4  11  22  33  49  74 106 157 196 231 270 318
#
# _framework density 18.580338999999999
#
# number of rings (size 3 to 8) (size 9 to 14) (size 15 to 20)
#    0.000    1.077    8.462    0.000    0.000    1.231 
#    0.000    6.154    0.000    0.000    0.000    2.154 
#    0.000    2.462    0.000    0.000    0.000    0.000 
#
# Total GULP energy -289846.145147 kJ/mol
# GULP energy per Si atom -5573.964330 kJ/mol
# Density = 1.853805 g / cm^3
# Si number density = 18.580339 Si / 1000 Ang^3
#
#
#
# Elastic Constant Matrix: (Units=GPa)
#
#
# Indices 1 2 3 4 5 6 
#
# 1 89.6934 11.2113 30.7236 0.0000 0.0000 0.0000
# 2 11.2113 62.2032 -0.9912 0.0000 0.0000 0.0000
# 3 30.7236 -0.9912 64.0814 0.0000 0.0000 0.0000
# 4 0.0000 0.0000 0.0000 21.9932 0.0000 0.0000
# 5 0.0000 0.0000 0.0000 0.0000 19.5157 0.0000
# 6 0.0000 0.0000 0.0000 0.0000 0.0000 8.8092
#
#
#
# Elastic Compliance Matrix: (Units=1/GPa)
#
#
# Indices 1 2 3 4 5 6 
#
# 1 0.013743 -0.002583 -0.006629 0.000000 0.000000 0.000000
# 2 -0.002583 0.016566 0.001494 0.000000 0.000000 0.000000
# 3 -0.006629 0.001494 0.018806 0.000000 0.000000 0.000000
# 4 0.000000 0.000000 0.000000 0.045469 0.000000 0.000000
# 5 0.000000 0.000000 0.000000 0.000000 0.051241 0.000000
# 6 0.000000 0.000000 0.000000 0.000000 0.000000 0.113518
#
#
# Mechanical properties :
#
#
# Convention : Reuss Voigt Hill
#
# Bulk Modulus (GPa) = 29.69052 33.09618 31.39335
# Shear Modulus (GPa) = 17.48239 21.73258 19.60748
#
# Velocity S-wave (km/s) = 3.07075 3.42373 3.25203
# Velocity P-wave (km/s) = 5.34667 5.78622 5.57079
#
# Compressibility (1/GPa) = 0.03368079
#
# Stress axis : x y z
#
# Youngs Moduli (GPa) = 72.76693 60.36597 53.17342
#
# Poissons Ratio (x) = 0.15590 0.35247
# Poissons Ratio (y) = 0.18792 -0.07946
# Poissons Ratio (z) = 0.48235 -0.09021
#
# Static dielectric constant tensor:
#      x y z
#    x 1.654940 0.000000 0.000000 
#    y 0.000000 1.799010 0.000000 
#    z 0.000000 0.000000 1.818830 
# 
# From -- ./inp_files/16895.got.cif
#   From: 2010.05.17/outbox.cif.g08.bks.cpg/sg48_9_cif.got.tgz:16895.got - 2010.06.03 20:39:00.
