data_PCOD9391518
_publ_section_title
;
Structure prediction by ZEFSAII (Michael W. Deem and Ramdas Pophale) SiO2 
 PCOD9391518
Probable space group: P N N N
;
_chemical_formula_sum "Si O2"
_cell_formula_units_Z 56
_cell_length_a 16.208502
_cell_length_b 32.048653
_cell_length_c 5.045015
_cell_angle_alpha 90.000000
_cell_angle_beta 90.000000
_cell_angle_gamma 90.000000
_cell_volume 2620.686803
_symmetry_space_group_name_H-M "P N N N"
_symmetry_group_IT_number 48
_space_group.IT_coordinate_system_code '2'
_symmetry_cell_setting 'orthorhombic'
loop_
_space_group_symop_operation_xyz
x,y,z
1/2-x,1/2-y,z
x,1/2-y,1/2-z
1/2-x,y,1/2-z
-x,-y,-z
1/2+x,1/2+y,-z
-x,1/2+y,1/2+z
1/2+x,-y,1/2+z
loop_
_atom_site_type_symbol
_atom_site_label
_atom_site_fract_x
_atom_site_fract_y
_atom_site_fract_z
Si Si1 0.488144 0.596702 0.957901
Si Si2 0.525950 0.952457 0.028609
Si Si3 0.338131 0.184721 0.872753
Si Si4 0.936662 0.814711 0.875786
Si Si5 0.622512 0.297212 0.297260
Si Si6 0.304902 0.411484 0.509191
Si Si7 0.661423 0.149070 0.684192
O O1 0.520999 0.563612 0.170017
O O2 0.409661 0.616931 0.104133
O O3 0.471594 0.575126 0.676130
O O4 0.550216 0.635048 0.897019
O O5 0.619472 0.941764 0.944997
O O6 0.500000 0.000000 0.000000
O O7 0.250000 0.197285 0.750000
O O8 0.407999 0.198579 0.665906
O O9 0.366251 0.197407 0.165525
O O10 0.336004 0.134037 0.892392
O O11 0.025273 0.799199 0.779821
O O12 0.648788 0.250000 0.250000
O O13 0.633706 0.319600 0.580167
O O14 0.670376 0.323675 0.078884
O O15 0.250000 0.404464 0.250000
O O16 0.250000 0.428640 0.750000
O O17 0.750000 0.129855 0.750000
#
# Coordination Sequence:
#
# PCOD9391518 Si02
#       7
#     8   8   8   8   8   8   8
#     4  11  21  41  61  87 119 158 209 253 302 373
#     4  12  24  40  62  88 123 166 206 250 311 377
#     4  11  20  32  57  91 116 148 198 254 304 344
#     4  11  19  37  59  84 122 155 199 253 295 365
#     4  11  24  40  64  95 127 166 206 257 321 375
#     4  11  21  36  58  88 122 150 193 262 314 350
#     4  11  24  42  66  94 124 165 211 263 316 373
#
# _framework density 21.368445000000001
#
# number of rings (size 3 to 8) (size 9 to 14) (size 15 to 20)
#    0.000    0.857    2.857    7.714    0.000    1.714 
#    0.000    2.143    0.000    2.571    0.000    0.000 
#    0.000    0.000    0.000    0.000    0.000    0.000 
#
# Total GULP energy -313076.889753 kJ/mol
# GULP energy per Si atom -5590.658746 kJ/mol
# Density = 2.131981 g / cm^3
# Si number density = 21.368445 Si / 1000 Ang^3
#
#
#
# Elastic Constant Matrix: (Units=GPa)
#
#
# Indices 1 2 3 4 5 6 
#
# 1 104.0527 10.0921 28.8964 0.0000 0.0000 0.0000
# 2 10.0921 69.7361 22.0883 0.0000 0.0000 0.0000
# 3 28.8964 22.0883 134.2891 0.0000 0.0000 0.0000
# 4 0.0000 0.0000 0.0000 101.5078 0.0000 0.0000
# 5 0.0000 0.0000 0.0000 0.0000 42.5315 0.0000
# 6 0.0000 0.0000 0.0000 0.0000 0.0000 -14.3504
#
#
#
# Elastic Compliance Matrix: (Units=1/GPa)
#
#
# Indices 1 2 3 4 5 6 
#
# 1 0.010267 -0.000829 -0.002073 0.000000 0.000000 0.000000
# 2 -0.000829 0.015195 -0.002321 0.000000 0.000000 0.000000
# 3 -0.002073 -0.002321 0.008274 0.000000 0.000000 0.000000
# 4 0.000000 0.000000 0.000000 0.009851 0.000000 0.000000
# 5 0.000000 0.000000 0.000000 0.000000 0.023512 0.000000
# 6 0.000000 0.000000 0.000000 0.000000 0.000000 -0.069685
#
#
# Mechanical properties :
#
#
# Convention : Reuss Voigt Hill
#
# Bulk Modulus (GPa) = 42.93665 47.80348 45.37006
# Shear Modulus (GPa) = 320.02429 42.40453 181.21441
#
# Velocity S-wave (km/s) = 12.25112 4.45955 9.21894
# Velocity P-wave (km/s) = 14.84106 6.99545 11.60158
#
# Compressibility (1/GPa) = 0.02329013
#
# Stress axis : x y z
#
# Youngs Moduli (GPa) = 97.40358 65.81155 120.85499
#
# Poissons Ratio (x) = 0.05457 0.25050
# Poissons Ratio (y) = 0.08077 0.28049
# Poissons Ratio (z) = 0.20189 0.15274
#
# Static dielectric constant tensor:
#      x y z
#    x 1.778300 0.000000 0.000000 
#    y 0.000000 1.866610 0.000000 
#    z 0.000000 0.000000 1.878340 
# 
# From -- ./inp_files/3729.got.cif
#   From: 2010.05.17/outbox.cif.g08.bks.cpg/sg48_2_cif.got.tgz:3729.got - 2010.06.03 20:39:00.
