data_PCOD9391824
_publ_section_title
;
Structure prediction by ZEFSAII (Michael W. Deem and Ramdas Pophale) SiO2 
 PCOD9391824
Probable space group: P N N N
;
_chemical_formula_sum "Si O2"
_cell_formula_units_Z 48
_cell_length_a 8.612563
_cell_length_b 17.648531
_cell_length_c 14.224572
_cell_angle_alpha 90.000000
_cell_angle_beta 90.000000
_cell_angle_gamma 90.000000
_cell_volume 2162.121930
_symmetry_space_group_name_H-M "P N N N"
_symmetry_group_IT_number 48
_space_group.IT_coordinate_system_code '2'
_symmetry_cell_setting 'orthorhombic'
loop_
_space_group_symop_operation_xyz
x,y,z
1/2-x,1/2-y,z
x,1/2-y,1/2-z
1/2-x,y,1/2-z
-x,-y,-z
1/2+x,1/2+y,-z
-x,1/2+y,1/2+z
1/2+x,-y,1/2+z
loop_
_atom_site_type_symbol
_atom_site_label
_atom_site_fract_x
_atom_site_fract_y
_atom_site_fract_z
Si Si1 0.934394 0.238727 0.640620
Si Si2 0.146630 0.921420 0.337876
Si Si3 0.121723 0.960826 0.676997
Si Si4 0.313777 0.491793 0.000372
Si Si5 0.425630 0.162169 0.273631
Si Si6 0.364670 0.178518 0.483823
O O1 0.750000 0.250000 0.631607
O O2 0.982530 0.250000 0.750000
O O3 0.945179 0.149552 0.618276
O O4 0.026387 0.292705 0.568987
O O5 0.250000 0.894005 0.250000
O O6 0.259915 0.967202 0.405409
O O7 0.018444 0.981662 0.311002
O O8 0.250000 0.984973 0.750000
O O9 0.049996 0.881274 0.710317
O O10 0.208742 0.966679 0.578000
O O11 0.282144 0.401406 0.992994
O O12 0.500000 0.500000 0.000000
O O13 0.430049 0.250000 0.250000
O O14 0.250000 0.134193 0.250000
O O15 0.451202 0.158041 0.385873
O O16 0.250000 0.250000 0.464827
#
# Coordination Sequence:
#
# PCOD9391824 Si02
#       6
#     8   8   8   8   8   8
#     4  11  25  46  71 106 145 196 246 313 384 453
#     4  12  24  45  76 103 146 195 253 312 384 452
#     4  12  27  44  70 109 147 193 254 308 379 457
#     4  12  27  47  76 110 151 198 253 321 382 462
#     4  11  24  48  76 103 152 197 251 311 388 457
#     4  12  25  46  74 109 147 199 249 313 385 457
#
# _framework density 22.200413999999999
#
# number of rings (size 3 to 8) (size 9 to 14) (size 15 to 20)
#    0.000    0.333    3.333    7.000    4.667    0.667 
#    0.000    0.000    0.000    0.000    0.000    0.000 
#    0.000    0.000    0.000    0.000    0.000    0.000 
#
# Total GULP energy -268360.520311 kJ/mol
# GULP energy per Si atom -5590.844173 kJ/mol
# Density = 2.214988 g / cm^3
# Si number density = 22.200414 Si / 1000 Ang^3
#
#
#
# Elastic Constant Matrix: (Units=GPa)
#
#
# Indices 1 2 3 4 5 6 
#
# 1 81.1469 41.6556 54.2454 0.0000 0.0000 0.0000
# 2 41.6556 124.7731 66.9801 0.0000 0.0000 0.0000
# 3 54.2454 66.9801 119.7082 0.0000 0.0000 0.0000
# 4 0.0000 0.0000 0.0000 22.7040 0.0000 0.0000
# 5 0.0000 0.0000 0.0000 0.0000 35.2631 0.0000
# 6 0.0000 0.0000 0.0000 0.0000 0.0000 30.4621
#
#
#
# Elastic Compliance Matrix: (Units=1/GPa)
#
#
# Indices 1 2 3 4 5 6 
#
# 1 0.018148 -0.002350 -0.006909 0.000000 0.000000 0.000000
# 2 -0.002350 0.011760 -0.005515 0.000000 0.000000 0.000000
# 3 -0.006909 -0.005515 0.014570 0.000000 0.000000 0.000000
# 4 0.000000 0.000000 0.000000 0.044045 0.000000 0.000000
# 5 0.000000 0.000000 0.000000 0.000000 0.028358 0.000000
# 6 0.000000 0.000000 0.000000 0.000000 0.000000 0.032828
#
#
# Mechanical properties :
#
#
# Convention : Reuss Voigt Hill
#
# Bulk Modulus (GPa) = 66.97801 72.37670 69.67736
# Shear Modulus (GPa) = 27.13951 28.53565 27.83758
#
# Velocity S-wave (km/s) = 3.50019 3.58909 3.54492
# Velocity P-wave (km/s) = 6.82424 7.06029 6.94327
#
# Compressibility (1/GPa) = 0.01493027
#
# Stress axis : x y z
#
# Youngs Moduli (GPa) = 55.10203 85.03697 68.63351
#
# Poissons Ratio (x) = 0.19984 0.47418
# Poissons Ratio (y) = 0.12949 0.37851
# Poissons Ratio (z) = 0.38069 0.46897
#
# Static dielectric constant tensor:
#      x y z
#    x 1.755060 0.000000 0.000000 
#    y 0.000000 1.851220 0.000000 
#    z 0.000000 0.000000 1.695580 
# 
# From -- ./inp_files/25402.got.cif
#   From: 2010.05.17/outbox.cif.g08.bks.cpg/sg48_13_cif.got.tgz:25402.got - 2010.06.03 20:39:00.
