data_PCOD9391918
_publ_section_title
;
Structure prediction by ZEFSAII (Michael W. Deem and Ramdas Pophale) SiO2 
 PCOD9391918
Probable space group: P N N N
;
_chemical_formula_sum "Si O2"
_cell_formula_units_Z 34
_cell_length_a 18.282992
_cell_length_b 5.646174
_cell_length_c 14.002493
_cell_angle_alpha 90.000000
_cell_angle_beta 90.000000
_cell_angle_gamma 90.000000
_cell_volume 1445.462707
_symmetry_space_group_name_H-M "P N N N"
_symmetry_group_IT_number 48
_space_group.IT_coordinate_system_code '2'
_symmetry_cell_setting 'orthorhombic'
loop_
_space_group_symop_operation_xyz
x,y,z
1/2-x,1/2-y,z
x,1/2-y,1/2-z
1/2-x,y,1/2-z
-x,-y,-z
1/2+x,1/2+y,-z
-x,1/2+y,1/2+z
1/2+x,-y,1/2+z
loop_
_atom_site_type_symbol
_atom_site_label
_atom_site_fract_x
_atom_site_fract_y
_atom_site_fract_z
Si Si1 0.250000 0.250000 0.750000
Si Si2 0.479927 0.250000 0.750000
Si Si3 0.333520 0.271347 0.066465
Si Si4 0.826358 0.391112 0.393547
Si Si5 0.065551 0.250000 0.250000
Si Si6 0.428729 0.004830 0.929595
O O1 0.197690 0.414019 0.685200
O O2 0.523647 0.498858 0.750455
O O3 0.440396 0.288810 0.648143
O O4 0.250000 0.250000 0.095374
O O5 0.385163 0.266815 0.156400
O O6 0.340787 0.495184 0.996998
O O7 0.360819 0.061767 0.998195
O O8 0.750000 0.250000 0.397446
O O9 0.897918 0.227661 0.374715
O O10 0.500000 0.000000 0.000000
#
# Coordination Sequence:
#
# PCOD9391918 Si02
#       6
#     2   4   8   8   4   8
#     4  12  26  50  76 128 182 214 288 360 458 516
#     4  12  30  53  82 124 165 232 278 360 437 520
#     4  12  26  51  80 121 160 224 281 358 420 513
#     4  12  26  49  80 123 171 223 281 356 440 525
#     4  12  29  54  82 118 169 224 298 342 429 508
#     4  12  27  53  83 116 172 221 283 354 433 523
#
# _framework density 23.521881
#
# number of rings (size 3 to 8) (size 9 to 14) (size 15 to 20)
#    0.000    0.000    5.882    2.118    3.294    7.529 
#    0.000    1.176    0.000    0.000    0.000    0.000 
#    0.000    0.000    0.000    0.000    0.000    0.000 
#
# Total GULP energy -190093.748171 kJ/mol
# GULP energy per Si atom -5590.992593 kJ/mol
# Density = 2.346834 g / cm^3
# Si number density = 23.521881 Si / 1000 Ang^3
#
#
#
# Elastic Constant Matrix: (Units=GPa)
#
#
# Indices 1 2 3 4 5 6 
#
# 1 148.8469 90.6612 62.2005 0.0000 0.0000 0.0000
# 2 90.6612 165.4193 76.2179 0.0000 0.0000 0.0000
# 3 62.2005 76.2179 169.7200 0.0000 0.0000 0.0000
# 4 0.0000 0.0000 0.0000 32.8289 0.0000 0.0000
# 5 0.0000 0.0000 0.0000 0.0000 50.9548 0.0000
# 6 0.0000 0.0000 0.0000 0.0000 0.0000 37.6865
#
#
#
# Elastic Compliance Matrix: (Units=1/GPa)
#
#
# Indices 1 2 3 4 5 6 
#
# 1 0.010410 -0.004978 -0.001580 0.000000 0.000000 0.000000
# 2 -0.004978 0.010002 -0.002668 0.000000 0.000000 0.000000
# 3 -0.001580 -0.002668 0.007669 0.000000 0.000000 0.000000
# 4 0.000000 0.000000 0.000000 0.030461 0.000000 0.000000
# 5 0.000000 0.000000 0.000000 0.000000 0.019625 0.000000
# 6 0.000000 0.000000 0.000000 0.000000 0.000000 0.026535
#
#
# Mechanical properties :
#
#
# Convention : Reuss Voigt Hill
#
# Bulk Modulus (GPa) = 103.82639 104.68282 104.25460
# Shear Modulus (GPa) = 39.56831 41.28782 40.42807
#
# Velocity S-wave (km/s) = 4.10590 4.19417 4.15027
# Velocity P-wave (km/s) = 8.16787 8.24959 8.20883
#
# Compressibility (1/GPa) = 0.00963146
#
# Stress axis : x y z
#
# Youngs Moduli (GPa) = 96.05809 99.97532 130.39373
#
# Poissons Ratio (x) = 0.49764 0.20601
# Poissons Ratio (y) = 0.47814 0.34785
# Poissons Ratio (z) = 0.15177 0.26670
#
# Static dielectric constant tensor:
#      x y z
#    x 1.933490 0.000000 0.000000 
#    y 0.000000 2.010590 0.000000 
#    z 0.000000 0.000000 1.900490 
# 
# From -- ./inp_files/3134.got.cif
#   From: 2010.05.17/outbox.cif.g08.bks.cpg/sg48_2_cif.got.tgz:3134.got - 2010.06.03 20:39:00.
