data_PCOD9391099
_publ_section_title
;
Structure prediction by ZEFSAII (Michael W. Deem and Ramdas Pophale) SiO2 
 PCOD9391099
Probable space group: P N N N
;
_chemical_formula_sum "Si O2"
_cell_formula_units_Z 44
_cell_length_a 13.063029
_cell_length_b 19.793912
_cell_length_c 7.005453
_cell_angle_alpha 90.000000
_cell_angle_beta 90.000000
_cell_angle_gamma 90.000000
_cell_volume 1811.389099
_symmetry_space_group_name_H-M "P N N N"
_symmetry_group_IT_number 48
_space_group.IT_coordinate_system_code '2'
_symmetry_cell_setting 'orthorhombic'
loop_
_space_group_symop_operation_xyz
x,y,z
1/2-x,1/2-y,z
x,1/2-y,1/2-z
1/2-x,y,1/2-z
-x,-y,-z
1/2+x,1/2+y,-z
-x,1/2+y,1/2+z
1/2+x,-y,1/2+z
loop_
_atom_site_type_symbol
_atom_site_label
_atom_site_fract_x
_atom_site_fract_y
_atom_site_fract_z
Si Si1 0.750000 0.750000 0.750000
Si Si2 0.250000 0.389412 0.750000
Si Si3 0.911547 0.827105 0.011525
Si Si4 0.001865 0.065144 0.271399
Si Si5 0.060186 0.750000 0.250000
Si Si6 0.667799 0.498345 0.479677
Si Si7 0.250000 0.750000 0.750000
Si Si8 0.643945 0.143878 0.978118
O O1 0.824295 0.703001 0.624870
O O2 0.351177 0.347394 0.795293
O O3 0.263467 0.438625 0.569679
O O4 0.991128 0.769095 0.069150
O O5 0.969172 0.890081 0.910212
O O6 0.095620 0.020892 0.347004
O O7 0.964585 0.116444 0.439239
O O8 0.903016 0.015607 0.288640
O O9 0.126274 0.816772 0.284264
O O10 0.711304 0.424204 0.522110
O O11 0.314862 0.800142 0.879621
#
# Coordination Sequence:
#
# PCOD9391099 Si02
#       8
#     2   4   8   8   4   8   2   8
#     4  12  24  40  60 100 128 172 200 270 320 380
#     4  12  23  39  62  99 123 158 206 274 320 366
#     4  12  24  39  67  92 131 166 210 257 325 378
#     4   9  20  42  66  84 120 168 208 254 311 387
#     4  12  24  42  62  96 126 172 214 260 308 402
#     4   9  21  42  64  90 123 156 211 267 307 380
#     4  12  22  40  64  88 126 168 212 258 332 364
#     4  10  22  41  63  89 124 164 209 265 306 386
#
# _framework density 24.290749000000002
#
# number of rings (size 3 to 8) (size 9 to 14) (size 15 to 20)
#    1.091    0.364    0.000    6.000    0.000    1.091 
#    0.000    1.818    0.000    0.000    0.000    0.000 
#    0.000    0.000    0.000    0.000    0.000    0.000 
#
# Total GULP energy -245642.916674 kJ/mol
# GULP energy per Si atom -5582.793561 kJ/mol
# Density = 2.423546 g / cm^3
# Si number density = 24.290749 Si / 1000 Ang^3
#
#
#
# Elastic Constant Matrix: (Units=GPa)
#
#
# Indices 1 2 3 4 5 6 
#
# 1 37.1960 16.0446 10.9619 0.0000 0.0000 0.0000
# 2 16.0446 116.5250 17.7811 0.0000 0.0000 0.0000
# 3 10.9619 17.7811 45.5053 0.0000 0.0000 0.0000
# 4 0.0000 0.0000 0.0000 46.2575 0.0000 0.0000
# 5 0.0000 0.0000 0.0000 0.0000 42.7573 0.0000
# 6 0.0000 0.0000 0.0000 0.0000 0.0000 22.4137
#
#
#
# Elastic Compliance Matrix: (Units=1/GPa)
#
#
# Indices 1 2 3 4 5 6 
#
# 1 0.030036 -0.003224 -0.005976 0.000000 0.000000 0.000000
# 2 -0.003224 0.009472 -0.002925 0.000000 0.000000 0.000000
# 3 -0.005976 -0.002925 0.024558 0.000000 0.000000 0.000000
# 4 0.000000 0.000000 0.000000 0.021618 0.000000 0.000000
# 5 0.000000 0.000000 0.000000 0.000000 0.023388 0.000000
# 6 0.000000 0.000000 0.000000 0.000000 0.000000 0.044616
#
#
# Mechanical properties :
#
#
# Convention : Reuss Voigt Hill
#
# Bulk Modulus (GPa) = 25.11452 32.08906 28.60179
# Shear Modulus (GPa) = 26.14940 32.58159 29.36549
#
# Velocity S-wave (km/s) = 3.28459 3.66637 3.48072
# Velocity P-wave (km/s) = 4.97456 5.58231 5.28717
#
# Compressibility (1/GPa) = 0.03981760
#
# Stress axis : x y z
#
# Youngs Moduli (GPa) = 33.29293 105.57399 40.72027
#
# Poissons Ratio (x) = 0.34036 0.24334
# Poissons Ratio (y) = 0.10733 0.11909
# Poissons Ratio (z) = 0.19895 0.30876
#
# Static dielectric constant tensor:
#      x y z
#    x 2.080050 0.000000 0.000000 
#    y 0.000000 1.843490 0.000000 
#    z 0.000000 0.000000 2.122190 
# 
# From -- ./inp_files/12726.got.cif
#   From: 2010.05.17/outbox.cif.g08.bks.cpg/sg48_7_cif.got.tgz:12726.got - 2010.06.03 20:39:00.
