data_PCOD9391549
_publ_section_title
;
Structure prediction by ZEFSAII (Michael W. Deem and Ramdas Pophale) SiO2 
 PCOD9391549
Probable space group: P N N N
;
_chemical_formula_sum "Si O2"
_cell_formula_units_Z 56
_cell_length_a 8.086073
_cell_length_b 15.653848
_cell_length_c 20.830333
_cell_angle_alpha 90.000000
_cell_angle_beta 90.000000
_cell_angle_gamma 90.000000
_cell_volume 2636.665175
_symmetry_space_group_name_H-M "P N N N"
_symmetry_group_IT_number 48
_space_group.IT_coordinate_system_code '2'
_symmetry_cell_setting 'orthorhombic'
loop_
_space_group_symop_operation_xyz
x,y,z
1/2-x,1/2-y,z
x,1/2-y,1/2-z
1/2-x,y,1/2-z
-x,-y,-z
1/2+x,1/2+y,-z
-x,1/2+y,1/2+z
1/2+x,-y,1/2+z
loop_
_atom_site_type_symbol
_atom_site_label
_atom_site_fract_x
_atom_site_fract_y
_atom_site_fract_z
Si Si1 0.876090 0.560433 0.689182
Si Si2 0.797441 0.848172 0.444659
Si Si3 0.629815 0.103608 0.107616
Si Si4 0.811607 0.157675 0.527578
Si Si5 0.811601 0.951359 0.179685
Si Si6 0.062666 0.257720 0.326188
Si Si7 0.800503 0.971279 0.559460
O O1 0.750000 0.569314 0.750000
O O2 0.987512 0.643460 0.671211
O O3 0.760271 0.556165 0.628376
O O4 0.998680 0.480343 0.690584
O O5 0.750000 0.750000 0.455478
O O6 0.727161 0.883782 0.377035
O O7 0.738000 0.911703 0.501576
O O8 0.996196 0.847452 0.451658
O O9 0.545902 0.182563 0.144758
O O10 0.497147 0.045659 0.067312
O O11 0.714931 0.036732 0.155204
O O12 0.724498 0.148146 0.048692
O O13 0.750000 0.250000 0.549541
O O14 0.741886 0.068483 0.553221
O O15 0.750000 0.923953 0.250000
O O16 0.250000 0.250000 0.352687
O O17 0.071355 0.250000 0.250000
#
# Coordination Sequence:
#
# PCOD9391549 Si02
#       7
#     8   8   8   8   8   8   8
#     4  12  26  41  69 104 137 184 230 284 355 425
#     4  11  26  45  70 103 137 184 234 291 348 404
#     4  11  22  42  64 100 137 185 222 278 349 415
#     4  11  25  43  71  99 140 176 226 295 350 422
#     4  12  26  45  69  97 138 183 235 289 349 416
#     4  11  20  36  62  93 140 178 220 271 336 416
#     4  11  22  45  71  94 141 180 226 281 351 415
#
# _framework density 21.238949000000002
#
# number of rings (size 3 to 8) (size 9 to 14) (size 15 to 20)
#    0.000    0.714    5.714    2.571    8.000    0.857 
#    0.000    1.429    0.000    0.429    0.000    0.000 
#    0.000    0.000    0.000    0.000    0.000    0.000 
#
# Total GULP energy -312304.293213 kJ/mol
# GULP energy per Si atom -5576.862379 kJ/mol
# Density = 2.119061 g / cm^3
# Si number density = 21.238949 Si / 1000 Ang^3
#
#
#
# Elastic Constant Matrix: (Units=GPa)
#
#
# Indices 1 2 3 4 5 6 
#
# 1 27.1268 20.4490 19.3415 0.0000 0.0000 0.0000
# 2 20.4490 166.5375 57.0183 0.0000 0.0000 0.0000
# 3 19.3415 57.0183 133.3755 0.0000 0.0000 0.0000
# 4 0.0000 0.0000 0.0000 -19.0184 0.0000 0.0000
# 5 0.0000 0.0000 0.0000 0.0000 19.0793 0.0000
# 6 0.0000 0.0000 0.0000 0.0000 0.0000 32.8665
#
#
#
# Elastic Compliance Matrix: (Units=1/GPa)
#
#
# Indices 1 2 3 4 5 6 
#
# 1 0.042958 -0.003681 -0.004656 0.000000 0.000000 0.000000
# 2 -0.003681 0.007350 -0.002608 0.000000 0.000000 0.000000
# 3 -0.004656 -0.002608 0.009288 0.000000 0.000000 0.000000
# 4 0.000000 0.000000 0.000000 -0.052581 0.000000 0.000000
# 5 0.000000 0.000000 0.000000 0.000000 0.052413 0.000000
# 6 0.000000 0.000000 0.000000 0.000000 0.000000 0.030426
#
#
# Mechanical properties :
#
#
# Convention : Reuss Voigt Hill
#
# Bulk Modulus (GPa) = 26.52112 57.85083 42.18598
# Shear Modulus (GPa) = 40.22113 21.93420 31.07766
#
# Velocity S-wave (km/s) = 4.35644 3.21711 3.82938
# Velocity P-wave (km/s) = 6.14970 6.41069 6.28155
#
# Compressibility (1/GPa) = 0.03770579
#
# Stress axis : x y z
#
# Youngs Moduli (GPa) = 23.27833 136.06195 107.66749
#
# Poissons Ratio (x) = 0.50080 0.50131
# Poissons Ratio (y) = 0.08568 0.28082
# Poissons Ratio (z) = 0.10839 0.35488
#
# Static dielectric constant tensor:
#      x y z
#    x 1.867340 0.000000 0.000000 
#    y 0.000000 1.889000 0.000000 
#    z 0.000000 0.000000 1.488460 
# 
# From -- ./inp_files/33576.got.cif
#   From: 2010.05.17/outbox.cif.g08.bks.cpg/sg48_17_cif.got.tgz:33576.got - 2010.06.03 20:39:00.
