data_PCOD9391914
_publ_section_title
;
Structure prediction by ZEFSAII (Michael W. Deem and Ramdas Pophale) SiO2 
 PCOD9391914
Probable space group: P N N N
;
_chemical_formula_sum "Si O2"
_cell_formula_units_Z 32
_cell_length_a 16.001979
_cell_length_b 5.377826
_cell_length_c 16.341139
_cell_angle_alpha 90.000000
_cell_angle_beta 90.000000
_cell_angle_gamma 90.000000
_cell_volume 1406.250749
_symmetry_space_group_name_H-M "P N N N"
_symmetry_group_IT_number 48
_space_group.IT_coordinate_system_code '2'
_symmetry_cell_setting 'orthorhombic'
loop_
_space_group_symop_operation_xyz
x,y,z
1/2-x,1/2-y,z
x,1/2-y,1/2-z
1/2-x,y,1/2-z
-x,-y,-z
1/2+x,1/2+y,-z
-x,1/2+y,1/2+z
1/2+x,-y,1/2+z
loop_
_atom_site_type_symbol
_atom_site_label
_atom_site_fract_x
_atom_site_fract_y
_atom_site_fract_z
Si Si1 0.453671 0.512229 0.913358
Si Si2 0.623518 0.404660 0.833561
Si Si3 0.750000 0.250000 0.970288
Si Si4 0.844854 0.984545 0.396615
Si Si5 0.750000 0.750000 0.250000
Si Si6 0.250000 0.250000 0.250000
O O1 0.530221 0.491998 0.850246
O O2 0.401100 0.764421 0.899492
O O3 0.398729 0.262997 0.910669
O O4 0.500000 0.500000 0.000000
O O5 0.624183 0.250000 0.750000
O O6 0.668850 0.278377 0.911677
O O7 0.687918 0.617650 0.811815
O O8 0.775387 0.469255 0.033051
O O9 0.802551 0.929491 0.309530
#
# Coordination Sequence:
#
# PCOD9391914 Si02
#       6
#     8   8   4   8   2   2
#     4  12  29  51  82 118 162 215 270 332 412 486
#     4  12  28  48  75 119 160 211 269 335 405 486
#     4  12  25  53  80 112 160 212 276 329 409 482
#     4  12  30  54  82 116 162 215 271 343 400 499
#     4  12  32  56  84 126 158 220 284 338 422 474
#     4  12  26  42  80 110 160 216 262 344 396 480
#
# _framework density 22.755541999999998
#
# number of rings (size 3 to 8) (size 9 to 14) (size 15 to 20)
#    0.000    0.000    5.000    2.250    8.750    4.500 
#    0.000    0.000    0.000    0.000    0.000    0.000 
#    0.000    0.000    0.000    0.000    0.000    0.000 
#
# Total GULP energy -179007.873493 kJ/mol
# GULP energy per Si atom -5593.996047 kJ/mol
# Density = 2.270375 g / cm^3
# Si number density = 22.755542 Si / 1000 Ang^3
#
#
#
# Elastic Constant Matrix: (Units=GPa)
#
#
# Indices 1 2 3 4 5 6 
#
# 1 158.5702 103.1346 77.4142 0.0000 0.0000 0.0000
# 2 103.1346 185.0341 74.8013 0.0000 0.0000 0.0000
# 3 77.4142 74.8013 170.2457 0.0000 0.0000 0.0000
# 4 0.0000 0.0000 0.0000 52.6667 0.0000 0.0000
# 5 0.0000 0.0000 0.0000 0.0000 57.7549 0.0000
# 6 0.0000 0.0000 0.0000 0.0000 0.0000 60.0137
#
#
#
# Elastic Compliance Matrix: (Units=1/GPa)
#
#
# Indices 1 2 3 4 5 6 
#
# 1 0.010873 -0.004939 -0.002774 0.000000 0.000000 0.000000
# 2 -0.004939 0.008815 -0.001627 0.000000 0.000000 0.000000
# 3 -0.002774 -0.001627 0.007850 0.000000 0.000000 0.000000
# 4 0.000000 0.000000 0.000000 0.018987 0.000000 0.000000
# 5 0.000000 0.000000 0.000000 0.000000 0.017315 0.000000
# 6 0.000000 0.000000 0.000000 0.000000 0.000000 0.016663
#
#
# Mechanical properties :
#
#
# Convention : Reuss Voigt Hill
#
# Bulk Modulus (GPa) = 112.89620 113.83891 113.36756
# Shear Modulus (GPa) = 48.95411 51.32040 50.13726
#
# Velocity S-wave (km/s) = 4.64325 4.75414 4.69902
# Velocity P-wave (km/s) = 8.85814 8.95943 8.90893
#
# Compressibility (1/GPa) = 0.00885769
#
# Stress axis : x y z
#
# Youngs Moduli (GPa) = 91.97089 113.44136 127.38358
#
# Poissons Ratio (x) = 0.56028 0.35338
# Poissons Ratio (y) = 0.45424 0.20729
# Poissons Ratio (z) = 0.25514 0.18460
#
# Static dielectric constant tensor:
#      x y z
#    x 1.852290 0.000000 0.000000 
#    y 0.000000 1.904320 0.000000 
#    z 0.000000 0.000000 1.879450 
# 
# From -- ./inp_files/27635.got.cif
#   From: 2010.05.17/outbox.cif.g08.bks.cpg/sg48_14_cif.got.tgz:27635.got - 2010.06.03 20:39:00.
