data_PCOD9391252
_publ_section_title
;
Structure prediction by ZEFSAII (Michael W. Deem and Ramdas Pophale) SiO2 
 PCOD9391252
Probable space group: P N N N
;
_chemical_formula_sum "Si O2"
_cell_formula_units_Z 52
_cell_length_a 5.130800
_cell_length_b 21.829763
_cell_length_c 20.538443
_cell_angle_alpha 90.000000
_cell_angle_beta 90.000000
_cell_angle_gamma 90.000000
_cell_volume 2300.390809
_symmetry_space_group_name_H-M "P N N N"
_symmetry_group_IT_number 48
_space_group.IT_coordinate_system_code '2'
_symmetry_cell_setting 'orthorhombic'
loop_
_space_group_symop_operation_xyz
x,y,z
1/2-x,1/2-y,z
x,1/2-y,1/2-z
1/2-x,y,1/2-z
-x,-y,-z
1/2+x,1/2+y,-z
-x,1/2+y,1/2+z
1/2+x,-y,1/2+z
loop_
_atom_site_type_symbol
_atom_site_label
_atom_site_fract_x
_atom_site_fract_y
_atom_site_fract_z
Si Si1 0.337804 0.100796 0.393455
Si Si2 0.411171 0.532810 0.064338
Si Si3 0.154401 0.630695 0.980947
Si Si4 0.168614 0.831717 0.179245
Si Si5 0.750000 0.250000 0.934760
Si Si6 0.250000 0.398172 0.250000
Si Si7 0.810981 0.591090 0.154899
Si Si8 0.750000 0.017205 0.250000
O O1 0.607133 0.122718 0.428387
O O2 0.264779 0.130485 0.323026
O O3 0.108566 0.118535 0.442516
O O4 0.340080 0.025227 0.389809
O O5 0.649599 0.573625 0.090218
O O6 0.500000 0.500000 0.000000
O O7 0.195509 0.578940 0.036534
O O8 0.150860 0.696156 0.017970
O O9 0.250000 0.808414 0.250000
O O10 0.082035 0.786325 0.120589
O O11 0.421655 0.871003 0.156300
O O12 0.918462 0.872862 0.191841
O O13 0.505981 0.439038 0.243974
O O14 0.833308 0.526831 0.191303
#
# Coordination Sequence:
#
# PCOD9391252 Si02
#       8
#     8   8   8   8   4   4   8   4
#     4  11  25  44  69 104 138 174 224 289 353 431
#     4  10  23  41  64 100 137 179 221 277 339 413
#     4  11  26  45  68 100 136 181 234 286 347 411
#     4  12  26  45  66  99 137 189 241 286 330 398
#     4  12  29  48  76  93 138 188 242 292 342 407
#     4  12  24  40  72 101 142 179 222 278 364 432
#     4  12  24  41  65  98 144 182 226 284 340 396
#     4  12  22  38  64 103 140 187 218 272 340 420
#
# _framework density 22.604852999999999
#
# number of rings (size 3 to 8) (size 9 to 14) (size 15 to 20)
#    0.000    0.615    4.615    2.538    6.462    2.462 
#    0.000    1.538    0.000    2.769    0.000    0.000 
#    0.000    0.000    0.000    0.000    0.000    0.000 
#
# Total GULP energy -289949.515210 kJ/mol
# GULP energy per Si atom -5575.952216 kJ/mol
# Density = 2.255340 g / cm^3
# Si number density = 22.604853 Si / 1000 Ang^3
#
#
#
# Elastic Constant Matrix: (Units=GPa)
#
#
# Indices 1 2 3 4 5 6 
#
# 1 138.1892 28.6831 27.8417 0.0000 0.0000 0.0000
# 2 28.6831 78.5551 25.0114 0.0000 0.0000 0.0000
# 3 27.8417 25.0114 141.7697 0.0000 0.0000 0.0000
# 4 0.0000 0.0000 0.0000 13.1479 0.0000 0.0000
# 5 0.0000 0.0000 0.0000 0.0000 37.8096 0.0000
# 6 0.0000 0.0000 0.0000 0.0000 0.0000 8.2967
#
#
#
# Elastic Compliance Matrix: (Units=1/GPa)
#
#
# Indices 1 2 3 4 5 6 
#
# 1 0.007994 -0.002563 -0.001118 0.000000 0.000000 0.000000
# 2 -0.002563 0.014309 -0.002021 0.000000 0.000000 0.000000
# 3 -0.001118 -0.002021 0.007630 0.000000 0.000000 0.000000
# 4 0.000000 0.000000 0.000000 0.076058 0.000000 0.000000
# 5 0.000000 0.000000 0.000000 0.000000 0.026448 0.000000
# 6 0.000000 0.000000 0.000000 0.000000 0.000000 0.120529
#
#
# Mechanical properties :
#
#
# Convention : Reuss Voigt Hill
#
# Bulk Modulus (GPa) = 53.96895 57.95403 55.96149
# Shear Modulus (GPa) = 18.48105 30.31605 24.39855
#
# Velocity S-wave (km/s) = 2.86242 3.66612 3.28891
# Velocity P-wave (km/s) = 5.90350 6.60410 6.26360
#
# Compressibility (1/GPa) = 0.01852917
#
# Stress axis : x y z
#
# Youngs Moduli (GPa) = 125.10006 69.88500 131.06551
#
# Poissons Ratio (x) = 0.17911 0.14649
# Poissons Ratio (y) = 0.32061 0.26490
# Poissons Ratio (z) = 0.13982 0.14125
#
# Static dielectric constant tensor:
#      x y z
#    x 2.209770 0.000000 0.000000 
#    y 0.000000 1.901660 0.000000 
#    z 0.000000 0.000000 1.940750 
# 
# From -- ./inp_files/32947.got.cif
#   From: 2010.05.17/outbox.cif.g08.bks.cpg/sg48_17_cif.got.tgz:32947.got - 2010.06.03 20:39:00.
