data_PCOD9391946
_publ_section_title
;
Structure prediction by ZEFSAII (Michael W. Deem and Ramdas Pophale) SiO2 
 PCOD9391946
Probable space group: P N N N
;
_chemical_formula_sum "Si O2"
_cell_formula_units_Z 64
_cell_length_a 12.000000
_cell_length_b 9.000000
_cell_length_c 30.000000
_cell_angle_alpha 90.000000
_cell_angle_beta 90.000000
_cell_angle_gamma 90.000000
_cell_volume 3240.000000
_symmetry_space_group_name_H-M "P N N N"
_symmetry_group_IT_number 48
_space_group.IT_coordinate_system_code '2'
_symmetry_cell_setting 'orthorhombic'
loop_
_space_group_symop_operation_xyz
x,y,z
1/2-x,1/2-y,z
x,1/2-y,1/2-z
1/2-x,y,1/2-z
-x,-y,-z
1/2+x,1/2+y,-z
-x,1/2+y,1/2+z
1/2+x,-y,1/2+z
loop_
_atom_site_type_symbol
_atom_site_label
_atom_site_fract_x
_atom_site_fract_y
_atom_site_fract_z
Si Si1 0.758875 0.424472 0.957254
Si Si2 0.476238 0.407843 0.433480
Si Si3 0.373530 0.429690 0.257247
Si Si4 0.356392 0.350974 0.101953
Si Si5 0.777151 0.077981 0.447791
Si Si6 0.244599 0.075851 0.853638
Si Si7 0.040593 0.918874 0.670331
Si Si8 0.970707 0.085145 0.180179
O O1 0.750000 0.250000 0.957253
O O2 0.883610 0.475314 0.946234
O O3 0.685772 0.500071 0.919854
O O4 0.721676 0.475479 0.006653
O O5 0.419503 0.246461 0.435442
O O6 0.591469 0.426035 0.458193
O O7 0.510074 0.417810 0.381598
O O8 0.367942 0.250000 0.250000
O O9 0.250000 0.488132 0.250000
O O10 0.428608 0.463640 0.304300
O O11 0.463044 0.481236 0.221373
O O12 0.250000 0.250000 0.116503
O O13 0.438091 0.389066 0.141742
O O14 0.750000 0.250000 0.438199
O O15 0.751318 0.986816 0.403944
O O16 0.250000 0.250000 0.855084
O O17 0.350324 0.017412 0.825870
O O18 0.130915 0.014672 0.833872
O O19 0.070779 0.754041 0.687776
#
# Coordination Sequence:
#
# PCOD9391946 Si02
#       8
#     8   8   8   8   8   8   8   8
#     4  10  21  34  52  81 113 144 182 230 283 337
#     4   9  18  34  56  76 108 148 183 228 280 332
#     4   9  19  32  61  95 114 139 190 241 276 325
#     4   9  19  32  54  81 110 149 183 225 286 336
#     4  10  20  38  58  79 105 143 191 238 279 322
#     4  11  23  38  58  82 113 152 192 230 279 345
#     4   9  19  37  60  85 115 146 189 236 284 325
#     4  10  20  36  60  86 115 150 186 236 283 329
#
# _framework density 19.753086
#
# number of rings (size 3 to 8) (size 9 to 14) (size 15 to 20)
#    0.000    2.375    0.000    3.000    7.000    4.000 
#    0.000    8.750    0.000    0.750    0.000    0.000 
#    0.000    0.000    0.000    0.000    0.000    0.000 
#
# Total GULP energy -356603.808219 kJ/mol
# GULP energy per Si atom -5571.934503 kJ/mol
# Density = 1.970813 g / cm^3
# Si number density = 19.753086 Si / 1000 Ang^3
#
#
#
# Elastic Constant Matrix: (Units=GPa)
#
#
# Indices 1 2 3 4 5 6 
#
# 1 35.3956 17.0598 14.8484 0.0000 0.0000 0.0000
# 2 17.0598 45.0727 20.7687 0.0000 0.0000 0.0000
# 3 14.8484 20.7687 24.6154 0.0000 0.0000 0.0000
# 4 0.0000 0.0000 0.0000 34.6381 0.0000 0.0000
# 5 0.0000 0.0000 0.0000 0.0000 -1.2800 0.0000
# 6 0.0000 0.0000 0.0000 0.0000 0.0000 10.0371
#
#
#
# Elastic Compliance Matrix: (Units=1/GPa)
#
#
# Indices 1 2 3 4 5 6 
#
# 1 0.038921 -0.006402 -0.018076 0.000000 0.000000 0.000000
# 2 -0.006402 0.037351 -0.027653 0.000000 0.000000 0.000000
# 3 -0.018076 -0.027653 0.074860 0.000000 0.000000 0.000000
# 4 0.000000 0.000000 0.000000 0.028870 0.000000 0.000000
# 5 0.000000 0.000000 0.000000 0.000000 -0.781262 0.000000
# 6 0.000000 0.000000 0.000000 0.000000 0.000000 0.099630
#
#
# Mechanical properties :
#
#
# Convention : Reuss Voigt Hill
#
# Bulk Modulus (GPa) = 21.33527 23.38195 22.35861
# Shear Modulus (GPa) = -13.09775 12.17283 -0.46246
#
# Velocity S-wave (km/s) = -2.57782 2.48513 -0.48438
# Velocity P-wave (km/s) = 1.40152 4.48300 3.32126
#
# Compressibility (1/GPa) = 0.04687075
#
# Stress axis : x y z
#
# Youngs Moduli (GPa) = 25.69335 26.77272 13.35827
#
# Poissons Ratio (x) = 0.17141 0.24146
# Poissons Ratio (y) = 0.16450 0.36939
# Poissons Ratio (z) = 0.46443 0.74033
#
# Static dielectric constant tensor:
#      x y z
#    x 1.724490 0.000000 0.000000 
#    y 0.000000 1.657060 0.000000 
#    z 0.000000 0.000000 1.753390 
# 
# From -- ./inp_files/38991.got.cif
#   From: 2010.05.17/outbox.ucp.g08.bks.cvg/sg48_20_cif.got.tgz:38991.got - 2010.06.11 16:38:40.
