data_PCOD9391223
_publ_section_title
;
Structure prediction by ZEFSAII (Michael W. Deem and Ramdas Pophale) SiO2 
 PCOD9391223
Probable space group: P N N N
;
_chemical_formula_sum "Si O2"
_cell_formula_units_Z 64
_cell_length_a 11.825286
_cell_length_b 17.399676
_cell_length_c 14.884081
_cell_angle_alpha 90.000000
_cell_angle_beta 90.000000
_cell_angle_gamma 90.000000
_cell_volume 3062.491129
_symmetry_space_group_name_H-M "P N N N"
_symmetry_group_IT_number 48
_space_group.IT_coordinate_system_code '2'
_symmetry_cell_setting 'orthorhombic'
loop_
_space_group_symop_operation_xyz
x,y,z
1/2-x,1/2-y,z
x,1/2-y,1/2-z
1/2-x,y,1/2-z
-x,-y,-z
1/2+x,1/2+y,-z
-x,1/2+y,1/2+z
1/2+x,-y,1/2+z
loop_
_atom_site_type_symbol
_atom_site_label
_atom_site_fract_x
_atom_site_fract_y
_atom_site_fract_z
Si Si1 0.166463 0.098736 0.118934
Si Si2 0.096323 0.324325 0.697618
Si Si3 0.087863 0.650072 0.963725
Si Si4 0.510554 0.574267 0.360114
Si Si5 0.414339 0.412590 0.321175
Si Si6 0.679743 0.443581 0.996917
Si Si7 0.759736 0.966997 0.152714
Si Si8 0.502666 0.312536 0.991744
O O1 0.098915 0.096350 0.213716
O O2 0.297179 0.120396 0.138380
O O3 0.101053 0.157783 0.053607
O O4 0.179079 0.013473 0.074523
O O5 0.133680 0.250000 0.750000
O O6 0.193281 0.381703 0.664719
O O7 0.024590 0.375582 0.769247
O O8 0.037065 0.293418 0.608447
O O9 0.075393 0.742423 0.967441
O O10 0.020981 0.624034 0.873688
O O11 0.022546 0.620962 0.052379
O O12 0.208962 0.608469 0.980357
O O13 0.426792 0.503598 0.341696
O O14 0.633697 0.539355 0.383664
O O15 0.657243 0.487288 0.090087
O O16 0.581154 0.385801 0.976670
O O17 0.750000 0.004205 0.250000
#
# Coordination Sequence:
#
# PCOD9391223 Si02
#       8
#     8   8   8   8   8   8   8   8
#     4  11  25  44  71 101 136 179 236 290 342 413
#     4  11  23  43  64 104 143 174 224 295 371 426
#     4  12  25  44  69  98 140 186 231 288 354 421
#     4  11  21  41  68  94 134 172 232 283 348 415
#     4  11  24  44  71 101 130 183 240 284 340 417
#     4  12  23  45  70  99 139 187 237 288 342 429
#     4  10  23  37  67 104 129 178 227 292 346 416
#     4  12  27  43  66 101 142 184 226 289 358 420
#
# _framework density 20.898019999999999
#
# number of rings (size 3 to 8) (size 9 to 14) (size 15 to 20)
#    0.000    0.750    5.000    2.625    3.500    3.250 
#    0.000    1.250    0.000    2.250    0.000    0.000 
#    0.000    0.000    0.000    0.000    0.000    0.000 
#
# Total GULP energy -357186.010013 kJ/mol
# GULP energy per Si atom -5581.031406 kJ/mol
# Density = 2.085045 g / cm^3
# Si number density = 20.898020 Si / 1000 Ang^3
#
#
#
# Elastic Constant Matrix: (Units=GPa)
#
#
# Indices 1 2 3 4 5 6 
#
# 1 57.1386 8.2300 18.1217 0.0000 0.0000 0.0000
# 2 8.2300 84.4756 22.0695 0.0000 0.0000 0.0000
# 3 18.1217 22.0695 90.6363 0.0000 0.0000 0.0000
# 4 0.0000 0.0000 0.0000 36.8810 0.0000 0.0000
# 5 0.0000 0.0000 0.0000 0.0000 0.7373 0.0000
# 6 0.0000 0.0000 0.0000 0.0000 0.0000 71.2085
#
#
#
# Elastic Compliance Matrix: (Units=1/GPa)
#
#
# Indices 1 2 3 4 5 6 
#
# 1 0.018751 -0.000905 -0.003529 0.000000 0.000000 0.000000
# 2 -0.000905 0.012686 -0.002908 0.000000 0.000000 0.000000
# 3 -0.003529 -0.002908 0.012447 0.000000 0.000000 0.000000
# 4 0.000000 0.000000 0.000000 0.027114 0.000000 0.000000
# 5 0.000000 0.000000 0.000000 0.000000 1.356284 0.000000
# 6 0.000000 0.000000 0.000000 0.000000 0.000000 0.014043
#
#
# Mechanical properties :
#
#
# Convention : Reuss Voigt Hill
#
# Bulk Modulus (GPa) = 34.24656 36.56589 35.40622
# Shear Modulus (GPa) = 3.41124 34.02065 18.71595
#
# Velocity S-wave (km/s) = 1.27901 4.03915 2.99588
# Velocity P-wave (km/s) = 4.31326 6.26803 5.38017
#
# Compressibility (1/GPa) = 0.02920001
#
# Stress axis : x y z
#
# Youngs Moduli (GPa) = 53.33109 78.82950 80.34260
#
# Poissons Ratio (x) = 0.07133 0.28350
# Poissons Ratio (y) = 0.04826 0.23363
# Poissons Ratio (z) = 0.18819 0.22923
#
# Static dielectric constant tensor:
#      x y z
#    x 1.800200 0.000000 0.000000 
#    y 0.000000 1.358500 0.000000 
#    z 0.000000 0.000000 1.777780 
# 
# From -- ./inp_files/26708.got.cif
#   From: 2010.05.17/outbox.cif.g08.bks.cpg/sg48_14_cif.got.tgz:26708.got - 2010.06.03 20:39:00.
