data_PCOD9391745
_publ_section_title
;
Structure prediction by ZEFSAII (Michael W. Deem and Ramdas Pophale) SiO2 
 PCOD9391745
Probable space group: P N N N
;
_chemical_formula_sum "Si O2"
_cell_formula_units_Z 58
_cell_length_a 11.239599
_cell_length_b 8.845139
_cell_length_c 26.496011
_cell_angle_alpha 90.000000
_cell_angle_beta 90.000000
_cell_angle_gamma 90.000000
_cell_volume 2634.122540
_symmetry_space_group_name_H-M "P N N N"
_symmetry_group_IT_number 48
_space_group.IT_coordinate_system_code '2'
_symmetry_cell_setting 'orthorhombic'
loop_
_space_group_symop_operation_xyz
x,y,z
1/2-x,1/2-y,z
x,1/2-y,1/2-z
1/2-x,y,1/2-z
-x,-y,-z
1/2+x,1/2+y,-z
-x,1/2+y,1/2+z
1/2+x,-y,1/2+z
loop_
_atom_site_type_symbol
_atom_site_label
_atom_site_fract_x
_atom_site_fract_y
_atom_site_fract_z
Si Si1 0.938702 0.488813 0.276565
Si Si2 0.750000 0.250000 0.250000
Si Si3 0.945746 0.480921 0.160349
Si Si4 0.424801 0.664253 0.425422
Si Si5 0.696909 0.583049 0.130714
Si Si6 0.818870 0.490318 0.572701
Si Si7 0.374952 0.337903 0.974993
Si Si8 0.876327 0.694678 0.669222
O O1 0.840347 0.355801 0.279282
O O2 0.937345 0.538209 0.218447
O O3 0.893382 0.589447 0.322426
O O4 0.064116 0.419526 0.291463
O O5 0.809669 0.472578 0.140158
O O6 0.009860 0.595476 0.122794
O O7 0.026914 0.329016 0.160781
O O8 0.320307 0.545795 0.439055
O O9 0.368029 0.826258 0.412555
O O10 0.522242 0.712320 0.467295
O O11 0.750000 0.750000 0.127899
O O12 0.633815 0.563446 0.076735
O O13 0.882315 0.555474 0.523277
O O14 0.843910 0.606914 0.617619
O O15 0.250000 0.250000 0.980779
O O16 0.750000 0.750000 0.688730
#
# Coordination Sequence:
#
# PCOD9391745 Si02
#       8
#     8   2   8   8   8   8   8   8
#     4  12  24  42  71  97 144 186 231 298 360 416
#     4  12  20  44  56 100 132 176 228 300 352 416
#     4  12  23  43  68 101 140 184 230 299 349 423
#     4  11  24  47  68 101 146 178 239 294 352 431
#     4  11  23  44  70 107 140 179 238 297 362 430
#     4  11  26  46  72  99 143 195 229 297 360 424
#     4  11  23  43  73 104 138 178 239 293 364 429
#     4  12  25  44  68 104 141 190 248 280 351 429
#
# _framework density 22.018716999999999
#
# number of rings (size 3 to 8) (size 9 to 14) (size 15 to 20)
#    0.000    0.552    6.897    1.655    0.000    3.862 
#    0.000    2.759    0.000    3.310    0.000    0.000 
#    0.000    0.000    0.000    0.000    0.000    0.000 
#
# Total GULP energy -323983.336793 kJ/mol
# GULP energy per Si atom -5585.919600 kJ/mol
# Density = 2.196860 g / cm^3
# Si number density = 22.018717 Si / 1000 Ang^3
#
#
#
# Elastic Constant Matrix: (Units=GPa)
#
#
# Indices 1 2 3 4 5 6 
#
# 1 133.3851 20.6228 35.7177 0.0000 0.0000 0.0000
# 2 20.6228 52.4363 35.9452 0.0000 0.0000 0.0000
# 3 35.7177 35.9452 140.0310 0.0000 0.0000 0.0000
# 4 0.0000 0.0000 0.0000 70.5625 0.0000 0.0000
# 5 0.0000 0.0000 0.0000 0.0000 0.8365 0.0000
# 6 0.0000 0.0000 0.0000 0.0000 0.0000 45.9111
#
#
#
# Elastic Compliance Matrix: (Units=1/GPa)
#
#
# Indices 1 2 3 4 5 6 
#
# 1 0.008248 -0.002186 -0.001543 0.000000 0.000000 0.000000
# 2 -0.002186 0.023723 -0.005532 0.000000 0.000000 0.000000
# 3 -0.001543 -0.005532 0.008955 0.000000 0.000000 0.000000
# 4 0.000000 0.000000 0.000000 0.014172 0.000000 0.000000
# 5 0.000000 0.000000 0.000000 0.000000 1.195403 0.000000
# 6 0.000000 0.000000 0.000000 0.000000 0.000000 0.021781
#
#
# Mechanical properties :
#
#
# Convention : Reuss Voigt Hill
#
# Bulk Modulus (GPa) = 44.63507 56.71374 50.67440
# Shear Modulus (GPa) = 3.85127 39.03315 21.44221
#
# Velocity S-wave (km/s) = 1.32397 4.21494 3.12399
# Velocity P-wave (km/s) = 4.75948 7.03567 6.00638
#
# Compressibility (1/GPa) = 0.02240391
#
# Stress axis : x y z
#
# Youngs Moduli (GPa) = 121.23823 42.15361 111.67276
#
# Poissons Ratio (x) = 0.09217 0.17227
# Poissons Ratio (y) = 0.26509 0.61775
# Poissons Ratio (z) = 0.18702 0.23319
#
# Static dielectric constant tensor:
#      x y z
#    x 1.875690 0.000000 0.000000 
#    y 0.000000 1.836520 0.000000 
#    z 0.000000 0.000000 1.804550 
# 
# From -- ./inp_files/37758.got.cif
#   From: 2010.05.17/outbox.cif.g08.bks.cpg/sg48_19_cif.got.tgz:37758.got - 2010.06.03 20:39:00.
