data_PCOD9391503
_publ_section_title
;
Structure prediction by ZEFSAII (Michael W. Deem and Ramdas Pophale) SiO2 
 PCOD9391503
Probable space group: P N N N
;
_chemical_formula_sum "Si O2"
_cell_formula_units_Z 48
_cell_length_a 9.132206
_cell_length_b 18.001015
_cell_length_c 15.217673
_cell_angle_alpha 90.000000
_cell_angle_beta 90.000000
_cell_angle_gamma 90.000000
_cell_volume 2501.617700
_symmetry_space_group_name_H-M "P N N N"
_symmetry_group_IT_number 48
_space_group.IT_coordinate_system_code '2'
_symmetry_cell_setting 'orthorhombic'
loop_
_space_group_symop_operation_xyz
x,y,z
1/2-x,1/2-y,z
x,1/2-y,1/2-z
1/2-x,y,1/2-z
-x,-y,-z
1/2+x,1/2+y,-z
-x,1/2+y,1/2+z
1/2+x,-y,1/2+z
loop_
_atom_site_type_symbol
_atom_site_label
_atom_site_fract_x
_atom_site_fract_y
_atom_site_fract_z
Si Si1 0.204454 0.059445 0.342346
Si Si2 0.291491 0.105948 0.649794
Si Si3 0.083974 0.556610 0.431328
Si Si4 0.078518 0.977243 0.594344
Si Si5 0.347128 0.183186 0.008493
Si Si6 0.686675 0.330542 0.473358
O O1 0.250000 0.093862 0.250000
O O2 0.180836 0.117371 0.421323
O O3 0.049081 0.018058 0.334569
O O4 0.319170 0.998606 0.373577
O O5 0.250000 0.119239 0.750000
O O6 0.460913 0.095986 0.627038
O O7 0.225846 0.166154 0.584390
O O8 0.208295 0.031928 0.616658
O O9 0.193288 0.620540 0.471204
O O10 0.000000 0.500000 0.500000
O O11 0.142580 0.894111 0.596308
O O12 0.000000 0.000000 0.500000
O O13 0.250000 0.250000 0.046115
O O14 0.521889 0.188879 0.991635
O O15 0.750000 0.250000 0.447714
#
# Coordination Sequence:
#
# PCOD9391503 Si02
#       6
#     8   8   8   8   8   8
#     4  11  22  38  65  93 121 170 223 266 315 391
#     4  12  23  37  64  95 124 169 220 269 319 385
#     4  12  20  38  64  95 129 162 219 268 325 384
#     4  11  18  42  62  88 128 164 210 270 321 377
#     4  11  23  42  63  87 134 173 214 267 333 388
#     4  11  22  37  67  93 124 172 216 259 334 394
#
# _framework density 19.187583
#
# number of rings (size 3 to 8) (size 9 to 14) (size 15 to 20)
#    0.000    0.667    8.333    2.000    0.000    0.667 
#    0.000    0.000    0.000    4.000    0.000    0.000 
#    0.000    0.000    0.000    0.000    0.000    0.000 
#
# Total GULP energy -267208.989048 kJ/mol
# GULP energy per Si atom -5566.853939 kJ/mol
# Density = 1.914391 g / cm^3
# Si number density = 19.187583 Si / 1000 Ang^3
#
#
#
# Elastic Constant Matrix: (Units=GPa)
#
#
# Indices 1 2 3 4 5 6 
#
# 1 152.2781 30.7683 31.0204 0.0000 0.0000 0.0000
# 2 30.7683 91.5406 8.8209 0.0000 0.0000 0.0000
# 3 31.0204 8.8209 78.7113 0.0000 0.0000 0.0000
# 4 0.0000 0.0000 0.0000 6.7998 0.0000 0.0000
# 5 0.0000 0.0000 0.0000 0.0000 19.9795 0.0000
# 6 0.0000 0.0000 0.0000 0.0000 0.0000 41.4533
#
#
#
# Elastic Compliance Matrix: (Units=1/GPa)
#
#
# Indices 1 2 3 4 5 6 
#
# 1 0.007586 -0.002286 -0.002733 0.000000 0.000000 0.000000
# 2 -0.002286 0.011732 -0.000414 0.000000 0.000000 0.000000
# 3 -0.002733 -0.000414 0.013828 0.000000 0.000000 0.000000
# 4 0.000000 0.000000 0.000000 0.147063 0.000000 0.000000
# 5 0.000000 0.000000 0.000000 0.000000 0.050051 0.000000
# 6 0.000000 0.000000 0.000000 0.000000 0.000000 0.024124
#
#
# Mechanical properties :
#
#
# Convention : Reuss Voigt Hill
#
# Bulk Modulus (GPa) = 44.88417 51.52770 48.20593
# Shear Modulus (GPa) = 18.33667 30.44122 24.38894
#
# Velocity S-wave (km/s) = 3.09472 3.98742 3.56909
# Velocity P-wave (km/s) = 6.01771 6.93631 6.49327
#
# Compressibility (1/GPa) = 0.02227957
#
# Stress axis : x y z
#
# Youngs Moduli (GPa) = 131.82720 85.23369 72.31581
#
# Poissons Ratio (x) = 0.19487 0.19766
# Poissons Ratio (y) = 0.30140 0.02992
# Poissons Ratio (z) = 0.36033 0.03527
#
# Static dielectric constant tensor:
#      x y z
#    x 2.070790 0.000000 0.000000 
#    y 0.000000 1.748290 0.000000 
#    z 0.000000 0.000000 1.688790 
# 
# From -- ./inp_files/25366.got.cif
#   From: 2010.05.17/outbox.cif.g08.bks.cpg/sg48_13_cif.got.tgz:25366.got - 2010.06.03 20:39:00.
