data_PCOD9391279
_publ_section_title
;
Structure prediction by ZEFSAII (Michael W. Deem and Ramdas Pophale) SiO2 
 PCOD9391279
Probable space group: P N N N
;
_chemical_formula_sum "Si O2"
_cell_formula_units_Z 48
_cell_length_a 14.493922
_cell_length_b 28.913518
_cell_length_c 5.426252
_cell_angle_alpha 90.000000
_cell_angle_beta 90.000000
_cell_angle_gamma 90.000000
_cell_volume 2273.980916
_symmetry_space_group_name_H-M "P N N N"
_symmetry_group_IT_number 48
_space_group.IT_coordinate_system_code '2'
_symmetry_cell_setting 'orthorhombic'
loop_
_space_group_symop_operation_xyz
x,y,z
1/2-x,1/2-y,z
x,1/2-y,1/2-z
1/2-x,y,1/2-z
-x,-y,-z
1/2+x,1/2+y,-z
-x,1/2+y,1/2+z
1/2+x,-y,1/2+z
loop_
_atom_site_type_symbol
_atom_site_label
_atom_site_fract_x
_atom_site_fract_y
_atom_site_fract_z
Si Si1 0.526840 0.750000 0.750000
Si Si2 0.998665 0.970090 0.249172
Si Si3 0.354842 0.890144 0.144044
Si Si4 0.860555 0.890376 0.244168
Si Si5 0.250000 0.650375 0.750000
Si Si6 0.360848 0.161348 0.237732
Si Si7 0.877969 0.204240 0.893499
O O1 0.593675 0.790394 0.839405
O O2 0.461260 0.776863 0.559650
O O3 0.081721 0.932581 0.278138
O O4 0.906331 0.939996 0.223537
O O5 0.000000 0.000000 0.500000
O O6 0.000000 0.000000 0.000000
O O7 0.250000 0.895539 0.250000
O O8 0.399340 0.841266 0.230956
O O9 0.331887 0.881435 0.856621
O O10 0.750000 0.892575 0.250000
O O11 0.888311 0.871889 0.513510
O O12 0.887853 0.859014 0.006716
O O13 0.205751 0.684539 0.553309
O O14 0.250000 0.166171 0.250000
O O15 0.851066 0.250000 0.750000
#
# Coordination Sequence:
#
# PCOD9391279 Si02
#       7
#     4   8   8   8   4   8   8
#     4  12  25  35  62  96 138 178 228 285 339 402
#     4  12  28  45  73 107 137 175 233 295 362 435
#     4  10  25  45  70  96 143 185 232 290 355 422
#     4  10  23  46  71  96 133 180 226 287 352 418
#     4  10  24  45  68  92 144 190 236 286 343 432
#     4  10  23  42  67  95 134 180 229 279 342 410
#     4  11  25  40  63 102 135 186 233 279 344 411
#
# _framework density 21.108357999999999
#
# number of rings (size 3 to 8) (size 9 to 14) (size 15 to 20)
#    0.000    1.333    0.000    3.250   11.667    9.333 
#    0.000    2.500    0.000    0.000    0.000    0.000 
#    0.000    0.000    0.000    0.000    0.000    0.000 
#
# Total GULP energy -267995.246837 kJ/mol
# GULP energy per Si atom -5583.234309 kJ/mol
# Density = 2.106031 g / cm^3
# Si number density = 21.108358 Si / 1000 Ang^3
#
#
#
# Elastic Constant Matrix: (Units=GPa)
#
#
# Indices 1 2 3 4 5 6 
#
# 1 39.3015 48.8632 41.5952 0.0000 0.0000 0.0000
# 2 48.8632 160.5027 70.8507 0.0000 0.0000 0.0000
# 3 41.5952 70.8507 119.8563 0.0000 0.0000 0.0000
# 4 0.0000 0.0000 0.0000 39.7217 0.0000 0.0000
# 5 0.0000 0.0000 0.0000 0.0000 12.6267 0.0000
# 6 0.0000 0.0000 0.0000 0.0000 0.0000 71.3440
#
#
#
# Elastic Compliance Matrix: (Units=1/GPa)
#
#
# Indices 1 2 3 4 5 6 
#
# 1 0.050255 -0.010284 -0.011361 0.000000 0.000000 0.000000
# 2 -0.010284 0.010535 -0.002658 0.000000 0.000000 0.000000
# 3 -0.011361 -0.002658 0.013858 0.000000 0.000000 0.000000
# 4 0.000000 0.000000 0.000000 0.025175 0.000000 0.000000
# 5 0.000000 0.000000 0.000000 0.000000 0.079197 0.000000
# 6 0.000000 0.000000 0.000000 0.000000 0.000000 0.014017
#
#
# Mechanical properties :
#
#
# Convention : Reuss Voigt Hill
#
# Bulk Modulus (GPa) = 38.40310 71.36430 54.88370
# Shear Modulus (GPa) = 19.97410 35.29524 27.63467
#
# Velocity S-wave (km/s) = 3.07948 4.09357 3.62219
# Velocity P-wave (km/s) = 5.55671 7.49833 6.59932
#
# Compressibility (1/GPa) = 0.02603957
#
# Stress axis : x y z
#
# Youngs Moduli (GPa) = 19.89851 94.92286 72.16263
#
# Poissons Ratio (x) = 0.97622 0.81985
# Poissons Ratio (y) = 0.20464 0.19183
# Poissons Ratio (z) = 0.22607 0.25234
#
# Static dielectric constant tensor:
#      x y z
#    x 1.794270 0.000000 0.000000 
#    y 0.000000 1.793910 0.000000 
#    z 0.000000 0.000000 1.879120 
# 
# From -- ./inp_files/3585.got.cif
#   From: 2010.05.17/outbox.cif.g08.bks.cpg/sg48_2_cif.got.tgz:3585.got - 2010.06.03 20:39:00.
