data_PCOD9391391
_publ_section_title
;
Structure prediction by ZEFSAII (Michael W. Deem and Ramdas Pophale) SiO2 
 PCOD9391391
Probable space group: P N N N
;
_chemical_formula_sum "Si O2"
_cell_formula_units_Z 64
_cell_length_a 13.475217
_cell_length_b 9.122435
_cell_length_c 23.692235
_cell_angle_alpha 90.000000
_cell_angle_beta 90.000000
_cell_angle_gamma 90.000000
_cell_volume 2912.410425
_symmetry_space_group_name_H-M "P N N N"
_symmetry_group_IT_number 48
_space_group.IT_coordinate_system_code '2'
_symmetry_cell_setting 'orthorhombic'
loop_
_space_group_symop_operation_xyz
x,y,z
1/2-x,1/2-y,z
x,1/2-y,1/2-z
1/2-x,y,1/2-z
-x,-y,-z
1/2+x,1/2+y,-z
-x,1/2+y,1/2+z
1/2+x,-y,1/2+z
loop_
_atom_site_type_symbol
_atom_site_label
_atom_site_fract_x
_atom_site_fract_y
_atom_site_fract_z
Si Si1 0.031867 0.328380 0.196787
Si Si2 0.402671 0.640317 0.982325
Si Si3 0.654486 0.666968 0.419824
Si Si4 0.161318 0.428905 0.350357
Si Si5 0.157844 0.664384 0.881902
Si Si6 0.636593 0.847792 0.525419
Si Si7 0.342637 0.611253 0.295318
Si Si8 0.058276 0.795109 0.110329
O O1 0.984676 0.250000 0.250000
O O2 0.947118 0.332997 0.150333
O O3 0.121433 0.220454 0.177287
O O4 0.075999 0.485330 0.215153
O O5 0.349880 0.482749 0.982155
O O6 0.401447 0.691768 0.046850
O O7 0.354281 0.748205 0.939623
O O8 0.518220 0.635487 0.964053
O O9 0.750000 0.750000 0.397721
O O10 0.668490 0.502972 0.399680
O O11 0.650971 0.700710 0.488260
O O12 0.552879 0.735303 0.395321
O O13 0.189521 0.382876 0.415116
O O14 0.242835 0.516688 0.312361
O O15 0.072985 0.547073 0.360162
O O16 0.250000 0.750000 0.852430
O O17 0.344578 0.750000 0.250000
O O18 0.374584 0.686087 0.353745
#
# Coordination Sequence:
#
# PCOD9391391 Si02
#       8
#     8   8   8   8   8   8   8   8
#     4  12  26  48  68 100 136 178 236 302 350 423
#     4   9  19  39  65  99 144 179 231 287 354 422
#     4  11  24  41  66 101 147 183 236 285 358 433
#     4  11  23  40  72  96 139 185 230 289 364 430
#     4  12  26  43  73 100 135 191 238 291 359 430
#     4   9  19  38  63 100 140 187 226 286 356 426
#     4  12  25  46  69 105 141 183 242 294 362 428
#     4  10  24  43  67 106 144 183 233 300 351 432
#
# _framework density 21.974924999999999
#
# number of rings (size 3 to 8) (size 9 to 14) (size 15 to 20)
#    0.000    1.250    3.750    2.250    1.750    8.250 
#    0.000    0.000    0.000    0.000    0.000    0.000 
#    0.000    0.000    0.000    0.000    0.000    0.000 
#
# Total GULP energy -357163.072659 kJ/mol
# GULP energy per Si atom -5580.673010 kJ/mol
# Density = 2.192491 g / cm^3
# Si number density = 21.974925 Si / 1000 Ang^3
#
#
#
# Elastic Constant Matrix: (Units=GPa)
#
#
# Indices 1 2 3 4 5 6 
#
# 1 115.4880 62.8523 48.5656 0.0000 0.0000 0.0000
# 2 62.8523 173.0393 59.6249 0.0000 0.0000 0.0000
# 3 48.5656 59.6249 108.1269 0.0000 0.0000 0.0000
# 4 0.0000 0.0000 0.0000 32.7756 0.0000 0.0000
# 5 0.0000 0.0000 0.0000 0.0000 21.8871 0.0000
# 6 0.0000 0.0000 0.0000 0.0000 0.0000 38.0466
#
#
#
# Elastic Compliance Matrix: (Units=1/GPa)
#
#
# Indices 1 2 3 4 5 6 
#
# 1 0.011850 -0.003050 -0.003641 0.000000 0.000000 0.000000
# 2 -0.003050 0.007920 -0.002997 0.000000 0.000000 0.000000
# 3 -0.003641 -0.002997 0.012536 0.000000 0.000000 0.000000
# 4 0.000000 0.000000 0.000000 0.030510 0.000000 0.000000
# 5 0.000000 0.000000 0.000000 0.000000 0.045689 0.000000
# 6 0.000000 0.000000 0.000000 0.000000 0.000000 0.026284
#
#
# Mechanical properties :
#
#
# Convention : Reuss Voigt Hill
#
# Bulk Modulus (GPa) = 77.33731 82.08221 79.70976
# Shear Modulus (GPa) = 31.55094 33.58262 32.56678
#
# Velocity S-wave (km/s) = 3.79327 3.91349 3.85385
# Velocity P-wave (km/s) = 7.37936 7.60620 7.49364
#
# Compressibility (1/GPa) = 0.01293037
#
# Stress axis : x y z
#
# Youngs Moduli (GPa) = 84.39117 126.26989 79.76737
#
# Poissons Ratio (x) = 0.38507 0.29040
# Poissons Ratio (y) = 0.25736 0.23909
# Poissons Ratio (z) = 0.30724 0.37848
#
# Static dielectric constant tensor:
#      x y z
#    x 1.890010 0.000000 0.000000 
#    y 0.000000 1.613020 0.000000 
#    z 0.000000 0.000000 1.833950 
# 
# From -- ./inp_files/36708.got.cif
#   From: 2010.05.17/outbox.cif.g08.bks.cpg/sg48_19_cif.got.tgz:36708.got - 2010.06.03 20:39:00.
