data_PCOD9391444
_publ_section_title
;
Structure prediction by ZEFSAII (Michael W. Deem and Ramdas Pophale) SiO2 
 PCOD9391444
Probable space group: P N N N
;
_chemical_formula_sum "Si O2"
_cell_formula_units_Z 58
_cell_length_a 5.408842
_cell_length_b 26.065358
_cell_length_c 18.243313
_cell_angle_alpha 90.000000
_cell_angle_beta 90.000000
_cell_angle_gamma 90.000000
_cell_volume 2572.004350
_symmetry_space_group_name_H-M "P N N N"
_symmetry_group_IT_number 48
_space_group.IT_coordinate_system_code '2'
_symmetry_cell_setting 'orthorhombic'
loop_
_space_group_symop_operation_xyz
x,y,z
1/2-x,1/2-y,z
x,1/2-y,1/2-z
1/2-x,y,1/2-z
-x,-y,-z
1/2+x,1/2+y,-z
-x,1/2+y,1/2+z
1/2+x,-y,1/2+z
loop_
_atom_site_type_symbol
_atom_site_label
_atom_site_fract_x
_atom_site_fract_y
_atom_site_fract_z
Si Si1 0.205596 0.873934 0.428369
Si Si2 0.168903 0.033371 0.324137
Si Si3 0.097137 0.425670 0.822526
Si Si4 0.476952 0.624693 0.592301
Si Si5 0.000680 0.279257 0.537649
Si Si6 0.502977 0.975243 0.421733
Si Si7 0.750000 0.750000 0.750000
Si Si8 0.982646 0.816549 0.874245
O O1 0.058316 0.866955 0.504766
O O2 0.440610 0.836102 0.432155
O O3 0.295775 0.932061 0.428274
O O4 0.049610 0.876255 0.353520
O O5 0.250000 0.061685 0.250000
O O6 0.997397 0.066552 0.377998
O O7 0.417986 0.018947 0.366278
O O8 0.049497 0.978365 0.303209
O O9 0.250000 0.412459 0.750000
O O10 0.264624 0.445432 0.889957
O O11 0.740635 0.648268 0.614233
O O12 0.239416 0.652340 0.628051
O O13 0.250000 0.250000 0.560784
O O14 0.005115 0.283202 0.449012
O O15 0.750000 0.250000 0.558856
O O16 0.500000 0.000000 0.500000
O O17 0.923982 0.783236 0.803258
#
# Coordination Sequence:
#
# PCOD9391444 Si02
#       8
#     8   8   8   8   8   8   2   8
#     4  10  25  40  70 103 140 183 245 299 368 444
#     4  11  24  42  61  96 142 196 243 296 360 437
#     4  11  23  42  68 101 145 195 234 298 367 451
#     4  11  26  45  67 103 140 187 251 303 358 422
#     4  11  23  44  71 102 137 179 234 311 367 430
#     4  11  23  40  69  99 140 193 237 300 353 439
#     4  12  28  50  68  98 140 206 250 306 384 442
#     4  11  27  45  68  96 139 186 245 306 362 435
#
# _framework density 22.550507
#
# number of rings (size 3 to 8) (size 9 to 14) (size 15 to 20)
#    0.000    1.103    2.069    3.310   12.552    3.310 
#    0.000    0.000    0.000    0.000    0.000    2.897 
#    0.000    0.000    0.000    0.000    0.000    0.000 
#
# Total GULP energy -324110.007354 kJ/mol
# GULP energy per Si atom -5588.103575 kJ/mol
# Density = 2.249918 g / cm^3
# Si number density = 22.550507 Si / 1000 Ang^3
#
#
#
# Elastic Constant Matrix: (Units=GPa)
#
#
# Indices 1 2 3 4 5 6 
#
# 1 123.6770 39.5928 39.2588 0.0000 0.0000 0.0000
# 2 39.5928 72.4278 33.8427 0.0000 0.0000 0.0000
# 3 39.2588 33.8427 95.2928 0.0000 0.0000 0.0000
# 4 0.0000 0.0000 0.0000 23.4854 0.0000 0.0000
# 5 0.0000 0.0000 0.0000 0.0000 24.2905 0.0000
# 6 0.0000 0.0000 0.0000 0.0000 0.0000 37.5230
#
#
#
# Elastic Compliance Matrix: (Units=1/GPa)
#
#
# Indices 1 2 3 4 5 6 
#
# 1 0.010351 -0.004395 -0.002703 0.000000 0.000000 0.000000
# 2 -0.004395 0.018420 -0.004731 0.000000 0.000000 0.000000
# 3 -0.002703 -0.004731 0.013288 0.000000 0.000000 0.000000
# 4 0.000000 0.000000 0.000000 0.042580 0.000000 0.000000
# 5 0.000000 0.000000 0.000000 0.000000 0.041168 0.000000
# 6 0.000000 0.000000 0.000000 0.000000 0.000000 0.026650
#
#
# Mechanical properties :
#
#
# Convention : Reuss Voigt Hill
#
# Bulk Modulus (GPa) = 54.34899 57.42067 55.88483
# Shear Modulus (GPa) = 27.43493 28.97334 28.20413
#
# Velocity S-wave (km/s) = 3.49176 3.58833 3.54037
# Velocity P-wave (km/s) = 6.35688 6.53349 6.44579
#
# Compressibility (1/GPa) = 0.01839961
#
# Stress axis : x y z
#
# Youngs Moduli (GPa) = 96.61176 54.28860 75.25612
#
# Poissons Ratio (x) = 0.23860 0.20345
# Poissons Ratio (y) = 0.42461 0.35605
# Poissons Ratio (z) = 0.26118 0.25685
#
# Static dielectric constant tensor:
#      x y z
#    x 1.870180 0.000000 0.000000 
#    y 0.000000 1.901530 0.000000 
#    z 0.000000 0.000000 1.891370 
# 
# From -- ./inp_files/29622.got.cif
#   From: 2010.05.17/outbox.cif.g08.bks.cpg/sg48_15_cif.got.tgz:29622.got - 2010.06.03 20:39:00.
