data_PCOD9391127
_publ_section_title
;
Structure prediction by ZEFSAII (Michael W. Deem and Ramdas Pophale) SiO2 
 PCOD9391127
Probable space group: P N N N
;
_chemical_formula_sum "Si O2"
_cell_formula_units_Z 52
_cell_length_a 9.662387
_cell_length_b 10.583460
_cell_length_c 23.037322
_cell_angle_alpha 90.000000
_cell_angle_beta 90.000000
_cell_angle_gamma 90.000000
_cell_volume 2355.830789
_symmetry_space_group_name_H-M "P N N N"
_symmetry_group_IT_number 48
_space_group.IT_coordinate_system_code '2'
_symmetry_cell_setting 'orthorhombic'
loop_
_space_group_symop_operation_xyz
x,y,z
1/2-x,1/2-y,z
x,1/2-y,1/2-z
1/2-x,y,1/2-z
-x,-y,-z
1/2+x,1/2+y,-z
-x,1/2+y,1/2+z
1/2+x,-y,1/2+z
loop_
_atom_site_type_symbol
_atom_site_label
_atom_site_fract_x
_atom_site_fract_y
_atom_site_fract_z
Si Si1 0.092247 0.599167 0.742199
Si Si2 0.310975 0.012186 0.972696
Si Si3 0.603997 0.905114 0.639688
Si Si4 0.750000 0.750000 0.554620
Si Si5 0.841383 0.040530 0.695645
Si Si6 0.026240 0.419980 0.558254
Si Si7 0.571853 0.362919 0.571085
O O1 0.085795 0.750000 0.750000
O O2 0.250000 0.557075 0.750000
O O3 0.030529 0.591307 0.678151
O O4 0.985256 0.517265 0.780783
O O5 0.182187 0.031927 0.929385
O O6 0.453004 0.030661 0.938010
O O7 0.288606 0.131032 0.016005
O O8 0.323864 0.894611 0.017366
O O9 0.623670 0.790381 0.595880
O O10 0.743333 0.923423 0.676195
O O11 0.587277 0.030496 0.602312
O O12 0.750000 0.096844 0.750000
O O13 0.871217 0.122589 0.637089
O O14 0.000000 0.500000 0.500000
O O15 0.003082 0.270547 0.558181
#
# Coordination Sequence:
#
# PCOD9391127 Si02
#       7
#     8   8   8   4   8   8   8
#     4  10  23  43  64  97 130 170 232 297 346 400
#     4  11  23  39  66  99 140 184 225 275 352 430
#     4  11  23  38  69  91 132 178 221 279 341 411
#     4  12  18  42  61 100 136 175 228 268 344 438
#     4  10  22  42  65  96 128 181 234 283 348 419
#     4  12  23  42  64 102 138 179 228 283 339 422
#     4  11  23  42  67  97 141 185 223 287 352 419
#
# _framework density 22.072892
#
# number of rings (size 3 to 8) (size 9 to 14) (size 15 to 20)
#    0.000    1.077    4.615    0.923    2.154    4.615 
#    0.000    5.385    0.000    0.923    0.000    0.000 
#    0.000    0.000    0.000    0.000    0.000    0.000 
#
# Total GULP energy -289855.591107 kJ/mol
# GULP energy per Si atom -5574.145983 kJ/mol
# Density = 2.202265 g / cm^3
# Si number density = 22.072892 Si / 1000 Ang^3
#
#
#
# Elastic Constant Matrix: (Units=GPa)
#
#
# Indices 1 2 3 4 5 6 
#
# 1 146.9968 20.5715 47.2488 0.0000 0.0000 0.0000
# 2 20.5715 51.4245 23.5981 0.0000 0.0000 0.0000
# 3 47.2488 23.5981 110.2543 0.0000 0.0000 0.0000
# 4 0.0000 0.0000 0.0000 18.7756 0.0000 0.0000
# 5 0.0000 0.0000 0.0000 0.0000 33.8488 0.0000
# 6 0.0000 0.0000 0.0000 0.0000 0.0000 23.6634
#
#
#
# Elastic Compliance Matrix: (Units=1/GPa)
#
#
# Indices 1 2 3 4 5 6 
#
# 1 0.008039 -0.001813 -0.003057 0.000000 0.000000 0.000000
# 2 -0.001813 0.021973 -0.003926 0.000000 0.000000 0.000000
# 3 -0.003057 -0.003926 0.011220 0.000000 0.000000 0.000000
# 4 0.000000 0.000000 0.000000 0.053261 0.000000 0.000000
# 5 0.000000 0.000000 0.000000 0.000000 0.029543 0.000000
# 6 0.000000 0.000000 0.000000 0.000000 0.000000 0.042259
#
#
# Mechanical properties :
#
#
# Convention : Reuss Voigt Hill
#
# Bulk Modulus (GPa) = 42.30090 54.61250 48.45670
# Shear Modulus (GPa) = 26.07318 29.74137 27.90728
#
# Velocity S-wave (km/s) = 3.44063 3.67470 3.55959
# Velocity P-wave (km/s) = 5.91521 6.54218 6.23658
#
# Compressibility (1/GPa) = 0.02364016
#
# Stress axis : x y z
#
# Youngs Moduli (GPa) = 124.38986 45.51067 89.12398
#
# Poissons Ratio (x) = 0.08252 0.27246
# Poissons Ratio (y) = 0.22553 0.34990
# Poissons Ratio (z) = 0.38027 0.17867
#
# Static dielectric constant tensor:
#      x y z
#    x 1.944220 0.000000 0.000000 
#    y 0.000000 1.730930 0.000000 
#    z 0.000000 0.000000 1.566230 
# 
# From -- ./inp_files/33546.got.cif
#   From: 2010.05.17/outbox.cif.g08.bks.cpg/sg48_17_cif.got.tgz:33546.got - 2010.06.03 20:39:00.
