data_PCOD9391176
_publ_section_title
;
Structure prediction by ZEFSAII (Michael W. Deem and Ramdas Pophale) SiO2 
 PCOD9391176
Probable space group: P N N N
;
_chemical_formula_sum "Si O2"
_cell_formula_units_Z 56
_cell_length_a 8.710358
_cell_length_b 14.260562
_cell_length_c 22.087272
_cell_angle_alpha 90.000000
_cell_angle_beta 90.000000
_cell_angle_gamma 90.000000
_cell_volume 2743.561663
_symmetry_space_group_name_H-M "P N N N"
_symmetry_group_IT_number 48
_space_group.IT_coordinate_system_code '2'
_symmetry_cell_setting 'orthorhombic'
loop_
_space_group_symop_operation_xyz
x,y,z
1/2-x,1/2-y,z
x,1/2-y,1/2-z
1/2-x,y,1/2-z
-x,-y,-z
1/2+x,1/2+y,-z
-x,1/2+y,1/2+z
1/2+x,-y,1/2+z
loop_
_atom_site_type_symbol
_atom_site_label
_atom_site_fract_x
_atom_site_fract_y
_atom_site_fract_z
Si Si1 0.061026 0.099478 0.979989
Si Si2 0.070807 0.102682 0.505555
Si Si3 0.087420 0.191236 0.198901
Si Si4 0.577724 0.479609 0.746622
Si Si5 0.577190 0.850089 0.343035
Si Si6 0.569007 0.258391 0.074530
Si Si7 0.054618 0.358353 0.855166
O O1 0.243581 0.106468 0.993410
O O2 0.029321 0.117542 0.909791
O O3 0.969800 0.173697 0.019411
O O4 0.000000 0.000000 0.000000
O O5 0.023696 0.138728 0.572751
O O6 0.006910 0.162012 0.449000
O O7 0.000000 0.000000 0.500000
O O8 0.250000 0.250000 0.191618
O O9 0.998568 0.250000 0.250000
O O10 0.007926 0.198916 0.134405
O O11 0.090041 0.086590 0.227564
O O12 0.750000 0.442705 0.750000
O O13 0.475479 0.421936 0.792899
O O14 0.514556 0.447852 0.680519
O O15 0.761884 0.855178 0.345416
O O16 0.511200 0.745648 0.331685
O O17 0.750000 0.250000 0.083617
#
# Coordination Sequence:
#
# PCOD9391176 Si02
#       7
#     8   8   8   8   8   8   8
#     4  11  22  43  68 101 140 181 231 285 351 420
#     4  11  24  42  70 102 135 185 232 286 350 420
#     4  11  25  50  70  92 134 188 230 287 357 421
#     4  12  25  42  67 100 132 177 232 285 348 409
#     4  10  22  44  68  96 138 185 225 278 351 419
#     4  12  26  44  70 104 137 179 232 292 350 418
#     4  10  23  44  68  97 138 183 228 277 348 424
#
# _framework density 20.411422999999999
#
# number of rings (size 3 to 8) (size 9 to 14) (size 15 to 20)
#    0.000    1.000    2.857    3.857    2.000    7.143 
#    2.571    0.000    0.000    0.000    0.000    0.000 
#    0.000    0.000    0.000    0.000    0.000    0.000 
#
# Total GULP energy -312479.157371 kJ/mol
# GULP energy per Si atom -5579.984953 kJ/mol
# Density = 2.036497 g / cm^3
# Si number density = 20.411423 Si / 1000 Ang^3
#
#
#
# Elastic Constant Matrix: (Units=GPa)
#
#
# Indices 1 2 3 4 5 6 
#
# 1 37.6791 -2.1565 13.9964 0.0000 0.0000 0.0000
# 2 -2.1565 100.6984 7.4517 0.0000 0.0000 0.0000
# 3 13.9964 7.4517 93.7339 0.0000 0.0000 0.0000
# 4 0.0000 0.0000 0.0000 27.2231 0.0000 0.0000
# 5 0.0000 0.0000 0.0000 0.0000 -60.7040 0.0000
# 6 0.0000 0.0000 0.0000 0.0000 0.0000 23.1710
#
#
#
# Elastic Compliance Matrix: (Units=1/GPa)
#
#
# Indices 1 2 3 4 5 6 
#
# 1 0.028183 0.000920 -0.004281 0.000000 0.000000 0.000000
# 2 0.000920 0.010019 -0.000934 0.000000 0.000000 0.000000
# 3 -0.004281 -0.000934 0.011382 0.000000 0.000000 0.000000
# 4 0.000000 0.000000 0.000000 0.036733 0.000000 0.000000
# 5 0.000000 0.000000 0.000000 0.000000 -0.016473 0.000000
# 6 0.000000 0.000000 0.000000 0.000000 0.000000 0.043157
#
#
# Mechanical properties :
#
#
# Convention : Reuss Voigt Hill
#
# Bulk Modulus (GPa) = 24.39356 30.07717 27.23537
# Shear Modulus (GPa) = 36.96669 12.12602 24.54635
#
# Velocity S-wave (km/s) = 4.26029 2.44002 3.47158
# Velocity P-wave (km/s) = 6.01473 4.76505 5.42599
#
# Compressibility (1/GPa) = 0.04099443
#
# Stress axis : x y z
#
# Youngs Moduli (GPa) = 35.48235 99.80573 87.85754
#
# Poissons Ratio (x) = -0.09186 0.37616
# Poissons Ratio (y) = -0.03266 0.08206
# Poissons Ratio (z) = 0.15192 0.09321
#
# Static dielectric constant tensor:
#      x y z
#    x 1.722630 0.000000 0.000000 
#    y 0.000000 1.711010 0.000000 
#    z 0.000000 0.000000 1.737150 
# 
# From -- ./inp_files/33584.got.cif
#   From: 2010.05.17/outbox.cif.g08.bks.cpg/sg48_17_cif.got.tgz:33584.got - 2010.06.03 20:39:00.
