data_PCOD9391802
_publ_section_title
;
Structure prediction by ZEFSAII (Michael W. Deem and Ramdas Pophale) SiO2 
 PCOD9391802
Probable space group: P N N N
;
_chemical_formula_sum "Si O2"
_cell_formula_units_Z 34
_cell_length_a 10.105832
_cell_length_b 17.386960
_cell_length_c 8.724362
_cell_angle_alpha 90.000000
_cell_angle_beta 90.000000
_cell_angle_gamma 90.000000
_cell_volume 1532.955001
_symmetry_space_group_name_H-M "P N N N"
_symmetry_group_IT_number 48
_space_group.IT_coordinate_system_code '2'
_symmetry_cell_setting 'orthorhombic'
loop_
_space_group_symop_operation_xyz
x,y,z
1/2-x,1/2-y,z
x,1/2-y,1/2-z
1/2-x,y,1/2-z
-x,-y,-z
1/2+x,1/2+y,-z
-x,1/2+y,1/2+z
1/2+x,-y,1/2+z
loop_
_atom_site_type_symbol
_atom_site_label
_atom_site_fract_x
_atom_site_fract_y
_atom_site_fract_z
Si Si1 0.780725 0.520642 0.570797
Si Si2 0.250000 0.250000 0.750000
Si Si3 0.028793 0.607251 0.434864
Si Si4 0.068793 0.380207 0.900868
Si Si5 0.906831 0.236247 0.423758
O O1 0.750000 0.523307 0.750000
O O2 0.835435 0.436590 0.525577
O O3 0.657626 0.553739 0.476360
O O4 0.907696 0.573747 0.532357
O O5 0.164672 0.308995 0.853017
O O6 0.039052 0.696893 0.466387
O O7 0.997162 0.592406 0.256865
O O8 0.959814 0.344524 0.013883
O O9 0.750000 0.250000 0.425564
O O10 0.953770 0.250000 0.250000
#
# Coordination Sequence:
#
# PCOD9391802 Si02
#       5
#     8   2   8   8   8
#     4  11  25  43  68 102 140 182 229 287 354 409
#     4  12  20  40  72 100 124 176 248 278 336 408
#     4  11  24  45  66 105 137 178 236 285 345 421
#     4  12  22  44  74  98 136 188 233 290 346 420
#     4  11  25  45  70 103 138 177 232 290 348 414
#
# _framework density 22.179385
#
# number of rings (size 3 to 8) (size 9 to 14) (size 15 to 20)
#    0.000    0.706    4.706    1.412    3.294    1.882 
#   16.941    2.353    0.000    0.000    0.000    0.000 
#    0.000    0.000    0.000    0.000    0.000    0.000 
#
# Total GULP energy -190276.170768 kJ/mol
# GULP energy per Si atom -5596.357964 kJ/mol
# Density = 2.212890 g / cm^3
# Si number density = 22.179385 Si / 1000 Ang^3
#
#
#
# Elastic Constant Matrix: (Units=GPa)
#
#
# Indices 1 2 3 4 5 6 
#
# 1 108.0172 49.1988 50.3531 0.0000 0.0000 0.0000
# 2 49.1988 80.0346 13.1776 0.0000 0.0000 0.0000
# 3 50.3531 13.1776 93.8386 0.0000 0.0000 0.0000
# 4 0.0000 0.0000 0.0000 25.3599 0.0000 0.0000
# 5 0.0000 0.0000 0.0000 0.0000 10.1551 0.0000
# 6 0.0000 0.0000 0.0000 0.0000 0.0000 56.8052
#
#
#
# Elastic Compliance Matrix: (Units=1/GPa)
#
#
# Indices 1 2 3 4 5 6 
#
# 1 0.017153 -0.009243 -0.007906 0.000000 0.000000 0.000000
# 2 -0.009243 0.017770 0.002464 0.000000 0.000000 0.000000
# 3 -0.007906 0.002464 0.014553 0.000000 0.000000 0.000000
# 4 0.000000 0.000000 0.000000 0.039432 0.000000 0.000000
# 5 0.000000 0.000000 0.000000 0.000000 0.098473 0.000000
# 6 0.000000 0.000000 0.000000 0.000000 0.000000 0.017604
#
#
# Mechanical properties :
#
#
# Convention : Reuss Voigt Hill
#
# Bulk Modulus (GPa) = 49.73416 56.37215 53.05315
# Shear Modulus (GPa) = 20.74189 29.74143 25.24166
#
# Velocity S-wave (km/s) = 3.06140 3.66587 3.37719
# Velocity P-wave (km/s) = 5.91342 6.58709 6.25932
#
# Compressibility (1/GPa) = 0.02010690
#
# Stress axis : x y z
#
# Youngs Moduli (GPa) = 58.29849 56.27308 68.71412
#
# Poissons Ratio (x) = 0.52011 0.54328
# Poissons Ratio (y) = 0.53883 -0.16931
# Poissons Ratio (z) = 0.46093 -0.13866
#
# Static dielectric constant tensor:
#      x y z
#    x 1.837510 0.000000 0.000000 
#    y 0.000000 1.800380 0.000000 
#    z 0.000000 0.000000 1.779150 
# 
# From -- ./inp_files/8746.got.cif
#   From: 2010.05.17/outbox.cif.g08.bks.cpg/sg48_5_cif.got.tgz:8746.got - 2010.06.03 20:39:00.
