data_PCOD9391822
_publ_section_title
;
Structure prediction by ZEFSAII (Michael W. Deem and Ramdas Pophale) SiO2 
 PCOD9391822
Probable space group: P N N N
;
_chemical_formula_sum "Si O2"
_cell_formula_units_Z 42
_cell_length_a 8.407536
_cell_length_b 14.369306
_cell_length_c 14.845404
_cell_angle_alpha 90.000000
_cell_angle_beta 90.000000
_cell_angle_gamma 90.000000
_cell_volume 1793.480049
_symmetry_space_group_name_H-M "P N N N"
_symmetry_group_IT_number 48
_space_group.IT_coordinate_system_code '2'
_symmetry_cell_setting 'orthorhombic'
loop_
_space_group_symop_operation_xyz
x,y,z
1/2-x,1/2-y,z
x,1/2-y,1/2-z
1/2-x,y,1/2-z
-x,-y,-z
1/2+x,1/2+y,-z
-x,1/2+y,1/2+z
1/2+x,-y,1/2+z
loop_
_atom_site_type_symbol
_atom_site_label
_atom_site_fract_x
_atom_site_fract_y
_atom_site_fract_z
Si Si1 0.429348 0.716325 0.966815
Si Si2 0.927770 0.026922 0.724830
Si Si3 0.250000 0.250000 0.750000
Si Si4 0.429221 0.093435 0.956728
Si Si5 0.931876 0.142246 0.225002
Si Si6 0.912979 0.889780 0.114495
O O1 0.250000 0.750000 0.952109
O O2 0.473794 0.653668 0.880796
O O3 0.527278 0.810326 0.992713
O O4 0.448040 0.649093 0.052529
O O5 0.750000 0.053154 0.750000
O O6 0.997806 0.088769 0.644788
O O7 0.030877 0.032881 0.816282
O O8 0.950880 0.916902 0.710391
O O9 0.143952 0.189865 0.816987
O O10 0.239563 0.085186 0.945110
O O11 0.500000 0.000000 0.000000
O O12 0.940096 0.250000 0.250000
O O13 0.750000 0.112485 0.250000
#
# Coordination Sequence:
#
# PCOD9391822 Si02
#       6
#     8   8   2   8   8   8
#     4  12  25  44  73 111 142 185 249 302 363 444
#     4  12  27  47  73 109 144 193 246 304 367 443
#     4  12  20  48  70 104 132 188 234 288 380 428
#     4  12  26  45  72 105 145 193 245 299 366 442
#     4  11  24  48  72 101 149 198 232 294 376 437
#     4  12  24  46  77 101 146 190 238 306 371 439
#
# _framework density 23.418157000000001
#
# number of rings (size 3 to 8) (size 9 to 14) (size 15 to 20)
#    0.000    0.190    5.714    3.429    5.333    1.143 
#    3.429    1.905    0.000    0.000    0.000    0.000 
#    0.000    0.000    0.000    0.000    0.000    0.000 
#
# Total GULP energy -234768.598966 kJ/mol
# GULP energy per Si atom -5589.728547 kJ/mol
# Density = 2.336486 g / cm^3
# Si number density = 23.418157 Si / 1000 Ang^3
#
#
#
# Elastic Constant Matrix: (Units=GPa)
#
#
# Indices 1 2 3 4 5 6 
#
# 1 49.6323 4.9990 0.2594 0.0000 0.0000 0.0000
# 2 4.9990 66.2129 30.0345 0.0000 0.0000 0.0000
# 3 0.2594 30.0345 113.9083 0.0000 0.0000 0.0000
# 4 0.0000 0.0000 0.0000 17.9675 0.0000 0.0000
# 5 0.0000 0.0000 0.0000 0.0000 25.4287 0.0000
# 6 0.0000 0.0000 0.0000 0.0000 0.0000 24.7852
#
#
#
# Elastic Compliance Matrix: (Units=1/GPa)
#
#
# Indices 1 2 3 4 5 6 
#
# 1 0.020319 -0.001719 0.000407 0.000000 0.000000 0.000000
# 2 -0.001719 0.017300 -0.004558 0.000000 0.000000 0.000000
# 3 0.000407 -0.004558 0.009980 0.000000 0.000000 0.000000
# 4 0.000000 0.000000 0.000000 0.055656 0.000000 0.000000
# 5 0.000000 0.000000 0.000000 0.000000 0.039326 0.000000
# 6 0.000000 0.000000 0.000000 0.000000 0.000000 0.040347
#
#
# Mechanical properties :
#
#
# Convention : Reuss Voigt Hill
#
# Bulk Modulus (GPa) = 27.88611 33.37101 30.62856
# Shear Modulus (GPa) = 24.19909 26.60031 25.39970
#
# Velocity S-wave (km/s) = 3.21806 3.37394 3.29692
# Velocity P-wave (km/s) = 5.07362 5.42761 5.25360
#
# Compressibility (1/GPa) = 0.03586014
#
# Stress axis : x y z
#
# Youngs Moduli (GPa) = 49.21469 57.80379 100.20266
#
# Poissons Ratio (x) = 0.09934 -0.04077
# Poissons Ratio (y) = 0.08458 0.45668
# Poissons Ratio (z) = -0.02002 0.26345
#
# Static dielectric constant tensor:
#      x y z
#    x 1.880380 0.000000 0.000000 
#    y 0.000000 2.236970 0.000000 
#    z 0.000000 0.000000 -0.241740 
# 
# From -- ./inp_files/25135.got.cif
#   From: 2010.05.17/outbox.cif.g08.bks.cpg/sg48_13_cif.got.tgz:25135.got - 2010.06.03 20:39:00.
