data_PCOD9391493
_publ_section_title
;
Structure prediction by ZEFSAII (Michael W. Deem and Ramdas Pophale) SiO2 
 PCOD9391493
Probable space group: P N N N
;
_chemical_formula_sum "Si O2"
_cell_formula_units_Z 60
_cell_length_a 11.787535
_cell_length_b 19.756514
_cell_length_c 11.796090
_cell_angle_alpha 90.000000
_cell_angle_beta 90.000000
_cell_angle_gamma 90.000000
_cell_volume 2747.080520
_symmetry_space_group_name_H-M "P N N N"
_symmetry_group_IT_number 48
_space_group.IT_coordinate_system_code '2'
_symmetry_cell_setting 'orthorhombic'
loop_
_space_group_symop_operation_xyz
x,y,z
1/2-x,1/2-y,z
x,1/2-y,1/2-z
1/2-x,y,1/2-z
-x,-y,-z
1/2+x,1/2+y,-z
-x,1/2+y,1/2+z
1/2+x,-y,1/2+z
loop_
_atom_site_type_symbol
_atom_site_label
_atom_site_fract_x
_atom_site_fract_y
_atom_site_fract_z
Si Si1 0.521443 0.699180 0.902918
Si Si2 0.620973 0.130773 0.210312
Si Si3 0.115695 0.505149 0.930108
Si Si4 0.009892 0.074976 0.952363
Si Si5 0.246428 0.585144 0.377728
Si Si6 0.750000 0.750000 0.953187
Si Si7 0.240589 0.125219 0.873844
Si Si8 0.136853 0.707714 0.022243
O O1 0.443307 0.680422 0.796537
O O2 0.463468 0.737434 0.011700
O O3 0.543610 0.623338 0.944256
O O4 0.635890 0.739917 0.881871
O O5 0.750000 0.130737 0.250000
O O6 0.593704 0.052381 0.180880
O O7 0.609817 0.163593 0.087535
O O8 0.166637 0.432987 0.896025
O O9 0.204781 0.539306 0.019574
O O10 0.000000 0.500000 0.000000
O O11 0.117932 0.087759 0.873489
O O12 0.886304 0.096453 0.905858
O O13 0.000000 0.000000 0.000000
O O14 0.250000 0.556624 0.250000
O O15 0.324949 0.653685 0.382121
O O16 0.745265 0.816251 0.033050
O O17 0.250000 0.156725 0.750000
O O18 0.250000 0.750000 0.000764
#
# Coordination Sequence:
#
# PCOD9391493 Si02
#       8
#     8   8   8   8   8   4   8   8
#     4  11  23  43  71  99 142 184 224 293 346 427
#     4  11  22  39  73 103 129 180 236 288 353 410
#     4  11  26  44  66 105 141 179 238 304 352 417
#     4  11  23  43  67  97 133 172 233 287 337 416
#     4  11  25  43  66 100 138 179 229 293 362 412
#     4  10  27  46  67 104 154 188 235 285 358 438
#     4  11  25  45  75  99 137 195 239 286 353 440
#     4  11  21  40  64 100 135 166 228 280 341 408
#
# _framework density 21.841370000000001
#
# number of rings (size 3 to 8) (size 9 to 14) (size 15 to 20)
#    0.000    1.067    4.000    1.800    7.467    0.267 
#    0.000    2.667    0.000    0.000    0.000    0.000 
#    0.000    0.000    0.000    0.000    0.000    0.000 
#
# Total GULP energy -334487.498554 kJ/mol
# GULP energy per Si atom -5574.791643 kJ/mol
# Density = 2.179166 g / cm^3
# Si number density = 21.841370 Si / 1000 Ang^3
#
#
#
# Elastic Constant Matrix: (Units=GPa)
#
#
# Indices 1 2 3 4 5 6 
#
# 1 139.3467 19.5664 23.5884 0.0000 0.0000 0.0000
# 2 19.5664 115.4695 17.0079 0.0000 0.0000 0.0000
# 3 23.5884 17.0079 73.9949 0.0000 0.0000 0.0000
# 4 0.0000 0.0000 0.0000 25.8726 0.0000 0.0000
# 5 0.0000 0.0000 0.0000 0.0000 4.3624 0.0000
# 6 0.0000 0.0000 0.0000 0.0000 0.0000 21.8172
#
#
#
# Elastic Compliance Matrix: (Units=1/GPa)
#
#
# Indices 1 2 3 4 5 6 
#
# 1 0.007690 -0.000975 -0.002227 0.000000 0.000000 0.000000
# 2 -0.000975 0.009087 -0.001778 0.000000 0.000000 0.000000
# 3 -0.002227 -0.001778 0.014633 0.000000 0.000000 0.000000
# 4 0.000000 0.000000 0.000000 0.038651 0.000000 0.000000
# 5 0.000000 0.000000 0.000000 0.000000 0.229233 0.000000
# 6 0.000000 0.000000 0.000000 0.000000 0.000000 0.045835
#
#
# Mechanical properties :
#
#
# Convention : Reuss Voigt Hill
#
# Bulk Modulus (GPa) = 46.61990 49.90408 48.26199
# Shear Modulus (GPa) = 13.80297 28.32032 21.06165
#
# Velocity S-wave (km/s) = 2.51662 3.60479 3.10869
# Velocity P-wave (km/s) = 5.46220 6.34224 5.91860
#
# Compressibility (1/GPa) = 0.02145007
#
# Stress axis : x y z
#
# Youngs Moduli (GPa) = 130.03369 110.04258 68.33783
#
# Poissons Ratio (x) = 0.10730 0.15222
# Poissons Ratio (y) = 0.12679 0.12150
# Poissons Ratio (z) = 0.28964 0.19565
#
# Static dielectric constant tensor:
#      x y z
#    x 1.866910 0.000000 0.000000 
#    y 0.000000 1.869380 0.000000 
#    z 0.000000 0.000000 1.860060 
# 
# From -- ./inp_files/20321.got.cif
#   From: 2010.05.17/outbox.cif.g08.bks.cpg/sg48_11_cif.got.tgz:20321.got - 2010.06.03 20:39:00.
