data_PCOD9391157
_publ_section_title
;
Structure prediction by ZEFSAII (Michael W. Deem and Ramdas Pophale) SiO2 
 PCOD9391157
Probable space group: P N N N
;
_chemical_formula_sum "Si O2"
_cell_formula_units_Z 58
_cell_length_a 5.406784
_cell_length_b 20.502637
_cell_length_c 22.650136
_cell_angle_alpha 90.000000
_cell_angle_beta 90.000000
_cell_angle_gamma 90.000000
_cell_volume 2510.842994
_symmetry_space_group_name_H-M "P N N N"
_symmetry_group_IT_number 48
_space_group.IT_coordinate_system_code '2'
_symmetry_cell_setting 'orthorhombic'
loop_
_space_group_symop_operation_xyz
x,y,z
1/2-x,1/2-y,z
x,1/2-y,1/2-z
1/2-x,y,1/2-z
-x,-y,-z
1/2+x,1/2+y,-z
-x,1/2+y,1/2+z
1/2+x,-y,1/2+z
loop_
_atom_site_type_symbol
_atom_site_label
_atom_site_fract_x
_atom_site_fract_y
_atom_site_fract_z
Si Si1 0.850930 0.969766 0.814963
Si Si2 0.147723 0.028589 0.554865
Si Si3 0.003203 0.767556 0.120760
Si Si4 0.003809 0.213859 0.487953
Si Si5 0.047581 0.894837 0.602024
Si Si6 0.112661 0.658140 0.692133
Si Si7 0.870074 0.083429 0.904971
Si Si8 0.250000 0.250000 0.250000
O O1 0.750000 0.985402 0.750000
O O2 0.911761 0.035905 0.849157
O O3 0.673182 0.925035 0.857921
O O4 0.064685 0.918465 0.801965
O O5 0.924939 0.073021 0.582820
O O6 0.418981 0.059969 0.547790
O O7 0.000000 0.000000 0.500000
O O8 0.198634 0.960697 0.589305
O O9 0.750000 0.750000 0.151898
O O10 0.044093 0.842870 0.104980
O O11 0.250000 0.750000 0.155061
O O12 0.994350 0.724211 0.059515
O O13 0.750000 0.250000 0.470887
O O14 0.017553 0.141912 0.459378
O O15 0.250000 0.250000 0.466214
O O16 0.206746 0.840641 0.636747
O O17 0.250000 0.681040 0.750000
O O18 0.869888 0.700232 0.701724
#
# Coordination Sequence:
#
# PCOD9391157 Si02
#       8
#     8   8   8   8   8   8   8   2
#     4  11  23  45  68  98 133 173 234 299 347 426
#     4  11  25  39  68  97 137 177 224 294 342 417
#     4  10  22  43  69  95 137 181 222 281 348 428
#     4  10  25  40  60  87 130 177 223 273 331 409
#     4  11  25  42  63  93 129 176 233 279 348 407
#     4  12  23  44  64  88 133 179 233 292 348 409
#     4  11  24  43  71 102 132 184 234 284 367 414
#     4  12  26  40  68  90 132 188 236 292 362 400
#
# _framework density 23.099813000000001
#
# number of rings (size 3 to 8) (size 9 to 14) (size 15 to 20)
#    0.000    1.103    3.448    1.448    9.655    2.207 
#    1.241    0.000    0.000    0.414    0.000    0.966 
#    0.000    0.000    0.000    0.000    0.000    0.000 
#
# Total GULP energy -323044.329906 kJ/mol
# GULP energy per Si atom -5569.729826 kJ/mol
# Density = 2.304724 g / cm^3
# Si number density = 23.099813 Si / 1000 Ang^3
#
#
#
# Elastic Constant Matrix: (Units=GPa)
#
#
# Indices 1 2 3 4 5 6 
#
# 1 108.8534 31.5845 -1.4541 0.0000 0.0000 0.0000
# 2 31.5845 133.7703 20.5158 0.0000 0.0000 0.0000
# 3 -1.4541 20.5158 52.5145 0.0000 0.0000 0.0000
# 4 0.0000 0.0000 0.0000 25.3640 0.0000 0.0000
# 5 0.0000 0.0000 0.0000 0.0000 13.3884 0.0000
# 6 0.0000 0.0000 0.0000 0.0000 0.0000 21.0135
#
#
#
# Elastic Compliance Matrix: (Units=1/GPa)
#
#
# Indices 1 2 3 4 5 6 
#
# 1 0.009941 -0.002542 0.001268 0.000000 0.000000 0.000000
# 2 -0.002542 0.008602 -0.003431 0.000000 0.000000 0.000000
# 3 0.001268 -0.003431 0.020418 0.000000 0.000000 0.000000
# 4 0.000000 0.000000 0.000000 0.039426 0.000000 0.000000
# 5 0.000000 0.000000 0.000000 0.000000 0.074692 0.000000
# 6 0.000000 0.000000 0.000000 0.000000 0.000000 0.047589
#
#
# Mechanical properties :
#
#
# Convention : Reuss Voigt Hill
#
# Bulk Modulus (GPa) = 33.83856 44.04784 38.94320
# Shear Modulus (GPa) = 22.73491 28.25265 25.49378
#
# Velocity S-wave (km/s) = 3.14060 3.50103 3.32571
# Velocity P-wave (km/s) = 5.27559 5.95423 5.62515
#
# Compressibility (1/GPa) = 0.02955209
#
# Stress axis : x y z
#
# Youngs Moduli (GPa) = 100.59256 116.25486 48.97686
#
# Poissons Ratio (x) = 0.29548 -0.06211
# Poissons Ratio (y) = 0.25568 0.16803
# Poissons Ratio (z) = -0.12757 0.39885
#
# Static dielectric constant tensor:
#      x y z
#    x 1.923380 0.000000 0.000000 
#    y 0.000000 1.878240 0.000000 
#    z 0.000000 0.000000 2.014460 
# 
# From -- ./inp_files/37182.got.cif
#   From: 2010.05.17/outbox.cif.g08.bks.cpg/sg48_19_cif.got.tgz:37182.got - 2010.06.03 20:39:00.
