data_PCOD9391144
_publ_section_title
;
Structure prediction by ZEFSAII (Michael W. Deem and Ramdas Pophale) SiO2 
 PCOD9391144
Probable space group: P N N N
;
_chemical_formula_sum "Si O2"
_cell_formula_units_Z 16
_cell_length_a 6.530133
_cell_length_b 7.196457
_cell_length_c 12.334738
_cell_angle_alpha 90.000000
_cell_angle_beta 90.000000
_cell_angle_gamma 90.000000
_cell_volume 579.656474
_symmetry_space_group_name_H-M "P N N N"
_symmetry_group_IT_number 48
_space_group.IT_coordinate_system_code '2'
_symmetry_cell_setting 'orthorhombic'
loop_
_space_group_symop_operation_xyz
x,y,z
1/2-x,1/2-y,z
x,1/2-y,1/2-z
1/2-x,y,1/2-z
-x,-y,-z
1/2+x,1/2+y,-z
-x,1/2+y,1/2+z
1/2+x,-y,1/2+z
loop_
_atom_site_type_symbol
_atom_site_label
_atom_site_fract_x
_atom_site_fract_y
_atom_site_fract_z
Si Si1 0.734411 0.472455 0.970511
Si Si2 0.446877 0.444272 0.686451
O O1 0.750000 0.250000 0.975608
O O2 0.853270 0.574902 0.066511
O O3 0.500000 0.500000 0.000000
O O4 0.836102 0.529473 0.855160
O O5 0.482342 0.250000 0.750000
O O6 0.250000 0.533663 0.750000
#
# Coordination Sequence:
#
# PCOD9391144 Si02
#       2
#     8   8
#     4  11  24  42  73 113 153 209 283 345 408 504
#     4  10  22  42  69 102 152 210 265 330 411 489
#
# _framework density 27.602557999999998
#
# number of rings (size 3 to 8) (size 9 to 14) (size 15 to 20)
#    0.000    1.500    0.000    6.000    0.000   16.000 
#    0.000    0.000    0.000   24.000    0.000    0.000 
#    0.000    0.000    0.000    0.000    0.000    0.000 
#
# Total GULP energy -89155.214162 kJ/mol
# GULP energy per Si atom -5572.200885 kJ/mol
# Density = 2.753973 g / cm^3
# Si number density = 27.602558 Si / 1000 Ang^3
#
#
#
# Elastic Constant Matrix: (Units=GPa)
#
#
# Indices 1 2 3 4 5 6 
#
# 1 223.1089 47.9819 103.6669 0.0000 0.0000 0.0000
# 2 47.9819 108.7832 31.5439 0.0000 0.0000 0.0000
# 3 103.6669 31.5439 258.4523 0.0000 0.0000 0.0000
# 4 0.0000 0.0000 0.0000 42.1860 0.0000 0.0000
# 5 0.0000 0.0000 0.0000 0.0000 98.4099 0.0000
# 6 0.0000 0.0000 0.0000 0.0000 0.0000 49.6970
#
#
#
# Elastic Compliance Matrix: (Units=1/GPa)
#
#
# Indices 1 2 3 4 5 6 
#
# 1 0.005895 -0.001985 -0.002122 0.000000 0.000000 0.000000
# 2 -0.001985 0.010198 -0.000449 0.000000 0.000000 0.000000
# 3 -0.002122 -0.000449 0.004775 0.000000 0.000000 0.000000
# 4 0.000000 0.000000 0.000000 0.023705 0.000000 0.000000
# 5 0.000000 0.000000 0.000000 0.000000 0.010162 0.000000
# 6 0.000000 0.000000 0.000000 0.000000 0.000000 0.020122
#
#
# Mechanical properties :
#
#
# Convention : Reuss Voigt Hill
#
# Bulk Modulus (GPa) = 85.05514 106.30332 95.67923
# Shear Modulus (GPa) = 56.89135 65.20204 61.04669
#
# Velocity S-wave (km/s) = 4.54485 4.86549 4.70790
# Velocity P-wave (km/s) = 7.64343 8.37614 8.01816
#
# Compressibility (1/GPa) = 0.01175708
#
# Stress axis : x y z
#
# Youngs Moduli (GPa) = 169.63260 98.05738 209.41500
#
# Poissons Ratio (x) = 0.19462 0.44445
# Poissons Ratio (y) = 0.33668 0.09394
# Poissons Ratio (z) = 0.36001 0.04398
#
# Static dielectric constant tensor:
#      x y z
#    x 2.620480 0.000000 0.000000 
#    y 0.000000 2.138670 0.000000 
#    z 0.000000 0.000000 2.122080 
# 
# From -- ./inp_files/9621.got.cif
#   From: 2010.05.17/outbox.cif.g08.bks.cpg/sg48_5_cif.got.tgz:9621.got - 2010.06.03 20:39:00.
