data_PCOD9391091
_publ_section_title
;
Structure prediction by ZEFSAII (Michael W. Deem and Ramdas Pophale) SiO2 
 PCOD9391091
Probable space group: P N N N
;
_chemical_formula_sum "Si O2"
_cell_formula_units_Z 32
_cell_length_a 36.535122
_cell_length_b 7.612801
_cell_length_c 5.172085
_cell_angle_alpha 90.000000
_cell_angle_beta 90.000000
_cell_angle_gamma 90.000000
_cell_volume 1438.535861
_symmetry_space_group_name_H-M "P N N N"
_symmetry_group_IT_number 48
_space_group.IT_coordinate_system_code '2'
_symmetry_cell_setting 'orthorhombic'
loop_
_space_group_symop_operation_xyz
x,y,z
1/2-x,1/2-y,z
x,1/2-y,1/2-z
1/2-x,y,1/2-z
-x,-y,-z
1/2+x,1/2+y,-z
-x,1/2+y,1/2+z
1/2+x,-y,1/2+z
loop_
_atom_site_type_symbol
_atom_site_label
_atom_site_fract_x
_atom_site_fract_y
_atom_site_fract_z
Si Si1 0.733258 0.449284 0.498661
Si Si2 0.576871 0.942063 0.873497
Si Si3 0.658699 0.624489 0.502520
Si Si4 0.461768 0.937855 0.618539
O O1 0.750000 0.250000 0.498706
O O2 0.750000 0.538233 0.250000
O O3 0.690022 0.475965 0.491002
O O4 0.750000 0.534782 0.750000
O O5 0.572786 0.750000 0.750000
O O6 0.565197 0.062113 0.629626
O O7 0.618890 0.961768 0.959619
O O8 0.552996 0.953185 0.134689
O O9 0.658827 0.750000 0.250000
O O10 0.665185 0.750000 0.750000
O O11 0.466406 0.750000 0.750000
O O12 0.500000 0.000000 0.500000
#
# Coordination Sequence:
#
# PCOD9391091 Si02
#       4
#     8   8   8   8
#     4  10  22  41  61  94 133 177 225 277 357 401
#     4  11  24  46  71 102 141 188 233 292 355 415
#     4  11  23  41  69  99 134 179 235 287 346 415
#     4  12  26  46  70 106 142 186 236 289 349 423
#
# _framework density 22.244838999999999
#
# number of rings (size 3 to 8) (size 9 to 14) (size 15 to 20)
#    0.000    1.000    0.000    7.500    0.000    5.000 
#   13.500    0.000    0.000    0.000    0.000    0.000 
#    0.000    0.000    0.000    0.000    0.000    0.000 
#
# Total GULP energy -178779.680786 kJ/mol
# GULP energy per Si atom -5586.865025 kJ/mol
# Density = 2.219421 g / cm^3
# Si number density = 22.244839 Si / 1000 Ang^3
#
#
#
# Elastic Constant Matrix: (Units=GPa)
#
#
# Indices 1 2 3 4 5 6 
#
# 1 208.9233 72.9741 100.6705 0.0000 0.0000 0.0000
# 2 72.9741 94.0524 45.6023 0.0000 0.0000 0.0000
# 3 100.6705 45.6023 239.5414 0.0000 0.0000 0.0000
# 4 0.0000 0.0000 0.0000 12.1903 0.0000 0.0000
# 5 0.0000 0.0000 0.0000 0.0000 38.1567 0.0000
# 6 0.0000 0.0000 0.0000 0.0000 0.0000 32.6952
#
#
#
# Elastic Compliance Matrix: (Units=1/GPa)
#
#
# Indices 1 2 3 4 5 6 
#
# 1 0.007536 -0.004750 -0.002263 0.000000 0.000000 0.000000
# 2 -0.004750 0.014707 -0.000804 0.000000 0.000000 0.000000
# 3 -0.002263 -0.000804 0.005279 0.000000 0.000000 0.000000
# 4 0.000000 0.000000 0.000000 0.082033 0.000000 0.000000
# 5 0.000000 0.000000 0.000000 0.000000 0.026208 0.000000
# 6 0.000000 0.000000 0.000000 0.000000 0.000000 0.030586
#
#
# Mechanical properties :
#
#
# Convention : Reuss Voigt Hill
#
# Bulk Modulus (GPa) = 84.11016 109.00120 96.55568
# Shear Modulus (GPa) = 26.88989 38.15978 32.52484
#
# Velocity S-wave (km/s) = 3.48057 4.14629 3.82793
# Velocity P-wave (km/s) = 7.35158 8.48701 7.93962
#
# Compressibility (1/GPa) = 0.01188917
#
# Stress axis : x y z
#
# Youngs Moduli (GPa) = 132.69947 67.99311 189.44340
#
# Poissons Ratio (x) = 0.32295 0.42867
# Poissons Ratio (y) = 0.63030 0.15226
# Poissons Ratio (z) = 0.30027 0.05465
#
# Static dielectric constant tensor:
#      x y z
#    x 1.832320 0.000000 0.000000 
#    y 0.000000 1.865550 0.000000 
#    z 0.000000 0.000000 1.850950 
# 
# From -- ./inp_files/6825.got.cif
#   From: 2010.05.17/outbox.cif.g08.bks.cpg/sg48_4_cif.got.tgz:6825.got - 2010.06.03 20:39:00.
