data_PCOD9391947
_publ_section_title
;
Structure prediction by ZEFSAII (Michael W. Deem and Ramdas Pophale) SiO2 
 PCOD9391947
Probable space group: P N N N
;
_chemical_formula_sum "Si O2"
_cell_formula_units_Z 64
_cell_length_a 12.000000
_cell_length_b 18.000000
_cell_length_c 15.000000
_cell_angle_alpha 90.000000
_cell_angle_beta 90.000000
_cell_angle_gamma 90.000000
_cell_volume 3240.000000
_symmetry_space_group_name_H-M "P N N N"
_symmetry_group_IT_number 48
_space_group.IT_coordinate_system_code '2'
_symmetry_cell_setting 'orthorhombic'
loop_
_space_group_symop_operation_xyz
x,y,z
1/2-x,1/2-y,z
x,1/2-y,1/2-z
1/2-x,y,1/2-z
-x,-y,-z
1/2+x,1/2+y,-z
-x,1/2+y,1/2+z
1/2+x,-y,1/2+z
loop_
_atom_site_type_symbol
_atom_site_label
_atom_site_fract_x
_atom_site_fract_y
_atom_site_fract_z
Si Si1 0.943237 0.445517 0.630671
Si Si2 0.846816 0.554914 0.484658
Si Si3 0.304765 0.660769 0.510514
Si Si4 0.625979 0.564541 0.723011
Si Si5 0.373019 0.282814 0.040794
Si Si6 0.031151 0.802708 0.673957
Si Si7 0.591483 0.290543 0.934504
Si Si8 0.371519 0.495651 0.475965
O O1 0.884993 0.486417 0.546434
O O2 0.911665 0.496149 0.714221
O O3 0.906552 0.358966 0.633856
O O4 0.073226 0.444343 0.601127
O O5 0.865708 0.628152 0.544885
O O6 0.715436 0.551167 0.464419
O O7 0.377112 0.675977 0.599457
O O8 0.352303 0.710279 0.427964
O O9 0.172836 0.678721 0.515155
O O10 0.326634 0.577853 0.484320
O O11 0.750000 0.591832 0.750000
O O12 0.530279 0.626978 0.718767
O O13 0.638340 0.535925 0.622550
O O14 0.250000 0.250000 0.025833
O O15 0.432171 0.242408 0.123473
O O16 0.464841 0.274165 0.962466
O O17 0.079868 0.750000 0.750000
O O18 0.500000 0.500000 0.500000
#
# Coordination Sequence:
#
# PCOD9391947 Si02
#       8
#     8   8   8   8   8   8   8   8
#     4  10  20  37  61  88 119 163 213 257 305 371
#     4  10  20  37  62  84 119 170 210 249 306 383
#     4  10  20  40  60  85 121 167 207 249 313 386
#     4  12  23  38  61  97 130 159 206 267 323 370
#     4  10  21  34  57  89 118 155 208 250 303 372
#     4  11  24  36  56  89 131 164 196 255 316 382
#     4   9  19  38  61  82 117 158 208 256 298 370
#     4  12  23  40  63  90 125 169 211 262 318 385
#
# _framework density 19.753086
#
# number of rings (size 3 to 8) (size 9 to 14) (size 15 to 20)
#    0.000    1.500    3.750    1.500    3.500    1.000 
#    0.000    6.250    0.000    2.250    0.000    0.000 
#    0.000    0.000    0.000    0.000    0.000    0.000 
#
# Total GULP energy -356440.017117 kJ/mol
# GULP energy per Si atom -5569.375267 kJ/mol
# Density = 1.970813 g / cm^3
# Si number density = 19.753086 Si / 1000 Ang^3
#
#
#
# Elastic Constant Matrix: (Units=GPa)
#
#
# Indices 1 2 3 4 5 6 
#
# 1 127.7545 0.0822 11.2128 0.0000 0.0000 0.0000
# 2 0.0822 71.2769 15.7511 0.0000 0.0000 0.0000
# 3 11.2128 15.7511 -3.7629 0.0000 0.0000 0.0000
# 4 0.0000 0.0000 0.0000 29.2754 0.0000 0.0000
# 5 0.0000 0.0000 0.0000 0.0000 18.7424 0.0000
# 6 0.0000 0.0000 0.0000 0.0000 0.0000 31.2844
#
#
#
# Elastic Compliance Matrix: (Units=1/GPa)
#
#
# Indices 1 2 3 4 5 6 
#
# 1 0.006894 -0.002362 0.010654 0.000000 0.000000 0.000000
# 2 -0.002362 0.008098 0.026857 0.000000 0.000000 0.000000
# 3 0.010654 0.026857 -0.121587 0.000000 0.000000 0.000000
# 4 0.000000 0.000000 0.000000 0.034158 0.000000 0.000000
# 5 0.000000 0.000000 0.000000 0.000000 0.053355 0.000000
# 6 0.000000 0.000000 0.000000 0.000000 0.000000 0.031965
#
#
# Mechanical properties :
#
#
# Convention : Reuss Voigt Hill
#
# Bulk Modulus (GPa) = -27.54923 27.70676 0.07877
# Shear Modulus (GPa) = -71.92785 27.07528 -22.42628
#
# Velocity S-wave (km/s) = -6.04090 3.70629 -3.37312
# Velocity P-wave (km/s) = 7.91415 5.68968 3.88981
#
# Compressibility (1/GPa) = -0.03629866
#
# Stress axis : x y z
#
# Youngs Moduli (GPa) = 145.05516 123.49317 -8.22455
#
# Poissons Ratio (x) = 0.29174 0.08763
# Poissons Ratio (y) = 0.34267 0.22088
# Poissons Ratio (z) = -1.54545 -3.31661
#
# Static dielectric constant tensor:
#      x y z
#    x 1.758980 0.000000 0.000000 
#    y 0.000000 1.742460 0.000000 
#    z 0.000000 0.000000 1.660650 
# 
# From -- ./inp_files/26728.got.cif
#   From: 2010.05.17/outbox.ucp.g08.bks.cvg/sg48_14_cif.got.tgz:26728.got - 2010.06.11 16:38:40.
