data_PCOD9391478
_publ_section_title
;
Structure prediction by ZEFSAII (Michael W. Deem and Ramdas Pophale) SiO2 
 PCOD9391478
Probable space group: P N N N
;
_chemical_formula_sum "Si O2"
_cell_formula_units_Z 30
_cell_length_a 5.247726
_cell_length_b 14.103109
_cell_length_c 18.723112
_cell_angle_alpha 90.000000
_cell_angle_beta 90.000000
_cell_angle_gamma 90.000000
_cell_volume 1385.683510
_symmetry_space_group_name_H-M "P N N N"
_symmetry_group_IT_number 48
_space_group.IT_coordinate_system_code '2'
_symmetry_cell_setting 'orthorhombic'
loop_
_space_group_symop_operation_xyz
x,y,z
1/2-x,1/2-y,z
x,1/2-y,1/2-z
1/2-x,y,1/2-z
-x,-y,-z
1/2+x,1/2+y,-z
-x,1/2+y,1/2+z
1/2+x,-y,1/2+z
loop_
_atom_site_type_symbol
_atom_site_label
_atom_site_fract_x
_atom_site_fract_y
_atom_site_fract_z
Si Si1 0.250000 0.412662 0.250000
Si Si2 0.250000 0.250000 0.750000
Si Si3 0.250000 0.750000 0.955119
Si Si4 0.749623 0.447538 0.531236
Si Si5 0.750000 0.750000 0.862159
Si Si6 0.933867 0.409487 0.690522
O O1 0.190255 0.341964 0.185788
O O2 0.029350 0.486006 0.274353
O O3 0.349797 0.169583 0.691956
O O4 0.500102 0.732814 0.908079
O O5 0.279861 0.842224 0.002262
O O6 0.500000 0.500000 0.500000
O O7 0.797435 0.434649 0.616128
O O8 0.000000 0.500000 0.500000
O O9 0.750000 0.362891 0.750000
#
# Coordination Sequence:
#
# PCOD9391478 Si02
#       6
#     4   2   4   8   4   8
#     4   9  22  43  72  98 144 179 242 299 368 436
#     4  12  26  42  80 102 156 196 260 304 370 448
#     4  12  26  43  73 102 144 184 240 294 370 430
#     4  12  28  48  75 107 148 192 246 308 372 442
#     4  11  24  47  70 107 137 186 236 304 365 439
#     4  10  26  45  70 105 148 193 249 302 371 445
#
# _framework density 21.649965999999999
#
# number of rings (size 3 to 8) (size 9 to 14) (size 15 to 20)
#    0.800    0.267    0.000    5.200    7.467    5.333 
#    0.000    0.000    0.000    0.000    0.000    0.000 
#    0.000    0.000    0.000    0.000    0.000    0.000 
#
# Total GULP energy -167010.491863 kJ/mol
# GULP energy per Si atom -5567.016395 kJ/mol
# Density = 2.160069 g / cm^3
# Si number density = 21.649966 Si / 1000 Ang^3
#
#
#
# Elastic Constant Matrix: (Units=GPa)
#
#
# Indices 1 2 3 4 5 6 
#
# 1 107.8204 45.1825 60.6731 0.0000 0.0000 0.0000
# 2 45.1825 221.0835 65.9839 0.0000 0.0000 0.0000
# 3 60.6731 65.9839 156.0832 0.0000 0.0000 0.0000
# 4 0.0000 0.0000 0.0000 36.8093 0.0000 0.0000
# 5 0.0000 0.0000 0.0000 0.0000 15.6029 0.0000
# 6 0.0000 0.0000 0.0000 0.0000 0.0000 40.6924
#
#
#
# Elastic Compliance Matrix: (Units=1/GPa)
#
#
# Indices 1 2 3 4 5 6 
#
# 1 0.012157 -0.001229 -0.004206 0.000000 0.000000 0.000000
# 2 -0.001229 0.005301 -0.001763 0.000000 0.000000 0.000000
# 3 -0.004206 -0.001763 0.008787 0.000000 0.000000 0.000000
# 4 0.000000 0.000000 0.000000 0.027167 0.000000 0.000000
# 5 0.000000 0.000000 0.000000 0.000000 0.064091 0.000000
# 6 0.000000 0.000000 0.000000 0.000000 0.000000 0.024575
#
#
# Mechanical properties :
#
#
# Convention : Reuss Voigt Hill
#
# Bulk Modulus (GPa) = 84.40197 92.07402 88.23799
# Shear Modulus (GPa) = 31.16782 39.49744 35.33263
#
# Velocity S-wave (km/s) = 3.79835 4.27589 4.04418
# Velocity P-wave (km/s) = 7.63584 8.18526 7.91532
#
# Compressibility (1/GPa) = 0.01184806
#
# Stress axis : x y z
#
# Youngs Moduli (GPa) = 82.26042 188.65954 113.80345
#
# Poissons Ratio (x) = 0.23189 0.47865
# Poissons Ratio (y) = 0.10111 0.20064
# Poissons Ratio (z) = 0.34598 0.33261
#
# Static dielectric constant tensor:
#      x y z
#    x 1.663210 0.000000 0.000000 
#    y 0.000000 2.000750 0.000000 
#    z 0.000000 0.000000 1.751650 
# 
# From -- ./inp_files/24138.got.cif
#   From: 2010.05.17/outbox.cif.g08.bks.cpg/sg48_13_cif.got.tgz:24138.got - 2010.06.03 20:39:00.
