data_PCOD9391004
_publ_section_title
;
Structure prediction by ZEFSAII (Michael W. Deem and Ramdas Pophale) SiO2 
 PCOD9391004
Probable space group: P N N N
;
_chemical_formula_sum "Si O2"
_cell_formula_units_Z 48
_cell_length_a 18.350372
_cell_length_b 10.590182
_cell_length_c 10.938152
_cell_angle_alpha 90.000000
_cell_angle_beta 90.000000
_cell_angle_gamma 90.000000
_cell_volume 2125.652416
_symmetry_space_group_name_H-M "P N N N"
_symmetry_group_IT_number 48
_space_group.IT_coordinate_system_code '2'
_symmetry_cell_setting 'orthorhombic'
loop_
_space_group_symop_operation_xyz
x,y,z
1/2-x,1/2-y,z
x,1/2-y,1/2-z
1/2-x,y,1/2-z
-x,-y,-z
1/2+x,1/2+y,-z
-x,1/2+y,1/2+z
1/2+x,-y,1/2+z
loop_
_atom_site_type_symbol
_atom_site_label
_atom_site_fract_x
_atom_site_fract_y
_atom_site_fract_z
Si Si1 0.750000 0.534221 0.750000
Si Si2 0.298363 0.860468 0.462247
Si Si3 0.885151 0.250000 0.250000
Si Si4 0.631949 0.750000 0.750000
Si Si5 0.672186 0.992098 0.295436
Si Si6 0.993135 0.802770 0.577078
Si Si7 0.101811 0.750000 0.250000
Si Si8 0.023635 0.417271 0.818219
O O1 0.752980 0.445881 0.632366
O O2 0.681193 0.626431 0.744625
O O3 0.250000 0.750000 0.521900
O O4 0.325407 0.960495 0.563993
O O5 0.351466 0.780465 0.371320
O O6 0.839191 0.374231 0.226190
O O7 0.938085 0.272999 0.367545
O O8 0.578731 0.755272 0.635007
O O9 0.750000 0.937807 0.250000
O O10 0.599516 0.915505 0.256111
O O11 0.978285 0.825591 0.435894
O O12 0.008859 0.941281 0.634507
O O13 0.048478 0.629317 0.248836
#
# Coordination Sequence:
#
# PCOD9391004 Si02
#       8
#     4   8   4   4   8   8   4   8
#     4  11  23  40  60  98 123 169 228 264 350 385
#     4  12  24  42  68  97 133 174 224 286 342 399
#     4   9  17  37  59  97 121 170 222 274 326 390
#     4  10  22  37  65  92 128 172 216 284 320 408
#     4  11  24  39  62  96 132 175 220 274 339 409
#     4   9  19  38  63  91 131 167 221 269 328 399
#     4  12  23  42  65  96 130 174 224 288 329 398
#     4  10  23  38  63  95 128 179 219 269 340 394
#
# _framework density 22.581302000000001
#
# number of rings (size 3 to 8) (size 9 to 14) (size 15 to 20)
#    0.000    1.500    1.667    3.250    2.333    3.333 
#    0.000    0.417    0.000    0.000    0.000    0.000 
#    0.000    0.000    0.000    0.000    0.000    0.000 
#
# Total GULP energy -267911.016345 kJ/mol
# GULP energy per Si atom -5581.479507 kJ/mol
# Density = 2.252991 g / cm^3
# Si number density = 22.581302 Si / 1000 Ang^3
#
#
#
# Elastic Constant Matrix: (Units=GPa)
#
#
# Indices 1 2 3 4 5 6 
#
# 1 114.8673 26.6495 52.2336 0.0000 0.0000 0.0000
# 2 26.6495 54.6702 21.5663 0.0000 0.0000 0.0000
# 3 52.2336 21.5663 132.7674 0.0000 0.0000 0.0000
# 4 0.0000 0.0000 0.0000 30.5053 0.0000 0.0000
# 5 0.0000 0.0000 0.0000 0.0000 20.2618 0.0000
# 6 0.0000 0.0000 0.0000 0.0000 0.0000 38.5361
#
#
#
# Elastic Compliance Matrix: (Units=1/GPa)
#
#
# Indices 1 2 3 4 5 6 
#
# 1 0.011381 -0.004040 -0.003821 0.000000 0.000000 0.000000
# 2 -0.004040 0.020978 -0.001818 0.000000 0.000000 0.000000
# 3 -0.003821 -0.001818 0.009331 0.000000 0.000000 0.000000
# 4 0.000000 0.000000 0.000000 0.032781 0.000000 0.000000
# 5 0.000000 0.000000 0.000000 0.000000 0.049354 0.000000
# 6 0.000000 0.000000 0.000000 0.000000 0.000000 0.025950
#
#
# Mechanical properties :
#
#
# Convention : Reuss Voigt Hill
#
# Bulk Modulus (GPa) = 44.78183 55.91151 50.34667
# Shear Modulus (GPa) = 28.31633 31.31767 29.81700
#
# Velocity S-wave (km/s) = 3.54499 3.72813 3.63771
# Velocity P-wave (km/s) = 6.05230 6.58375 6.32361
#
# Compressibility (1/GPa) = 0.02233049
#
# Stress axis : x y z
#
# Youngs Moduli (GPa) = 87.86879 47.66866 107.17424
#
# Poissons Ratio (x) = 0.19259 0.40952
# Poissons Ratio (y) = 0.35501 0.19485
# Poissons Ratio (z) = 0.33575 0.08667
#
# Static dielectric constant tensor:
#      x y z
#    x 1.896830 0.000000 0.000000 
#    y 0.000000 1.882080 0.000000 
#    z 0.000000 0.000000 1.875300 
# 
# From -- ./inp_files/22191.got.cif
#   From: 2010.05.17/outbox.cif.g08.bks.cpg/sg48_12_cif.got.tgz:22191.got - 2010.06.03 20:39:00.
