data_PCOD9391976
_publ_section_title
;
Structure prediction by ZEFSAII (Michael W. Deem and Ramdas Pophale) SiO2 
 PCOD9391976
Probable space group: P C C M
;
_chemical_formula_sum "Si O2"
_cell_formula_units_Z 30
_cell_length_a 7.861615
_cell_length_b 20.067654
_cell_length_c 9.239463
_cell_angle_alpha 90.000000
_cell_angle_beta 90.000000
_cell_angle_gamma 90.000000
_cell_volume 1457.656209
_symmetry_space_group_name_H-M "P C C M"
_symmetry_group_IT_number 49
_symmetry_cell_setting 'orthorhombic'
loop_
_space_group_symop_operation_xyz
x,y,z
-x,-y,z
x,-y,1/2-z
-x,y,1/2-z
-x,-y,-z
x,y,-z
-x,y,1/2+z
x,-y,1/2+z
loop_
_atom_site_type_symbol
_atom_site_label
_atom_site_fract_x
_atom_site_fract_y
_atom_site_fract_z
Si Si1 0.000000 0.696486 0.250000
Si Si2 0.110495 0.789491 0.500000
Si Si3 0.304313 0.084864 0.000000
Si Si4 0.711899 0.000000 0.250000
Si Si5 0.730725 0.536861 0.000000
Si Si6 0.500000 0.500000 0.750000
Si Si7 0.906097 0.606397 0.500000
Si Si8 0.906627 0.919565 0.500000
O O1 0.102404 0.743829 0.359093
O O2 0.887667 0.650195 0.355719
O O3 0.275741 0.836954 0.500000
O O4 0.943518 0.839323 0.500000
O O5 0.379077 0.050449 0.860187
O O6 0.105534 0.060521 0.000000
O O7 0.816949 0.052052 0.145041
O O8 0.617358 0.543330 0.143132
O O9 0.794924 0.459944 0.000000
O O10 0.896715 0.582199 0.000000
#
# Coordination Sequence:
#
# PCOD9391976 Si02
#       8
#     4   4   4   4   4   2   4   4
#     4  10  18  29  38  61  76 122 150 200 202 284
#     4   9  18  22  32  46  76  97 146 184 258 233
#     4   9  15  18  28  38  62  88 123 190 229 284
#     4  10  13  18  26  42  52  86 134 166 254 266
#     4  10  20  36  52  82  92 132 138 202 226 294
#     4  10  20  32  56  78 112 104 152 178 260 262
#     4  10  20  33  54  65 102 122 172 168 238 276
#     4   9  15  18  28  38  62  88 123 190 229 284
#
# _framework density 20.580985999999999
#
# number of rings (size 3 to 8) (size 9 to 14) (size 15 to 20)
#    0.800    1.600    0.000    6.400    0.000    2.133 
#    0.000    0.000    0.000    0.000    0.000    0.000 
#    0.000    0.000    0.000    0.000    0.000    0.000 
#
# Total GULP energy -167077.353762 kJ/mol
# GULP energy per Si atom -5569.245125 kJ/mol
# Density = 2.053414 g / cm^3
# Si number density = 20.580986 Si / 1000 Ang^3
#
#
#
# Elastic Constant Matrix: (Units=GPa)
#
#
# Indices 1 2 3 4 5 6 
#
# 1 60.1171 16.4015 35.2215 0.0000 0.0000 0.0000
# 2 16.4015 125.2310 63.8530 0.0000 0.0000 0.0000
# 3 35.2215 63.8530 184.9857 0.0000 0.0000 0.0000
# 4 0.0000 0.0000 0.0000 27.7950 0.0000 0.0000
# 5 0.0000 0.0000 0.0000 0.0000 22.6716 0.0000
# 6 0.0000 0.0000 0.0000 0.0000 0.0000 13.6534
#
#
#
# Elastic Compliance Matrix: (Units=1/GPa)
#
#
# Indices 1 2 3 4 5 6 
#
# 1 0.018784 -0.000773 -0.003310 0.000000 0.000000 0.000000
# 2 -0.000773 0.009723 -0.003209 0.000000 0.000000 0.000000
# 3 -0.003310 -0.003209 0.007144 0.000000 0.000000 0.000000
# 4 0.000000 0.000000 0.000000 0.035978 0.000000 0.000000
# 5 0.000000 0.000000 0.000000 0.000000 0.044108 0.000000
# 6 0.000000 0.000000 0.000000 0.000000 0.000000 0.073242
#
#
# Mechanical properties :
#
#
# Convention : Reuss Voigt Hill
#
# Bulk Modulus (GPa) = 47.46581 66.80954 57.13767
# Shear Modulus (GPa) = 23.74357 29.81450 26.77904
#
# Velocity S-wave (km/s) = 3.40025 3.81023 3.61106
# Velocity P-wave (km/s) = 6.20714 7.20343 6.72376
#
# Compressibility (1/GPa) = 0.02106780
#
# Stress axis : x y z
#
# Youngs Moduli (GPa) = 53.23633 102.85311 139.98376
#
# Poissons Ratio (x) = 0.07945 0.46333
# Poissons Ratio (y) = 0.04113 0.44920
# Poissons Ratio (z) = 0.17621 0.33005
#
# Static dielectric constant tensor:
#      x y z
#    x 1.797110 0.000000 0.000000 
#    y 0.000000 1.773860 0.000000 
#    z 0.000000 0.000000 1.791130 
# 
# From -- ./inp_files/1656.got.cif
#   From: 2010.05.17/outbox.cif.g08.bks.cpg/sg49_1_cif.got.tgz:1656.got - 2010.06.03 21:02:19.
