data_PCOD9391481
_publ_section_title
;
Structure prediction by ZEFSAII (Michael W. Deem and Ramdas Pophale) SiO2 
 PCOD9391481
Probable space group: P N N N
;
_chemical_formula_sum "Si O2"
_cell_formula_units_Z 32
_cell_length_a 5.120023
_cell_length_b 15.301128
_cell_length_c 18.165583
_cell_angle_alpha 90.000000
_cell_angle_beta 90.000000
_cell_angle_gamma 90.000000
_cell_volume 1423.130416
_symmetry_space_group_name_H-M "P N N N"
_symmetry_group_IT_number 48
_space_group.IT_coordinate_system_code '2'
_symmetry_cell_setting 'orthorhombic'
loop_
_space_group_symop_operation_xyz
x,y,z
1/2-x,1/2-y,z
x,1/2-y,1/2-z
1/2-x,y,1/2-z
-x,-y,-z
1/2+x,1/2+y,-z
-x,1/2+y,1/2+z
1/2+x,-y,1/2+z
loop_
_atom_site_type_symbol
_atom_site_label
_atom_site_fract_x
_atom_site_fract_y
_atom_site_fract_z
Si Si1 0.750000 0.250000 0.250000
Si Si2 0.051113 0.169373 0.118961
Si Si3 0.250000 0.250000 0.750000
Si Si4 0.027378 0.976993 0.086232
Si Si5 0.250000 0.750000 0.493945
Si Si6 0.977400 0.639325 0.120152
O O1 0.580486 0.308754 0.196218
O O2 0.250000 0.250000 0.106879
O O3 0.850801 0.177157 0.050746
O O4 0.124917 0.068679 0.120904
O O5 0.421839 0.189369 0.803988
O O6 0.246939 0.908986 0.111419
O O7 0.752749 0.931248 0.107720
O O8 0.000000 0.000000 0.000000
O O9 0.018858 0.787440 0.443465
#
# Coordination Sequence:
#
# PCOD9391481 Si02
#       6
#     2   8   2   8   4   8
#     4  10  26  46  64 108 148 212 242 314 392 496
#     4  11  25  46  75 109 153 206 258 323 402 466
#     4  12  32  56  76 118 166 224 252 318 426 482
#     4  12  26  47  80 118 151 198 273 338 386 455
#     4  11  24  44  80 105 154 206 260 319 390 472
#     4  12  28  50  77 114 160 207 265 326 394 484
#
# _framework density 22.485641999999999
#
# number of rings (size 3 to 8) (size 9 to 14) (size 15 to 20)
#    0.000    0.500    2.500    4.125    8.750    5.500 
#    4.500    0.000    0.000    0.000    0.000    0.000 
#    0.000    0.000    0.000    0.000    0.000    0.000 
#
# Total GULP energy -178811.668759 kJ/mol
# GULP energy per Si atom -5587.864649 kJ/mol
# Density = 2.243446 g / cm^3
# Si number density = 22.485642 Si / 1000 Ang^3
#
#
#
# Elastic Constant Matrix: (Units=GPa)
#
#
# Indices 1 2 3 4 5 6 
#
# 1 101.6293 23.4390 29.7140 0.0000 0.0000 0.0000
# 2 23.4390 122.8315 46.5028 0.0000 0.0000 0.0000
# 3 29.7140 46.5028 162.5147 0.0000 0.0000 0.0000
# 4 0.0000 0.0000 0.0000 29.8176 0.0000 0.0000
# 5 0.0000 0.0000 0.0000 0.0000 52.0495 0.0000
# 6 0.0000 0.0000 0.0000 0.0000 0.0000 39.0349
#
#
#
# Elastic Compliance Matrix: (Units=1/GPa)
#
#
# Indices 1 2 3 4 5 6 
#
# 1 0.010620 -0.001448 -0.001527 0.000000 0.000000 0.000000
# 2 -0.001448 0.009328 -0.002404 0.000000 0.000000 0.000000
# 3 -0.001527 -0.002404 0.007121 0.000000 0.000000 0.000000
# 4 0.000000 0.000000 0.000000 0.033537 0.000000 0.000000
# 5 0.000000 0.000000 0.000000 0.000000 0.019212 0.000000
# 6 0.000000 0.000000 0.000000 0.000000 0.000000 0.025618
#
#
# Mechanical properties :
#
#
# Convention : Reuss Voigt Hill
#
# Bulk Modulus (GPa) = 61.31718 65.14300 63.23009
# Shear Modulus (GPa) = 41.10735 43.33505 42.22120
#
# Velocity S-wave (km/s) = 4.28034 4.39479 4.33794
# Velocity P-wave (km/s) = 7.19424 7.40176 7.29874
#
# Compressibility (1/GPa) = 0.01630864
#
# Stress axis : x y z
#
# Youngs Moduli (GPa) = 94.15953 107.20573 140.43891
#
# Poissons Ratio (x) = 0.15527 0.21450
# Poissons Ratio (y) = 0.13638 0.33766
# Poissons Ratio (z) = 0.14382 0.25776
#
# Static dielectric constant tensor:
#      x y z
#    x 1.806680 0.000000 0.000000 
#    y 0.000000 2.115480 0.000000 
#    z 0.000000 0.000000 1.812530 
# 
# From -- ./inp_files/3137.got.cif
#   From: 2010.05.17/outbox.cif.g08.bks.cpg/sg48_2_cif.got.tgz:3137.got - 2010.06.03 20:39:00.
