data_PCOD9391830
_publ_section_title
;
Structure prediction by ZEFSAII (Michael W. Deem and Ramdas Pophale) SiO2 
 PCOD9391830
Probable space group: P N N N
;
_chemical_formula_sum "Si O2"
_cell_formula_units_Z 56
_cell_length_a 14.514327
_cell_length_b 20.386198
_cell_length_c 8.776929
_cell_angle_alpha 90.000000
_cell_angle_beta 90.000000
_cell_angle_gamma 90.000000
_cell_volume 2597.022585
_symmetry_space_group_name_H-M "P N N N"
_symmetry_group_IT_number 48
_space_group.IT_coordinate_system_code '2'
_symmetry_cell_setting 'orthorhombic'
loop_
_space_group_symop_operation_xyz
x,y,z
1/2-x,1/2-y,z
x,1/2-y,1/2-z
1/2-x,y,1/2-z
-x,-y,-z
1/2+x,1/2+y,-z
-x,1/2+y,1/2+z
1/2+x,-y,1/2+z
loop_
_atom_site_type_symbol
_atom_site_label
_atom_site_fract_x
_atom_site_fract_y
_atom_site_fract_z
Si Si1 0.835805 0.568168 0.519890
Si Si2 0.511582 0.427288 0.240517
Si Si3 0.141880 0.926666 0.051867
Si Si4 0.472711 0.069840 0.769521
Si Si5 0.210981 0.186122 0.421107
Si Si6 0.342577 0.775292 0.424909
Si Si7 0.001633 0.180912 0.476697
O O1 0.909029 0.578868 0.661536
O O2 0.799808 0.493346 0.540002
O O3 0.896527 0.576678 0.365390
O O4 0.751617 0.618701 0.513693
O O5 0.533136 0.495143 0.329875
O O6 0.536296 0.366486 0.345880
O O7 0.578814 0.428844 0.097483
O O8 0.174312 0.852929 0.069756
O O9 0.071797 0.934204 0.190213
O O10 0.478373 0.132242 0.879759
O O11 0.250000 0.250000 0.505225
O O12 0.250000 0.185052 0.250000
O O13 0.103097 0.198331 0.421002
O O14 0.250000 0.750000 0.503431
O O15 0.345022 0.750000 0.250000
O O16 0.435357 0.742725 0.492856
#
# Coordination Sequence:
#
# PCOD9391830 Si02
#       7
#     8   8   8   8   8   8   8
#     4   9  19  42  63  91 131 175 215 257 328 412
#     4   9  19  37  66  94 123 169 213 268 330 388
#     4   9  19  41  68  86 124 177 215 265 330 404
#     4   9  19  37  64  94 127 165 223 265 322 399
#     4  11  25  40  61  98 136 172 215 266 339 406
#     4  11  25  45  64  96 130 170 228 286 346 393
#     4  12  23  39  67  95 131 169 214 289 324 398
#
# _framework density 21.563155999999999
#
# number of rings (size 3 to 8) (size 9 to 14) (size 15 to 20)
#    0.000    2.000    2.857    2.143    4.000    1.143 
#    7.714    2.143    0.000    0.000    0.000    0.000 
#    0.000    0.000    0.000    0.000    0.000    0.000 
#
# Total GULP energy -311939.507953 kJ/mol
# GULP energy per Si atom -5570.348356 kJ/mol
# Density = 2.151408 g / cm^3
# Si number density = 21.563156 Si / 1000 Ang^3
#
#
#
# Elastic Constant Matrix: (Units=GPa)
#
#
# Indices 1 2 3 4 5 6 
#
# 1 84.6217 35.4417 -2.4172 0.0000 0.0000 0.0000
# 2 35.4417 147.8428 -5.0757 0.0000 0.0000 0.0000
# 3 -2.4172 -5.0757 35.1476 0.0000 0.0000 0.0000
# 4 0.0000 0.0000 0.0000 21.4655 0.0000 0.0000
# 5 0.0000 0.0000 0.0000 0.0000 1.1386 0.0000
# 6 0.0000 0.0000 0.0000 0.0000 0.0000 9.4799
#
#
#
# Elastic Compliance Matrix: (Units=1/GPa)
#
#
# Indices 1 2 3 4 5 6 
#
# 1 0.013143 -0.003135 0.000451 0.000000 0.000000 0.000000
# 2 -0.003135 0.007546 0.000874 0.000000 0.000000 0.000000
# 3 0.000451 0.000874 0.028609 0.000000 0.000000 0.000000
# 4 0.000000 0.000000 0.000000 0.046586 0.000000 0.000000
# 5 0.000000 0.000000 0.000000 0.000000 0.878239 0.000000
# 6 0.000000 0.000000 0.000000 0.000000 0.000000 0.105487
#
#
# Mechanical properties :
#
#
# Convention : Reuss Voigt Hill
#
# Bulk Modulus (GPa) = 21.89271 35.94551 28.91911
# Shear Modulus (GPa) = 4.55185 22.39435 13.47310
#
# Velocity S-wave (km/s) = 1.45448 3.22615 2.50235
# Velocity P-wave (km/s) = 3.60494 5.53023 4.66792
#
# Compressibility (1/GPa) = 0.04567730
#
# Stress axis : x y z
#
# Youngs Moduli (GPa) = 76.08419 132.52820 34.95445
#
# Poissons Ratio (x) = 0.41552 -0.01577
# Poissons Ratio (y) = 0.23855 -0.03055
# Poissons Ratio (z) = -0.03432 -0.11584
#
# Static dielectric constant tensor:
#      x y z
#    x 1.792340 0.000000 0.000000 
#    y 0.000000 1.948910 0.000000 
#    z 0.000000 0.000000 1.792900 
# 
# From -- ./inp_files/13086.got.cif
#   From: 2010.05.17/outbox.cif.g08.bks.cpg/sg48_7_cif.got.tgz:13086.got - 2010.06.03 20:39:00.
