data_PCOD9391106
_publ_section_title
;
Structure prediction by ZEFSAII (Michael W. Deem and Ramdas Pophale) SiO2 
 PCOD9391106
Probable space group: P N N N
;
_chemical_formula_sum "Si O2"
_cell_formula_units_Z 32
_cell_length_a 19.977306
_cell_length_b 8.453342
_cell_length_c 8.243507
_cell_angle_alpha 90.000000
_cell_angle_beta 90.000000
_cell_angle_gamma 90.000000
_cell_volume 1392.122243
_symmetry_space_group_name_H-M "P N N N"
_symmetry_group_IT_number 48
_space_group.IT_coordinate_system_code '2'
_symmetry_cell_setting 'orthorhombic'
loop_
_space_group_symop_operation_xyz
x,y,z
1/2-x,1/2-y,z
x,1/2-y,1/2-z
1/2-x,y,1/2-z
-x,-y,-z
1/2+x,1/2+y,-z
-x,1/2+y,1/2+z
1/2+x,-y,1/2+z
loop_
_atom_site_type_symbol
_atom_site_label
_atom_site_fract_x
_atom_site_fract_y
_atom_site_fract_z
Si Si1 0.870269 0.136112 0.089290
Si Si2 0.481444 0.060462 0.749220
Si Si3 0.600264 0.447126 0.561230
Si Si4 0.252233 0.066167 0.054260
O O1 0.859241 0.250000 0.250000
O O2 0.934824 0.023845 0.116815
O O3 0.890213 0.259390 0.950097
O O4 0.804867 0.036451 0.036055
O O5 0.478581 0.250000 0.750000
O O6 0.558240 0.005158 0.779283
O O7 0.443635 0.004562 0.911233
O O8 0.672978 0.511444 0.523167
O O9 0.250000 0.250000 0.008247
O O10 0.250000 0.051337 0.250000
#
# Coordination Sequence:
#
# PCOD9391106 Si02
#       4
#     8   8   8   8
#     4  10  23  44  70  99 132 183 231 282 338 410
#     4  10  22  41  65  97 132 177 224 281 336 401
#     4  10  23  42  63 101 132 171 230 279 339 403
#     4  11  25  45  68 100 138 179 224 285 347 408
#
# _framework density 22.986487
#
# number of rings (size 3 to 8) (size 9 to 14) (size 15 to 20)
#    0.000    1.750    0.000    2.250    3.500    9.000 
#   22.500    6.250    0.000    0.000    0.000    0.000 
#    0.000    0.000    0.000    0.000    0.000    0.000 
#
# Total GULP energy -178633.959990 kJ/mol
# GULP energy per Si atom -5582.311250 kJ/mol
# Density = 2.293417 g / cm^3
# Si number density = 22.986487 Si / 1000 Ang^3
#
#
#
# Elastic Constant Matrix: (Units=GPa)
#
#
# Indices 1 2 3 4 5 6 
#
# 1 199.3507 84.9849 49.5265 0.0000 0.0000 0.0000
# 2 84.9849 135.3693 28.1111 0.0000 0.0000 0.0000
# 3 49.5265 28.1111 64.8540 0.0000 0.0000 0.0000
# 4 0.0000 0.0000 0.0000 29.3783 0.0000 0.0000
# 5 0.0000 0.0000 0.0000 0.0000 48.1954 0.0000
# 6 0.0000 0.0000 0.0000 0.0000 0.0000 28.3904
#
#
#
# Elastic Compliance Matrix: (Units=1/GPa)
#
#
# Indices 1 2 3 4 5 6 
#
# 1 0.007765 -0.004004 -0.004195 0.000000 0.000000 0.000000
# 2 -0.004004 0.010183 -0.001356 0.000000 0.000000 0.000000
# 3 -0.004195 -0.001356 0.019210 0.000000 0.000000 0.000000
# 4 0.000000 0.000000 0.000000 0.034039 0.000000 0.000000
# 5 0.000000 0.000000 0.000000 0.000000 0.020749 0.000000
# 6 0.000000 0.000000 0.000000 0.000000 0.000000 0.035223
#
#
# Mechanical properties :
#
#
# Convention : Reuss Voigt Hill
#
# Bulk Modulus (GPa) = 55.40447 80.53544 67.96996
# Shear Modulus (GPa) = 32.83123 36.98959 34.91041
#
# Velocity S-wave (km/s) = 3.78336 4.01582 3.90132
# Velocity P-wave (km/s) = 6.57575 7.52426 7.06594
#
# Compressibility (1/GPa) = 0.01804908
#
# Stress axis : x y z
#
# Youngs Moduli (GPa) = 128.77762 98.20767 52.05576
#
# Poissons Ratio (x) = 0.39323 0.21835
# Poissons Ratio (y) = 0.51563 0.07058
# Poissons Ratio (z) = 0.54016 0.13316
#
# Static dielectric constant tensor:
#      x y z
#    x 2.002470 0.000000 0.000000 
#    y 0.000000 1.621370 0.000000 
#    z 0.000000 0.000000 1.918110 
# 
# From -- ./inp_files/8620.got.cif
#   From: 2010.05.17/outbox.cif.g08.bks.cpg/sg48_5_cif.got.tgz:8620.got - 2010.06.03 20:39:00.
