data_PCOD9391989
_publ_section_title
;
Structure prediction by ZEFSAII (Michael W. Deem and Ramdas Pophale) SiO2 
 PCOD9391989
Probable space group: P C C M
;
_chemical_formula_sum "Si O2"
_cell_formula_units_Z 56
_cell_length_a 13.995002
_cell_length_b 30.423236
_cell_length_c 8.709610
_cell_angle_alpha 90.000000
_cell_angle_beta 90.000000
_cell_angle_gamma 90.000000
_cell_volume 3708.318944
_symmetry_space_group_name_H-M "P C C M"
_symmetry_group_IT_number 49
_symmetry_cell_setting 'orthorhombic'
loop_
_space_group_symop_operation_xyz
x,y,z
-x,-y,z
x,-y,1/2-z
-x,y,1/2-z
-x,-y,-z
x,y,-z
-x,y,1/2+z
x,-y,1/2+z
loop_
_atom_site_type_symbol
_atom_site_label
_atom_site_fract_x
_atom_site_fract_y
_atom_site_fract_z
Si Si1 0.210568 0.546663 0.683805
Si Si2 0.607938 0.134670 0.815701
Si Si3 0.395125 0.591478 0.183808
Si Si4 0.391390 0.045056 0.183571
Si Si5 0.895876 0.635547 0.816519
Si Si6 0.713465 0.319132 0.184916
Si Si7 0.392959 0.231678 0.315025
O O1 0.179626 0.500000 0.750000
O O2 0.214242 0.544874 0.500000
O O3 0.315238 0.559152 0.747791
O O4 0.141277 0.586824 0.730054
O O5 0.500000 0.136643 0.750000
O O6 0.652894 0.090973 0.741842
O O7 0.647653 0.183097 0.777041
O O8 0.604939 0.129532 0.000000
O O9 0.500000 0.583745 0.250000
O O10 0.358596 0.640812 0.224075
O O11 0.396324 0.587479 0.000000
O O12 0.500000 0.045746 0.250000
O O13 0.347677 0.000000 0.250000
O O14 0.394980 0.043652 0.000000
O O15 0.815269 0.668737 0.755890
O O16 0.000000 0.644150 0.750000
O O17 0.898606 0.637110 0.000000
O O18 0.670606 0.272675 0.236856
O O19 0.722306 0.318552 0.000000
O O20 0.500000 0.235767 0.250000
O O21 0.399975 0.233548 0.500000
#
# Coordination Sequence:
#
# PCOD9391989 Si02
#       7
#     8   8   8   8   8   8   8
#     4  10  21  36  52  71  93 115 142 172 206 246
#     4   9  15  23  33  48  71  99 133 171 210 249
#     4  10  19  31  48  68  92 120 148 177 208 243
#     4  10  16  22  31  43  61  89 128 173 217 254
#     4  10  21  36  54  73  91 112 137 170 208 250
#     4   9  18  32  48  67  90 115 143 175 210 250
#     4   9  17  27  41  61  86 115 144 176 213 251
#
# _framework density 15.101182
#
# number of rings (size 3 to 8) (size 9 to 14) (size 15 to 20)
#    0.000    2.429    0.000    4.714    0.000    4.000 
#    0.000    2.857    0.000    0.000    0.000    0.000 
#    0.000    0.000    0.000    0.000    0.000    0.714 
#
# Total GULP energy -312103.919611 kJ/mol
# GULP energy per Si atom -5573.284279 kJ/mol
# Density = 1.506681 g / cm^3
# Si number density = 15.101182 Si / 1000 Ang^3
#
#
#
# Elastic Constant Matrix: (Units=GPa)
#
#
# Indices 1 2 3 4 5 6 
#
# 1 57.7659 26.3315 13.5588 0.0000 0.0000 0.0000
# 2 26.3315 129.1888 32.7497 0.0000 0.0000 0.0000
# 3 13.5588 32.7497 50.2540 0.0000 0.0000 0.0000
# 4 0.0000 0.0000 0.0000 24.1476 0.0000 0.0000
# 5 0.0000 0.0000 0.0000 0.0000 14.5371 0.0000
# 6 0.0000 0.0000 0.0000 0.0000 0.0000 7.8329
#
#
#
# Elastic Compliance Matrix: (Units=1/GPa)
#
#
# Indices 1 2 3 4 5 6 
#
# 1 0.019505 -0.003164 -0.003200 0.000000 0.000000 0.000000
# 2 -0.003164 0.009786 -0.005524 0.000000 0.000000 0.000000
# 3 -0.003200 -0.005524 0.024362 0.000000 0.000000 0.000000
# 4 0.000000 0.000000 0.000000 0.041412 0.000000 0.000000
# 5 0.000000 0.000000 0.000000 0.000000 0.068789 0.000000
# 6 0.000000 0.000000 0.000000 0.000000 0.000000 0.127666
#
#
# Mechanical properties :
#
#
# Convention : Reuss Voigt Hill
#
# Bulk Modulus (GPa) = 33.47139 42.49874 37.98507
# Shear Modulus (GPa) = 15.37254 20.27479 17.82367
#
# Velocity S-wave (km/s) = 3.19402 3.66812 3.43925
# Velocity P-wave (km/s) = 5.98459 6.79293 6.40153
#
# Compressibility (1/GPa) = 0.02987626
#
# Stress axis : x y z
#
# Youngs Moduli (GPa) = 51.26952 102.18931 41.04759
#
# Poissons Ratio (x) = 0.32334 0.13137
# Poissons Ratio (y) = 0.16223 0.22673
# Poissons Ratio (z) = 0.16408 0.56444
#
# Static dielectric constant tensor:
#      x y z
#    x 1.453890 0.000000 0.000000 
#    y 0.000000 1.560840 0.000000 
#    z 0.000000 0.000000 1.502090 
# 
# From -- ./inp_files/4487.got.cif
#   From: 2010.05.17/outbox.cif.g08.bks.cpg/sg49_3_cif.got.tgz:4487.got - 2010.06.03 21:02:19.
