data_PCOD9391706
_publ_section_title
;
Structure prediction by ZEFSAII (Michael W. Deem and Ramdas Pophale) SiO2 
 PCOD9391706
Probable space group: P N N N
;
_chemical_formula_sum "Si O2"
_cell_formula_units_Z 40
_cell_length_a 7.464249
_cell_length_b 33.947528
_cell_length_c 8.836347
_cell_angle_alpha 90.000000
_cell_angle_beta 90.000000
_cell_angle_gamma 90.000000
_cell_volume 2239.066725
_symmetry_space_group_name_H-M "P N N N"
_symmetry_group_IT_number 48
_space_group.IT_coordinate_system_code '2'
_symmetry_cell_setting 'orthorhombic'
loop_
_space_group_symop_operation_xyz
x,y,z
1/2-x,1/2-y,z
x,1/2-y,1/2-z
1/2-x,y,1/2-z
-x,-y,-z
1/2+x,1/2+y,-z
-x,1/2+y,1/2+z
1/2+x,-y,1/2+z
loop_
_atom_site_type_symbol
_atom_site_label
_atom_site_fract_x
_atom_site_fract_y
_atom_site_fract_z
Si Si1 0.955502 0.750000 0.433914
Si Si2 0.039747 0.457387 0.928438
Si Si3 0.750000 0.186364 0.933170
Si Si4 0.460253 0.042613 0.571562
Si Si5 0.750000 0.400394 0.069710
O O1 0.750000 0.750000 0.487946
O O2 0.950349 0.750000 0.250000
O O3 0.074741 0.712021 0.476961
O O4 0.074741 0.787979 0.476961
O O5 0.996787 0.458559 0.750000
O O6 0.250000 0.449058 0.945313
O O7 0.000000 0.500000 0.000000
O O8 0.920351 0.424607 0.008563
O O9 0.750000 0.182956 0.750000
O O10 0.750000 0.143644 0.005699
O O11 0.579649 0.075393 0.491437
O O12 0.500000 0.000000 0.500000
O O13 0.750000 0.400216 0.250000
#
# Coordination Sequence:
#
# PCOD9391706 Si02
#       5
#     8   8   8   8   8
#     4   8  15  31  58  86 112 144 184 235 292 347
#     4  11  23  39  61  85 111 148 195 246 298 348
#     4   9  18  34  56  84 114 146 190 240 287 341
#     4  11  23  39  61  85 111 148 195 246 298 348
#     4  12  25  39  57  84 122 162 198 241 289 346
#
# _framework density 17.864585999999999
#
# number of rings (size 3 to 8) (size 9 to 14) (size 15 to 20)
#    0.000    1.800    2.000    4.200    0.000    4.000 
#    0.000    6.000    0.000    1.200    0.000    0.000 
#    0.000    0.000    0.000    0.000    0.000    0.000 
#
# Total GULP energy -223395.089100 kJ/mol
# GULP energy per Si atom -5584.877227 kJ/mol
# Density = 1.782393 g / cm^3
# Si number density = 17.864586 Si / 1000 Ang^3
#
#
#
# Elastic Constant Matrix: (Units=GPa)
#
#
# Indices 1 2 3 4 5 6 
#
# 1 156.6981 99.5025 69.9322 0.0000 0.0000 0.0000
# 2 99.5025 201.9248 80.2298 0.0000 0.0000 0.0000
# 3 69.9322 80.2298 108.5565 0.0000 0.0000 0.0000
# 4 0.0000 0.0000 0.0000 34.1745 0.0000 0.0000
# 5 0.0000 0.0000 0.0000 0.0000 19.4099 0.0000
# 6 0.0000 0.0000 0.0000 0.0000 0.0000 15.7628
#
#
#
# Elastic Compliance Matrix: (Units=1/GPa)
#
#
# Indices 1 2 3 4 5 6 
#
# 1 0.010458 -0.003506 -0.004146 0.000000 0.000000 0.000000
# 2 -0.003506 0.008187 -0.003792 0.000000 0.000000 0.000000
# 3 -0.004146 -0.003792 0.014685 0.000000 0.000000 0.000000
# 4 0.000000 0.000000 0.000000 0.029262 0.000000 0.000000
# 5 0.000000 0.000000 0.000000 0.000000 0.051520 0.000000
# 6 0.000000 0.000000 0.000000 0.000000 0.000000 0.063440
#
#
# Mechanical properties :
#
#
# Convention : Reuss Voigt Hill
#
# Bulk Modulus (GPa) = 95.76601 107.38985 101.57793
# Shear Modulus (GPa) = 24.51933 28.37044 26.44488
#
# Velocity S-wave (km/s) = 3.70876 3.98940 3.85164
# Velocity P-wave (km/s) = 8.48898 9.02575 8.76148
#
# Compressibility (1/GPa) = 0.01044212
#
# Stress axis : x y z
#
# Youngs Moduli (GPa) = 95.61607 122.14972 68.09713
#
# Poissons Ratio (x) = 0.42830 0.28233
# Poissons Ratio (y) = 0.33526 0.25820
# Poissons Ratio (z) = 0.39642 0.46315
#
# Static dielectric constant tensor:
#      x y z
#    x 1.613980 0.000000 0.000000 
#    y 0.000000 1.568490 0.000000 
#    z 0.000000 0.000000 1.596690 
# 
# From -- ./inp_files/9327.got.cif
#   From: 2010.05.17/outbox.cif.g08.bks.cpg/sg48_5_cif.got.tgz:9327.got - 2010.06.03 20:39:00.
