data_PCOD9391923
_publ_section_title
;
Structure prediction by ZEFSAII (Michael W. Deem and Ramdas Pophale) SiO2 
 PCOD9391923
Probable space group: P N N N
;
_chemical_formula_sum "Si O2"
_cell_formula_units_Z 22
_cell_length_a 14.092544
_cell_length_b 4.797484
_cell_length_c 12.466346
_cell_angle_alpha 90.000000
_cell_angle_beta 90.000000
_cell_angle_gamma 90.000000
_cell_volume 842.834124
_symmetry_space_group_name_H-M "P N N N"
_symmetry_group_IT_number 48
_space_group.IT_coordinate_system_code '2'
_symmetry_cell_setting 'orthorhombic'
loop_
_space_group_symop_operation_xyz
x,y,z
1/2-x,1/2-y,z
x,1/2-y,1/2-z
1/2-x,y,1/2-z
-x,-y,-z
1/2+x,1/2+y,-z
-x,1/2+y,1/2+z
1/2+x,-y,1/2+z
loop_
_atom_site_type_symbol
_atom_site_label
_atom_site_fract_x
_atom_site_fract_y
_atom_site_fract_z
Si Si1 0.750000 0.750000 0.750000
Si Si2 0.443111 0.250000 0.750000
Si Si3 0.651180 0.926791 0.452710
Si Si4 0.896949 0.461351 0.906018
O O1 0.814739 0.559421 0.824886
O O2 0.379973 0.059885 0.671025
O O3 0.514473 0.404708 0.670253
O O4 0.750000 0.750000 0.455455
O O5 0.581466 0.725349 0.519515
O O6 0.642011 0.213237 0.518173
#
# Coordination Sequence:
#
# PCOD9391923 Si02
#       4
#     2   4   8   8
#     4  12  28  54  82 122 152 220 266 348 390 478
#     4  12  29  51  78 122 160 210 256 343 403 466
#     4  12  28  51  80 116 159 210 263 327 399 487
#     4  12  28  49  81 114 157 206 272 323 397 476
#
# _framework density 26.102406999999999
#
# number of rings (size 3 to 8) (size 9 to 14) (size 15 to 20)
#    0.000    0.000    1.818    6.000    5.091    8.727 
#    0.000    3.636    0.000    0.000    0.000    0.000 
#    0.000    0.000    0.000    0.000    0.000    0.000 
#
# Total GULP energy -123373.620794 kJ/mol
# GULP energy per Si atom -5607.891854 kJ/mol
# Density = 2.604300 g / cm^3
# Si number density = 26.102407 Si / 1000 Ang^3
#
#
#
# Elastic Constant Matrix: (Units=GPa)
#
#
# Indices 1 2 3 4 5 6 
#
# 1 103.7577 37.9184 77.5565 0.0000 0.0000 0.0000
# 2 37.9184 181.6211 91.6475 0.0000 0.0000 0.0000
# 3 77.5565 91.6475 239.3512 0.0000 0.0000 0.0000
# 4 0.0000 0.0000 0.0000 46.9184 0.0000 0.0000
# 5 0.0000 0.0000 0.0000 0.0000 -27.2711 0.0000
# 6 0.0000 0.0000 0.0000 0.0000 0.0000 27.5575
#
#
#
# Elastic Compliance Matrix: (Units=1/GPa)
#
#
# Indices 1 2 3 4 5 6 
#
# 1 0.012793 -0.000718 -0.003871 0.000000 0.000000 0.000000
# 2 -0.000718 0.006865 -0.002396 0.000000 0.000000 0.000000
# 3 -0.003871 -0.002396 0.006350 0.000000 0.000000 0.000000
# 4 0.000000 0.000000 0.000000 0.021314 0.000000 0.000000
# 5 0.000000 0.000000 0.000000 0.000000 -0.036669 0.000000
# 6 0.000000 0.000000 0.000000 0.000000 0.000000 0.036288
#
#
# Mechanical properties :
#
#
# Convention : Reuss Voigt Hill
#
# Bulk Modulus (GPa) = 83.06310 104.33052 93.69681
# Shear Modulus (GPa) = 77.01566 30.61479 53.81523
#
# Velocity S-wave (km/s) = 5.43776 3.42844 4.54552
# Velocity P-wave (km/s) = 8.44492 7.46517 7.97012
#
# Compressibility (1/GPa) = 0.01203904
#
# Stress axis : x y z
#
# Youngs Moduli (GPa) = 78.16591 145.66947 157.49207
#
# Poissons Ratio (x) = 0.10457 0.60958
# Poissons Ratio (y) = 0.05611 0.37734
# Poissons Ratio (z) = 0.30254 0.34902
#
# Static dielectric constant tensor:
#      x y z
#    x 2.236780 0.000000 0.000000 
#    y 0.000000 2.058900 0.000000 
#    z 0.000000 0.000000 2.094470 
# 
# From -- ./inp_files/25883.got.cif
#   From: 2010.05.17/outbox.cif.g08.bks.cpg/sg48_13_cif.got.tgz:25883.got - 2010.06.03 20:39:00.
