data_PCOD9391240
_publ_section_title
;
Structure prediction by ZEFSAII (Michael W. Deem and Ramdas Pophale) SiO2 
 PCOD9391240
Probable space group: P N N N
;
_chemical_formula_sum "Si O2"
_cell_formula_units_Z 48
_cell_length_a 26.695593
_cell_length_b 15.880846
_cell_length_c 5.146327
_cell_angle_alpha 90.000000
_cell_angle_beta 90.000000
_cell_angle_gamma 90.000000
_cell_volume 2181.778134
_symmetry_space_group_name_H-M "P N N N"
_symmetry_group_IT_number 48
_space_group.IT_coordinate_system_code '2'
_symmetry_cell_setting 'orthorhombic'
loop_
_space_group_symop_operation_xyz
x,y,z
1/2-x,1/2-y,z
x,1/2-y,1/2-z
1/2-x,y,1/2-z
-x,-y,-z
1/2+x,1/2+y,-z
-x,1/2+y,1/2+z
1/2+x,-y,1/2+z
loop_
_atom_site_type_symbol
_atom_site_label
_atom_site_fract_x
_atom_site_fract_y
_atom_site_fract_z
Si Si1 0.065318 0.661718 0.885056
Si Si2 0.307750 0.210977 0.497326
Si Si3 0.047811 0.548887 0.386312
Si Si4 0.181556 0.696084 0.000166
Si Si5 0.150558 0.034148 0.169651
Si Si6 0.697529 0.019987 0.187555
O O1 0.046442 0.750000 0.750000
O O2 0.066328 0.602344 0.633880
O O3 0.121575 0.678029 0.990464
O O4 0.040482 0.610615 0.131828
O O5 0.250000 0.250000 0.496864
O O6 0.331106 0.250000 0.750000
O O7 0.321670 0.114000 0.461816
O O8 0.333396 0.250000 0.250000
O O9 0.091242 0.480584 0.323813
O O10 0.000000 0.500000 0.500000
O O11 0.193208 0.750000 0.750000
O O12 0.207722 0.606837 0.963592
O O13 0.193407 0.750000 0.250000
O O14 0.167895 0.030736 0.467669
O O15 0.170333 0.964178 0.962181
O O16 0.750000 0.977516 0.250000
#
# Coordination Sequence:
#
# PCOD9391240 Si02
#       6
#     8   8   8   8   8   8
#     4  11  22  42  71 103 136 186 244 296 359 453
#     4  10  23  40  65  94 126 177 229 283 358 437
#     4  12  24  44  71 105 140 189 242 310 382 443
#     4  11  21  39  66  91 137 183 228 282 343 411
#     4  12  24  45  66  98 143 177 239 299 353 442
#     4  12  26  40  65 101 135 183 230 283 355 421
#
# _framework density 22.000402999999999
#
# number of rings (size 3 to 8) (size 9 to 14) (size 15 to 20)
#    0.000    0.667    3.333    5.500    7.000    0.333 
#    0.000    3.333    0.000    0.000    0.000    0.000 
#    0.000    0.000    0.000    0.000    0.000    0.000 
#
# Total GULP energy -267464.308824 kJ/mol
# GULP energy per Si atom -5572.173101 kJ/mol
# Density = 2.195033 g / cm^3
# Si number density = 22.000403 Si / 1000 Ang^3
#
#
#
# Elastic Constant Matrix: (Units=GPa)
#
#
# Indices 1 2 3 4 5 6 
#
# 1 107.5108 36.4686 32.9131 0.0000 0.0000 0.0000
# 2 36.4686 91.2357 22.4034 0.0000 0.0000 0.0000
# 3 32.9131 22.4034 177.6328 0.0000 0.0000 0.0000
# 4 0.0000 0.0000 0.0000 35.7089 0.0000 0.0000
# 5 0.0000 0.0000 0.0000 0.0000 37.7276 0.0000
# 6 0.0000 0.0000 0.0000 0.0000 0.0000 13.6966
#
#
#
# Elastic Compliance Matrix: (Units=1/GPa)
#
#
# Indices 1 2 3 4 5 6 
#
# 1 0.011161 -0.004080 -0.001553 0.000000 0.000000 0.000000
# 2 -0.004080 0.012802 -0.000859 0.000000 0.000000 0.000000
# 3 -0.001553 -0.000859 0.006026 0.000000 0.000000 0.000000
# 4 0.000000 0.000000 0.000000 0.028004 0.000000 0.000000
# 5 0.000000 0.000000 0.000000 0.000000 0.026506 0.000000
# 6 0.000000 0.000000 0.000000 0.000000 0.000000 0.073011
#
#
# Mechanical properties :
#
#
# Convention : Reuss Voigt Hill
#
# Bulk Modulus (GPa) = 58.80610 62.21661 60.51136
# Shear Modulus (GPa) = 28.38303 36.39959 32.39131
#
# Velocity S-wave (km/s) = 3.59571 4.07196 3.84123
# Velocity P-wave (km/s) = 6.63524 7.10275 6.87297
#
# Compressibility (1/GPa) = 0.01700504
#
# Stress axis : x y z
#
# Youngs Moduli (GPa) = 89.59904 78.11138 165.95517
#
# Poissons Ratio (x) = 0.31867 0.25780
# Poissons Ratio (y) = 0.36554 0.14251
# Poissons Ratio (z) = 0.13918 0.06708
#
# Static dielectric constant tensor:
#      x y z
#    x 1.803190 0.000000 0.000000 
#    y 0.000000 1.877130 0.000000 
#    z 0.000000 0.000000 1.852230 
# 
# From -- ./inp_files/6469.got.cif
#   From: 2010.05.17/outbox.cif.g08.bks.cpg/sg48_4_cif.got.tgz:6469.got - 2010.06.03 20:39:00.
