data_PCOD9391296
_publ_section_title
;
Structure prediction by ZEFSAII (Michael W. Deem and Ramdas Pophale) SiO2 
 PCOD9391296
Probable space group: P N N N
;
_chemical_formula_sum "Si O2"
_cell_formula_units_Z 52
_cell_length_a 15.185082
_cell_length_b 8.451479
_cell_length_c 19.699559
_cell_angle_alpha 90.000000
_cell_angle_beta 90.000000
_cell_angle_gamma 90.000000
_cell_volume 2528.170516
_symmetry_space_group_name_H-M "P N N N"
_symmetry_group_IT_number 48
_space_group.IT_coordinate_system_code '2'
_symmetry_cell_setting 'orthorhombic'
loop_
_space_group_symop_operation_xyz
x,y,z
1/2-x,1/2-y,z
x,1/2-y,1/2-z
1/2-x,y,1/2-z
-x,-y,-z
1/2+x,1/2+y,-z
-x,1/2+y,1/2+z
1/2+x,-y,1/2+z
loop_
_atom_site_type_symbol
_atom_site_label
_atom_site_fract_x
_atom_site_fract_y
_atom_site_fract_z
Si Si1 0.892467 0.569561 0.947127
Si Si2 0.943493 0.574568 0.231420
Si Si3 0.651164 0.200539 0.854034
Si Si4 0.250000 0.750000 0.630159
Si Si5 0.616673 0.992774 0.718494
Si Si6 0.250000 0.250000 0.145005
Si Si7 0.414362 0.920837 0.915378
Si Si8 0.250000 0.998521 0.750000
O O1 0.894315 0.394671 0.913658
O O2 0.815529 0.654141 0.904909
O O3 0.989013 0.642891 0.935835
O O4 0.880338 0.541326 0.026738
O O5 0.978158 0.750000 0.250000
O O6 0.932620 0.517682 0.153977
O O7 0.843930 0.578888 0.256649
O O8 0.015214 0.453008 0.263459
O O9 0.750000 0.250000 0.871042
O O10 0.650819 0.083150 0.787505
O O11 0.610297 0.369239 0.836990
O O12 0.340664 0.716112 0.590893
O O13 0.250299 0.895496 0.681905
O O14 0.683546 0.860066 0.690230
#
# Coordination Sequence:
#
# PCOD9391296 Si02
#       8
#     8   8   8   4   8   4   8   4
#     4  11  24  43  64  90 135 169 218 258 327 410
#     4  11  20  41  66  94 122 170 217 280 329 384
#     4  11  21  40  62  91 125 177 209 251 326 417
#     4   9  20  40  62  88 120 159 222 266 328 371
#     4  11  22  38  64  98 136 162 213 268 338 394
#     4  12  28  39  62 110 133 166 202 288 337 384
#     4  10  23  43  65  88 122 180 215 260 324 407
#     4   9  21  36  60  96 119 153 216 286 324 372
#
# _framework density 20.568232999999999
#
# number of rings (size 3 to 8) (size 9 to 14) (size 15 to 20)
#    0.000    1.385    4.615    1.154    3.231    1.231 
#    5.538    0.000    0.000    3.692    0.000    0.000 
#    0.000    0.000    0.000    0.000    0.000    0.000 
#
# Total GULP energy -289587.189482 kJ/mol
# GULP energy per Si atom -5568.984413 kJ/mol
# Density = 2.052142 g / cm^3
# Si number density = 20.568233 Si / 1000 Ang^3
#
#
#
# Elastic Constant Matrix: (Units=GPa)
#
#
# Indices 1 2 3 4 5 6 
#
# 1 184.5472 49.9493 39.6525 0.0000 0.0000 0.0000
# 2 49.9493 70.8926 28.5465 0.0000 0.0000 0.0000
# 3 39.6525 28.5465 77.3397 0.0000 0.0000 0.0000
# 4 0.0000 0.0000 0.0000 20.4725 0.0000 0.0000
# 5 0.0000 0.0000 0.0000 0.0000 15.7554 0.0000
# 6 0.0000 0.0000 0.0000 0.0000 0.0000 -145.3298
#
#
#
# Elastic Compliance Matrix: (Units=1/GPa)
#
#
# Indices 1 2 3 4 5 6 
#
# 1 0.006966 -0.004076 -0.002067 0.000000 0.000000 0.000000
# 2 -0.004076 0.018953 -0.004906 0.000000 0.000000 0.000000
# 3 -0.002067 -0.004906 0.015801 0.000000 0.000000 0.000000
# 4 0.000000 0.000000 0.000000 0.048846 0.000000 0.000000
# 5 0.000000 0.000000 0.000000 0.000000 0.063470 0.000000
# 6 0.000000 0.000000 0.000000 0.000000 0.000000 -0.006881
#
#
# Mechanical properties :
#
#
# Convention : Reuss Voigt Hill
#
# Bulk Modulus (GPa) = 50.96340 63.23068 57.09704
# Shear Modulus (GPa) = 28.44252 -7.51163 10.46545
#
# Velocity S-wave (km/s) = 3.72269 -1.91311 2.25814
# Velocity P-wave (km/s) = 6.58099 5.09202 5.88379
#
# Compressibility (1/GPa) = 0.01962192
#
# Stress axis : x y z
#
# Youngs Moduli (GPa) = 143.55576 52.76213 63.28862
#
# Poissons Ratio (x) = 0.21504 0.13083
# Poissons Ratio (y) = 0.58509 0.31050
# Poissons Ratio (z) = 0.29675 0.25885
#
# Static dielectric constant tensor:
#      x y z
#    x 1.797070 0.000000 0.000000 
#    y 0.000000 1.764610 0.000000 
#    z 0.000000 0.000000 1.772750 
# 
# From -- ./inp_files/34458.got.cif
#   From: 2010.05.17/outbox.cif.g08.bks.cpg/sg48_18_cif.got.tgz:34458.got - 2010.06.03 20:39:00.
