data_PCOD9391284
_publ_section_title
;
Structure prediction by ZEFSAII (Michael W. Deem and Ramdas Pophale) SiO2 
 PCOD9391284
Probable space group: P N N N
;
_chemical_formula_sum "Si O2"
_cell_formula_units_Z 40
_cell_length_a 7.758562
_cell_length_b 11.771385
_cell_length_c 17.316498
_cell_angle_alpha 90.000000
_cell_angle_beta 90.000000
_cell_angle_gamma 90.000000
_cell_volume 1581.498798
_symmetry_space_group_name_H-M "P N N N"
_symmetry_group_IT_number 48
_space_group.IT_coordinate_system_code '2'
_symmetry_cell_setting 'orthorhombic'
loop_
_space_group_symop_operation_xyz
x,y,z
1/2-x,1/2-y,z
x,1/2-y,1/2-z
1/2-x,y,1/2-z
-x,-y,-z
1/2+x,1/2+y,-z
-x,1/2+y,1/2+z
1/2+x,-y,1/2+z
loop_
_atom_site_type_symbol
_atom_site_label
_atom_site_fract_x
_atom_site_fract_y
_atom_site_fract_z
Si Si1 0.079793 0.816968 0.672180
Si Si2 0.426071 0.316285 0.491758
Si Si3 0.545388 0.094324 0.564232
Si Si4 0.828052 0.124953 0.674594
Si Si5 0.182031 0.063695 0.635406
O O1 0.250000 0.750000 0.646735
O O2 0.020939 0.750000 0.750000
O O3 0.955984 0.825687 0.598938
O O4 0.147781 0.945255 0.677692
O O5 0.250000 0.250000 0.502420
O O6 0.553947 0.220270 0.526920
O O7 0.394387 0.424096 0.547602
O O8 0.728348 0.066537 0.603359
O O9 0.384195 0.089901 0.625256
O O10 0.500000 0.000000 0.500000
O O11 0.750000 0.250000 0.673696
O O12 0.750000 0.064720 0.750000
O O13 0.034001 0.138333 0.676466
#
# Coordination Sequence:
#
# PCOD9391284 Si02
#       5
#     8   8   8   8   8
#     4  11  26  45  69 102 148 198 243 308 390 462
#     4  10  23  42  69 106 136 187 249 304 368 447
#     4  11  25  42  74 110 144 192 255 306 373 467
#     4  11  26  45  70 108 146 191 250 311 386 463
#     4  11  25  46  75 101 148 197 247 316 383 442
#
# _framework density 25.292463000000001
#
# number of rings (size 3 to 8) (size 9 to 14) (size 15 to 20)
#    0.000    1.200    2.000    1.800   11.200    6.000 
#    0.000    2.000    0.000    0.000    0.000    0.000 
#    0.000    0.000    0.000    0.000    0.000    0.000 
#
# Total GULP energy -223001.532458 kJ/mol
# GULP energy per Si atom -5575.038311 kJ/mol
# Density = 2.523490 g / cm^3
# Si number density = 25.292463 Si / 1000 Ang^3
#
#
#
# Elastic Constant Matrix: (Units=GPa)
#
#
# Indices 1 2 3 4 5 6 
#
# 1 116.6349 5.8780 17.0161 0.0000 0.0000 0.0000
# 2 5.8780 102.5753 28.2805 0.0000 0.0000 0.0000
# 3 17.0161 28.2805 153.8828 0.0000 0.0000 0.0000
# 4 0.0000 0.0000 0.0000 42.8908 0.0000 0.0000
# 5 0.0000 0.0000 0.0000 0.0000 195.5174 0.0000
# 6 0.0000 0.0000 0.0000 0.0000 0.0000 19.2226
#
#
#
# Elastic Compliance Matrix: (Units=1/GPa)
#
#
# Indices 1 2 3 4 5 6 
#
# 1 0.008720 -0.000246 -0.000919 0.000000 0.000000 0.000000
# 2 -0.000246 0.010276 -0.001861 0.000000 0.000000 0.000000
# 3 -0.000919 -0.001861 0.006942 0.000000 0.000000 0.000000
# 4 0.000000 0.000000 0.000000 0.023315 0.000000 0.000000
# 5 0.000000 0.000000 0.000000 0.000000 0.005115 0.000000
# 6 0.000000 0.000000 0.000000 0.000000 0.000000 0.052022
#
#
# Mechanical properties :
#
#
# Convention : Reuss Voigt Hill
#
# Bulk Modulus (GPa) = 50.28838 52.82692 51.55765
# Shear Modulus (GPa) = 41.99139 72.98739 57.48939
#
# Velocity S-wave (km/s) = 4.07902 5.37773 4.77276
# Velocity P-wave (km/s) = 6.48925 7.71309 7.12749
#
# Compressibility (1/GPa) = 0.01988531
#
# Stress axis : x y z
#
# Youngs Moduli (GPa) = 114.67555 97.31195 144.04763
#
# Poissons Ratio (x) = 0.02397 0.13238
# Poissons Ratio (y) = 0.02825 0.26812
# Poissons Ratio (z) = 0.10539 0.18113
#
# Static dielectric constant tensor:
#      x y z
#    x 2.257690 0.000000 0.000000 
#    y 0.000000 2.110430 0.000000 
#    z 0.000000 0.000000 2.146930 
# 
# From -- ./inp_files/30028.got.cif
#   From: 2010.05.17/outbox.cif.g08.bks.cpg/sg48_16_cif.got.tgz:30028.got - 2010.06.03 20:39:00.
