data_PCOD9391114
_publ_section_title
;
Structure prediction by ZEFSAII (Michael W. Deem and Ramdas Pophale) SiO2 
 PCOD9391114
Probable space group: P N N N
;
_chemical_formula_sum "Si O2"
_cell_formula_units_Z 18
_cell_length_a 5.240274
_cell_length_b 18.604577
_cell_length_c 8.989211
_cell_angle_alpha 90.000000
_cell_angle_beta 90.000000
_cell_angle_gamma 90.000000
_cell_volume 876.385877
_symmetry_space_group_name_H-M "P N N N"
_symmetry_group_IT_number 48
_space_group.IT_coordinate_system_code '2'
_symmetry_cell_setting 'orthorhombic'
loop_
_space_group_symop_operation_xyz
x,y,z
1/2-x,1/2-y,z
x,1/2-y,1/2-z
1/2-x,y,1/2-z
-x,-y,-z
1/2+x,1/2+y,-z
-x,1/2+y,1/2+z
1/2+x,-y,1/2+z
loop_
_atom_site_type_symbol
_atom_site_label
_atom_site_fract_x
_atom_site_fract_y
_atom_site_fract_z
Si Si1 0.250000 0.250000 0.750000
Si Si2 0.507019 0.794949 0.537067
Si Si3 0.498071 0.543494 0.846833
O O1 0.425086 0.202549 0.640089
O O2 0.250000 0.750000 0.558535
O O3 0.489803 0.872341 0.609745
O O4 0.750000 0.750000 0.593317
O O5 0.750000 0.529315 0.750000
O O6 0.250000 0.525472 0.750000
O O7 0.500000 0.500000 0.000000
#
# Coordination Sequence:
#
# PCOD9391114 Si02
#       3
#     2   8   8
#     4   8  22  36  68 100 138 172 218 284 350 408
#     4  10  22  41  69 100 136 178 230 276 350 410
#     4  12  28  47  72 103 143 189 232 293 348 416
#
# _framework density 20.538900000000002
#
# number of rings (size 3 to 8) (size 9 to 14) (size 15 to 20)
#    1.333    0.000    0.000    4.667    3.111    8.889 
#    0.000    0.000    0.000    0.000    0.000    0.000 
#    0.000    0.000    0.000    0.000    0.000    0.000 
#
# Total GULP energy -100579.392864 kJ/mol
# GULP energy per Si atom -5587.744048 kJ/mol
# Density = 2.049215 g / cm^3
# Si number density = 20.538900 Si / 1000 Ang^3
#
#
#
# Elastic Constant Matrix: (Units=GPa)
#
#
# Indices 1 2 3 4 5 6 
#
# 1 233.3640 74.8467 99.1611 0.0000 0.0000 0.0000
# 2 74.8467 105.5683 61.3025 0.0000 0.0000 0.0000
# 3 99.1611 61.3025 184.8146 0.0000 0.0000 0.0000
# 4 0.0000 0.0000 0.0000 57.4855 0.0000 0.0000
# 5 0.0000 0.0000 0.0000 0.0000 221.1364 0.0000
# 6 0.0000 0.0000 0.0000 0.0000 0.0000 -18.9264
#
#
#
# Elastic Compliance Matrix: (Units=1/GPa)
#
#
# Indices 1 2 3 4 5 6 
#
# 1 0.006269 -0.003086 -0.002340 0.000000 0.000000 0.000000
# 2 -0.003086 0.013251 -0.002740 0.000000 0.000000 0.000000
# 3 -0.002340 -0.002740 0.007575 0.000000 0.000000 0.000000
# 4 0.000000 0.000000 0.000000 0.017396 0.000000 0.000000
# 5 0.000000 0.000000 0.000000 0.000000 0.004522 0.000000
# 6 0.000000 0.000000 0.000000 0.000000 0.000000 -0.052836
#
#
# Mechanical properties :
#
#
# Convention : Reuss Voigt Hill
#
# Bulk Modulus (GPa) = 92.90026 110.48529 101.69277
# Shear Modulus (GPa) = 310.61574 71.16821 190.89197
#
# Velocity S-wave (km/s) = 12.31102 5.89285 9.65108
# Velocity P-wave (km/s) = 15.72931 10.01054 13.18374
#
# Compressibility (1/GPa) = 0.01076423
#
# Stress axis : x y z
#
# Youngs Moduli (GPa) = 159.50797 75.46404 132.01037
#
# Poissons Ratio (x) = 0.23288 0.30892
# Poissons Ratio (y) = 0.49223 0.36167
# Poissons Ratio (z) = 0.37327 0.20675
#
# Static dielectric constant tensor:
#      x y z
#    x 1.698410 0.000000 0.000000 
#    y 0.000000 1.640730 0.000000 
#    z 0.000000 0.000000 1.779850 
# 
# From -- ./inp_files/7298.got.cif
#   From: 2010.05.17/outbox.cif.g08.bks.cpg/sg48_4_cif.got.tgz:7298.got - 2010.06.03 20:39:00.
