data_PCOD9391605
_publ_section_title
;
Structure prediction by ZEFSAII (Michael W. Deem and Ramdas Pophale) SiO2 
 PCOD9391605
Probable space group: P N N N
;
_chemical_formula_sum "Si O2"
_cell_formula_units_Z 64
_cell_length_a 30.263580
_cell_length_b 7.927297
_cell_length_c 12.515324
_cell_angle_alpha 90.000000
_cell_angle_beta 90.000000
_cell_angle_gamma 90.000000
_cell_volume 3002.531193
_symmetry_space_group_name_H-M "P N N N"
_symmetry_group_IT_number 48
_space_group.IT_coordinate_system_code '2'
_symmetry_cell_setting 'orthorhombic'
loop_
_space_group_symop_operation_xyz
x,y,z
1/2-x,1/2-y,z
x,1/2-y,1/2-z
1/2-x,y,1/2-z
-x,-y,-z
1/2+x,1/2+y,-z
-x,1/2+y,1/2+z
1/2+x,-y,1/2+z
loop_
_atom_site_type_symbol
_atom_site_label
_atom_site_fract_x
_atom_site_fract_y
_atom_site_fract_z
Si Si1 0.643870 0.552348 0.464789
Si Si2 0.788631 0.848594 0.053510
Si Si3 0.345431 0.452526 0.771100
Si Si4 0.774301 0.418790 0.635172
Si Si5 0.464621 0.729187 0.011143
Si Si6 0.871783 0.238915 0.875258
Si Si7 0.045922 0.399281 0.904823
Si Si8 0.941016 0.431598 0.306922
O O1 0.676102 0.708948 0.484897
O O2 0.657429 0.471668 0.348762
O O3 0.640959 0.411430 0.558350
O O4 0.596143 0.636061 0.438741
O O5 0.750000 0.750000 0.113037
O O6 0.768205 0.936752 0.950628
O O7 0.809185 0.978445 0.138033
O O8 0.345440 0.250000 0.750000
O O9 0.391072 0.509533 0.824014
O O10 0.750000 0.250000 0.597444
O O11 0.750000 0.454083 0.750000
O O12 0.827066 0.375906 0.630940
O O13 0.418453 0.685789 0.070113
O O14 0.510840 0.756286 0.069570
O O15 0.468079 0.603460 0.912438
O O16 0.459686 0.920426 0.964555
O O17 0.883059 0.250000 0.750000
O O18 0.040709 0.442500 0.780882
O O19 0.937791 0.250000 0.250000
#
# Coordination Sequence:
#
# PCOD9391605 Si02
#       8
#     8   8   8   8   8   8   8   8
#     4   9  20  39  63  89 126 170 206 263 329 397
#     4  11  23  38  63  93 122 157 215 262 322 388
#     4   9  19  36  59  89 128 162 196 263 328 388
#     4  11  23  43  64  85 118 170 215 269 321 384
#     4   9  17  31  58  90 123 161 206 265 313 383
#     4  11  21  39  63  89 122 165 220 268 321 374
#     4   8  16  33  57  89 127 162 202 255 332 382
#     4   9  16  31  59  90 118 164 213 247 312 398
#
# _framework density 21.315348
#
# number of rings (size 3 to 8) (size 9 to 14) (size 15 to 20)
#    0.000    2.375    1.250    2.250    0.000    2.500 
#    0.000    6.250    0.000   12.000    0.000    0.000 
#    0.000    0.000    0.000    0.000    0.000    0.000 
#
# Total GULP energy -356544.327087 kJ/mol
# GULP energy per Si atom -5571.005111 kJ/mol
# Density = 2.126683 g / cm^3
# Si number density = 21.315348 Si / 1000 Ang^3
#
#
#
# Elastic Constant Matrix: (Units=GPa)
#
#
# Indices 1 2 3 4 5 6 
#
# 1 95.8956 24.6336 55.3148 0.0000 0.0000 0.0000
# 2 24.6336 59.2700 46.6686 0.0000 0.0000 0.0000
# 3 55.3148 46.6686 132.4290 0.0000 0.0000 0.0000
# 4 0.0000 0.0000 0.0000 42.3509 0.0000 0.0000
# 5 0.0000 0.0000 0.0000 0.0000 30.6261 0.0000
# 6 0.0000 0.0000 0.0000 0.0000 0.0000 -364.8725
#
#
#
# Elastic Compliance Matrix: (Units=1/GPa)
#
#
# Indices 1 2 3 4 5 6 
#
# 1 0.013855 -0.001663 -0.005201 0.000000 0.000000 0.000000
# 2 -0.001663 0.023551 -0.007605 0.000000 0.000000 0.000000
# 3 -0.005201 -0.007605 0.012404 0.000000 0.000000 0.000000
# 4 0.000000 0.000000 0.000000 0.023612 0.000000 0.000000
# 5 0.000000 0.000000 0.000000 0.000000 0.032652 0.000000
# 6 0.000000 0.000000 0.000000 0.000000 0.000000 -0.002741
#
#
# Mechanical properties :
#
#
# Convention : Reuss Voigt Hill
#
# Bulk Modulus (GPa) = 47.91141 60.09206 54.00173
# Shear Modulus (GPa) = 35.91193 -47.64725 -5.86766
#
# Velocity S-wave (km/s) = 4.10907 -4.73308 -1.66095
# Velocity P-wave (km/s) = 6.71110 1.27131 4.65954
#
# Compressibility (1/GPa) = 0.02087186
#
# Stress axis : x y z
#
# Youngs Moduli (GPa) = 72.17395 42.46072 80.62104
#
# Poissons Ratio (x) = 0.07062 0.41933
# Poissons Ratio (y) = 0.12004 0.61311
# Poissons Ratio (z) = 0.37539 0.32291
#
# Static dielectric constant tensor:
#      x y z
#    x 1.873260 0.000000 0.000000 
#    y 0.000000 1.796090 0.000000 
#    z 0.000000 0.000000 1.817690 
# 
# From -- ./inp_files/23834.got.cif
#   From: 2010.05.17/outbox.cif.g08.bks.cpg/sg48_12_cif.got.tgz:23834.got - 2010.06.03 20:39:00.
