data_PCOD9391774
_publ_section_title
;
Structure prediction by ZEFSAII (Michael W. Deem and Ramdas Pophale) SiO2 
 PCOD9391774
Probable space group: P N N N
;
_chemical_formula_sum "Si O2"
_cell_formula_units_Z 40
_cell_length_a 11.937088
_cell_length_b 13.478494
_cell_length_c 12.086827
_cell_angle_alpha 90.000000
_cell_angle_beta 90.000000
_cell_angle_gamma 90.000000
_cell_volume 1944.697568
_symmetry_space_group_name_H-M "P N N N"
_symmetry_group_IT_number 48
_space_group.IT_coordinate_system_code '2'
_symmetry_cell_setting 'orthorhombic'
loop_
_space_group_symop_operation_xyz
x,y,z
1/2-x,1/2-y,z
x,1/2-y,1/2-z
1/2-x,y,1/2-z
-x,-y,-z
1/2+x,1/2+y,-z
-x,1/2+y,1/2+z
1/2+x,-y,1/2+z
loop_
_atom_site_type_symbol
_atom_site_label
_atom_site_fract_x
_atom_site_fract_y
_atom_site_fract_z
Si Si1 0.365905 0.349318 0.314165
Si Si2 0.964329 0.906153 0.069900
Si Si3 0.714672 0.647543 0.440598
Si Si4 0.377609 0.730450 0.383187
Si Si5 0.009127 0.044971 0.672713
O O1 0.402854 0.250000 0.250000
O O2 0.250000 0.381755 0.250000
O O3 0.336112 0.325475 0.440526
O O4 0.458352 0.435177 0.323181
O O5 0.834704 0.898921 0.041529
O O6 0.979017 0.925938 0.199626
O O7 0.037554 0.805713 0.055369
O O8 0.000000 0.000000 0.000000
O O9 0.750000 0.750000 0.379443
O O10 0.628190 0.574444 0.380719
O O11 0.250000 0.750000 0.418925
O O12 0.380983 0.750000 0.250000
O O13 0.421013 0.617590 0.390313
#
# Coordination Sequence:
#
# PCOD9391774 Si02
#       5
#     8   8   8   8   8
#     4  11  24  43  69  98 135 185 238 293 354 442
#     4  11  24  40  66  95 136 180 224 284 355 429
#     4  12  23  43  67 100 137 179 236 290 357 427
#     4   9  20  36  58  94 125 165 217 279 339 404
#     4  11  24  40  68  95 136 177 228 295 349 414
#
# _framework density 20.568750999999999
#
# number of rings (size 3 to 8) (size 9 to 14) (size 15 to 20)
#    0.000    1.200    4.000    2.400    8.400    0.800 
#    0.000    0.000    0.000    1.200    0.000    0.000 
#    0.000    0.000    0.000    0.000    0.000    0.000 
#
# Total GULP energy -223208.858399 kJ/mol
# GULP energy per Si atom -5580.221460 kJ/mol
# Density = 2.052194 g / cm^3
# Si number density = 20.568751 Si / 1000 Ang^3
#
#
#
# Elastic Constant Matrix: (Units=GPa)
#
#
# Indices 1 2 3 4 5 6 
#
# 1 173.7498 105.9740 34.1058 0.0000 0.0000 0.0000
# 2 105.9740 170.9654 45.7244 0.0000 0.0000 0.0000
# 3 34.1058 45.7244 86.5193 0.0000 0.0000 0.0000
# 4 0.0000 0.0000 0.0000 46.0261 0.0000 0.0000
# 5 0.0000 0.0000 0.0000 0.0000 12.9188 0.0000
# 6 0.0000 0.0000 0.0000 0.0000 0.0000 38.7667
#
#
#
# Elastic Compliance Matrix: (Units=1/GPa)
#
#
# Indices 1 2 3 4 5 6 
#
# 1 0.009292 -0.005567 -0.000721 0.000000 0.000000 0.000000
# 2 -0.005567 0.010147 -0.003168 0.000000 0.000000 0.000000
# 3 -0.000721 -0.003168 0.013517 0.000000 0.000000 0.000000
# 4 0.000000 0.000000 0.000000 0.021727 0.000000 0.000000
# 5 0.000000 0.000000 0.000000 0.000000 0.077407 0.000000
# 6 0.000000 0.000000 0.000000 0.000000 0.000000 0.025795
#
#
# Mechanical properties :
#
#
# Convention : Reuss Voigt Hill
#
# Bulk Modulus (GPa) = 71.20512 89.20478 80.20495
# Shear Modulus (GPa) = 27.55140 35.90433 31.72787
#
# Velocity S-wave (km/s) = 3.66386 4.18254 3.93176
# Velocity P-wave (km/s) = 7.25202 8.17240 7.72593
#
# Compressibility (1/GPa) = 0.01404393
#
# Stress axis : x y z
#
# Youngs Moduli (GPa) = 107.61397 98.54823 73.98303
#
# Poissons Ratio (x) = 0.54864 0.05333
# Poissons Ratio (y) = 0.59911 0.23439
# Poissons Ratio (z) = 0.07758 0.31222
#
# Static dielectric constant tensor:
#      x y z
#    x 1.704510 0.000000 0.000000 
#    y 0.000000 1.615680 0.000000 
#    z 0.000000 0.000000 1.726640 
# 
# From -- ./inp_files/26253.got.cif
#   From: 2010.05.17/outbox.cif.g08.bks.cpg/sg48_14_cif.got.tgz:26253.got - 2010.06.03 20:39:00.
