data_PCOD9391389
_publ_section_title
;
Structure prediction by ZEFSAII (Michael W. Deem and Ramdas Pophale) SiO2 
 PCOD9391389
Probable space group: P N N N
;
_chemical_formula_sum "Si O2"
_cell_formula_units_Z 40
_cell_length_a 9.296057
_cell_length_b 15.861331
_cell_length_c 12.838755
_cell_angle_alpha 90.000000
_cell_angle_beta 90.000000
_cell_angle_gamma 90.000000
_cell_volume 1893.046655
_symmetry_space_group_name_H-M "P N N N"
_symmetry_group_IT_number 48
_space_group.IT_coordinate_system_code '2'
_symmetry_cell_setting 'orthorhombic'
loop_
_space_group_symop_operation_xyz
x,y,z
1/2-x,1/2-y,z
x,1/2-y,1/2-z
1/2-x,y,1/2-z
-x,-y,-z
1/2+x,1/2+y,-z
-x,1/2+y,1/2+z
1/2+x,-y,1/2+z
loop_
_atom_site_type_symbol
_atom_site_label
_atom_site_fract_x
_atom_site_fract_y
_atom_site_fract_z
Si Si1 0.889591 0.501584 0.296966
Si Si2 0.670536 0.662674 0.064532
Si Si3 0.919622 0.241754 0.628689
Si Si4 0.431648 0.552085 0.406467
Si Si5 0.317442 0.065210 0.362101
O O1 0.750000 0.454597 0.250000
O O2 0.824314 0.581263 0.360190
O O3 0.985557 0.531997 0.200064
O O4 0.010897 0.450593 0.360415
O O5 0.750000 0.750000 0.097194
O O6 0.503494 0.688056 0.065683
O O7 0.719015 0.632410 0.951223
O O8 0.750000 0.250000 0.628474
O O9 0.966978 0.250000 0.750000
O O10 0.950841 0.150917 0.580393
O O11 0.500000 0.500000 0.500000
O O12 0.267655 0.521049 0.391286
O O13 0.250000 0.089978 0.250000
#
# Coordination Sequence:
#
# PCOD9391389 Si02
#       5
#     8   8   8   8   8
#     4  11  22  37  62  93 125 163 220 275 322 397
#     4  12  24  40  64  97 130 168 217 279 336 388
#     4  11  23  38  64  96 135 170 210 276 343 397
#     4  11  22  41  61  92 131 178 218 265 341 406
#     4  10  24  43  65  89 129 177 223 268 331 409
#
# _framework density 21.129961000000002
#
# number of rings (size 3 to 8) (size 9 to 14) (size 15 to 20)
#    0.000    1.000    2.000    5.400    5.600    2.000 
#    0.000    0.000    0.000    0.000    0.000    4.200 
#    0.000    0.000    0.000    0.000    0.000    0.000 
#
# Total GULP energy -223413.638640 kJ/mol
# GULP energy per Si atom -5585.340966 kJ/mol
# Density = 2.108187 g / cm^3
# Si number density = 21.129961 Si / 1000 Ang^3
#
#
#
# Elastic Constant Matrix: (Units=GPa)
#
#
# Indices 1 2 3 4 5 6 
#
# 1 114.1402 13.9809 11.2671 0.0000 0.0000 0.0000
# 2 13.9809 63.0855 42.1377 0.0000 0.0000 0.0000
# 3 11.2671 42.1377 106.9110 0.0000 0.0000 0.0000
# 4 0.0000 0.0000 0.0000 26.0790 0.0000 0.0000
# 5 0.0000 0.0000 0.0000 0.0000 28.9797 0.0000
# 6 0.0000 0.0000 0.0000 0.0000 0.0000 31.2267
#
#
#
# Elastic Compliance Matrix: (Units=1/GPa)
#
#
# Indices 1 2 3 4 5 6 
#
# 1 0.009009 -0.001849 -0.000221 0.000000 0.000000 0.000000
# 2 -0.001849 0.021895 -0.008435 0.000000 0.000000 0.000000
# 3 -0.000221 -0.008435 0.012701 0.000000 0.000000 0.000000
# 4 0.000000 0.000000 0.000000 0.038345 0.000000 0.000000
# 5 0.000000 0.000000 0.000000 0.000000 0.034507 0.000000
# 6 0.000000 0.000000 0.000000 0.000000 0.000000 0.032024
#
#
# Mechanical properties :
#
#
# Convention : Reuss Voigt Hill
#
# Bulk Modulus (GPa) = 44.25456 46.54536 45.39996
# Shear Modulus (GPa) = 28.24476 31.70712 29.97594
#
# Velocity S-wave (km/s) = 3.66008 3.87793 3.77058
# Velocity P-wave (km/s) = 6.23306 6.49054 6.36310
#
# Compressibility (1/GPa) = 0.02259654
#
# Stress axis : x y z
#
# Youngs Moduli (GPa) = 110.99451 45.67167 78.73185
#
# Poissons Ratio (x) = 0.08446 0.01737
# Poissons Ratio (y) = 0.20526 0.66410
# Poissons Ratio (z) = 0.02449 0.38524
#
# Static dielectric constant tensor:
#      x y z
#    x 1.851110 0.000000 0.000000 
#    y 0.000000 1.739700 0.000000 
#    z 0.000000 0.000000 1.800550 
# 
# From -- ./inp_files/10669.got.cif
#   From: 2010.05.17/outbox.cif.g08.bks.cpg/sg48_6_cif.got.tgz:10669.got - 2010.06.03 20:39:00.
