data_PCOD9391689
_publ_section_title
;
Structure prediction by ZEFSAII (Michael W. Deem and Ramdas Pophale) SiO2 
 PCOD9391689
Probable space group: P N N N
;
_chemical_formula_sum "Si O2"
_cell_formula_units_Z 40
_cell_length_a 5.775523
_cell_length_b 14.447107
_cell_length_c 22.137309
_cell_angle_alpha 90.000000
_cell_angle_beta 90.000000
_cell_angle_gamma 90.000000
_cell_volume 1847.128181
_symmetry_space_group_name_H-M "P N N N"
_symmetry_group_IT_number 48
_space_group.IT_coordinate_system_code '2'
_symmetry_cell_setting 'orthorhombic'
loop_
_space_group_symop_operation_xyz
x,y,z
1/2-x,1/2-y,z
x,1/2-y,1/2-z
1/2-x,y,1/2-z
-x,-y,-z
1/2+x,1/2+y,-z
-x,1/2+y,1/2+z
1/2+x,-y,1/2+z
loop_
_atom_site_type_symbol
_atom_site_label
_atom_site_fract_x
_atom_site_fract_y
_atom_site_fract_z
Si Si1 0.994911 0.802679 0.628531
Si Si2 0.824189 0.579235 0.979880
Si Si3 0.554248 0.538698 0.091088
Si Si4 0.266956 0.855320 0.178157
Si Si5 0.378197 0.519580 0.685618
O O1 0.250000 0.750000 0.632372
O O2 0.983057 0.885264 0.678679
O O3 0.750000 0.750000 0.638505
O O4 0.952334 0.844334 0.560384
O O5 0.638302 0.524706 0.939491
O O6 0.683960 0.601651 0.041395
O O7 0.000000 0.500000 0.000000
O O8 0.443986 0.597398 0.144436
O O9 0.716997 0.469693 0.127242
O O10 0.250000 0.750000 0.156140
O O11 0.250000 0.852199 0.250000
O O12 0.482287 0.925328 0.170327
O O13 0.250000 0.512593 0.750000
#
# Coordination Sequence:
#
# PCOD9391689 Si02
#       5
#     8   8   8   8   8
#     4  12  28  50  77 115 157 203 264 322 378 453
#     4  11  23  45  74 100 146 197 253 307 379 449
#     4  11  22  44  73 104 142 199 246 305 382 461
#     4  11  24  44  71 107 149 190 247 318 387 462
#     4  12  25  48  77 105 150 205 248 322 391 456
#
# _framework density 21.655239000000002
#
# number of rings (size 3 to 8) (size 9 to 14) (size 15 to 20)
#    0.000    0.600    6.000    1.200    2.800    1.200 
#    7.200    3.000    0.000    0.000    0.000    0.000 
#    0.000    0.000    0.000    0.000    0.000    0.000 
#
# Total GULP energy -222841.405452 kJ/mol
# GULP energy per Si atom -5571.035136 kJ/mol
# Density = 2.160595 g / cm^3
# Si number density = 21.655239 Si / 1000 Ang^3
#
#
#
# Elastic Constant Matrix: (Units=GPa)
#
#
# Indices 1 2 3 4 5 6 
#
# 1 116.3425 55.1784 27.3452 0.0000 0.0000 0.0000
# 2 55.1784 105.0692 29.5205 0.0000 0.0000 0.0000
# 3 27.3452 29.5205 68.2214 0.0000 0.0000 0.0000
# 4 0.0000 0.0000 0.0000 26.9319 0.0000 0.0000
# 5 0.0000 0.0000 0.0000 0.0000 52.5680 0.0000
# 6 0.0000 0.0000 0.0000 0.0000 0.0000 34.5468
#
#
#
# Elastic Compliance Matrix: (Units=1/GPa)
#
#
# Indices 1 2 3 4 5 6 
#
# 1 0.011761 -0.005524 -0.002324 0.000000 0.000000 0.000000
# 2 -0.005524 0.013429 -0.003597 0.000000 0.000000 0.000000
# 3 -0.002324 -0.003597 0.017146 0.000000 0.000000 0.000000
# 4 0.000000 0.000000 0.000000 0.037131 0.000000 0.000000
# 5 0.000000 0.000000 0.000000 0.000000 0.019023 0.000000
# 6 0.000000 0.000000 0.000000 0.000000 0.000000 0.028946
#
#
# Mechanical properties :
#
#
# Convention : Reuss Voigt Hill
#
# Bulk Modulus (GPa) = 51.42143 57.08015 54.25079
# Shear Modulus (GPa) = 31.88617 34.64862 33.26739
#
# Velocity S-wave (km/s) = 3.84141 4.00435 3.92373
# Velocity P-wave (km/s) = 6.59335 6.91344 6.75529
#
# Compressibility (1/GPa) = 0.01944715
#
# Stress axis : x y z
#
# Youngs Moduli (GPa) = 85.02479 74.46619 58.32212
#
# Poissons Ratio (x) = 0.41132 0.13555
# Poissons Ratio (y) = 0.46964 0.20978
# Poissons Ratio (z) = 0.19761 0.26785
#
# Static dielectric constant tensor:
#      x y z
#    x 2.048210 0.000000 0.000000 
#    y 0.000000 2.201480 0.000000 
#    z 0.000000 0.000000 1.784610 
# 
# From -- ./inp_files/24307.got.cif
#   From: 2010.05.17/outbox.cif.g08.bks.cpg/sg48_13_cif.got.tgz:24307.got - 2010.06.03 20:39:00.
