data_PCOD9391746
_publ_section_title
;
Structure prediction by ZEFSAII (Michael W. Deem and Ramdas Pophale) SiO2 
 PCOD9391746
Probable space group: P N N N
;
_chemical_formula_sum "Si O2"
_cell_formula_units_Z 48
_cell_length_a 27.218077
_cell_length_b 14.383757
_cell_length_c 5.339546
_cell_angle_alpha 90.000000
_cell_angle_beta 90.000000
_cell_angle_gamma 90.000000
_cell_volume 2090.422678
_symmetry_space_group_name_H-M "P N N N"
_symmetry_group_IT_number 48
_space_group.IT_coordinate_system_code '2'
_symmetry_cell_setting 'orthorhombic'
loop_
_space_group_symop_operation_xyz
x,y,z
1/2-x,1/2-y,z
x,1/2-y,1/2-z
1/2-x,y,1/2-z
-x,-y,-z
1/2+x,1/2+y,-z
-x,1/2+y,1/2+z
1/2+x,-y,1/2+z
loop_
_atom_site_type_symbol
_atom_site_label
_atom_site_fract_x
_atom_site_fract_y
_atom_site_fract_z
Si Si1 0.407735 0.605178 0.454754
Si Si2 0.884667 0.902621 0.404306
Si Si3 0.250000 0.250000 0.250000
Si Si4 0.152253 0.750000 0.750000
Si Si5 0.675601 0.892376 0.588280
Si Si6 0.679528 0.395765 0.878817
Si Si7 0.750000 0.250000 0.750000
Si Si8 0.509838 0.811657 0.003696
O O1 0.390612 0.514120 0.602336
O O2 0.384858 0.698720 0.563396
O O3 0.378363 0.596223 0.192838
O O4 0.465814 0.614024 0.476606
O O5 0.849688 0.881153 0.639775
O O6 0.936974 0.857944 0.467866
O O7 0.862220 0.874889 0.137864
O O8 0.282026 0.182498 0.421226
O O9 0.184003 0.670596 0.617342
O O10 0.695508 0.998674 0.579983
O O11 0.709572 0.332287 0.677780
O O12 0.506949 0.750000 0.750000
O O13 0.502224 0.750000 0.250000
#
# Coordination Sequence:
#
# PCOD9391746 Si02
#       8
#     8   8   2   4   8   8   2   8
#     4  11  23  44  68 104 151 192 237 291 372 445
#     4  11  26  47  74 105 152 187 241 309 366 435
#     4  12  30  54  86 104 148 204 262 322 376 442
#     4  12  18  41  69  96 140 189 228 295 368 436
#     4  11  27  50  75 108 144 192 251 309 370 436
#     4  11  24  42  66 106 142 190 235 304 368 446
#     4  12  22  38  64  94 146 176 234 294 368 442
#     4  12  26  42  72 110 143 195 249 295 360 445
#
# _framework density 22.961863000000001
#
# number of rings (size 3 to 8) (size 9 to 14) (size 15 to 20)
#    0.000    0.667    4.167    3.000    3.500    1.667 
#    0.000    5.833    0.000    0.000    0.000    0.000 
#    0.000    0.000    0.000    0.000    0.000    0.000 
#
# Total GULP energy -268016.404108 kJ/mol
# GULP energy per Si atom -5583.675086 kJ/mol
# Density = 2.290960 g / cm^3
# Si number density = 22.961863 Si / 1000 Ang^3
#
#
#
# Elastic Constant Matrix: (Units=GPa)
#
#
# Indices 1 2 3 4 5 6 
#
# 1 120.8281 63.9383 25.9590 0.0000 0.0000 0.0000
# 2 63.9383 126.1174 41.2428 0.0000 0.0000 0.0000
# 3 25.9590 41.2428 110.5650 0.0000 0.0000 0.0000
# 4 0.0000 0.0000 0.0000 -3.2977 0.0000 0.0000
# 5 0.0000 0.0000 0.0000 0.0000 -1.4371 0.0000
# 6 0.0000 0.0000 0.0000 0.0000 0.0000 40.2449
#
#
#
# Elastic Compliance Matrix: (Units=1/GPa)
#
#
# Indices 1 2 3 4 5 6 
#
# 1 0.011344 -0.005558 -0.000590 0.000000 0.000000 0.000000
# 2 -0.005558 0.011754 -0.003079 0.000000 0.000000 0.000000
# 3 -0.000590 -0.003079 0.010332 0.000000 0.000000 0.000000
# 4 0.000000 0.000000 0.000000 -0.303238 0.000000 0.000000
# 5 0.000000 0.000000 0.000000 0.000000 -0.695866 0.000000
# 6 0.000000 0.000000 0.000000 0.000000 0.000000 0.024848
#
#
# Mechanical properties :
#
#
# Convention : Reuss Voigt Hill
#
# Bulk Modulus (GPa) = 66.78119 68.86564 67.82342
# Shear Modulus (GPa) = -5.45031 22.19340 8.37154
#
# Velocity S-wave (km/s) = -1.54233 3.11228 1.91148
# Velocity P-wave (km/s) = 5.09656 6.55527 5.87139
#
# Compressibility (1/GPa) = 0.01497428
#
# Stress axis : x y z
#
# Youngs Moduli (GPa) = 88.15037 85.07698 96.78939
#
# Poissons Ratio (x) = 0.47288 0.05712
# Poissons Ratio (y) = 0.48996 0.29806
# Poissons Ratio (z) = 0.05202 0.26199
#
# Static dielectric constant tensor:
#      x y z
#    x 1.920650 0.000000 0.000000 
#    y 0.000000 1.893270 0.000000 
#    z 0.000000 0.000000 1.989710 
# 
# From -- ./inp_files/6524.got.cif
#   From: 2010.05.17/outbox.cif.g08.bks.cpg/sg48_4_cif.got.tgz:6524.got - 2010.06.03 20:39:00.
