data_PCOD9391141
_publ_section_title
;
Structure prediction by ZEFSAII (Michael W. Deem and Ramdas Pophale) SiO2 
 PCOD9391141
Probable space group: P N N N
;
_chemical_formula_sum "Si O2"
_cell_formula_units_Z 36
_cell_length_a 13.708032
_cell_length_b 5.642024
_cell_length_c 20.314323
_cell_angle_alpha 90.000000
_cell_angle_beta 90.000000
_cell_angle_gamma 90.000000
_cell_volume 1571.130980
_symmetry_space_group_name_H-M "P N N N"
_symmetry_group_IT_number 48
_space_group.IT_coordinate_system_code '2'
_symmetry_cell_setting 'orthorhombic'
loop_
_space_group_symop_operation_xyz
x,y,z
1/2-x,1/2-y,z
x,1/2-y,1/2-z
1/2-x,y,1/2-z
-x,-y,-z
1/2+x,1/2+y,-z
-x,1/2+y,1/2+z
1/2+x,-y,1/2+z
loop_
_atom_site_type_symbol
_atom_site_label
_atom_site_fract_x
_atom_site_fract_y
_atom_site_fract_z
Si Si1 0.577933 0.250000 0.250000
Si Si2 0.863460 0.194324 0.953740
Si Si3 0.845789 0.603200 0.151324
Si Si4 0.048359 0.635826 0.315443
Si Si5 0.357163 0.189574 0.001850
O O1 0.646720 0.374861 0.303391
O O2 0.501708 0.393675 0.205283
O O3 0.750000 0.250000 0.968202
O O4 0.883338 0.126586 0.878324
O O5 0.906982 0.462203 0.963288
O O6 0.897438 0.961344 0.995407
O O7 0.750000 0.750000 0.170954
O O8 0.842351 0.594690 0.072391
O O9 0.950578 0.717534 0.167214
O O10 0.094526 0.750000 0.250000
O O11 0.250000 0.250000 0.031758
#
# Coordination Sequence:
#
# PCOD9391141 Si02
#       5
#     4   8   8   8   8
#     4  10  24  43  62  91 134 174 222 273 324 401
#     4  10  22  42  68  95 129 167 213 268 325 386
#     4  10  23  42  65  92 127 171 215 269 327 391
#     4  10  24  40  62  93 128 169 217 265 322 390
#     4   9  21  40  66  97 127 165 216 268 324 388
#
# _framework density 22.913432
#
# number of rings (size 3 to 8) (size 9 to 14) (size 15 to 20)
#    0.000    2.222    0.000    0.000    9.333    8.000 
#    0.000    0.000    0.000    0.000    0.000    0.000 
#    0.000    0.000    0.000    0.000    0.000    0.000 
#
# Total GULP energy -200478.064489 kJ/mol
# GULP energy per Si atom -5568.835125 kJ/mol
# Density = 2.286128 g / cm^3
# Si number density = 22.913432 Si / 1000 Ang^3
#
#
#
# Elastic Constant Matrix: (Units=GPa)
#
#
# Indices 1 2 3 4 5 6 
#
# 1 54.5022 21.1436 11.6953 0.0000 0.0000 0.0000
# 2 21.1436 172.6792 68.9444 0.0000 0.0000 0.0000
# 3 11.6953 68.9444 147.6082 0.0000 0.0000 0.0000
# 4 0.0000 0.0000 0.0000 79.6127 0.0000 0.0000
# 5 0.0000 0.0000 0.0000 0.0000 39.0984 0.0000
# 6 0.0000 0.0000 0.0000 0.0000 0.0000 15.7945
#
#
#
# Elastic Compliance Matrix: (Units=1/GPa)
#
#
# Indices 1 2 3 4 5 6 
#
# 1 0.019296 -0.002154 -0.000523 0.000000 0.000000 0.000000
# 2 -0.002154 0.007359 -0.003267 0.000000 0.000000 0.000000
# 3 -0.000523 -0.003267 0.008342 0.000000 0.000000 0.000000
# 4 0.000000 0.000000 0.000000 0.012561 0.000000 0.000000
# 5 0.000000 0.000000 0.000000 0.000000 0.025577 0.000000
# 6 0.000000 0.000000 0.000000 0.000000 0.000000 0.063313
#
#
# Mechanical properties :
#
#
# Convention : Reuss Voigt Hill
#
# Bulk Modulus (GPa) = 43.27134 64.26180 53.76657
# Shear Modulus (GPa) = 32.04370 45.10154 38.57262
#
# Velocity S-wave (km/s) = 3.74367 4.44142 4.10738
# Velocity P-wave (km/s) = 6.13290 7.37617 6.78308
#
# Compressibility (1/GPa) = 0.02310999
#
# Stress axis : x y z
#
# Youngs Moduli (GPa) = 51.82515 135.88718 119.87732
#
# Poissons Ratio (x) = 0.29269 0.06267
# Poissons Ratio (y) = 0.11163 0.39159
# Poissons Ratio (z) = 0.02709 0.44389
#
# Static dielectric constant tensor:
#      x y z
#    x 1.796880 0.000000 0.000000 
#    y 0.000000 2.002180 0.000000 
#    z 0.000000 0.000000 1.902550 
# 
# From -- ./inp_files/34322.got.cif
#   From: 2010.05.17/outbox.cif.g08.bks.cpg/sg48_18_cif.got.tgz:34322.got - 2010.06.03 20:39:00.
