data_PCOD9391260
_publ_section_title
;
Structure prediction by ZEFSAII (Michael W. Deem and Ramdas Pophale) SiO2 
 PCOD9391260
Probable space group: P N N N
;
_chemical_formula_sum "Si O2"
_cell_formula_units_Z 58
_cell_length_a 17.834833
_cell_length_b 7.541159
_cell_length_c 18.308720
_cell_angle_alpha 90.000000
_cell_angle_beta 90.000000
_cell_angle_gamma 90.000000
_cell_volume 2462.436998
_symmetry_space_group_name_H-M "P N N N"
_symmetry_group_IT_number 48
_space_group.IT_coordinate_system_code '2'
_symmetry_cell_setting 'orthorhombic'
loop_
_space_group_symop_operation_xyz
x,y,z
1/2-x,1/2-y,z
x,1/2-y,1/2-z
1/2-x,y,1/2-z
-x,-y,-z
1/2+x,1/2+y,-z
-x,1/2+y,1/2+z
1/2+x,-y,1/2+z
loop_
_atom_site_type_symbol
_atom_site_label
_atom_site_fract_x
_atom_site_fract_y
_atom_site_fract_z
Si Si1 0.642542 0.895919 0.306588
Si Si2 0.018470 0.768509 0.553148
Si Si3 0.251074 0.452282 0.917171
Si Si4 0.328021 0.649539 0.025764
Si Si5 0.084316 0.371596 0.925975
Si Si6 0.000969 0.419992 0.296166
Si Si7 0.155829 0.911875 0.196058
Si Si8 0.250000 0.250000 0.250000
O O1 0.671321 0.750000 0.250000
O O2 0.701651 0.025272 0.348295
O O3 0.595649 0.778960 0.365805
O O4 0.579122 0.012772 0.268146
O O5 0.093181 0.715669 0.507109
O O6 0.007842 0.634749 0.619195
O O7 0.948170 0.781122 0.498835
O O8 0.027524 0.965931 0.587145
O O9 0.250000 0.250000 0.892420
O O10 0.163871 0.475733 0.932296
O O11 0.304763 0.465985 0.987143
O O12 0.250000 0.750000 0.001904
O O13 0.331131 0.643865 0.112353
O O14 0.023540 0.250000 0.250000
O O15 0.068003 0.556983 0.291328
O O16 0.176388 0.750000 0.250000
O O17 0.197637 0.103194 0.208342
#
# Coordination Sequence:
#
# PCOD9391260 Si02
#       8
#     8   8   8   8   8   8   8   2
#     4  11  23  43  70 102 145 194 247 305 383 454
#     4  11  24  43  70 109 142 195 252 316 380 461
#     4  10  23  41  68 105 141 187 241 306 375 454
#     4  12  24  45  76 107 147 192 249 320 383 456
#     4  10  23  42  67 102 150 187 248 312 381 453
#     4  12  26  46  74 103 151 200 261 311 385 461
#     4  12  29  50  77 112 155 205 254 319 390 456
#     4  12  26  56  76 114 156 204 262 308 388 482
#
# _framework density 23.553902000000001
#
# number of rings (size 3 to 8) (size 9 to 14) (size 15 to 20)
#    0.000    0.828    3.448    3.103    4.828    5.793 
#    0.000    0.000    0.000    0.414    0.000    0.000 
#    0.000    0.000    0.000    0.000    0.000    0.000 
#
# Total GULP energy -323563.718099 kJ/mol
# GULP energy per Si atom -5578.684795 kJ/mol
# Density = 2.350029 g / cm^3
# Si number density = 23.553902 Si / 1000 Ang^3
#
#
#
# Elastic Constant Matrix: (Units=GPa)
#
#
# Indices 1 2 3 4 5 6 
#
# 1 137.6044 24.1975 40.3059 0.0000 0.0000 0.0000
# 2 24.1975 65.0280 33.0516 0.0000 0.0000 0.0000
# 3 40.3059 33.0516 127.3879 0.0000 0.0000 0.0000
# 4 0.0000 0.0000 0.0000 13.4945 0.0000 0.0000
# 5 0.0000 0.0000 0.0000 0.0000 -7.4560 0.0000
# 6 0.0000 0.0000 0.0000 0.0000 0.0000 23.1633
#
#
#
# Elastic Compliance Matrix: (Units=1/GPa)
#
#
# Indices 1 2 3 4 5 6 
#
# 1 0.008230 -0.002003 -0.002084 0.000000 0.000000 0.000000
# 2 -0.002003 0.018202 -0.004089 0.000000 0.000000 0.000000
# 3 -0.002084 -0.004089 0.009570 0.000000 0.000000 0.000000
# 4 0.000000 0.000000 0.000000 0.074105 0.000000 0.000000
# 5 0.000000 0.000000 0.000000 0.000000 -0.134120 0.000000
# 6 0.000000 0.000000 0.000000 0.000000 0.000000 0.043172
#
#
# Mechanical properties :
#
#
# Convention : Reuss Voigt Hill
#
# Bulk Modulus (GPa) = 50.89138 58.34781 54.61960
# Shear Modulus (GPa) = 118.87703 21.33803 70.10753
#
# Velocity S-wave (km/s) = 7.11195 3.01312 5.46162
# Velocity P-wave (km/s) = 9.43891 6.07709 7.93801
#
# Compressibility (1/GPa) = 0.01964969
#
# Stress axis : x y z
#
# Youngs Moduli (GPa) = 121.50739 54.94052 104.48935
#
# Poissons Ratio (x) = 0.11005 0.21778
# Poissons Ratio (y) = 0.24339 0.42723
# Poissons Ratio (z) = 0.25325 0.22464
#
# Static dielectric constant tensor:
#      x y z
#    x 2.047270 0.000000 0.000000 
#    y 0.000000 1.268430 0.000000 
#    z 0.000000 0.000000 1.877520 
# 
# From -- ./inp_files/32015.got.cif
#   From: 2010.05.17/outbox.cif.g08.bks.cpg/sg48_17_cif.got.tgz:32015.got - 2010.06.03 20:39:00.
