data_PCOD9391077
_publ_section_title
;
Structure prediction by ZEFSAII (Michael W. Deem and Ramdas Pophale) SiO2 
 PCOD9391077
Probable space group: P N N N
;
_chemical_formula_sum "Si O2"
_cell_formula_units_Z 34
_cell_length_a 11.637574
_cell_length_b 8.184417
_cell_length_c 15.912169
_cell_angle_alpha 90.000000
_cell_angle_beta 90.000000
_cell_angle_gamma 90.000000
_cell_volume 1515.582518
_symmetry_space_group_name_H-M "P N N N"
_symmetry_group_IT_number 48
_space_group.IT_coordinate_system_code '2'
_symmetry_cell_setting 'orthorhombic'
loop_
_space_group_symop_operation_xyz
x,y,z
1/2-x,1/2-y,z
x,1/2-y,1/2-z
1/2-x,y,1/2-z
-x,-y,-z
1/2+x,1/2+y,-z
-x,1/2+y,1/2+z
1/2+x,-y,1/2+z
loop_
_atom_site_type_symbol
_atom_site_label
_atom_site_fract_x
_atom_site_fract_y
_atom_site_fract_z
Si Si1 0.066180 0.733338 0.370617
Si Si2 0.960339 0.621420 0.686888
Si Si3 0.633324 0.924120 0.196041
Si Si4 0.621334 0.317383 0.441379
Si Si5 0.250000 0.750000 0.250000
O O1 0.095270 0.540516 0.356761
O O2 0.076923 0.801926 0.463635
O O3 0.158788 0.831063 0.313542
O O4 0.940288 0.765799 0.332388
O O5 0.896412 0.750000 0.750000
O O6 0.054419 0.544667 0.749536
O O7 0.029748 0.716265 0.614271
O O8 0.750000 0.911717 0.250000
O O9 0.642689 0.012091 0.105661
O O10 0.750000 0.250000 0.442218
#
# Coordination Sequence:
#
# PCOD9391077 Si02
#       5
#     8   8   8   8   2
#     4  12  24  44  66  96 139 183 234 283 344 427
#     4  10  22  40  67  95 130 177 226 288 345 407
#     4  11  22  41  69 103 133 175 232 293 343 409
#     4  11  22  40  68 100 141 180 222 287 360 409
#     4  12  24  40  64  84 126 192 222 266 352 420
#
# _framework density 22.433619
#
# number of rings (size 3 to 8) (size 9 to 14) (size 15 to 20)
#    0.000    0.941    5.882    1.412    0.000    1.882 
#    0.000    0.588    0.000    0.000    0.000    0.000 
#    0.000    0.000    0.000    0.000    0.000    0.000 
#
# Total GULP energy -189278.997781 kJ/mol
# GULP energy per Si atom -5567.029347 kJ/mol
# Density = 2.238256 g / cm^3
# Si number density = 22.433619 Si / 1000 Ang^3
#
#
#
# Elastic Constant Matrix: (Units=GPa)
#
#
# Indices 1 2 3 4 5 6 
#
# 1 91.6908 36.2656 29.6231 0.0000 0.0000 0.0000
# 2 36.2656 97.0750 55.4692 0.0000 0.0000 0.0000
# 3 29.6231 55.4692 197.0423 0.0000 0.0000 0.0000
# 4 0.0000 0.0000 0.0000 -0.4797 0.0000 0.0000
# 5 0.0000 0.0000 0.0000 0.0000 19.7903 0.0000
# 6 0.0000 0.0000 0.0000 0.0000 0.0000 17.6462
#
#
#
# Elastic Compliance Matrix: (Units=1/GPa)
#
#
# Indices 1 2 3 4 5 6 
#
# 1 0.012876 -0.004414 -0.000693 0.000000 0.000000 0.000000
# 2 -0.004414 0.013789 -0.003218 0.000000 0.000000 0.000000
# 3 -0.000693 -0.003218 0.006085 0.000000 0.000000 0.000000
# 4 0.000000 0.000000 0.000000 -2.084719 0.000000 0.000000
# 5 0.000000 0.000000 0.000000 0.000000 0.050530 0.000000
# 6 0.000000 0.000000 0.000000 0.000000 0.000000 0.056669
#
#
# Mechanical properties :
#
#
# Convention : Reuss Voigt Hill
#
# Bulk Modulus (GPa) = 62.11376 69.83596 65.97486
# Shear Modulus (GPa) = -2.60044 25.02139 11.21047
#
# Velocity S-wave (km/s) = -1.07782 3.34331 2.23786
# Velocity P-wave (km/s) = 5.11850 6.78979 6.01250
#
# Compressibility (1/GPa) = 0.01609949
#
# Stress axis : x y z
#
# Youngs Moduli (GPa) = 77.66342 72.52013 164.33307
#
# Poissons Ratio (x) = 0.32012 0.11390
# Poissons Ratio (y) = 0.34282 0.52885
# Poissons Ratio (z) = 0.05383 0.23338
#
# Static dielectric constant tensor:
#      x y z
#    x 1.817980 0.000000 0.000000 
#    y 0.000000 2.055720 0.000000 
#    z 0.000000 0.000000 1.881390 
# 
# From -- ./inp_files/26065.got.cif
#   From: 2010.05.17/outbox.cif.g08.bks.cpg/sg48_14_cif.got.tgz:26065.got - 2010.06.03 20:39:00.
