data_PCOD9391972
_publ_section_title
;
Structure prediction by ZEFSAII (Michael W. Deem and Ramdas Pophale) SiO2 
 PCOD9391972
Probable space group: P N N N
;
_chemical_formula_sum "Si O2"
_cell_formula_units_Z 56
_cell_length_a 21.000000
_cell_length_b 15.000000
_cell_length_c 9.000000
_cell_angle_alpha 90.000000
_cell_angle_beta 90.000000
_cell_angle_gamma 90.000000
_cell_volume 2835.000000
_symmetry_space_group_name_H-M "P N N N"
_symmetry_group_IT_number 48
_space_group.IT_coordinate_system_code '2'
_symmetry_cell_setting 'orthorhombic'
loop_
_space_group_symop_operation_xyz
x,y,z
1/2-x,1/2-y,z
x,1/2-y,1/2-z
1/2-x,y,1/2-z
-x,-y,-z
1/2+x,1/2+y,-z
-x,1/2+y,1/2+z
1/2+x,-y,1/2+z
loop_
_atom_site_type_symbol
_atom_site_label
_atom_site_fract_x
_atom_site_fract_y
_atom_site_fract_z
Si Si1 0.903361 0.540124 0.147144
Si Si2 0.250000 0.250000 0.019700
Si Si3 0.067705 0.663134 0.803436
Si Si4 0.470418 0.412507 0.081507
Si Si5 0.966938 0.339252 0.853005
Si Si6 0.377964 0.998899 0.188333
Si Si7 0.872884 0.677300 0.358235
Si Si8 0.750000 0.910204 0.750000
O O1 0.904502 0.436677 0.191384
O O2 0.856578 0.593287 0.255335
O O3 0.972180 0.591695 0.163023
O O4 0.883220 0.538772 0.976816
O O5 0.259831 0.160596 0.116737
O O6 0.187378 0.225734 0.928060
O O7 0.107010 0.750000 0.750000
O O8 0.018634 0.651457 0.667009
O O9 0.039158 0.676920 0.969293
O O10 0.427915 0.450108 0.212027
O O11 0.500000 0.500000 0.000000
O O12 0.424512 0.356953 0.974456
O O13 0.966929 0.250000 0.750000
O O14 0.903714 0.397689 0.813945
O O15 0.310378 0.024979 0.256578
O O16 0.902770 0.750000 0.250000
#
# Coordination Sequence:
#
# PCOD9391972 Si02
#       8
#     8   4   8   8   8   8   8   4
#     4  11  22  43  63  95 138 175 220 282 349 402
#     4  11  25  44  62 100 134 178 238 270 332 414
#     4  11  24  36  59  98 137 167 220 274 347 414
#     4  12  23  42  66  94 135 179 217 277 346 413
#     4  11  23  40  65  97 133 175 223 285 342 414
#     4  11  22  44  65  91 132 179 223 273 342 405
#     4  12  25  39  64  94 136 177 225 275 334 410
#     4  11  24  42  69  92 134 184 225 278 335 414
#
# _framework density 19.753086
#
# number of rings (size 3 to 8) (size 9 to 14) (size 15 to 20)
#    0.000    0.714    5.714    2.357    6.000    1.143 
#    0.000    0.357    0.000    0.000    0.000    0.000 
#    0.000    0.000    0.000    0.000    0.000    0.000 
#
# Total GULP energy -312220.884209 kJ/mol
# GULP energy per Si atom -5575.372932 kJ/mol
# Density = 1.970813 g / cm^3
# Si number density = 19.753086 Si / 1000 Ang^3
#
#
#
# Elastic Constant Matrix: (Units=GPa)
#
#
# Indices 1 2 3 4 5 6 
#
# 1 68.0194 52.9024 11.1633 0.0000 0.0000 0.0000
# 2 52.9024 150.0209 61.0750 0.0000 0.0000 0.0000
# 3 11.1633 61.0750 97.8704 0.0000 0.0000 0.0000
# 4 0.0000 0.0000 0.0000 89.3185 0.0000 0.0000
# 5 0.0000 0.0000 0.0000 0.0000 50.7459 0.0000
# 6 0.0000 0.0000 0.0000 0.0000 0.0000 27.6226
#
#
#
# Elastic Compliance Matrix: (Units=1/GPa)
#
#
# Indices 1 2 3 4 5 6 
#
# 1 0.020881 -0.008571 0.002967 0.000000 0.000000 0.000000
# 2 -0.008571 0.012454 -0.006794 0.000000 0.000000 0.000000
# 3 0.002967 -0.006794 0.014119 0.000000 0.000000 0.000000
# 4 0.000000 0.000000 0.000000 0.011196 0.000000 0.000000
# 5 0.000000 0.000000 0.000000 0.000000 0.019706 0.000000
# 6 0.000000 0.000000 0.000000 0.000000 0.000000 0.036202
#
#
# Mechanical properties :
#
#
# Convention : Reuss Voigt Hill
#
# Bulk Modulus (GPa) = 44.13561 62.91024 53.52292
# Shear Modulus (GPa) = 34.03485 46.25541 40.14513
#
# Velocity S-wave (km/s) = 4.15542 4.84434 4.51305
# Velocity P-wave (km/s) = 6.73911 7.95032 7.36964
#
# Compressibility (1/GPa) = 0.02265744
#
# Stress axis : x y z
#
# Youngs Moduli (GPa) = 47.89015 80.29342 70.82606
#
# Poissons Ratio (x) = 0.68822 -0.21015
# Poissons Ratio (y) = 0.41048 0.48122
# Poissons Ratio (z) = -0.14210 0.54554
#
# Static dielectric constant tensor:
#      x y z
#    x 1.809850 0.000000 0.000000 
#    y 0.000000 1.543730 0.000000 
#    z 0.000000 0.000000 1.737690 
# 
# From -- ./inp_files/15326.got.cif
#   From: 2010.05.17/outbox.ucp.g08.bks.cvg/sg48_8_cif.got.tgz:15326.got - 2010.06.11 16:38:40.
