data_PCOD9391779
_publ_section_title
;
Structure prediction by ZEFSAII (Michael W. Deem and Ramdas Pophale) SiO2 
 PCOD9391779
Probable space group: P N N N
;
_chemical_formula_sum "Si O2"
_cell_formula_units_Z 60
_cell_length_a 11.799590
_cell_length_b 11.521707
_cell_length_c 21.212590
_cell_angle_alpha 90.000000
_cell_angle_beta 90.000000
_cell_angle_gamma 90.000000
_cell_volume 2883.881705
_symmetry_space_group_name_H-M "P N N N"
_symmetry_group_IT_number 48
_space_group.IT_coordinate_system_code '2'
_symmetry_cell_setting 'orthorhombic'
loop_
_space_group_symop_operation_xyz
x,y,z
1/2-x,1/2-y,z
x,1/2-y,1/2-z
1/2-x,y,1/2-z
-x,-y,-z
1/2+x,1/2+y,-z
-x,1/2+y,1/2+z
1/2+x,-y,1/2+z
loop_
_atom_site_type_symbol
_atom_site_label
_atom_site_fract_x
_atom_site_fract_y
_atom_site_fract_z
Si Si1 0.250000 0.250000 0.398472
Si Si2 0.697035 0.986134 0.398020
Si Si3 0.834594 0.142427 0.995321
Si Si4 0.093269 0.293315 0.513928
Si Si5 0.921258 0.365125 0.824689
Si Si6 0.058223 0.454923 0.935576
Si Si7 0.499152 0.401589 0.814544
Si Si8 0.218662 0.506794 0.371111
O O1 0.142522 0.273877 0.444371
O O2 0.262951 0.374597 0.364256
O O3 0.664186 0.888469 0.449267
O O4 0.831827 0.009082 0.401596
O O5 0.626256 0.941020 0.337552
O O6 0.653129 0.100703 0.432769
O O7 0.750000 0.250000 0.990680
O O8 0.962820 0.172241 0.978867
O O9 0.785751 0.049986 0.944236
O O10 0.102684 0.171736 0.547822
O O11 0.961829 0.231122 0.832439
O O12 0.979063 0.405609 0.760033
O O13 0.788332 0.397740 0.829497
O O14 0.963875 0.440491 0.883184
O O15 0.000000 0.500000 0.000000
O O16 0.589269 0.484991 0.848135
#
# Coordination Sequence:
#
# PCOD9391779 Si02
#       8
#     4   8   8   8   8   8   8   8
#     4  12  24  36  65  94 133 176 218 272 342 400
#     4  12  22  39  60  91 132 166 208 265 331 404
#     4  12  23  37  64  95 130 167 215 268 331 399
#     4  12  20  37  57  93 131 163 202 266 330 394
#     4  11  24  41  65  96 129 168 223 276 334 405
#     4  12  23  39  63  94 131 165 209 269 338 396
#     4  11  24  42  66  93 127 176 220 275 338 401
#     4  12  22  41  62  96 131 175 221 275 333 399
#
# _framework density 20.805291
#
# number of rings (size 3 to 8) (size 9 to 14) (size 15 to 20)
#    0.000    0.267    5.333    6.000    0.000    1.600 
#    0.000    2.667    0.000    0.000    0.000    2.800 
#    0.000    0.000    0.000    0.000    0.000    0.000 
#
# Total GULP energy -334548.812876 kJ/mol
# GULP energy per Si atom -5575.813548 kJ/mol
# Density = 2.075794 g / cm^3
# Si number density = 20.805291 Si / 1000 Ang^3
#
#
#
# Elastic Constant Matrix: (Units=GPa)
#
#
# Indices 1 2 3 4 5 6 
#
# 1 113.4899 9.3628 15.1207 0.0000 0.0000 0.0000
# 2 9.3628 76.6386 19.6547 0.0000 0.0000 0.0000
# 3 15.1207 19.6547 89.7005 0.0000 0.0000 0.0000
# 4 0.0000 0.0000 0.0000 29.2892 0.0000 0.0000
# 5 0.0000 0.0000 0.0000 0.0000 36.2499 0.0000
# 6 0.0000 0.0000 0.0000 0.0000 0.0000 18.3257
#
#
#
# Elastic Compliance Matrix: (Units=1/GPa)
#
#
# Indices 1 2 3 4 5 6 
#
# 1 0.009055 -0.000757 -0.001360 0.000000 0.000000 0.000000
# 2 -0.000757 0.013888 -0.002915 0.000000 0.000000 0.000000
# 3 -0.001360 -0.002915 0.012016 0.000000 0.000000 0.000000
# 4 0.000000 0.000000 0.000000 0.034142 0.000000 0.000000
# 5 0.000000 0.000000 0.000000 0.000000 0.027586 0.000000
# 6 0.000000 0.000000 0.000000 0.000000 0.000000 0.054568
#
#
# Mechanical properties :
#
#
# Convention : Reuss Voigt Hill
#
# Bulk Modulus (GPa) = 40.17139 40.90060 40.53600
# Shear Modulus (GPa) = 29.47747 32.48569 30.98158
#
# Velocity S-wave (km/s) = 3.76816 3.95576 3.86310
# Velocity P-wave (km/s) = 6.18726 6.36910 6.27884
#
# Compressibility (1/GPa) = 0.02489334
#
# Stress axis : x y z
#
# Youngs Moduli (GPa) = 110.43500 72.00213 83.21984
#
# Poissons Ratio (x) = 0.05453 0.11322
# Poissons Ratio (y) = 0.08364 0.24263
# Poissons Ratio (z) = 0.15024 0.20992
#
# Static dielectric constant tensor:
#      x y z
#    x 1.959460 0.000000 0.000000 
#    y 0.000000 1.779080 0.000000 
#    z 0.000000 0.000000 1.759440 
# 
# From -- ./inp_files/34199.got.cif
#   From: 2010.05.17/outbox.cif.g08.bks.cpg/sg48_18_cif.got.tgz:34199.got - 2010.06.03 20:39:00.
