data_PCOD9391843
_publ_section_title
;
Structure prediction by ZEFSAII (Michael W. Deem and Ramdas Pophale) SiO2 
 PCOD9391843
Probable space group: P N N N
;
_chemical_formula_sum "Si O2"
_cell_formula_units_Z 40
_cell_length_a 23.963957
_cell_length_b 8.486924
_cell_length_c 8.496059
_cell_angle_alpha 90.000000
_cell_angle_beta 90.000000
_cell_angle_gamma 90.000000
_cell_volume 1727.930874
_symmetry_space_group_name_H-M "P N N N"
_symmetry_group_IT_number 48
_space_group.IT_coordinate_system_code '2'
_symmetry_cell_setting 'orthorhombic'
loop_
_space_group_symop_operation_xyz
x,y,z
1/2-x,1/2-y,z
x,1/2-y,1/2-z
1/2-x,y,1/2-z
-x,-y,-z
1/2+x,1/2+y,-z
-x,1/2+y,1/2+z
1/2+x,-y,1/2+z
loop_
_atom_site_type_symbol
_atom_site_label
_atom_site_fract_x
_atom_site_fract_y
_atom_site_fract_z
Si Si1 0.836597 0.125117 0.629916
Si Si2 0.358297 0.861458 0.616759
Si Si3 0.436253 0.423766 0.321855
Si Si4 0.755794 0.568952 0.439390
Si Si5 0.052687 0.073073 0.700129
O O1 0.811218 0.250000 0.750000
O O2 0.874485 0.235302 0.515637
O O3 0.877484 0.004031 0.715428
O O4 0.790985 0.033105 0.527813
O O5 0.329778 0.750000 0.750000
O O6 0.315298 0.985010 0.542597
O O7 0.407242 0.953604 0.705722
O O8 0.439970 0.250000 0.250000
O O9 0.439039 0.426164 0.512063
O O10 0.489213 0.523769 0.263922
O O11 0.750000 0.750000 0.493323
O O12 0.750000 0.570393 0.250000
O O13 0.065482 0.250000 0.750000
#
# Coordination Sequence:
#
# PCOD9391843 Si02
#       5
#     8   8   8   8   8
#     4  12  28  48  73 112 152 198 246 313 387 446
#     4  12  24  46  77 106 146 195 255 307 367 453
#     4  11  26  47  72 108 156 194 247 312 378 448
#     4  11  25  45  76 110 144 195 255 309 368 441
#     4  11  26  45  76 111 144 200 255 306 376 447
#
# _framework density 23.149075
#
# number of rings (size 3 to 8) (size 9 to 14) (size 15 to 20)
#    0.000    0.600    4.000    1.800   11.200    2.400 
#    0.000    1.000    0.000    0.000    0.000    0.000 
#    0.000    0.000    0.000    0.000    0.000    0.000 
#
# Total GULP energy -223858.528480 kJ/mol
# GULP energy per Si atom -5596.463212 kJ/mol
# Density = 2.309639 g / cm^3
# Si number density = 23.149075 Si / 1000 Ang^3
#
#
#
# Elastic Constant Matrix: (Units=GPa)
#
#
# Indices 1 2 3 4 5 6 
#
# 1 118.7160 41.5761 39.9567 0.0000 0.0000 0.0000
# 2 41.5761 140.7511 57.5825 0.0000 0.0000 0.0000
# 3 39.9567 57.5825 70.5009 0.0000 0.0000 0.0000
# 4 0.0000 0.0000 0.0000 44.9690 0.0000 0.0000
# 5 0.0000 0.0000 0.0000 0.0000 -5.1787 0.0000
# 6 0.0000 0.0000 0.0000 0.0000 0.0000 38.3722
#
#
#
# Elastic Compliance Matrix: (Units=1/GPa)
#
#
# Indices 1 2 3 4 5 6 
#
# 1 0.010502 -0.001002 -0.005134 0.000000 0.000000 0.000000
# 2 -0.001002 0.010766 -0.008225 0.000000 0.000000 0.000000
# 3 -0.005134 -0.008225 0.023812 0.000000 0.000000 0.000000
# 4 0.000000 0.000000 0.000000 0.022238 0.000000 0.000000
# 5 0.000000 0.000000 0.000000 0.000000 -0.193101 0.000000
# 6 0.000000 0.000000 0.000000 0.000000 0.000000 0.026061
#
#
# Mechanical properties :
#
#
# Convention : Reuss Voigt Hill
#
# Bulk Modulus (GPa) = 61.13255 67.57765 64.35510
# Shear Modulus (GPa) = -76.27998 28.35602 -23.96198
#
# Velocity S-wave (km/s) = -5.74658 3.50370 -3.22081
# Velocity P-wave (km/s) = 4.19110 6.75453 3.74555
#
# Compressibility (1/GPa) = 0.01635790
#
# Stress axis : x y z
#
# Youngs Moduli (GPa) = 95.21738 92.88778 41.99583
#
# Poissons Ratio (x) = 0.09307 0.21560
# Poissons Ratio (y) = 0.09540 0.34542
# Poissons Ratio (z) = 0.48884 0.76402
#
# Static dielectric constant tensor:
#      x y z
#    x 1.832520 0.000000 0.000000 
#    y 0.000000 1.821450 0.000000 
#    z 0.000000 0.000000 1.974280 
# 
# From -- ./inp_files/15720.got.cif
#   From: 2010.05.17/outbox.cif.g08.bks.cpg/sg48_8_cif.got.tgz:15720.got - 2010.06.03 20:39:00.
