data_PCOD9391121
_publ_section_title
;
Structure prediction by ZEFSAII (Michael W. Deem and Ramdas Pophale) SiO2 
 PCOD9391121
Probable space group: P N N N
;
_chemical_formula_sum "Si O2"
_cell_formula_units_Z 40
_cell_length_a 19.100742
_cell_length_b 5.766428
_cell_length_c 17.146062
_cell_angle_alpha 90.000000
_cell_angle_beta 90.000000
_cell_angle_gamma 90.000000
_cell_volume 1888.519624
_symmetry_space_group_name_H-M "P N N N"
_symmetry_group_IT_number 48
_space_group.IT_coordinate_system_code '2'
_symmetry_cell_setting 'orthorhombic'
loop_
_space_group_symop_operation_xyz
x,y,z
1/2-x,1/2-y,z
x,1/2-y,1/2-z
1/2-x,y,1/2-z
-x,-y,-z
1/2+x,1/2+y,-z
-x,1/2+y,1/2+z
1/2+x,-y,1/2+z
loop_
_atom_site_type_symbol
_atom_site_label
_atom_site_fract_x
_atom_site_fract_y
_atom_site_fract_z
Si Si1 0.750000 0.750000 0.750000
Si Si2 0.844732 0.924697 0.887806
Si Si3 0.250000 0.750000 0.495524
Si Si4 0.131363 0.068482 0.820598
Si Si5 0.250000 0.750000 0.750000
Si Si6 0.525009 0.994500 0.707051
Si Si7 0.827907 0.850346 0.466594
O O1 0.801040 0.884975 0.808821
O O2 0.795672 0.088644 0.939208
O O3 0.920427 0.015418 0.863923
O O4 0.852654 0.702188 0.945211
O O5 0.310585 0.619313 0.543505
O O6 0.135035 0.250000 0.750000
O O7 0.131364 0.215693 0.900380
O O8 0.055532 0.951266 0.815990
O O9 0.197931 0.904857 0.803411
O O10 0.528187 0.250000 0.750000
O O11 0.546162 0.750000 0.750000
O O12 0.750000 0.750000 0.458397
#
# Coordination Sequence:
#
# PCOD9391121 Si02
#       7
#     2   8   4   8   2   8   8
#     4  12  20  40  64 100 140 174 246 280 366 410
#     4  11  24  39  68 101 138 188 233 292 354 426
#     4  10  22  42  64 106 138 188 230 303 349 433
#     4  11  25  44  70 103 135 183 235 296 362 430
#     4  12  22  44  80 100 124 188 242 298 362 434
#     4  11  26  47  68 102 148 186 238 298 359 431
#     4  10  22  43  64 102 143 171 240 294 356 415
#
# _framework density 21.180610999999999
#
# number of rings (size 3 to 8) (size 9 to 14) (size 15 to 20)
#    0.000    1.200    5.000    1.500    5.600    8.000 
#    0.000    1.000    0.000    0.000    0.000    0.000 
#    0.000    0.000    0.000    0.000    0.000    0.000 
#
# Total GULP energy -222853.033147 kJ/mol
# GULP energy per Si atom -5571.325829 kJ/mol
# Density = 2.113240 g / cm^3
# Si number density = 21.180611 Si / 1000 Ang^3
#
#
#
# Elastic Constant Matrix: (Units=GPa)
#
#
# Indices 1 2 3 4 5 6 
#
# 1 119.9340 27.8719 21.6542 0.0000 0.0000 0.0000
# 2 27.8719 83.9061 34.8712 0.0000 0.0000 0.0000
# 3 21.6542 34.8712 92.7914 0.0000 0.0000 0.0000
# 4 0.0000 0.0000 0.0000 28.5647 0.0000 0.0000
# 5 0.0000 0.0000 0.0000 0.0000 19.6723 0.0000
# 6 0.0000 0.0000 0.0000 0.0000 0.0000 30.2961
#
#
#
# Elastic Compliance Matrix: (Units=1/GPa)
#
#
# Indices 1 2 3 4 5 6 
#
# 1 0.009142 -0.002548 -0.001176 0.000000 0.000000 0.000000
# 2 -0.002548 0.014834 -0.004980 0.000000 0.000000 0.000000
# 3 -0.001176 -0.004980 0.012923 0.000000 0.000000 0.000000
# 4 0.000000 0.000000 0.000000 0.035008 0.000000 0.000000
# 5 0.000000 0.000000 0.000000 0.000000 0.050833 0.000000
# 6 0.000000 0.000000 0.000000 0.000000 0.000000 0.033008
#
#
# Mechanical properties :
#
#
# Convention : Reuss Voigt Hill
#
# Bulk Modulus (GPa) = 51.30547 51.71398 51.50973
# Shear Modulus (GPa) = 27.83136 29.85558 28.84347
#
# Velocity S-wave (km/s) = 3.62885 3.75850 3.69424
# Velocity P-wave (km/s) = 6.46788 6.58056 6.52447
#
# Compressibility (1/GPa) = 0.01949110
#
# Stress axis : x y z
#
# Youngs Moduli (GPa) = 109.38027 67.41155 77.38268
#
# Poissons Ratio (x) = 0.17178 0.09099
# Poissons Ratio (y) = 0.27873 0.38537
# Poissons Ratio (z) = 0.12862 0.33571
#
# Static dielectric constant tensor:
#      x y z
#    x 1.736930 0.000000 0.000000 
#    y 0.000000 2.397850 0.000000 
#    z 0.000000 0.000000 1.824090 
# 
# From -- ./inp_files/29455.got.cif
#   From: 2010.05.17/outbox.cif.g08.bks.cpg/sg48_15_cif.got.tgz:29455.got - 2010.06.03 20:39:00.
