data_PCOD9391211
_publ_section_title
;
Structure prediction by ZEFSAII (Michael W. Deem and Ramdas Pophale) SiO2 
 PCOD9391211
Probable space group: P N N N
;
_chemical_formula_sum "Si O2"
_cell_formula_units_Z 42
_cell_length_a 5.479914
_cell_length_b 24.059631
_cell_length_c 13.467081
_cell_angle_alpha 90.000000
_cell_angle_beta 90.000000
_cell_angle_gamma 90.000000
_cell_volume 1775.563372
_symmetry_space_group_name_H-M "P N N N"
_symmetry_group_IT_number 48
_space_group.IT_coordinate_system_code '2'
_symmetry_cell_setting 'orthorhombic'
loop_
_space_group_symop_operation_xyz
x,y,z
1/2-x,1/2-y,z
x,1/2-y,1/2-z
1/2-x,y,1/2-z
-x,-y,-z
1/2+x,1/2+y,-z
-x,1/2+y,1/2+z
1/2+x,-y,1/2+z
loop_
_atom_site_type_symbol
_atom_site_label
_atom_site_fract_x
_atom_site_fract_y
_atom_site_fract_z
Si Si1 0.846233 0.588554 0.375785
Si Si2 0.632854 0.115213 0.073688
Si Si3 0.639891 0.575771 0.888813
Si Si4 0.922774 0.699248 0.080087
Si Si5 0.162429 0.954389 0.377051
Si Si6 0.750000 0.250000 0.750000
O O1 0.872179 0.572474 0.491390
O O2 0.753717 0.651109 0.379812
O O3 0.613757 0.552702 0.338341
O O4 0.121752 0.585570 0.338818
O O5 0.592653 0.170118 0.004901
O O6 0.630066 0.063966 0.993131
O O7 0.383887 0.110146 0.135797
O O8 0.881982 0.105037 0.133657
O O9 0.708614 0.513372 0.858862
O O10 0.750000 0.750000 0.045038
O O11 0.081502 0.716639 0.173760
#
# Coordination Sequence:
#
# PCOD9391211 Si02
#       6
#     8   8   8   8   8   2
#     4   9  17  26  42  58  78  91 115 151 194 248
#     4   9  17  26  42  58  78  91 115 151 194 248
#     4   9  14  24  41  63  82  96 103 124 181 265
#     4  10  23  35  44  55  66  95 138 189 224 250
#     4   9  14  24  41  63  82  96 103 124 181 265
#     4  12  26  36  52  46  64 100 158 196 242 252
#
# _framework density 23.654463
#
# number of rings (size 3 to 8) (size 9 to 14) (size 15 to 20)
#    0.000    3.048    0.000    6.000   10.667    0.000 
#    0.000    0.000    0.000    0.000    0.000    0.000 
#    0.000    0.000    0.000    0.000    0.000    0.000 
#
# Total GULP energy -234124.046249 kJ/mol
# GULP energy per Si atom -5574.382054 kJ/mol
# Density = 2.360062 g / cm^3
# Si number density = 23.654463 Si / 1000 Ang^3
#
#
#
# Elastic Constant Matrix: (Units=GPa)
#
#
# Indices 1 2 3 4 5 6 
#
# 1 261.4033 59.5451 30.1259 0.0000 0.0000 0.0000
# 2 59.5451 131.3678 17.6401 0.0000 0.0000 0.0000
# 3 30.1259 17.6401 49.6226 0.0000 0.0000 0.0000
# 4 0.0000 0.0000 0.0000 -85.7326 0.0000 0.0000
# 5 0.0000 0.0000 0.0000 0.0000 25.6068 0.0000
# 6 0.0000 0.0000 0.0000 0.0000 0.0000 454.5728
#
#
#
# Elastic Compliance Matrix: (Units=1/GPa)
#
#
# Indices 1 2 3 4 5 6 
#
# 1 0.004463 -0.001742 -0.002090 0.000000 0.000000 0.000000
# 2 -0.001742 0.008674 -0.002026 0.000000 0.000000 0.000000
# 3 -0.002090 -0.002026 0.022141 0.000000 0.000000 0.000000
# 4 0.000000 0.000000 0.000000 -0.011664 0.000000 0.000000
# 5 0.000000 0.000000 0.000000 0.000000 0.039052 0.000000
# 6 0.000000 0.000000 0.000000 0.000000 0.000000 0.002200
#
#
# Mechanical properties :
#
#
# Convention : Reuss Voigt Hill
#
# Bulk Modulus (GPa) = 42.44152 73.00176 57.72164
# Shear Modulus (GPa) = 59.21572 101.22822 80.22197
#
# Velocity S-wave (km/s) = 5.00879 6.54885 5.82990
# Velocity P-wave (km/s) = 7.17160 9.38680 8.35296
#
# Compressibility (1/GPa) = 0.02356183
#
# Stress axis : x y z
#
# Youngs Moduli (GPa) = 224.04918 115.28709 45.16464
#
# Poissons Ratio (x) = 0.20088 0.09441
# Poissons Ratio (y) = 0.39038 0.09149
# Poissons Ratio (z) = 0.46832 0.23353
#
# Static dielectric constant tensor:
#      x y z
#    x 1.827700 0.000000 0.000000 
#    y 0.000000 1.952500 0.000000 
#    z 0.000000 0.000000 1.992180 
# 
# From -- ./inp_files/32864.got.cif
#   From: 2010.05.17/outbox.cif.g08.bks.cpg/sg48_17_cif.got.tgz:32864.got - 2010.06.03 20:39:00.
