data_PCOD9391463
_publ_section_title
;
Structure prediction by ZEFSAII (Michael W. Deem and Ramdas Pophale) SiO2 
 PCOD9391463
Probable space group: P N N N
;
_chemical_formula_sum "Si O2"
_cell_formula_units_Z 32
_cell_length_a 13.541113
_cell_length_b 5.543035
_cell_length_c 19.074785
_cell_angle_alpha 90.000000
_cell_angle_beta 90.000000
_cell_angle_gamma 90.000000
_cell_volume 1431.731680
_symmetry_space_group_name_H-M "P N N N"
_symmetry_group_IT_number 48
_space_group.IT_coordinate_system_code '2'
_symmetry_cell_setting 'orthorhombic'
loop_
_space_group_symop_operation_xyz
x,y,z
1/2-x,1/2-y,z
x,1/2-y,1/2-z
1/2-x,y,1/2-z
-x,-y,-z
1/2+x,1/2+y,-z
-x,1/2+y,1/2+z
1/2+x,-y,1/2+z
loop_
_atom_site_type_symbol
_atom_site_label
_atom_site_fract_x
_atom_site_fract_y
_atom_site_fract_z
Si Si1 0.909104 0.399702 0.045776
Si Si2 0.750000 0.250000 0.947713
Si Si3 0.098161 0.899648 0.813382
Si Si4 0.582122 0.750000 0.750000
Si Si5 0.250000 0.250000 0.612782
Si Si6 0.750000 0.750000 0.863351
O O1 0.931171 0.263598 0.118887
O O2 0.826814 0.598351 0.066285
O O3 0.847384 0.226928 0.995316
O O4 0.000000 0.500000 0.000000
O O5 0.749411 0.499500 0.905337
O O6 0.145337 0.750000 0.750000
O O7 0.993946 0.960516 0.775190
O O8 0.176518 0.090657 0.840088
O O9 0.654256 0.783803 0.814661
#
# Coordination Sequence:
#
# PCOD9391463 Si02
#       6
#     8   4   8   4   4   4
#     4  12  27  45  74 112 151 202 255 319 393 468
#     4  12  26  47  79 114 160 204 262 324 388 472
#     4  10  25  48  70 108 148 198 259 315 398 462
#     4   9  24  50  75 112 150 206 259 325 392 472
#     4  12  25  49  74 104 154 198 250 330 380 482
#     4  11  25  50  80 112 160 202 268 326 390 470
#
# _framework density 22.350557999999999
#
# number of rings (size 3 to 8) (size 9 to 14) (size 15 to 20)
#    0.750    0.250    2.500    2.250    3.500    7.000 
#    4.500    0.000    0.000    0.000    0.000    0.000 
#    0.000    0.000    0.000    0.000    0.000    0.000 
#
# Total GULP energy -178469.611686 kJ/mol
# GULP energy per Si atom -5577.175365 kJ/mol
# Density = 2.229969 g / cm^3
# Si number density = 22.350558 Si / 1000 Ang^3
#
#
#
# Elastic Constant Matrix: (Units=GPa)
#
#
# Indices 1 2 3 4 5 6 
#
# 1 183.2600 47.8764 72.2151 0.0000 0.0000 0.0000
# 2 47.8764 104.7569 73.7193 0.0000 0.0000 0.0000
# 3 72.2151 73.7193 156.8073 0.0000 0.0000 0.0000
# 4 0.0000 0.0000 0.0000 -12.9418 0.0000 0.0000
# 5 0.0000 0.0000 0.0000 0.0000 120.3653 0.0000
# 6 0.0000 0.0000 0.0000 0.0000 0.0000 16.5252
#
#
#
# Elastic Compliance Matrix: (Units=1/GPa)
#
#
# Indices 1 2 3 4 5 6 
#
# 1 0.006792 -0.001349 -0.002494 0.000000 0.000000 0.000000
# 2 -0.001349 0.014533 -0.006211 0.000000 0.000000 0.000000
# 3 -0.002494 -0.006211 0.010446 0.000000 0.000000 0.000000
# 4 0.000000 0.000000 0.000000 -0.077269 0.000000 0.000000
# 5 0.000000 0.000000 0.000000 0.000000 0.008308 0.000000
# 6 0.000000 0.000000 0.000000 0.000000 0.000000 0.060514
#
#
# Mechanical properties :
#
#
# Convention : Reuss Voigt Hill
#
# Bulk Modulus (GPa) = 85.74152 92.49398 89.11775
# Shear Modulus (GPa) = 105.66454 41.52395 73.59424
#
# Velocity S-wave (km/s) = 6.88322 4.31495 5.74445
# Velocity P-wave (km/s) = 10.08052 8.14237 9.16284
#
# Compressibility (1/GPa) = 0.01166296
#
# Stress axis : x y z
#
# Youngs Moduli (GPa) = 147.23587 68.80656 95.73350
#
# Poissons Ratio (x) = 0.09284 0.23871
# Poissons Ratio (y) = 0.19866 0.59462
# Poissons Ratio (z) = 0.36714 0.42737
#
# Static dielectric constant tensor:
#      x y z
#    x 2.037300 0.000000 0.000000 
#    y 0.000000 1.867980 0.000000 
#    z 0.000000 0.000000 1.897660 
# 
# From -- ./inp_files/31377.got.cif
#   From: 2010.05.17/outbox.cif.g08.bks.cpg/sg48_16_cif.got.tgz:31377.got - 2010.06.03 20:39:00.
