data_PCOD9391679
_publ_section_title
;
Structure prediction by ZEFSAII (Michael W. Deem and Ramdas Pophale) SiO2 
 PCOD9391679
Probable space group: P N N N
;
_chemical_formula_sum "Si O2"
_cell_formula_units_Z 58
_cell_length_a 9.056358
_cell_length_b 18.564577
_cell_length_c 17.294771
_cell_angle_alpha 90.000000
_cell_angle_beta 90.000000
_cell_angle_gamma 90.000000
_cell_volume 2907.725840
_symmetry_space_group_name_H-M "P N N N"
_symmetry_group_IT_number 48
_space_group.IT_coordinate_system_code '2'
_symmetry_cell_setting 'orthorhombic'
loop_
_space_group_symop_operation_xyz
x,y,z
1/2-x,1/2-y,z
x,1/2-y,1/2-z
1/2-x,y,1/2-z
-x,-y,-z
1/2+x,1/2+y,-z
-x,1/2+y,1/2+z
1/2+x,-y,1/2+z
loop_
_atom_site_type_symbol
_atom_site_label
_atom_site_fract_x
_atom_site_fract_y
_atom_site_fract_z
Si Si1 0.580866 0.735805 0.493859
Si Si2 0.072801 0.873431 0.052026
Si Si3 0.941569 0.595218 0.926496
Si Si4 0.735412 0.487818 0.468496
Si Si5 0.250000 0.750000 0.250000
Si Si6 0.614369 0.347581 0.627117
Si Si7 0.090939 0.996311 0.289698
Si Si8 0.145681 0.065470 0.820245
O O1 0.750000 0.750000 0.476104
O O2 0.497381 0.811508 0.500804
O O3 0.570034 0.680358 0.564509
O O4 0.507136 0.690346 0.424640
O O5 0.226453 0.844994 0.086390
O O6 0.959013 0.886063 0.123558
O O7 0.126411 0.944513 0.005530
O O8 0.926946 0.567396 0.839787
O O9 0.097456 0.566864 0.960779
O O10 0.816026 0.553470 0.976448
O O11 0.764420 0.519934 0.383659
O O12 0.358131 0.698198 0.296744
O O13 0.579132 0.429179 0.650524
O O14 0.250000 0.991383 0.250000
O O15 0.967383 0.985521 0.225526
O O16 0.250000 0.096109 0.750000
#
# Coordination Sequence:
#
# PCOD9391679 Si02
#       8
#     8   8   8   8   2   8   8   8
#     4  12  27  42  64  98 136 177 233 288 344 410
#     4  12  23  44  69  95 134 190 230 277 345 441
#     4  11  22  43  69  96 136 183 232 290 346 412
#     4  11  22  42  71  97 134 179 233 291 340 415
#     4  12  20  36  62  92 140 172 214 256 328 448
#     4  12  22  41  63  93 131 186 224 259 342 430
#     4  12  23  42  70 101 134 182 224 285 358 417
#     4  12  25  39  65 109 141 163 229 295 348 403
#
# _framework density 19.946860000000001
#
# number of rings (size 3 to 8) (size 9 to 14) (size 15 to 20)
#    0.000    0.276    7.586    2.069    1.931    1.103 
#    0.000    0.345    0.000    2.897    0.000    0.000 
#    0.000    0.000    0.000    0.000    0.000    0.000 
#
# Total GULP energy -324202.269180 kJ/mol
# GULP energy per Si atom -5589.694296 kJ/mol
# Density = 1.990146 g / cm^3
# Si number density = 19.946860 Si / 1000 Ang^3
#
#
#
# Elastic Constant Matrix: (Units=GPa)
#
#
# Indices 1 2 3 4 5 6 
#
# 1 99.4064 49.0205 20.2019 0.0000 0.0000 0.0000
# 2 49.0205 90.1387 25.5823 0.0000 0.0000 0.0000
# 3 20.2019 25.5823 45.4172 0.0000 0.0000 0.0000
# 4 0.0000 0.0000 0.0000 35.3575 0.0000 0.0000
# 5 0.0000 0.0000 0.0000 0.0000 30.5573 0.0000
# 6 0.0000 0.0000 0.0000 0.0000 0.0000 31.5961
#
#
#
# Elastic Compliance Matrix: (Units=1/GPa)
#
#
# Indices 1 2 3 4 5 6 
#
# 1 0.013945 -0.006931 -0.002299 0.000000 0.000000 0.000000
# 2 -0.006931 0.016650 -0.006296 0.000000 0.000000 0.000000
# 3 -0.002299 -0.006296 0.026587 0.000000 0.000000 0.000000
# 4 0.000000 0.000000 0.000000 0.028283 0.000000 0.000000
# 5 0.000000 0.000000 0.000000 0.000000 0.032725 0.000000
# 6 0.000000 0.000000 0.000000 0.000000 0.000000 0.031649
#
#
# Mechanical properties :
#
#
# Convention : Reuss Voigt Hill
#
# Bulk Modulus (GPa) = 38.26887 47.17463 42.72175
# Shear Modulus (GPa) = 26.37124 28.84600 27.60862
#
# Velocity S-wave (km/s) = 3.63998 3.80694 3.72440
# Velocity P-wave (km/s) = 6.07396 6.55936 6.32132
#
# Compressibility (1/GPa) = 0.02613090
#
# Stress axis : x y z
#
# Youngs Moduli (GPa) = 71.71063 60.05909 37.61295
#
# Poissons Ratio (x) = 0.41629 0.08646
# Poissons Ratio (y) = 0.49705 0.23679
# Poissons Ratio (z) = 0.16483 0.37810
#
# Static dielectric constant tensor:
#      x y z
#    x 1.735700 0.000000 0.000000 
#    y 0.000000 1.734910 0.000000 
#    z 0.000000 0.000000 1.714440 
# 
# From -- ./inp_files/30489.got.cif
#   From: 2010.05.17/outbox.cif.g08.bks.cpg/sg48_16_cif.got.tgz:30489.got - 2010.06.03 20:39:00.
