data_PCOD9391159
_publ_section_title
;
Structure prediction by ZEFSAII (Michael W. Deem and Ramdas Pophale) SiO2 
 PCOD9391159
Probable space group: P N N N
;
_chemical_formula_sum "Si O2"
_cell_formula_units_Z 56
_cell_length_a 14.809524
_cell_length_b 11.433525
_cell_length_c 13.889994
_cell_angle_alpha 90.000000
_cell_angle_beta 90.000000
_cell_angle_gamma 90.000000
_cell_volume 2351.924108
_symmetry_space_group_name_H-M "P N N N"
_symmetry_group_IT_number 48
_space_group.IT_coordinate_system_code '2'
_symmetry_cell_setting 'orthorhombic'
loop_
_space_group_symop_operation_xyz
x,y,z
1/2-x,1/2-y,z
x,1/2-y,1/2-z
1/2-x,y,1/2-z
-x,-y,-z
1/2+x,1/2+y,-z
-x,1/2+y,1/2+z
1/2+x,-y,1/2+z
loop_
_atom_site_type_symbol
_atom_site_label
_atom_site_fract_x
_atom_site_fract_y
_atom_site_fract_z
Si Si1 0.147911 0.735139 0.441979
Si Si2 0.810181 0.575992 0.157437
Si Si3 0.721836 0.879618 0.940571
Si Si4 0.477502 0.870641 0.189405
Si Si5 0.360064 0.812469 0.847633
Si Si6 0.389524 0.490874 0.140482
Si Si7 0.933698 0.768528 0.643029
O O1 0.250000 0.750000 0.399990
O O2 0.084421 0.839798 0.402888
O O3 0.157530 0.742662 0.555692
O O4 0.101604 0.611013 0.418852
O O5 0.750000 0.611406 0.250000
O O6 0.813814 0.436720 0.150575
O O7 0.915869 0.612328 0.168188
O O8 0.766361 0.611032 0.055161
O O9 0.750000 0.750000 0.909826
O O10 0.617050 0.866527 0.918666
O O11 0.782449 0.964750 0.876230
O O12 0.470176 0.750000 0.250000
O O13 0.432094 0.971113 0.256838
O O14 0.337336 0.750000 0.750000
O O15 0.467758 0.819569 0.845063
O O16 0.432993 0.367088 0.105158
O O17 0.893055 0.750000 0.750000
#
# Coordination Sequence:
#
# PCOD9391159 Si02
#       7
#     8   8   8   8   8   8   8
#     4  11  25  42  70 103 145 189 238 304 359 448
#     4  12  28  46  72  99 140 198 245 305 372 441
#     4  10  24  43  70 108 140 186 243 300 363 446
#     4  10  24  45  70 107 142 188 238 304 369 445
#     4  11  26  44  66  99 140 187 246 301 368 436
#     4  10  23  44  67 106 140 185 233 293 378 429
#     4  10  22  43  70 102 142 185 234 301 358 444
#
# _framework density 23.810292
#
# number of rings (size 3 to 8) (size 9 to 14) (size 15 to 20)
#    0.000    1.429    0.000    3.429    6.000   12.571 
#    2.571    0.000    0.000    0.000    0.000    0.000 
#    0.000    0.000    0.000    0.000    0.000    0.000 
#
# Total GULP energy -312648.898878 kJ/mol
# GULP energy per Si atom -5583.016051 kJ/mol
# Density = 2.375610 g / cm^3
# Si number density = 23.810292 Si / 1000 Ang^3
#
#
#
# Elastic Constant Matrix: (Units=GPa)
#
#
# Indices 1 2 3 4 5 6 
#
# 1 133.4763 10.8571 44.3539 0.0000 0.0000 0.0000
# 2 10.8571 108.1616 18.9039 0.0000 0.0000 0.0000
# 3 44.3539 18.9039 99.8064 0.0000 0.0000 0.0000
# 4 0.0000 0.0000 0.0000 20.8016 0.0000 0.0000
# 5 0.0000 0.0000 0.0000 0.0000-5338.2823 0.0000
# 6 0.0000 0.0000 0.0000 0.0000 0.0000 47.5752
#
#
#
# Elastic Compliance Matrix: (Units=1/GPa)
#
#
# Indices 1 2 3 4 5 6 
#
# 1 0.008794 -0.000207 -0.003869 0.000000 0.000000 0.000000
# 2 -0.000207 0.009567 -0.001720 0.000000 0.000000 0.000000
# 3 -0.003869 -0.001720 0.012065 0.000000 0.000000 0.000000
# 4 0.000000 0.000000 0.000000 0.048073 0.000000 0.000000
# 5 0.000000 0.000000 0.000000 0.000000 -0.000187 0.000000
# 6 0.000000 0.000000 0.000000 0.000000 0.000000 0.021019
#
#
# Mechanical properties :
#
#
# Convention : Reuss Voigt Hill
#
# Bulk Modulus (GPa) = 53.09509 54.40823 53.75166
# Shear Modulus (GPa) = 42.66174 -1036.15914 -496.74870
#
# Velocity S-wave (km/s) = 4.23748 -20.88343 -14.45962
# Velocity P-wave (km/s) = 6.80362 23.63450 16.00469
#
# Compressibility (1/GPa) = 0.01883413
#
# Stress axis : x y z
#
# Youngs Moduli (GPa) = 113.70777 104.52811 82.88677
#
# Poissons Ratio (x) = 0.02159 0.32070
# Poissons Ratio (y) = 0.02349 0.14258
# Poissons Ratio (z) = 0.43995 0.17981
#
# Static dielectric constant tensor:
#      x y z
#    x 2.135080 0.000000 0.000000 
#    y 0.000000 1.915890 0.000000 
#    z 0.000000 0.000000 1.866780 
# 
# From -- ./inp_files/27309.got.cif
#   From: 2010.05.17/outbox.cif.g08.bks.cpg/sg48_14_cif.got.tgz:27309.got - 2010.06.03 20:39:00.
